MODEL 1
REMARK minimizedAffinity 2.71574712
REMARK minimizedRMSD -1
REMARK  0 active torsions:
REMARK  status: ('A' for Active; 'I' for Inactive)
ROOT
ATOM      1  C1  BNZ d   1       0.605  -0.529  -2.237  0.00  0.00     0.000 A 
ATOM      2  C2  BNZ d   1       0.379  -1.280  -1.115  0.00  0.00     0.000 A 
ATOM      3  C3  BNZ d   1      -0.106  -2.554  -1.212  0.00  0.00     0.000 A 
ATOM      4  C4  BNZ d   1      -0.401  -3.061  -2.426  0.00  0.00     0.000 A 
ATOM      5  C5  BNZ d   1      -0.188  -2.312  -3.567  0.00  0.00     0.000 A 
ATOM      6  C6  BNZ d   1       0.337  -1.044  -3.468  0.00  0.00     0.000 A 
ENDROOT
TORSDOF 0
ENDMDL
