MODEL 1
REMARK minimizedAffinity 1.54633617
REMARK minimizedRMSD -1
REMARK  0 active torsions:
REMARK  status: ('A' for Active; 'I' for Inactive)
ROOT
ATOM      1  C1  BNZ d   1       0.014  -2.683  -0.642  0.00  0.00     0.000 A 
ATOM      2  C2  BNZ d   1       0.161  -1.479  -1.279  0.00  0.00     0.000 A 
ATOM      3  C3  BNZ d   1      -0.391  -0.342  -0.760  0.00  0.00     0.000 A 
ATOM      4  C4  BNZ d   1      -1.121  -0.415   0.371  0.00  0.00     0.000 A 
ATOM      5  C5  BNZ d   1      -1.286  -1.623   1.020  0.00  0.00     0.000 A 
ATOM      6  C6  BNZ d   1      -0.697  -2.760   0.516  0.00  0.00     0.000 A 
ENDROOT
TORSDOF 0
ENDMDL
