MODEL 1
REMARK minimizedAffinity 3.11876512
REMARK minimizedRMSD -1
REMARK  0 active torsions:
REMARK  status: ('A' for Active; 'I' for Inactive)
ROOT
ATOM      1  C1  BNZ d   1      -3.653   5.110  -0.682  0.00  0.00     0.000 A 
ATOM      2  C2  BNZ d   1      -2.894   5.468   0.401  0.00  0.00     0.000 A 
ATOM      3  C3  BNZ d   1      -2.104   4.552   1.036  0.00  0.00     0.000 A 
ATOM      4  C4  BNZ d   1      -2.104   3.271   0.614  0.00  0.00     0.000 A 
ATOM      5  C5  BNZ d   1      -2.870   2.892  -0.470  0.00  0.00     0.000 A 
ATOM      6  C6  BNZ d   1      -3.634   3.826  -1.131  0.00  0.00     0.000 A 
ENDROOT
TORSDOF 0
ENDMDL
