MODEL 1
REMARK minimizedAffinity 2.26676059
REMARK minimizedRMSD -1
REMARK  0 active torsions:
REMARK  status: ('A' for Active; 'I' for Inactive)
ROOT
ATOM      1  C1  BNZ d   1       2.674   1.161  -0.336  0.00  0.00     0.000 A 
ATOM      2  C2  BNZ d   1       1.494   1.143  -1.030  0.00  0.00     0.000 A 
ATOM      3  C3  BNZ d   1       1.193   0.109  -1.871  0.00  0.00     0.000 A 
ATOM      4  C4  BNZ d   1       2.088  -0.884  -2.048  0.00  0.00     0.000 A 
ATOM      5  C5  BNZ d   1       3.286  -0.876  -1.362  0.00  0.00     0.000 A 
ATOM      6  C6  BNZ d   1       3.569   0.147  -0.487  0.00  0.00     0.000 A 
ENDROOT
TORSDOF 0
ENDMDL
