MODEL 1
REMARK minimizedAffinity 1.11752975
REMARK minimizedRMSD -1
REMARK  0 active torsions:
REMARK  status: ('A' for Active; 'I' for Inactive)
ROOT
ATOM      1  C1  BNZ d   1       4.913  -3.382   4.667  0.00  0.00     0.000 A 
ATOM      2  C2  BNZ d   1       4.153  -4.372   4.103  0.00  0.00     0.000 A 
ATOM      3  C3  BNZ d   1       4.292  -5.673   4.499  0.00  0.00     0.000 A 
ATOM      4  C4  BNZ d   1       5.217  -5.987   5.428  0.00  0.00     0.000 A 
ATOM      5  C5  BNZ d   1       5.997  -5.002   6.000  0.00  0.00     0.000 A 
ATOM      6  C6  BNZ d   1       5.827  -3.688   5.627  0.00  0.00     0.000 A 
ENDROOT
TORSDOF 0
ENDMDL
