MODEL 1
REMARK minimizedAffinity 5.36323786
REMARK minimizedRMSD -1
REMARK  0 active torsions:
REMARK  status: ('A' for Active; 'I' for Inactive)
ROOT
ATOM      1  C1  BNZ d   1       1.041  -1.002  -3.580  0.00  0.00     0.000 A 
ATOM      2  C2  BNZ d   1       0.458  -2.223  -3.786  0.00  0.00     0.000 A 
ATOM      3  C3  BNZ d   1      -0.187  -2.872  -2.771  0.00  0.00     0.000 A 
ATOM      4  C4  BNZ d   1      -0.214  -2.318  -1.542  0.00  0.00     0.000 A 
ATOM      5  C5  BNZ d   1       0.378  -1.091  -1.315  0.00  0.00     0.000 A 
ATOM      6  C6  BNZ d   1       0.993  -0.423  -2.349  0.00  0.00     0.000 A 
ENDROOT
TORSDOF 0
ENDMDL
