MODEL 1
REMARK minimizedAffinity 11.7563572
REMARK minimizedRMSD -1
REMARK  0 active torsions:
REMARK  status: ('A' for Active; 'I' for Inactive)
ROOT
ATOM      1  C1  BNZ d   1       3.270   0.954  -0.280  0.00  0.00     0.000 A 
ATOM      2  C2  BNZ d   1       2.156   1.141  -1.054  0.00  0.00     0.000 A 
ATOM      3  C3  BNZ d   1       1.373   0.082  -1.421  0.00  0.00     0.000 A 
ATOM      4  C4  BNZ d   1       1.727  -1.165  -1.049  0.00  0.00     0.000 A 
ATOM      5  C5  BNZ d   1       2.852  -1.371  -0.276  0.00  0.00     0.000 A 
ATOM      6  C6  BNZ d   1       3.616  -0.298   0.124  0.00  0.00     0.000 A 
ENDROOT
TORSDOF 0
ENDMDL
