MODEL 1
REMARK minimizedAffinity -0.745696783
REMARK minimizedRMSD -1
REMARK  0 active torsions:
REMARK  status: ('A' for Active; 'I' for Inactive)
ROOT
ATOM      1  C1  BNZ d   1      -3.136  -2.352   0.022  0.00  0.00     0.000 A 
ATOM      2  C2  BNZ d   1      -2.729  -1.050  -0.089  0.00  0.00     0.000 A 
ATOM      3  C3  BNZ d   1      -1.520  -0.650   0.408  0.00  0.00     0.000 A 
ATOM      4  C4  BNZ d   1      -0.739  -1.542   1.049  0.00  0.00     0.000 A 
ATOM      5  C5  BNZ d   1      -1.140  -2.857   1.178  0.00  0.00     0.000 A 
ATOM      6  C6  BNZ d   1      -2.340  -3.265   0.642  0.00  0.00     0.000 A 
ENDROOT
TORSDOF 0
ENDMDL
