MODEL 1
REMARK minimizedAffinity -3.08641696
REMARK minimizedRMSD -1
REMARK  0 active torsions:
REMARK  status: ('A' for Active; 'I' for Inactive)
ROOT
ATOM      1  C1  BNZ d   1      -3.768   5.020  -1.458  0.00  0.00     0.000 A 
ATOM      2  C2  BNZ d   1      -2.870   4.032  -1.155  0.00  0.00     0.000 A 
ATOM      3  C3  BNZ d   1      -2.239   4.008   0.058  0.00  0.00     0.000 A 
ATOM      4  C4  BNZ d   1      -2.477   4.992   0.949  0.00  0.00     0.000 A 
ATOM      5  C5  BNZ d   1      -3.373   6.000   0.654  0.00  0.00     0.000 A 
ATOM      6  C6  BNZ d   1      -4.035   6.000  -0.552  0.00  0.00     0.000 A 
ENDROOT
TORSDOF 0
ENDMDL
