MODEL 1
REMARK minimizedAffinity 2.98590565
REMARK minimizedRMSD -1
REMARK  0 active torsions:
REMARK  status: ('A' for Active; 'I' for Inactive)
ROOT
ATOM      1  C1  BNZ d   1       5.160  -3.264   5.136  0.00  0.00     0.000 A 
ATOM      2  C2  BNZ d   1       4.365  -3.955   4.260  0.00  0.00     0.000 A 
ATOM      3  C3  BNZ d   1       4.362  -5.322   4.246  0.00  0.00     0.000 A 
ATOM      4  C4  BNZ d   1       5.182  -5.995   5.078  0.00  0.00     0.000 A 
ATOM      5  C5  BNZ d   1       5.997  -5.313   5.961  0.00  0.00     0.000 A 
ATOM      6  C6  BNZ d   1       5.968  -3.938   5.999  0.00  0.00     0.000 A 
ENDROOT
TORSDOF 0
ENDMDL
