MODEL 1
REMARK minimizedAffinity 3.49100327
REMARK minimizedRMSD -1
REMARK  0 active torsions:
REMARK  status: ('A' for Active; 'I' for Inactive)
ROOT
ATOM      1  C   UNL d   1      -3.950  -0.384  -4.113  0.00  0.00     0.077 C 
ATOM      2  C1  UNL d   1      -3.752   0.864  -3.306  0.00  0.00    -0.074 A 
ATOM      3  C2  UNL d   1      -4.067   2.120  -3.835  0.00  0.00    -0.005 A 
ATOM      4  C3  UNL d   1      -3.886   3.271  -3.069  0.00  0.00     0.006 A 
ATOM      5  C4  UNL d   1      -3.391   3.179  -1.768  0.00  0.00    -0.005 A 
ATOM      6  C5  UNL d   1      -3.072   1.932  -1.221  0.00  0.00    -0.074 A 
ATOM      7  C6  UNL d   1      -2.547   1.814   0.179  0.00  0.00     0.077 C 
ATOM      8  C7  UNL d   1      -3.262   0.779  -1.995  0.00  0.00    -0.001 A 
ENDROOT
TORSDOF 0
ENDMDL
