MODEL 1
REMARK minimizedAffinity 7.11951447
REMARK minimizedRMSD -1
REMARK  0 active torsions:
REMARK  status: ('A' for Active; 'I' for Inactive)
ROOT
ATOM      1  C   UNL d   1       5.762   5.836  -5.743  0.00  0.00     0.077 C 
ATOM      2  C1  UNL d   1       4.914   5.900  -4.508  0.00  0.00    -0.074 A 
ATOM      3  C2  UNL d   1       3.519   5.920  -4.593  0.00  0.00    -0.005 A 
ATOM      4  C3  UNL d   1       2.743   5.970  -3.435  0.00  0.00     0.006 A 
ATOM      5  C4  UNL d   1       3.355   6.000  -2.181  0.00  0.00    -0.005 A 
ATOM      6  C5  UNL d   1       4.749   5.978  -2.076  0.00  0.00    -0.074 A 
ATOM      7  C6  UNL d   1       5.422   5.999  -0.735  0.00  0.00     0.077 C 
ATOM      8  C7  UNL d   1       5.521   5.921  -3.244  0.00  0.00    -0.001 A 
ENDROOT
TORSDOF 0
ENDMDL
