MODEL 1
REMARK minimizedAffinity 10.3419981
REMARK minimizedRMSD -1
REMARK  0 active torsions:
REMARK  status: ('A' for Active; 'I' for Inactive)
ROOT
ATOM      1  C   UNL d   1      -6.000   3.562  -1.140  0.00  0.00     0.077 C 
ATOM      2  C1  UNL d   1      -4.718   2.820  -1.373  0.00  0.00    -0.074 A 
ATOM      3  C2  UNL d   1      -3.582   3.086  -0.601  0.00  0.00    -0.005 A 
ATOM      4  C3  UNL d   1      -2.400   2.381  -0.824  0.00  0.00     0.006 A 
ATOM      5  C4  UNL d   1      -2.340   1.404  -1.818  0.00  0.00    -0.005 A 
ATOM      6  C5  UNL d   1      -3.466   1.123  -2.599  0.00  0.00    -0.074 A 
ATOM      7  C6  UNL d   1      -3.422   0.070  -3.666  0.00  0.00     0.077 C 
ATOM      8  C7  UNL d   1      -4.653   1.831  -2.365  0.00  0.00    -0.001 A 
ENDROOT
TORSDOF 0
ENDMDL
