MODEL 1
REMARK minimizedAffinity 0.764693379
REMARK minimizedRMSD -1
REMARK  0 active torsions:
REMARK  status: ('A' for Active; 'I' for Inactive)
ROOT
ATOM      1  C   UNL d   1       3.180  -5.998  -0.858  0.00  0.00     0.077 C 
ATOM      2  C1  UNL d   1       3.274  -5.968  -2.354  0.00  0.00    -0.074 A 
ATOM      3  C2  UNL d   1       2.123  -5.895  -3.145  0.00  0.00    -0.005 A 
ATOM      4  C3  UNL d   1       2.227  -5.858  -4.536  0.00  0.00     0.006 A 
ATOM      5  C4  UNL d   1       3.480  -5.895  -5.148  0.00  0.00    -0.005 A 
ATOM      6  C5  UNL d   1       4.642  -5.968  -4.373  0.00  0.00    -0.074 A 
ATOM      7  C6  UNL d   1       5.997  -5.999  -5.015  0.00  0.00     0.077 C 
ATOM      8  C7  UNL d   1       4.530  -5.997  -2.977  0.00  0.00    -0.001 A 
ENDROOT
TORSDOF 0
ENDMDL
