MODEL 1
REMARK minimizedAffinity 14.284626
REMARK minimizedRMSD -1
REMARK  0 active torsions:
REMARK  status: ('A' for Active; 'I' for Inactive)
ROOT
ATOM      1  C   UNL d   1      -1.668  -0.028   0.895  0.00  0.00     0.077 C 
ATOM      2  C1  UNL d   1      -2.343   0.893  -0.078  0.00  0.00    -0.074 A 
ATOM      3  C2  UNL d   1      -2.739   2.178   0.305  0.00  0.00    -0.005 A 
ATOM      4  C3  UNL d   1      -3.357   3.027  -0.613  0.00  0.00     0.006 A 
ATOM      5  C4  UNL d   1      -3.585   2.600  -1.922  0.00  0.00    -0.005 A 
ATOM      6  C5  UNL d   1      -3.195   1.318  -2.324  0.00  0.00    -0.074 A 
ATOM      7  C6  UNL d   1      -3.424   0.846  -3.729  0.00  0.00     0.077 C 
ATOM      8  C7  UNL d   1      -2.568   0.474  -1.397  0.00  0.00    -0.001 A 
ENDROOT
TORSDOF 0
ENDMDL
