MODEL 1
REMARK minimizedAffinity 1.38972104
REMARK minimizedRMSD -1
REMARK  0 active torsions:
REMARK  status: ('A' for Active; 'I' for Inactive)
ROOT
ATOM      1  C   UNL d   1       1.869  -1.497   2.761  0.00  0.00     0.077 C 
ATOM      2  C1  UNL d   1       2.505  -2.608   3.541  0.00  0.00    -0.074 A 
ATOM      3  C2  UNL d   1       1.738  -3.666   4.041  0.00  0.00    -0.005 A 
ATOM      4  C3  UNL d   1       2.345  -4.698   4.757  0.00  0.00     0.006 A 
ATOM      5  C4  UNL d   1       3.723  -4.682   4.980  0.00  0.00    -0.005 A 
ATOM      6  C5  UNL d   1       4.505  -3.633   4.488  0.00  0.00    -0.074 A 
ATOM      7  C6  UNL d   1       5.988  -3.606   4.711  0.00  0.00     0.077 C 
ATOM      8  C7  UNL d   1       3.889  -2.604   3.763  0.00  0.00    -0.001 A 
ENDROOT
TORSDOF 0
ENDMDL
