MODEL 1
REMARK minimizedAffinity 0.258442998
REMARK minimizedRMSD -1
REMARK  0 active torsions:
REMARK  status: ('A' for Active; 'I' for Inactive)
ROOT
ATOM      1  C   UNL d   1       0.885  -1.844   2.633  0.00  0.00     0.077 C 
ATOM      2  C1  UNL d   1       1.882  -0.996   1.899  0.00  0.00    -0.074 A 
ATOM      3  C2  UNL d   1       2.535   0.062   2.539  0.00  0.00    -0.005 A 
ATOM      4  C3  UNL d   1       3.466   0.835   1.847  0.00  0.00     0.006 A 
ATOM      5  C4  UNL d   1       3.754   0.559   0.510  0.00  0.00    -0.005 A 
ATOM      6  C5  UNL d   1       3.112  -0.496  -0.146  0.00  0.00    -0.074 A 
ATOM      7  C6  UNL d   1       3.417  -0.813  -1.580  0.00  0.00     0.077 C 
ATOM      8  C7  UNL d   1       2.182  -1.273   0.558  0.00  0.00    -0.001 A 
ENDROOT
TORSDOF 0
ENDMDL
