MODEL 1
REMARK minimizedAffinity 8.06545925
REMARK minimizedRMSD -1
REMARK  0 active torsions:
REMARK  status: ('A' for Active; 'I' for Inactive)
ROOT
ATOM      1  C   UNL d   1       5.060  -3.380   4.413  0.00  0.00     0.077 C 
ATOM      2  C1  UNL d   1       3.636  -3.145   4.005  0.00  0.00    -0.074 A 
ATOM      3  C2  UNL d   1       2.627  -4.042   4.367  0.00  0.00    -0.005 A 
ATOM      4  C3  UNL d   1       1.306  -3.804   3.989  0.00  0.00     0.006 A 
ATOM      5  C4  UNL d   1       0.981  -2.669   3.245  0.00  0.00    -0.005 A 
ATOM      6  C5  UNL d   1       1.977  -1.760   2.875  0.00  0.00    -0.074 A 
ATOM      7  C6  UNL d   1       1.644  -0.529   2.084  0.00  0.00     0.077 C 
ATOM      8  C7  UNL d   1       3.301  -2.002   3.265  0.00  0.00    -0.001 A 
ENDROOT
TORSDOF 0
ENDMDL
