MODEL 1
REMARK minimizedAffinity 6.03359652
REMARK minimizedRMSD -1
REMARK  0 active torsions:
REMARK  status: ('A' for Active; 'I' for Inactive)
ROOT
ATOM      1  C   UNL d   1       1.762  -0.512  -1.571  0.00  0.00     0.077 C 
ATOM      2  C1  UNL d   1       2.003  -0.154  -0.135  0.00  0.00    -0.074 A 
ATOM      3  C2  UNL d   1       2.314   1.158   0.237  0.00  0.00    -0.005 A 
ATOM      4  C3  UNL d   1       2.526   1.478   1.578  0.00  0.00     0.006 A 
ATOM      5  C4  UNL d   1       2.430   0.491   2.559  0.00  0.00    -0.005 A 
ATOM      6  C5  UNL d   1       2.120  -0.827   2.207  0.00  0.00    -0.074 A 
ATOM      7  C6  UNL d   1       2.003  -1.898   3.250  0.00  0.00     0.077 C 
ATOM      8  C7  UNL d   1       1.901  -1.139   0.858  0.00  0.00    -0.001 A 
ENDROOT
TORSDOF 0
ENDMDL
