MODEL 1
REMARK minimizedAffinity 4.51663828
REMARK minimizedRMSD -1
REMARK  2 active torsions:
REMARK  status: ('A' for Active; 'I' for Inactive)
REMARK    1  A    between atoms: C2'_3  and  C1'_4 
REMARK    2  A    between atoms: C1'_4  and  C1_5 
ROOT
ATOM      1  C1  I4B d   1      -2.005  -1.884   1.098  0.00  0.00    -0.075 A 
ATOM      2  C2  I4B d   1      -1.993  -3.057   1.811  0.00  0.00     0.003 A 
ATOM      3  C3  I4B d   1      -2.985  -4.041   1.580  0.00  0.00     0.002 A 
ATOM      4  C4  I4B d   1      -3.992  -3.791   0.670  0.00  0.00    -0.004 A 
ATOM      5  C5  I4B d   1      -3.989  -2.611  -0.068  0.00  0.00     0.002 A 
ATOM      6  C6  I4B d   1      -2.983  -1.656   0.138  0.00  0.00     0.003 A 
ENDROOT
BRANCH   1   7
ATOM      7  C1' I4B d   1      -0.962  -0.852   1.391  0.00  0.00     0.060 C 
BRANCH   7   8
ATOM      8  C2' I4B d   1      -1.473   0.483   0.890  0.00  0.00    -0.013 C 
ATOM      9  C4' I4B d   1      -1.396   1.535   1.966  0.00  0.00     0.013 C 
ATOM     10  C3' I4B d   1      -0.656   0.872  -0.306  0.00  0.00     0.013 C 
ENDBRANCH   7   8
ENDBRANCH   1   7
TORSDOF 2
ENDMDL
