MODEL 1
REMARK minimizedAffinity 6.73745203
REMARK minimizedRMSD -1
REMARK  2 active torsions:
REMARK  status: ('A' for Active; 'I' for Inactive)
REMARK    1  A    between atoms: C2'_3  and  C1'_4 
REMARK    2  A    between atoms: C1'_4  and  C1_5 
ROOT
ATOM      1  C1  I4B d   1      -0.914   1.778   2.284  0.00  0.00    -0.075 A 
ATOM      2  C2  I4B d   1       0.411   2.123   2.380  0.00  0.00     0.003 A 
ATOM      3  C3  I4B d   1       0.792   3.299   3.071  0.00  0.00     0.002 A 
ATOM      4  C4  I4B d   1      -0.180   4.121   3.602  0.00  0.00    -0.004 A 
ATOM      5  C5  I4B d   1      -1.521   3.757   3.523  0.00  0.00     0.002 A 
ATOM      6  C6  I4B d   1      -1.891   2.572   2.871  0.00  0.00     0.003 A 
ENDROOT
BRANCH   1   7
ATOM      7  C1' I4B d   1      -1.284   0.547   1.519  0.00  0.00     0.060 C 
BRANCH   7   8
ATOM      8  C2' I4B d   1      -0.538   0.574   0.201  0.00  0.00    -0.013 C 
ATOM      9  C4' I4B d   1       0.597  -0.416   0.196  0.00  0.00     0.013 C 
ATOM     10  C3' I4B d   1      -1.519   0.278  -0.894  0.00  0.00     0.013 C 
ENDBRANCH   7   8
ENDBRANCH   1   7
TORSDOF 2
ENDMDL
