MODEL 1
REMARK minimizedAffinity 5.28328371
REMARK minimizedRMSD -1
REMARK  2 active torsions:
REMARK  status: ('A' for Active; 'I' for Inactive)
REMARK    1  A    between atoms: C2'_3  and  C1'_4 
REMARK    2  A    between atoms: C1'_4  and  C1_5 
ROOT
ATOM      1  C1  I4B d   1       0.494  -0.471  -0.267  0.00  0.00    -0.075 A 
ATOM      2  C2  I4B d   1      -0.870  -0.617  -0.322  0.00  0.00     0.003 A 
ATOM      3  C3  I4B d   1      -1.708   0.217   0.459  0.00  0.00     0.002 A 
ATOM      4  C4  I4B d   1      -1.141   1.141   1.312  0.00  0.00    -0.004 A 
ATOM      5  C5  I4B d   1       0.241   1.303   1.349  0.00  0.00     0.002 A 
ATOM      6  C6  I4B d   1       1.063   0.500   0.545  0.00  0.00     0.003 A 
ENDROOT
BRANCH   1   7
ATOM      7  C1' I4B d   1       1.349  -1.390  -1.080  0.00  0.00     0.060 C 
BRANCH   7   8
ATOM      8  C2' I4B d   1       1.168  -1.028  -2.540  0.00  0.00    -0.013 C 
ATOM      9  C4' I4B d   1       2.494  -0.785  -3.210  0.00  0.00     0.013 C 
ATOM     10  C3' I4B d   1       0.422  -2.146  -3.205  0.00  0.00     0.013 C 
ENDBRANCH   7   8
ENDBRANCH   1   7
TORSDOF 2
ENDMDL
