MODEL 1
REMARK minimizedAffinity 7.06249571
REMARK minimizedRMSD -1
REMARK  2 active torsions:
REMARK  status: ('A' for Active; 'I' for Inactive)
REMARK    1  A    between atoms: C2'_3  and  C1'_4 
REMARK    2  A    between atoms: C1'_4  and  C1_5 
ROOT
ATOM      1  C1  I4B d   1       1.261   0.440   1.511  0.00  0.00    -0.075 A 
ATOM      2  C2  I4B d   1       2.225  -0.536   1.544  0.00  0.00     0.003 A 
ATOM      3  C3  I4B d   1       3.533  -0.232   1.992  0.00  0.00     0.002 A 
ATOM      4  C4  I4B d   1       3.845   1.065   2.347  0.00  0.00    -0.004 A 
ATOM      5  C5  I4B d   1       2.861   2.048   2.335  0.00  0.00     0.002 A 
ATOM      6  C6  I4B d   1       1.557   1.732   1.926  0.00  0.00     0.003 A 
ENDROOT
BRANCH   1   7
ATOM      7  C1' I4B d   1      -0.101   0.091   1.001  0.00  0.00     0.060 C 
BRANCH   7   8
ATOM      8  C2' I4B d   1      -1.035  -0.002   2.190  0.00  0.00    -0.013 C 
ATOM      9  C4' I4B d   1      -2.046   1.114   2.179  0.00  0.00     0.013 C 
ATOM     10  C3' I4B d   1      -1.707  -1.342   2.147  0.00  0.00     0.013 C 
ENDBRANCH   7   8
ENDBRANCH   1   7
TORSDOF 2
ENDMDL
