MODEL 1
REMARK minimizedAffinity 9.13403511
REMARK minimizedRMSD -1
REMARK  2 active torsions:
REMARK  status: ('A' for Active; 'I' for Inactive)
REMARK    1  A    between atoms: C2'_3  and  C1'_4 
REMARK    2  A    between atoms: C1'_4  and  C1_5 
ROOT
ATOM      1  C1  I4B d   1      -1.378  -0.401  -0.253  0.00  0.00    -0.075 A 
ATOM      2  C2  I4B d   1      -0.313   0.392   0.093  0.00  0.00     0.003 A 
ATOM      3  C3  I4B d   1       0.191   0.371   1.417  0.00  0.00     0.002 A 
ATOM      4  C4  I4B d   1      -0.428  -0.414   2.367  0.00  0.00    -0.004 A 
ATOM      5  C5  I4B d   1      -1.494  -1.235   2.009  0.00  0.00     0.002 A 
ATOM      6  C6  I4B d   1      -1.964  -1.238   0.688  0.00  0.00     0.003 A 
ENDROOT
BRANCH   1   7
ATOM      7  C1' I4B d   1      -1.906  -0.330  -1.651  0.00  0.00     0.060 C 
BRANCH   7   8
ATOM      8  C2' I4B d   1      -2.973  -1.395  -1.802  0.00  0.00    -0.013 C 
ATOM      9  C4' I4B d   1      -4.327  -0.780  -2.038  0.00  0.00     0.013 C 
ATOM     10  C3' I4B d   1      -2.578  -2.288  -2.940  0.00  0.00     0.013 C 
ENDBRANCH   7   8
ENDBRANCH   1   7
TORSDOF 2
ENDMDL
