MODEL 1
REMARK minimizedAffinity 9.48741055
REMARK minimizedRMSD -1
REMARK  2 active torsions:
REMARK  status: ('A' for Active; 'I' for Inactive)
REMARK    1  A    between atoms: C2'_3  and  C1'_4 
REMARK    2  A    between atoms: C1'_4  and  C1_5 
ROOT
ATOM      1  C1  I4B d   1       0.153  -1.926  -4.273  0.00  0.00    -0.075 A 
ATOM      2  C2  I4B d   1      -0.381  -3.165  -4.522  0.00  0.00     0.003 A 
ATOM      3  C3  I4B d   1      -1.743  -3.425  -4.234  0.00  0.00     0.002 A 
ATOM      4  C4  I4B d   1      -2.515  -2.439  -3.655  0.00  0.00    -0.004 A 
ATOM      5  C5  I4B d   1      -1.978  -1.176  -3.424  0.00  0.00     0.002 A 
ATOM      6  C6  I4B d   1      -0.638  -0.914  -3.747  0.00  0.00     0.003 A 
ENDROOT
BRANCH   1   7
ATOM      7  C1' I4B d   1       1.604  -1.696  -4.559  0.00  0.00     0.060 C 
BRANCH   7   8
ATOM      8  C2' I4B d   1       2.047  -0.479  -3.773  0.00  0.00    -0.013 C 
ATOM      9  C4' I4B d   1       2.208  -0.802  -2.311  0.00  0.00     0.013 C 
ATOM     10  C3' I4B d   1       3.335   0.010  -4.365  0.00  0.00     0.013 C 
ENDBRANCH   7   8
ENDBRANCH   1   7
TORSDOF 2
ENDMDL
