MODEL 1
REMARK minimizedAffinity 9.24035645
REMARK minimizedRMSD -1
REMARK  2 active torsions:
REMARK  status: ('A' for Active; 'I' for Inactive)
REMARK    1  A    between atoms: C2'_3  and  C1'_4 
REMARK    2  A    between atoms: C1'_4  and  C1_5 
ROOT
ATOM      1  C1  I4B d   1      -0.941  -2.549   2.019  0.00  0.00    -0.075 A 
ATOM      2  C2  I4B d   1      -0.411  -1.811   0.990  0.00  0.00     0.003 A 
ATOM      3  C3  I4B d   1      -0.271  -0.407   1.119  0.00  0.00     0.002 A 
ATOM      4  C4  I4B d   1      -0.718   0.218   2.265  0.00  0.00    -0.004 A 
ATOM      5  C5  I4B d   1      -1.234  -0.535   3.316  0.00  0.00     0.002 A 
ATOM      6  C6  I4B d   1      -1.335  -1.928   3.198  0.00  0.00     0.003 A 
ENDROOT
BRANCH   1   7
ATOM      7  C1' I4B d   1      -1.105  -4.025   1.837  0.00  0.00     0.060 C 
BRANCH   7   8
ATOM      8  C2' I4B d   1      -0.197  -4.721   2.830  0.00  0.00    -0.013 C 
ATOM      9  C4' I4B d   1      -0.962  -5.716   3.663  0.00  0.00     0.013 C 
ATOM     10  C3' I4B d   1       0.903  -5.390   2.062  0.00  0.00     0.013 C 
ENDBRANCH   7   8
ENDBRANCH   1   7
TORSDOF 2
ENDMDL
