MODEL 1
REMARK minimizedAffinity 10.0733032
REMARK minimizedRMSD -1
REMARK  2 active torsions:
REMARK  status: ('A' for Active; 'I' for Inactive)
REMARK    1  A    between atoms: C2'_3  and  C1'_4 
REMARK    2  A    between atoms: C1'_4  and  C1_5 
ROOT
ATOM      1  C1  I4B d   1      -0.089  -5.952   3.686  0.00  0.00    -0.075 A 
ATOM      2  C2  I4B d   1       0.375  -5.924   4.978  0.00  0.00     0.003 A 
ATOM      3  C3  I4B d   1       1.767  -5.913   5.236  0.00  0.00     0.002 A 
ATOM      4  C4  I4B d   1       2.654  -5.981   4.180  0.00  0.00    -0.004 A 
ATOM      5  C5  I4B d   1       2.183  -5.986   2.871  0.00  0.00     0.002 A 
ATOM      6  C6  I4B d   1       0.803  -5.959   2.621  0.00  0.00     0.003 A 
ENDROOT
BRANCH   1   7
ATOM      7  C1' I4B d   1      -1.565  -5.996   3.451  0.00  0.00     0.060 C 
BRANCH   7   8
ATOM      8  C2' I4B d   1      -1.830  -5.487   2.049  0.00  0.00    -0.013 C 
ATOM      9  C4' I4B d   1      -3.197  -5.898   1.569  0.00  0.00     0.013 C 
ATOM     10  C3' I4B d   1      -1.689  -3.994   2.065  0.00  0.00     0.013 C 
ENDBRANCH   7   8
ENDBRANCH   1   7
TORSDOF 2
ENDMDL
