MODEL 1
REMARK minimizedAffinity 9.21137905
REMARK minimizedRMSD -1
REMARK  2 active torsions:
REMARK  status: ('A' for Active; 'I' for Inactive)
REMARK    1  A    between atoms: C2'_3  and  C1'_4 
REMARK    2  A    between atoms: C1'_4  and  C1_5 
ROOT
ATOM      1  C1  I4B d   1      -2.127  -2.625  -3.643  0.00  0.00    -0.075 A 
ATOM      2  C2  I4B d   1      -2.195  -1.708  -2.624  0.00  0.00     0.003 A 
ATOM      3  C3  I4B d   1      -3.437  -1.129  -2.268  0.00  0.00     0.002 A 
ATOM      4  C4  I4B d   1      -4.570  -1.456  -2.985  0.00  0.00    -0.004 A 
ATOM      5  C5  I4B d   1      -4.503  -2.403  -4.003  0.00  0.00     0.002 A 
ATOM      6  C6  I4B d   1      -3.276  -3.001  -4.326  0.00  0.00     0.003 A 
ENDROOT
BRANCH   1   7
ATOM      7  C1' I4B d   1      -0.793  -3.192  -4.014  0.00  0.00     0.060 C 
BRANCH   7   8
ATOM      8  C2' I4B d   1       0.054  -2.066  -4.572  0.00  0.00    -0.013 C 
ATOM      9  C4' I4B d   1       1.309  -1.876  -3.762  0.00  0.00     0.013 C 
ATOM     10  C3' I4B d   1       0.375  -2.392  -6.000  0.00  0.00     0.013 C 
ENDBRANCH   7   8
ENDBRANCH   1   7
TORSDOF 2
ENDMDL
