MODEL 1
REMARK minimizedAffinity 10.687953
REMARK minimizedRMSD -1
REMARK  2 active torsions:
REMARK  status: ('A' for Active; 'I' for Inactive)
REMARK    1  A    between atoms: C2'_3  and  C1'_4 
REMARK    2  A    between atoms: C1'_4  and  C1_5 
ROOT
ATOM      1  C1  I4B d   1      -0.837  -5.976   2.363  0.00  0.00    -0.075 A 
ATOM      2  C2  I4B d   1       0.458  -5.941   1.909  0.00  0.00     0.003 A 
ATOM      3  C3  I4B d   1       1.535  -5.913   2.828  0.00  0.00     0.002 A 
ATOM      4  C4  I4B d   1       1.271  -5.871   4.182  0.00  0.00    -0.004 A 
ATOM      5  C5  I4B d   1      -0.041  -5.930   4.641  0.00  0.00     0.002 A 
ATOM      6  C6  I4B d   1      -1.102  -5.995   3.726  0.00  0.00     0.003 A 
ENDROOT
BRANCH   1   7
ATOM      7  C1' I4B d   1      -1.951  -5.972   1.365  0.00  0.00     0.060 C 
BRANCH   7   8
ATOM      8  C2' I4B d   1      -3.082  -5.138   1.931  0.00  0.00    -0.013 C 
ATOM      9  C4' I4B d   1      -3.283  -3.877   1.132  0.00  0.00     0.013 C 
ATOM     10  C3' I4B d   1      -4.323  -5.981   1.933  0.00  0.00     0.013 C 
ENDBRANCH   7   8
ENDBRANCH   1   7
TORSDOF 2
ENDMDL
