MODEL 1
REMARK minimizedAffinity 5.18853664
REMARK minimizedRMSD -1
REMARK  2 active torsions:
REMARK  status: ('A' for Active; 'I' for Inactive)
REMARK    1  A    between atoms: C2'_3  and  C1'_4 
REMARK    2  A    between atoms: C1'_4  and  C1_5 
ROOT
ATOM      1  C1  I4B d   1      -0.286  -5.978   1.731  0.00  0.00    -0.075 A 
ATOM      2  C2  I4B d   1       1.086  -5.946   1.685  0.00  0.00     0.003 A 
ATOM      3  C3  I4B d   1       1.838  -5.915   2.884  0.00  0.00     0.002 A 
ATOM      4  C4  I4B d   1       1.183  -5.866   4.097  0.00  0.00    -0.004 A 
ATOM      5  C5  I4B d   1      -0.207  -5.922   4.142  0.00  0.00     0.002 A 
ATOM      6  C6  I4B d   1      -0.946  -5.991   2.952  0.00  0.00     0.003 A 
ENDROOT
BRANCH   1   7
ATOM      7  C1' I4B d   1      -1.050  -5.977   0.445  0.00  0.00     0.060 C 
BRANCH   7   8
ATOM      8  C2' I4B d   1      -2.331  -5.198   0.664  0.00  0.00    -0.013 C 
ATOM      9  C4' I4B d   1      -3.310  -5.982   1.497  0.00  0.00     0.013 C 
ATOM     10  C3' I4B d   1      -1.976  -3.900   1.324  0.00  0.00     0.013 C 
ENDBRANCH   7   8
ENDBRANCH   1   7
TORSDOF 2
ENDMDL
