MODEL 1
REMARK minimizedAffinity 10.7066422
REMARK minimizedRMSD -1
REMARK  2 active torsions:
REMARK  status: ('A' for Active; 'I' for Inactive)
REMARK    1  A    between atoms: C2'_3  and  C1'_4 
REMARK    2  A    between atoms: C1'_4  and  C1_5 
ROOT
ATOM      1  C1  I4B d   1       0.067  -5.926   2.349  0.00  0.00    -0.075 A 
ATOM      2  C2  I4B d   1      -0.588  -5.930   3.555  0.00  0.00     0.003 A 
ATOM      3  C3  I4B d   1       0.147  -5.940   4.765  0.00  0.00     0.002 A 
ATOM      4  C4  I4B d   1       1.526  -5.996   4.723  0.00  0.00    -0.004 A 
ATOM      5  C5  I4B d   1       2.188  -5.968   3.499  0.00  0.00     0.002 A 
ATOM      6  C6  I4B d   1       1.455  -5.921   2.304  0.00  0.00     0.003 A 
ENDROOT
BRANCH   1   7
ATOM      7  C1' I4B d   1      -0.741  -5.949   1.090  0.00  0.00     0.060 C 
BRANCH   7   8
ATOM      8  C2' I4B d   1      -2.089  -5.326   1.390  0.00  0.00    -0.013 C 
ATOM      9  C4' I4B d   1      -3.024  -5.459   0.216  0.00  0.00     0.013 C 
ATOM     10  C3' I4B d   1      -2.650  -6.000   2.607  0.00  0.00     0.013 C 
ENDBRANCH   7   8
ENDBRANCH   1   7
TORSDOF 2
ENDMDL
