MODEL 1
REMARK minimizedAffinity 12.2748852
REMARK minimizedRMSD -1
REMARK  2 active torsions:
REMARK  status: ('A' for Active; 'I' for Inactive)
REMARK    1  A    between atoms: C2'_3  and  C1'_4 
REMARK    2  A    between atoms: C1'_4  and  C1_5 
ROOT
ATOM      1  C1  I4B d   1      -2.377  -3.240  -3.507  0.00  0.00    -0.075 A 
ATOM      2  C2  I4B d   1      -1.155  -2.631  -3.644  0.00  0.00     0.003 A 
ATOM      3  C3  I4B d   1      -0.529  -2.567  -4.913  0.00  0.00     0.002 A 
ATOM      4  C4  I4B d   1      -1.134  -3.164  -6.000  0.00  0.00    -0.004 A 
ATOM      5  C5  I4B d   1      -2.384  -3.761  -5.863  0.00  0.00     0.002 A 
ATOM      6  C6  I4B d   1      -3.016  -3.789  -4.611  0.00  0.00     0.003 A 
ENDROOT
BRANCH   1   7
ATOM      7  C1' I4B d   1      -2.994  -3.320  -2.146  0.00  0.00     0.060 C 
BRANCH   7   8
ATOM      8  C2' I4B d   1      -2.865  -1.958  -1.495  0.00  0.00    -0.013 C 
ATOM      9  C4' I4B d   1      -4.104  -1.130  -1.711  0.00  0.00     0.013 C 
ATOM     10  C3' I4B d   1      -2.601  -2.167  -0.033  0.00  0.00     0.013 C 
ENDBRANCH   7   8
ENDBRANCH   1   7
TORSDOF 2
ENDMDL
