MODEL 1
REMARK minimizedAffinity 7.75719643
REMARK minimizedRMSD -1
REMARK  2 active torsions:
REMARK  status: ('A' for Active; 'I' for Inactive)
REMARK    1  A    between atoms: C2'_3  and  C1'_4 
REMARK    2  A    between atoms: C1'_4  and  C1_5 
ROOT
ATOM      1  C1  I4B d   1      -0.294  -2.327  -3.583  0.00  0.00    -0.075 A 
ATOM      2  C2  I4B d   1      -0.928  -3.525  -3.796  0.00  0.00     0.003 A 
ATOM      3  C3  I4B d   1      -2.264  -3.711  -3.367  0.00  0.00     0.002 A 
ATOM      4  C4  I4B d   1      -2.907  -2.696  -2.687  0.00  0.00    -0.004 A 
ATOM      5  C5  I4B d   1      -2.270  -1.474  -2.492  0.00  0.00     0.002 A 
ATOM      6  C6  I4B d   1      -0.959  -1.283  -2.954  0.00  0.00     0.003 A 
ENDROOT
BRANCH   1   7
ATOM      7  C1' I4B d   1       1.129  -2.176  -4.021  0.00  0.00     0.060 C 
BRANCH   7   8
ATOM      8  C2' I4B d   1       1.762  -1.085  -3.182  0.00  0.00    -0.013 C 
ATOM      9  C4' I4B d   1       1.918  -1.521  -1.749  0.00  0.00     0.013 C 
ATOM     10  C3' I4B d   1       3.089  -0.744  -3.792  0.00  0.00     0.013 C 
ENDBRANCH   7   8
ENDBRANCH   1   7
TORSDOF 2
ENDMDL
