MODEL 1
REMARK minimizedAffinity -6.59300566
REMARK minimizedRMSD -1
REMARK  1 active torsions:
REMARK  status: ('A' for Active; 'I' for Inactive)
REMARK    1  A    between atoms: C1_2  and  C2_3 
ROOT
ATOM      1  C2  UNL d   1       0.342  -0.715   0.335  0.00  0.00    -0.073 A 
ATOM      2  C3  UNL d   1      -0.602  -0.927   1.346  0.00  0.00    -0.002 A 
ATOM      3  C4  UNL d   1      -1.805  -0.221   1.346  0.00  0.00     0.004 A 
ATOM      4  C5  UNL d   1      -2.081   0.697   0.333  0.00  0.00    -0.004 A 
ATOM      5  C6  UNL d   1      -1.155   0.914  -0.693  0.00  0.00    -0.075 A 
ATOM      6  C7  UNL d   1      -1.435   1.900  -1.789  0.00  0.00     0.076 C 
ATOM      7  C8  UNL d   1       0.052   0.203  -0.684  0.00  0.00     0.001 A 
ENDROOT
BRANCH   1   8
ATOM      8  C1  UNL d   1       1.641  -1.480   0.327  0.00  0.00     0.053 C 
ATOM      9  C   UNL d   1       1.481  -2.881   0.897  0.00  0.00     0.018 C 
ENDBRANCH   1   8
TORSDOF 1
ENDMDL
