MODEL 1
REMARK minimizedAffinity -4.07693911
REMARK minimizedRMSD -1
REMARK  1 active torsions:
REMARK  status: ('A' for Active; 'I' for Inactive)
REMARK    1  A    between atoms: C1_2  and  C2_3 
ROOT
ATOM      1  C2  UNL d   1      -0.607   1.203  -0.495  0.00  0.00    -0.073 A 
ATOM      2  C3  UNL d   1      -1.475   1.213   0.603  0.00  0.00    -0.002 A 
ATOM      3  C4  UNL d   1      -1.236   0.383   1.698  0.00  0.00     0.004 A 
ATOM      4  C5  UNL d   1      -0.124  -0.459   1.712  0.00  0.00    -0.004 A 
ATOM      5  C6  UNL d   1       0.762  -0.475   0.630  0.00  0.00    -0.075 A 
ATOM      6  C7  UNL d   1       1.961  -1.377   0.627  0.00  0.00     0.076 C 
ATOM      7  C8  UNL d   1       0.513   0.359  -0.469  0.00  0.00     0.001 A 
ENDROOT
BRANCH   1   8
ATOM      8  C1  UNL d   1      -0.857   2.102  -1.678  0.00  0.00     0.053 C 
ATOM      9  C   UNL d   1      -2.052   1.644  -2.499  0.00  0.00     0.018 C 
ENDBRANCH   1   8
TORSDOF 1
ENDMDL
