MODEL 1
REMARK minimizedAffinity -3.76973653
REMARK minimizedRMSD -1
REMARK  1 active torsions:
REMARK  status: ('A' for Active; 'I' for Inactive)
REMARK    1  A    between atoms: C1_2  and  C2_3 
ROOT
ATOM      1  C2  UNL d   1      -0.545   1.333  -1.011  0.00  0.00    -0.073 A 
ATOM      2  C3  UNL d   1       0.811   0.987  -0.993  0.00  0.00    -0.002 A 
ATOM      3  C4  UNL d   1       1.299   0.097  -0.036  0.00  0.00     0.004 A 
ATOM      4  C5  UNL d   1       0.437  -0.462   0.907  0.00  0.00    -0.004 A 
ATOM      5  C6  UNL d   1      -0.923  -0.139   0.898  0.00  0.00    -0.075 A 
ATOM      6  C7  UNL d   1      -1.864  -0.729   1.908  0.00  0.00     0.076 C 
ATOM      7  C8  UNL d   1      -1.406   0.759  -0.064  0.00  0.00     0.001 A 
ENDROOT
BRANCH   1   8
ATOM      8  C1  UNL d   1      -1.078   2.289  -2.046  0.00  0.00     0.053 C 
ATOM      9  C   UNL d   1      -2.169   1.658  -2.897  0.00  0.00     0.018 C 
ENDBRANCH   1   8
TORSDOF 1
ENDMDL
