MODEL 1
REMARK minimizedAffinity -0.633604705
REMARK minimizedRMSD -1
REMARK  1 active torsions:
REMARK  status: ('A' for Active; 'I' for Inactive)
REMARK    1  A    between atoms: C1_2  and  C2_3 
ROOT
ATOM      1  C2  UNL d   1      -1.364   0.269  -1.195  0.00  0.00    -0.073 A 
ATOM      2  C3  UNL d   1      -0.010   0.620  -1.192  0.00  0.00    -0.002 A 
ATOM      3  C4  UNL d   1       0.742   0.520  -0.021  0.00  0.00     0.004 A 
ATOM      4  C5  UNL d   1       0.151   0.061   1.156  0.00  0.00    -0.004 A 
ATOM      5  C6  UNL d   1      -1.199  -0.306   1.170  0.00  0.00    -0.075 A 
ATOM      6  C7  UNL d   1      -1.851  -0.800   2.428  0.00  0.00     0.076 C 
ATOM      7  C8  UNL d   1      -1.948  -0.200  -0.009  0.00  0.00     0.001 A 
ENDROOT
BRANCH   1   8
ATOM      8  C1  UNL d   1      -2.179   0.369  -2.459  0.00  0.00     0.053 C 
ATOM      9  C   UNL d   1      -1.984   1.706  -3.157  0.00  0.00     0.018 C 
ENDBRANCH   1   8
TORSDOF 1
ENDMDL
