MODEL 1
REMARK minimizedAffinity -2.5079577
REMARK minimizedRMSD -1
REMARK  1 active torsions:
REMARK  status: ('A' for Active; 'I' for Inactive)
REMARK    1  A    between atoms: C1_2  and  C2_3 
ROOT
ATOM      1  C2  UNL d   1      -0.343   0.915  -0.977  0.00  0.00    -0.073 A 
ATOM      2  C3  UNL d   1      -1.402   0.097  -0.566  0.00  0.00    -0.002 A 
ATOM      3  C4  UNL d   1      -1.150  -1.077   0.146  0.00  0.00     0.004 A 
ATOM      4  C5  UNL d   1       0.159  -1.440   0.461  0.00  0.00    -0.004 A 
ATOM      5  C6  UNL d   1       1.230  -0.629   0.069  0.00  0.00    -0.075 A 
ATOM      6  C7  UNL d   1       2.644  -1.007   0.398  0.00  0.00     0.076 C 
ATOM      7  C8  UNL d   1       0.969   0.546  -0.648  0.00  0.00     0.001 A 
ENDROOT
BRANCH   1   8
ATOM      8  C1  UNL d   1      -0.610   2.186  -1.741  0.00  0.00     0.053 C 
ATOM      9  C   UNL d   1      -1.905   2.112  -2.535  0.00  0.00     0.018 C 
ENDBRANCH   1   8
TORSDOF 1
ENDMDL
