MODEL 1
REMARK minimizedAffinity -5.60766459
REMARK minimizedRMSD -1
REMARK  1 active torsions:
REMARK  status: ('A' for Active; 'I' for Inactive)
REMARK    1  A    between atoms: C1_2  and  C2_3 
ROOT
ATOM      1  C2  UNL d   1      -0.694  -0.053   0.476  0.00  0.00    -0.073 A 
ATOM      2  C3  UNL d   1       0.407   0.081  -0.376  0.00  0.00    -0.002 A 
ATOM      3  C4  UNL d   1       1.570  -0.656  -0.147  0.00  0.00     0.004 A 
ATOM      4  C5  UNL d   1       1.641  -1.539   0.931  0.00  0.00    -0.004 A 
ATOM      5  C6  UNL d   1       0.546  -1.696   1.787  0.00  0.00    -0.075 A 
ATOM      6  C7  UNL d   1       0.606  -2.639   2.952  0.00  0.00     0.076 C 
ATOM      7  C8  UNL d   1      -0.617  -0.950   1.551  0.00  0.00     0.001 A 
ENDROOT
BRANCH   1   8
ATOM      8  C1  UNL d   1      -1.954   0.735   0.228  0.00  0.00     0.053 C 
ATOM      9  C   UNL d   1      -2.323   0.773  -1.246  0.00  0.00     0.018 C 
ENDBRANCH   1   8
TORSDOF 1
ENDMDL
