MODEL 1
REMARK minimizedAffinity -3.54767871
REMARK minimizedRMSD -1
REMARK  1 active torsions:
REMARK  status: ('A' for Active; 'I' for Inactive)
REMARK    1  A    between atoms: C1_2  and  C2_3 
ROOT
ATOM      1  C2  UNL d   1      -1.708   0.392   0.013  0.00  0.00    -0.073 A 
ATOM      2  C3  UNL d   1      -2.858  -0.241  -0.472  0.00  0.00    -0.002 A 
ATOM      3  C4  UNL d   1      -3.407   0.138  -1.698  0.00  0.00     0.004 A 
ATOM      4  C5  UNL d   1      -2.808   1.145  -2.454  0.00  0.00    -0.004 A 
ATOM      5  C6  UNL d   1      -1.652   1.781  -1.992  0.00  0.00    -0.075 A 
ATOM      6  C7  UNL d   1      -0.997   2.869  -2.792  0.00  0.00     0.076 C 
ATOM      7  C8  UNL d   1      -1.108   1.398  -0.759  0.00  0.00     0.001 A 
ENDROOT
BRANCH   1   8
ATOM      8  C1  UNL d   1      -1.108  -0.017   1.333  0.00  0.00     0.053 C 
ATOM      9  C   UNL d   1      -2.157  -0.116   2.430  0.00  0.00     0.018 C 
ENDBRANCH   1   8
TORSDOF 1
ENDMDL
