MODEL 1
REMARK minimizedAffinity -3.92137122
REMARK minimizedRMSD -1
REMARK  1 active torsions:
REMARK  status: ('A' for Active; 'I' for Inactive)
REMARK    1  A    between atoms: C1_2  and  C2_3 
ROOT
ATOM      1  C2  UNL d   1      -0.514   1.328  -0.898  0.00  0.00    -0.073 A 
ATOM      2  C3  UNL d   1       0.810   0.880  -0.974  0.00  0.00    -0.002 A 
ATOM      3  C4  UNL d   1       1.297  -0.039  -0.044  0.00  0.00     0.004 A 
ATOM      4  C5  UNL d   1       0.467  -0.524   0.966  0.00  0.00    -0.004 A 
ATOM      5  C6  UNL d   1      -0.863  -0.098   1.051  0.00  0.00    -0.075 A 
ATOM      6  C7  UNL d   1      -1.769  -0.609   2.133  0.00  0.00     0.076 C 
ATOM      7  C8  UNL d   1      -1.344   0.827   0.115  0.00  0.00     0.001 A 
ENDROOT
BRANCH   1   8
ATOM      8  C1  UNL d   1      -1.047   2.315  -1.904  0.00  0.00     0.053 C 
ATOM      9  C   UNL d   1      -2.112   1.699  -2.798  0.00  0.00     0.018 C 
ENDBRANCH   1   8
TORSDOF 1
ENDMDL
