MODEL 1
REMARK minimizedAffinity -5.7009182
REMARK minimizedRMSD -1
REMARK  1 active torsions:
REMARK  status: ('A' for Active; 'I' for Inactive)
REMARK    1  A    between atoms: C1_2  and  C2_3 
ROOT
ATOM      1  C2  UNL d   1      -0.023  -0.380   0.510  0.00  0.00    -0.073 A 
ATOM      2  C3  UNL d   1      -1.135  -0.303   1.357  0.00  0.00    -0.002 A 
ATOM      3  C4  UNL d   1      -1.292  -1.218   2.399  0.00  0.00     0.004 A 
ATOM      4  C5  UNL d   1      -0.337  -2.213   2.609  0.00  0.00    -0.004 A 
ATOM      5  C6  UNL d   1       0.787  -2.299   1.780  0.00  0.00    -0.075 A 
ATOM      6  C7  UNL d   1       1.821  -3.364   1.991  0.00  0.00     0.076 C 
ATOM      7  C8  UNL d   1       0.935  -1.378   0.734  0.00  0.00     0.001 A 
ENDROOT
BRANCH   1   8
ATOM      8  C1  UNL d   1       0.153   0.610  -0.613  0.00  0.00     0.053 C 
ATOM      9  C   UNL d   1      -0.944   1.662  -0.623  0.00  0.00     0.018 C 
ENDBRANCH   1   8
TORSDOF 1
ENDMDL
