MODEL 1
REMARK minimizedAffinity 4.24009609
REMARK minimizedRMSD -1
REMARK  0 active torsions:
REMARK  status: ('A' for Active; 'I' for Inactive)
ROOT
ATOM      1  C1  DEN d   1      -0.004  -1.033   3.892  0.00  0.00     0.130 A 
ATOM      2  C2  DEN d   1       0.921  -2.000   3.308  0.00  0.00    -0.031 A 
ATOM      3  C3  DEN d   1       0.624  -2.103   1.865  0.00  0.00     0.027 A 
ATOM      4  C4  DEN d   1      -1.166  -0.860   0.485  0.00  0.00     0.027 A 
ATOM      5  C5  DEN d   1      -2.196   0.052   0.544  0.00  0.00    -0.003 A 
ATOM      6  C6  DEN d   1      -2.587   0.637   1.720  0.00  0.00     0.001 A 
ATOM      7  C7  DEN d   1      -1.913   0.349   2.878  0.00  0.00     0.017 A 
ATOM      8  C8  DEN d   1      -0.879  -0.576   2.827  0.00  0.00    -0.094 A 
ATOM      9  C9  DEN d   1      -0.491  -1.146   1.627  0.00  0.00    -0.072 A 
ENDROOT
TORSDOF 0
ENDMDL
