MODEL 1
REMARK minimizedAffinity 13.7537298
REMARK minimizedRMSD -1
REMARK  0 active torsions:
REMARK  status: ('A' for Active; 'I' for Inactive)
ROOT
ATOM      1  C1  DEN d   1       0.481  -0.326   2.300  0.00  0.00     0.130 A 
ATOM      2  C2  DEN d   1       1.287  -1.543   2.324  0.00  0.00    -0.031 A 
ATOM      3  C3  DEN d   1       0.526  -2.609   1.642  0.00  0.00     0.027 A 
ATOM      4  C4  DEN d   1      -1.809  -2.491   0.551  0.00  0.00     0.027 A 
ATOM      5  C5  DEN d   1      -2.886  -1.673   0.290  0.00  0.00    -0.003 A 
ATOM      6  C6  DEN d   1      -2.931  -0.369   0.707  0.00  0.00     0.001 A 
ATOM      7  C7  DEN d   1      -1.859   0.169   1.369  0.00  0.00     0.017 A 
ATOM      8  C8  DEN d   1      -0.772  -0.651   1.642  0.00  0.00    -0.094 A 
ATOM      9  C9  DEN d   1      -0.741  -1.964   1.201  0.00  0.00    -0.072 A 
ENDROOT
TORSDOF 0
ENDMDL
