MODEL 1
REMARK minimizedAffinity 6.43962097
REMARK minimizedRMSD -1
REMARK  0 active torsions:
REMARK  status: ('A' for Active; 'I' for Inactive)
ROOT
ATOM      1  C1  DEN d   1      -5.096   0.267   1.582  0.00  0.00     0.130 A 
ATOM      2  C2  DEN d   1      -5.451   0.456   2.986  0.00  0.00    -0.031 A 
ATOM      3  C3  DEN d   1      -4.212   0.374   3.785  0.00  0.00     0.027 A 
ATOM      4  C4  DEN d   1      -1.790  -0.020   2.989  0.00  0.00     0.027 A 
ATOM      5  C5  DEN d   1      -0.993  -0.248   1.889  0.00  0.00    -0.003 A 
ATOM      6  C6  DEN d   1      -1.508  -0.353   0.624  0.00  0.00     0.001 A 
ATOM      7  C7  DEN d   1      -2.853  -0.185   0.422  0.00  0.00     0.017 A 
ATOM      8  C8  DEN d   1      -3.663   0.037   1.527  0.00  0.00    -0.094 A 
ATOM      9  C9  DEN d   1      -3.122   0.152   2.796  0.00  0.00    -0.072 A 
ENDROOT
TORSDOF 0
ENDMDL
