MODEL 1
REMARK minimizedAffinity 14.5819807
REMARK minimizedRMSD -1
REMARK  0 active torsions:
REMARK  status: ('A' for Active; 'I' for Inactive)
ROOT
ATOM      1  C1  DEN d   1      -5.994  -2.617  -4.774  0.00  0.00     0.130 A 
ATOM      2  C2  DEN d   1      -4.956  -3.180  -5.634  0.00  0.00    -0.031 A 
ATOM      3  C3  DEN d   1      -3.725  -2.388  -5.441  0.00  0.00     0.027 A 
ATOM      4  C4  DEN d   1      -3.325  -0.359  -3.899  0.00  0.00     0.027 A 
ATOM      5  C5  DEN d   1      -3.912   0.491  -2.987  0.00  0.00    -0.003 A 
ATOM      6  C6  DEN d   1      -5.231   0.386  -2.635  0.00  0.00     0.001 A 
ATOM      7  C7  DEN d   1      -5.998  -0.618  -3.165  0.00  0.00     0.017 A 
ATOM      8  C8  DEN d   1      -5.415  -1.474  -4.091  0.00  0.00    -0.094 A 
ATOM      9  C9  DEN d   1      -4.077  -1.360  -4.425  0.00  0.00    -0.072 A 
ENDROOT
TORSDOF 0
ENDMDL
