MODEL 1
REMARK minimizedAffinity 9.21106434
REMARK minimizedRMSD -1
REMARK  0 active torsions:
REMARK  status: ('A' for Active; 'I' for Inactive)
ROOT
ATOM      1  C1  DEN d   1       1.304  -2.211  -0.476  0.00  0.00     0.130 A 
ATOM      2  C2  DEN d   1       2.357  -1.383   0.105  0.00  0.00    -0.031 A 
ATOM      3  C3  DEN d   1       1.716  -0.358   0.954  0.00  0.00     0.027 A 
ATOM      4  C4  DEN d   1      -0.791   0.020   1.427  0.00  0.00     0.027 A 
ATOM      5  C5  DEN d   1      -2.065  -0.424   1.149  0.00  0.00    -0.003 A 
ATOM      6  C6  DEN d   1      -2.305  -1.464   0.292  0.00  0.00     0.001 A 
ATOM      7  C7  DEN d   1      -1.253  -2.125  -0.285  0.00  0.00     0.017 A 
ATOM      8  C8  DEN d   1       0.034  -1.679  -0.016  0.00  0.00    -0.094 A 
ATOM      9  C9  DEN d   1       0.257  -0.633   0.863  0.00  0.00    -0.072 A 
ENDROOT
TORSDOF 0
ENDMDL
