MODEL 1
REMARK minimizedAffinity 7.57496452
REMARK minimizedRMSD -1
REMARK  0 active torsions:
REMARK  status: ('A' for Active; 'I' for Inactive)
ROOT
ATOM      1  C1  DEN d   1       1.848  -2.669   0.600  0.00  0.00     0.130 A 
ATOM      2  C2  DEN d   1       2.732  -1.531   0.838  0.00  0.00    -0.031 A 
ATOM      3  C3  DEN d   1       1.898  -0.314   0.918  0.00  0.00     0.027 A 
ATOM      4  C4  DEN d   1      -0.662  -0.085   0.702  0.00  0.00     0.027 A 
ATOM      5  C5  DEN d   1      -1.836  -0.772   0.484  0.00  0.00    -0.003 A 
ATOM      6  C6  DEN d   1      -1.861  -2.122   0.257  0.00  0.00     0.001 A 
ATOM      7  C7  DEN d   1      -0.693  -2.837   0.288  0.00  0.00     0.017 A 
ATOM      8  C8  DEN d   1       0.496  -2.151   0.500  0.00  0.00    -0.094 A 
ATOM      9  C9  DEN d   1       0.499  -0.787   0.740  0.00  0.00    -0.072 A 
ENDROOT
TORSDOF 0
ENDMDL
