MODEL 1
REMARK minimizedAffinity 16.5854416
REMARK minimizedRMSD -1
REMARK  0 active torsions:
REMARK  status: ('A' for Active; 'I' for Inactive)
ROOT
ATOM      1  C1  DEN d   1       4.896   2.259  -2.988  0.00  0.00     0.130 A 
ATOM      2  C2  DEN d   1       4.301   1.042  -2.444  0.00  0.00    -0.031 A 
ATOM      3  C3  DEN d   1       3.899   1.314  -1.049  0.00  0.00     0.027 A 
ATOM      4  C4  DEN d   1       4.137   3.492   0.312  0.00  0.00     0.027 A 
ATOM      5  C5  DEN d   1       4.592   4.792   0.281  0.00  0.00    -0.003 A 
ATOM      6  C6  DEN d   1       5.206   5.324  -0.822  0.00  0.00     0.001 A 
ATOM      7  C7  DEN d   1       5.341   4.566  -1.955  0.00  0.00     0.017 A 
ATOM      8  C8  DEN d   1       4.891   3.252  -1.928  0.00  0.00    -0.094 A 
ATOM      9  C9  DEN d   1       4.263   2.737  -0.808  0.00  0.00    -0.072 A 
ENDROOT
TORSDOF 0
ENDMDL
