MODEL 1
REMARK minimizedAffinity 12.841713
REMARK minimizedRMSD -1
REMARK  0 active torsions:
REMARK  status: ('A' for Active; 'I' for Inactive)
ROOT
ATOM      1  C1  DEN d   1       4.204   1.193   0.493  0.00  0.00     0.130 A 
ATOM      2  C2  DEN d   1       3.001   2.018   0.425  0.00  0.00    -0.031 A 
ATOM      3  C3  DEN d   1       1.841   1.120   0.259  0.00  0.00     0.027 A 
ATOM      4  C4  DEN d   1       1.790  -1.454   0.106  0.00  0.00     0.027 A 
ATOM      5  C5  DEN d   1       2.563  -2.594   0.103  0.00  0.00    -0.003 A 
ATOM      6  C6  DEN d   1       3.929  -2.550   0.195  0.00  0.00     0.001 A 
ATOM      7  C7  DEN d   1       4.561  -1.343   0.339  0.00  0.00     0.017 A 
ATOM      8  C8  DEN d   1       3.789  -0.189   0.336  0.00  0.00    -0.094 A 
ATOM      9  C9  DEN d   1       2.408  -0.255   0.254  0.00  0.00    -0.072 A 
ENDROOT
TORSDOF 0
ENDMDL
