MODEL 1
REMARK minimizedAffinity 25.0765305
REMARK minimizedRMSD -1
REMARK  0 active torsions:
REMARK  status: ('A' for Active; 'I' for Inactive)
ROOT
ATOM      1  C1  DEN d   1       2.664  -2.745   3.637  0.00  0.00     0.130 A 
ATOM      2  C2  DEN d   1       1.409  -2.702   4.382  0.00  0.00    -0.031 A 
ATOM      3  C3  DEN d   1       0.439  -1.912   3.598  0.00  0.00     0.027 A 
ATOM      4  C4  DEN d   1       0.754  -0.762   1.311  0.00  0.00     0.027 A 
ATOM      5  C5  DEN d   1       1.650  -0.510   0.296  0.00  0.00    -0.003 A 
ATOM      6  C6  DEN d   1       2.945  -0.953   0.337  0.00  0.00     0.001 A 
ATOM      7  C7  DEN d   1       3.369  -1.711   1.397  0.00  0.00     0.017 A 
ATOM      8  C8  DEN d   1       2.475  -1.962   2.429  0.00  0.00    -0.094 A 
ATOM      9  C9  DEN d   1       1.166  -1.516   2.362  0.00  0.00    -0.072 A 
ENDROOT
TORSDOF 0
ENDMDL
