MODEL 1
REMARK minimizedAffinity 16.4746952
REMARK minimizedRMSD -1
REMARK  0 active torsions:
REMARK  status: ('A' for Active; 'I' for Inactive)
ROOT
ATOM      1  C1  DEN d   1      -4.974  -0.863   1.812  0.00  0.00     0.130 A 
ATOM      2  C2  DEN d   1      -5.007  -0.047   3.023  0.00  0.00    -0.031 A 
ATOM      3  C3  DEN d   1      -3.614   0.252   3.410  0.00  0.00     0.027 A 
ATOM      4  C4  DEN d   1      -1.420  -0.463   2.257  0.00  0.00     0.027 A 
ATOM      5  C5  DEN d   1      -0.885  -1.173   1.205  0.00  0.00    -0.003 A 
ATOM      6  C6  DEN d   1      -1.667  -1.851   0.308  0.00  0.00     0.001 A 
ATOM      7  C7  DEN d   1      -3.032  -1.798   0.421  0.00  0.00     0.017 A 
ATOM      8  C8  DEN d   1      -3.579  -1.090   1.484  0.00  0.00    -0.094 A 
ATOM      9  C9  DEN d   1      -2.771  -0.401   2.372  0.00  0.00    -0.072 A 
ENDROOT
TORSDOF 0
ENDMDL
