MODEL 1
REMARK minimizedAffinity 3.689955
REMARK minimizedRMSD -1
REMARK  0 active torsions:
REMARK  status: ('A' for Active; 'I' for Inactive)
ROOT
ATOM      1  C1  DEN d   1       1.964  -1.449   0.275  0.00  0.00     0.130 A 
ATOM      2  C2  DEN d   1       1.476  -2.669   0.912  0.00  0.00    -0.031 A 
ATOM      3  C3  DEN d   1       0.083  -2.433   1.343  0.00  0.00     0.027 A 
ATOM      4  C4  DEN d   1      -1.358  -0.310   1.082  0.00  0.00     0.027 A 
ATOM      5  C5  DEN d   1      -1.373   0.987   0.617  0.00  0.00    -0.003 A 
ATOM      6  C6  DEN d   1      -0.275   1.568   0.040  0.00  0.00     0.001 A 
ATOM      7  C7  DEN d   1       0.871   0.837  -0.127  0.00  0.00     0.017 A 
ATOM      8  C8  DEN d   1       0.896  -0.468   0.347  0.00  0.00    -0.094 A 
ATOM      9  C9  DEN d   1      -0.228  -1.042   0.916  0.00  0.00    -0.072 A 
ENDROOT
TORSDOF 0
ENDMDL
