MODEL 1
REMARK minimizedAffinity -0.647284329
REMARK minimizedRMSD -1
REMARK  0 active torsions:
REMARK  status: ('A' for Active; 'I' for Inactive)
ROOT
ATOM      1  C1  DEN d   1      -0.041   1.566   0.114  0.00  0.00     0.130 A 
ATOM      2  C2  DEN d   1      -0.790   0.414   0.608  0.00  0.00    -0.031 A 
ATOM      3  C3  DEN d   1       0.164  -0.694   0.820  0.00  0.00     0.027 A 
ATOM      4  C4  DEN d   1       2.714  -0.734   0.439  0.00  0.00     0.027 A 
ATOM      5  C5  DEN d   1       3.798   0.004   0.016  0.00  0.00    -0.003 A 
ATOM      6  C6  DEN d   1       3.674   1.292  -0.432  0.00  0.00     0.001 A 
ATOM      7  C7  DEN d   1       2.445   1.898  -0.425  0.00  0.00     0.017 A 
ATOM      8  C8  DEN d   1       1.347   1.158  -0.007  0.00  0.00    -0.094 A 
ATOM      9  C9  DEN d   1       1.495  -0.139   0.453  0.00  0.00    -0.072 A 
ENDROOT
TORSDOF 0
ENDMDL
