MODEL 1
REMARK minimizedAffinity 3.48903584
REMARK minimizedRMSD -1
REMARK  0 active torsions:
REMARK  status: ('A' for Active; 'I' for Inactive)
ROOT
ATOM      1  C1  DEN d   1       0.024  -2.480   0.430  0.00  0.00     0.130 A 
ATOM      2  C2  DEN d   1       1.219  -2.063   1.158  0.00  0.00    -0.031 A 
ATOM      3  C3  DEN d   1       0.928  -0.772   1.813  0.00  0.00     0.027 A 
ATOM      4  C4  DEN d   1      -1.249   0.611   1.776  0.00  0.00     0.027 A 
ATOM      5  C5  DEN d   1      -2.534   0.669   1.284  0.00  0.00    -0.003 A 
ATOM      6  C6  DEN d   1      -3.041  -0.294   0.452  0.00  0.00     0.001 A 
ATOM      7  C7  DEN d   1      -2.273  -1.380   0.123  0.00  0.00     0.017 A 
ATOM      8  C8  DEN d   1      -0.974  -1.441   0.610  0.00  0.00    -0.094 A 
ATOM      9  C9  DEN d   1      -0.484  -0.464   1.459  0.00  0.00    -0.072 A 
ENDROOT
TORSDOF 0
ENDMDL
