MODEL 1
REMARK minimizedAffinity 13.5246592
REMARK minimizedRMSD -1
REMARK  0 active torsions:
REMARK  status: ('A' for Active; 'I' for Inactive)
ROOT
ATOM      1  C1  DEN d   1      -2.237  -0.194   0.881  0.00  0.00     0.130 A 
ATOM      2  C2  DEN d   1      -2.448  -1.628   0.703  0.00  0.00    -0.031 A 
ATOM      3  C3  DEN d   1      -1.144  -2.244   0.383  0.00  0.00     0.027 A 
ATOM      4  C4  DEN d   1       1.167  -1.124   0.152  0.00  0.00     0.027 A 
ATOM      5  C5  DEN d   1       1.844   0.075   0.202  0.00  0.00    -0.003 A 
ATOM      6  C6  DEN d   1       1.207   1.263   0.446  0.00  0.00     0.001 A 
ATOM      7  C7  DEN d   1      -0.140   1.273   0.694  0.00  0.00     0.017 A 
ATOM      8  C8  DEN d   1      -0.830   0.069   0.638  0.00  0.00    -0.094 A 
ATOM      9  C9  DEN d   1      -0.166  -1.123   0.402  0.00  0.00    -0.072 A 
ENDROOT
TORSDOF 0
ENDMDL
