MODEL 1
REMARK minimizedAffinity 2.67584848
REMARK minimizedRMSD -1
REMARK  0 active torsions:
REMARK  status: ('A' for Active; 'I' for Inactive)
ROOT
ATOM      1  C2' OXE d   1       0.492  -1.268   3.433  0.00  0.00     0.078 C 
ATOM      2  C1' OXE d   1      -1.484  -3.177   2.859  0.00  0.00     0.078 C 
ATOM      3  C1  OXE d   1      -1.578  -1.839   2.170  0.00  0.00    -0.078 A 
ATOM      4  C2  OXE d   1      -0.634  -0.894   2.492  0.00  0.00    -0.078 A 
ATOM      5  C3  OXE d   1      -0.642   0.338   1.845  0.00  0.00     0.003 A 
ATOM      6  C4  OXE d   1      -1.692   0.679   0.984  0.00  0.00    -0.002 A 
ATOM      7  C5  OXE d   1      -2.687  -0.254   0.673  0.00  0.00    -0.002 A 
ATOM      8  C6  OXE d   1      -2.621  -1.529   1.223  0.00  0.00     0.003 A 
ENDROOT
TORSDOF 0
ENDMDL
