MODEL 1
REMARK minimizedAffinity 3.98526454
REMARK minimizedRMSD -1
REMARK  0 active torsions:
REMARK  status: ('A' for Active; 'I' for Inactive)
ROOT
ATOM      1  C2' OXE d   1       0.689  -1.133  -1.044  0.00  0.00     0.078 C 
ATOM      2  C1' OXE d   1       1.567  -2.951   0.907  0.00  0.00     0.078 C 
ATOM      3  C1  OXE d   1       0.404  -2.055   1.253  0.00  0.00    -0.078 A 
ATOM      4  C2  OXE d   1       0.011  -1.137   0.309  0.00  0.00    -0.078 A 
ATOM      5  C3  OXE d   1      -1.091  -0.324   0.556  0.00  0.00     0.003 A 
ATOM      6  C4  OXE d   1      -1.707  -0.326   1.814  0.00  0.00    -0.002 A 
ATOM      7  C5  OXE d   1      -1.296  -1.226   2.803  0.00  0.00    -0.002 A 
ATOM      8  C6  OXE d   1      -0.272  -2.125   2.524  0.00  0.00     0.003 A 
ENDROOT
TORSDOF 0
ENDMDL
