MODEL 1
REMARK minimizedAffinity -2.54971361
REMARK minimizedRMSD -1
REMARK  0 active torsions:
REMARK  status: ('A' for Active; 'I' for Inactive)
ROOT
ATOM      1  C2' OXE d   1      -0.134  -1.470   2.545  0.00  0.00     0.078 C 
ATOM      2  C1' OXE d   1      -2.451  -0.384   1.392  0.00  0.00     0.078 C 
ATOM      3  C1  OXE d   1      -1.252  -0.590   0.501  0.00  0.00    -0.078 A 
ATOM      4  C2  OXE d   1      -0.107  -1.078   1.084  0.00  0.00    -0.078 A 
ATOM      5  C3  OXE d   1       1.010  -1.339   0.296  0.00  0.00     0.003 A 
ATOM      6  C4  OXE d   1       1.030  -0.965  -1.053  0.00  0.00    -0.002 A 
ATOM      7  C5  OXE d   1      -0.113  -0.429  -1.658  0.00  0.00    -0.002 A 
ATOM      8  C6  OXE d   1      -1.273  -0.275  -0.907  0.00  0.00     0.003 A 
ENDROOT
TORSDOF 0
ENDMDL
