MODEL 1
REMARK minimizedAffinity 1.54228878
REMARK minimizedRMSD -1
REMARK  0 active torsions:
REMARK  status: ('A' for Active; 'I' for Inactive)
ROOT
ATOM      1  C2' OXE d   1       1.993  -4.604   1.417  0.00  0.00     0.078 C 
ATOM      2  C1' OXE d   1       4.655  -4.871   0.566  0.00  0.00     0.078 C 
ATOM      3  C1  OXE d   1       3.930  -3.594   0.220  0.00  0.00    -0.078 A 
ATOM      4  C2  OXE d   1       2.613  -3.492   0.600  0.00  0.00    -0.078 A 
ATOM      5  C3  OXE d   1       1.915  -2.313   0.353  0.00  0.00     0.003 A 
ATOM      6  C4  OXE d   1       2.493  -1.293  -0.412  0.00  0.00    -0.002 A 
ATOM      7  C5  OXE d   1       3.820  -1.394  -0.842  0.00  0.00    -0.002 A 
ATOM      8  C6  OXE d   1       4.564  -2.517  -0.499  0.00  0.00     0.003 A 
ENDROOT
TORSDOF 0
ENDMDL
