MODEL 1
REMARK minimizedAffinity 0.20859997
REMARK minimizedRMSD -1
REMARK  0 active torsions:
REMARK  status: ('A' for Active; 'I' for Inactive)
ROOT
ATOM      1  C2' OXE d   1       1.210  -1.085  -0.798  0.00  0.00     0.078 C 
ATOM      2  C1' OXE d   1       2.013  -3.316   0.704  0.00  0.00     0.078 C 
ATOM      3  C1  OXE d   1       0.888  -2.470   1.247  0.00  0.00    -0.078 A 
ATOM      4  C2  OXE d   1       0.533  -1.354   0.528  0.00  0.00    -0.078 A 
ATOM      5  C3  OXE d   1      -0.535  -0.570   0.956  0.00  0.00     0.003 A 
ATOM      6  C4  OXE d   1      -1.149  -0.820   2.189  0.00  0.00    -0.002 A 
ATOM      7  C5  OXE d   1      -0.776  -1.929   2.956  0.00  0.00    -0.002 A 
ATOM      8  C6  OXE d   1       0.210  -2.787   2.480  0.00  0.00     0.003 A 
ENDROOT
TORSDOF 0
ENDMDL
