MODEL 1
REMARK minimizedAffinity 6.44261026
REMARK minimizedRMSD -1
REMARK  0 active torsions:
REMARK  status: ('A' for Active; 'I' for Inactive)
ROOT
ATOM      1  C2' OXE d   1       1.121  -1.304   0.061  0.00  0.00     0.078 C 
ATOM      2  C1' OXE d   1      -0.003  -1.388   2.632  0.00  0.00     0.078 C 
ATOM      3  C1  OXE d   1      -0.871  -0.899   1.501  0.00  0.00    -0.078 A 
ATOM      4  C2  OXE d   1      -0.299  -0.817   0.254  0.00  0.00    -0.078 A 
ATOM      5  C3  OXE d   1      -1.072  -0.424  -0.835  0.00  0.00     0.003 A 
ATOM      6  C4  OXE d   1      -2.381   0.035  -0.646  0.00  0.00    -0.002 A 
ATOM      7  C5  OXE d   1      -2.971  -0.003   0.622  0.00  0.00    -0.002 A 
ATOM      8  C6  OXE d   1      -2.245  -0.505   1.696  0.00  0.00     0.003 A 
ENDROOT
TORSDOF 0
ENDMDL
