MODEL 1
REMARK minimizedAffinity 4.03733397
REMARK minimizedRMSD -1
REMARK  0 active torsions:
REMARK  status: ('A' for Active; 'I' for Inactive)
ROOT
ATOM      1  C2' OXE d   1       1.842  -0.092  -0.612  0.00  0.00     0.078 C 
ATOM      2  C1' OXE d   1      -0.212  -0.854   1.143  0.00  0.00     0.078 C 
ATOM      3  C1  OXE d   1       0.923  -1.823   0.925  0.00  0.00    -0.078 A 
ATOM      4  C2  OXE d   1       1.900  -1.462   0.029  0.00  0.00    -0.078 A 
ATOM      5  C3  OXE d   1       2.998  -2.295  -0.167  0.00  0.00     0.003 A 
ATOM      6  C4  OXE d   1       3.038  -3.565   0.422  0.00  0.00    -0.002 A 
ATOM      7  C5  OXE d   1       2.033  -3.969   1.307  0.00  0.00    -0.002 A 
ATOM      8  C6  OXE d   1       0.993  -3.095   1.602  0.00  0.00     0.003 A 
ENDROOT
TORSDOF 0
ENDMDL
