MODEL 1
REMARK minimizedAffinity 2.55551267
REMARK minimizedRMSD -1
REMARK  0 active torsions:
REMARK  status: ('A' for Active; 'I' for Inactive)
ROOT
ATOM      1  C2' OXE d   1       2.987  -3.721  -0.027  0.00  0.00     0.078 C 
ATOM      2  C1' OXE d   1       5.356  -2.227  -0.219  0.00  0.00     0.078 C 
ATOM      3  C1  OXE d   1       4.047  -1.486  -0.321  0.00  0.00    -0.078 A 
ATOM      4  C2  OXE d   1       2.893  -2.231  -0.273  0.00  0.00    -0.078 A 
ATOM      5  C3  OXE d   1       1.657  -1.591  -0.307  0.00  0.00     0.003 A 
ATOM      6  C4  OXE d   1       1.579  -0.214  -0.545  0.00  0.00    -0.002 A 
ATOM      7  C5  OXE d   1       2.742   0.558  -0.637  0.00  0.00    -0.002 A 
ATOM      8  C6  OXE d   1       3.980  -0.055  -0.484  0.00  0.00     0.003 A 
ENDROOT
TORSDOF 0
ENDMDL
