MODEL 1
REMARK minimizedAffinity 2.78798723
REMARK minimizedRMSD -1
REMARK  0 active torsions:
REMARK  status: ('A' for Active; 'I' for Inactive)
ROOT
ATOM      1  C2' OXE d   1      -2.973  -0.257   1.361  0.00  0.00     0.078 C 
ATOM      2  C1' OXE d   1      -0.903  -1.183   3.015  0.00  0.00     0.078 C 
ATOM      3  C1  OXE d   1      -0.597  -0.982   1.552  0.00  0.00    -0.078 A 
ATOM      4  C2  OXE d   1      -1.629  -0.573   0.741  0.00  0.00    -0.078 A 
ATOM      5  C3  OXE d   1      -1.387  -0.320  -0.606  0.00  0.00     0.003 A 
ATOM      6  C4  OXE d   1      -0.144  -0.625  -1.173  0.00  0.00    -0.002 A 
ATOM      7  C5  OXE d   1       0.909  -1.081  -0.373  0.00  0.00    -0.002 A 
ATOM      8  C6  OXE d   1       0.711  -1.224   0.996  0.00  0.00     0.003 A 
ENDROOT
TORSDOF 0
ENDMDL
