MODEL 1
REMARK minimizedAffinity 3.9173615
REMARK minimizedRMSD -1
REMARK  1 active torsions:
REMARK  status: ('A' for Active; 'I' for Inactive)
REMARK    1  A    between atoms: C1_2  and  C2_3 
ROOT
ATOM      1  C2  UNL d   1      -5.579  -3.784  -2.328  0.00  0.00    -0.081 A 
ATOM      2  C3  UNL d   1      -5.272  -5.147  -2.238  0.00  0.00     0.006 A 
ATOM      3  C4  UNL d   1      -4.919  -5.870  -3.380  0.00  0.00     0.002 A 
ATOM      4  C5  UNL d   1      -4.860  -5.241  -4.628  0.00  0.00    -0.080 A 
ATOM      5  C6  UNL d   1      -4.454  -5.999  -5.857  0.00  0.00     0.076 C 
ATOM      6  C7  UNL d   1      -5.184  -3.883  -4.721  0.00  0.00     0.002 A 
ATOM      7  C8  UNL d   1      -5.537  -3.160  -3.580  0.00  0.00     0.006 A 
ENDROOT
BRANCH   1   8
ATOM      8  C1  UNL d   1      -5.896  -2.987  -1.088  0.00  0.00     0.054 C 
ATOM      9  C   UNL d   1      -5.999  -1.500  -1.398  0.00  0.00     0.018 C 
ENDBRANCH   1   8
TORSDOF 1
ENDMDL
