MODEL 1
REMARK minimizedAffinity 7.43479967
REMARK minimizedRMSD -1
REMARK  1 active torsions:
REMARK  status: ('A' for Active; 'I' for Inactive)
REMARK    1  A    between atoms: C1_2  and  C2_3 
ROOT
ATOM      1  C2  UNL d   1      -5.382  -3.790  -2.609  0.00  0.00    -0.081 A 
ATOM      2  C3  UNL d   1      -5.102  -3.134  -3.815  0.00  0.00     0.006 A 
ATOM      3  C4  UNL d   1      -4.596  -3.844  -4.906  0.00  0.00     0.002 A 
ATOM      4  C5  UNL d   1      -4.368  -5.221  -4.813  0.00  0.00    -0.080 A 
ATOM      5  C6  UNL d   1      -3.853  -6.000  -5.987  0.00  0.00     0.076 C 
ATOM      6  C7  UNL d   1      -4.630  -5.873  -3.604  0.00  0.00     0.002 A 
ATOM      7  C8  UNL d   1      -5.136  -5.164  -2.512  0.00  0.00     0.006 A 
ENDROOT
BRANCH   1   8
ATOM      8  C1  UNL d   1      -5.988  -3.040  -1.451  0.00  0.00     0.054 C 
ATOM      9  C   UNL d   1      -5.702  -1.548  -1.547  0.00  0.00     0.018 C 
ENDBRANCH   1   8
TORSDOF 1
ENDMDL
