MODEL 1
REMARK minimizedAffinity 8.95978832
REMARK minimizedRMSD -1
REMARK  1 active torsions:
REMARK  status: ('A' for Active; 'I' for Inactive)
REMARK    1  A    between atoms: C1_2  and  C2_3 
ROOT
ATOM      1  C2  UNL d   1       1.392  -0.237   3.049  0.00  0.00    -0.081 A 
ATOM      2  C3  UNL d   1       1.613  -0.387   1.674  0.00  0.00     0.006 A 
ATOM      3  C4  UNL d   1       1.455  -1.633   1.064  0.00  0.00     0.002 A 
ATOM      4  C5  UNL d   1       1.068  -2.748   1.815  0.00  0.00    -0.080 A 
ATOM      5  C6  UNL d   1       0.865  -4.085   1.167  0.00  0.00     0.076 C 
ATOM      6  C7  UNL d   1       0.864  -2.602   3.192  0.00  0.00     0.002 A 
ATOM      7  C8  UNL d   1       1.022  -1.356   3.803  0.00  0.00     0.006 A 
ENDROOT
BRANCH   1   8
ATOM      8  C1  UNL d   1       1.498   1.119   3.698  0.00  0.00     0.054 C 
ATOM      9  C   UNL d   1       2.372   2.059   2.879  0.00  0.00     0.018 C 
ENDBRANCH   1   8
TORSDOF 1
ENDMDL
