MODEL 1
REMARK minimizedAffinity 6.13752127
REMARK minimizedRMSD -1
REMARK  1 active torsions:
REMARK  status: ('A' for Active; 'I' for Inactive)
REMARK    1  A    between atoms: C1_2  and  C2_3 
ROOT
ATOM      1  C2  UNL d   1      -5.404  -3.773  -2.579  0.00  0.00    -0.081 A 
ATOM      2  C3  UNL d   1      -4.626  -3.138  -3.554  0.00  0.00     0.006 A 
ATOM      3  C4  UNL d   1      -4.131  -3.858  -4.644  0.00  0.00     0.002 A 
ATOM      4  C5  UNL d   1      -4.413  -5.221  -4.781  0.00  0.00    -0.080 A 
ATOM      5  C6  UNL d   1      -3.913  -5.999  -5.963  0.00  0.00     0.076 C 
ATOM      6  C7  UNL d   1      -5.176  -5.860  -3.798  0.00  0.00     0.002 A 
ATOM      7  C8  UNL d   1      -5.670  -5.141  -2.707  0.00  0.00     0.006 A 
ENDROOT
BRANCH   1   8
ATOM      8  C1  UNL d   1      -5.993  -2.985  -1.436  0.00  0.00     0.054 C 
ATOM      9  C   UNL d   1      -5.130  -1.780  -1.092  0.00  0.00     0.018 C 
ENDBRANCH   1   8
TORSDOF 1
ENDMDL
