MODEL 1
REMARK minimizedAffinity 5.56023693
REMARK minimizedRMSD -1
REMARK  1 active torsions:
REMARK  status: ('A' for Active; 'I' for Inactive)
REMARK    1  A    between atoms: C1_2  and  C2_3 
ROOT
ATOM      1  C2  UNL d   1      -5.257  -3.654  -2.437  0.00  0.00    -0.081 A 
ATOM      2  C3  UNL d   1      -5.700  -3.040  -3.615  0.00  0.00     0.006 A 
ATOM      3  C4  UNL d   1      -5.901  -3.794  -4.774  0.00  0.00     0.002 A 
ATOM      4  C5  UNL d   1      -5.670  -5.174  -4.771  0.00  0.00    -0.080 A 
ATOM      5  C6  UNL d   1      -5.911  -6.000  -6.000  0.00  0.00     0.076 C 
ATOM      6  C7  UNL d   1      -5.211  -5.784  -3.599  0.00  0.00     0.002 A 
ATOM      7  C8  UNL d   1      -5.009  -5.031  -2.441  0.00  0.00     0.006 A 
ENDROOT
BRANCH   1   8
ATOM      8  C1  UNL d   1      -5.101  -2.854  -1.168  0.00  0.00     0.054 C 
ATOM      9  C   UNL d   1      -5.950  -1.592  -1.202  0.00  0.00     0.018 C 
ENDBRANCH   1   8
TORSDOF 1
ENDMDL
