MODEL 1
REMARK minimizedAffinity -3.42992091
REMARK minimizedRMSD -1
REMARK  0 active torsions:
REMARK  status: ('A' for Active; 'I' for Inactive)
ROOT
ATOM      1  C1  DEN d   1       0.915   1.131   0.087  0.00  0.00     0.130 A 
ATOM      2  C2  DEN d   1      -0.401   1.457  -0.453  0.00  0.00    -0.031 A 
ATOM      3  C3  DEN d   1      -1.153   0.196  -0.615  0.00  0.00     0.027 A 
ATOM      4  C4  DEN d   1      -0.410  -2.216  -0.080  0.00  0.00     0.027 A 
ATOM      5  C5  DEN d   1       0.626  -2.994   0.387  0.00  0.00    -0.003 A 
ATOM      6  C6  DEN d   1       1.833  -2.459   0.751  0.00  0.00     0.001 A 
ATOM      7  C7  DEN d   1       2.019  -1.103   0.698  0.00  0.00     0.017 A 
ATOM      8  C8  DEN d   1       0.982  -0.313   0.221  0.00  0.00    -0.094 A 
ATOM      9  C9  DEN d   1      -0.236  -0.871  -0.130  0.00  0.00    -0.072 A 
ENDROOT
TORSDOF 0
ENDMDL
