MODEL 1
REMARK minimizedAffinity -5.31937408
REMARK minimizedRMSD -1
REMARK  0 active torsions:
REMARK  status: ('A' for Active; 'I' for Inactive)
ROOT
ATOM      1  C1  DEN d   1       0.991   0.793  -0.470  0.00  0.00     0.130 A 
ATOM      2  C2  DEN d   1      -0.389   1.269  -0.449  0.00  0.00    -0.031 A 
ATOM      3  C3  DEN d   1      -1.239   0.181   0.074  0.00  0.00     0.027 A 
ATOM      4  C4  DEN d   1      -0.555  -2.181   0.854  0.00  0.00     0.027 A 
ATOM      5  C5  DEN d   1       0.503  -3.048   1.011  0.00  0.00    -0.003 A 
ATOM      6  C6  DEN d   1       1.782  -2.711   0.657  0.00  0.00     0.001 A 
ATOM      7  C7  DEN d   1       2.044  -1.458   0.169  0.00  0.00     0.017 A 
ATOM      8  C8  DEN d   1       0.981  -0.580   0.001  0.00  0.00    -0.094 A 
ATOM      9  C9  DEN d   1      -0.304  -0.936   0.376  0.00  0.00    -0.072 A 
ENDROOT
TORSDOF 0
ENDMDL
