MODEL 1
REMARK minimizedAffinity -0.597924948
REMARK minimizedRMSD -1
REMARK  0 active torsions:
REMARK  status: ('A' for Active; 'I' for Inactive)
ROOT
ATOM      1  C1  DEN d   1       2.229  -0.307  -0.172  0.00  0.00     0.130 A 
ATOM      2  C2  DEN d   1       2.672  -1.487   0.566  0.00  0.00    -0.031 A 
ATOM      3  C3  DEN d   1       1.557  -1.932   1.427  0.00  0.00     0.027 A 
ATOM      4  C4  DEN d   1      -0.800  -0.918   1.683  0.00  0.00     0.027 A 
ATOM      5  C5  DEN d   1      -1.637   0.096   1.270  0.00  0.00    -0.003 A 
ATOM      6  C6  DEN d   1      -1.237   1.057   0.381  0.00  0.00     0.001 A 
ATOM      7  C7  DEN d   1       0.021   1.000  -0.160  0.00  0.00     0.017 A 
ATOM      8  C8  DEN d   1       0.873  -0.014   0.257  0.00  0.00    -0.094 A 
ATOM      9  C9  DEN d   1       0.445  -0.984   1.148  0.00  0.00    -0.072 A 
ENDROOT
TORSDOF 0
ENDMDL
