MODEL 1
REMARK minimizedAffinity -5.42535353
REMARK minimizedRMSD -1
REMARK  0 active torsions:
REMARK  status: ('A' for Active; 'I' for Inactive)
ROOT
ATOM      1  C1  DEN d   1       0.375  -2.363   1.193  0.00  0.00     0.130 A 
ATOM      2  C2  DEN d   1       1.750  -2.790   0.949  0.00  0.00    -0.031 A 
ATOM      3  C3  DEN d   1       2.387  -1.794   0.064  0.00  0.00     0.027 A 
ATOM      4  C4  DEN d   1       1.384   0.359  -0.942  0.00  0.00     0.027 A 
ATOM      5  C5  DEN d   1       0.250   1.135  -1.028  0.00  0.00    -0.003 A 
ATOM      6  C6  DEN d   1      -0.923   0.785  -0.413  0.00  0.00     0.001 A 
ATOM      7  C7  DEN d   1      -0.975  -0.349   0.354  0.00  0.00     0.017 A 
ATOM      8  C8  DEN d   1       0.163  -1.141   0.439  0.00  0.00    -0.094 A 
ATOM      9  C9  DEN d   1       1.342  -0.763  -0.180  0.00  0.00    -0.072 A 
ENDROOT
TORSDOF 0
ENDMDL
