MODEL 1
REMARK minimizedAffinity -6.3582325
REMARK minimizedRMSD -1
REMARK  0 active torsions:
REMARK  status: ('A' for Active; 'I' for Inactive)
ROOT
ATOM      1  C1  DEN d   1       1.301   1.000  -0.644  0.00  0.00     0.130 A 
ATOM      2  C2  DEN d   1       0.080   1.765  -0.408  0.00  0.00    -0.031 A 
ATOM      3  C3  DEN d   1      -0.880   0.887   0.291  0.00  0.00     0.027 A 
ATOM      4  C4  DEN d   1      -0.594  -1.567   1.032  0.00  0.00     0.027 A 
ATOM      5  C5  DEN d   1       0.265  -2.644   1.041  0.00  0.00    -0.003 A 
ATOM      6  C6  DEN d   1       1.506  -2.593   0.464  0.00  0.00     0.001 A 
ATOM      7  C7  DEN d   1       1.941  -1.426  -0.108  0.00  0.00     0.017 A 
ATOM      8  C8  DEN d   1       1.078  -0.339  -0.127  0.00  0.00    -0.094 A 
ATOM      9  C9  DEN d   1      -0.168  -0.406   0.472  0.00  0.00    -0.072 A 
ENDROOT
TORSDOF 0
ENDMDL
