MODEL 1
REMARK minimizedAffinity -5.06243849
REMARK minimizedRMSD -1
REMARK  0 active torsions:
REMARK  status: ('A' for Active; 'I' for Inactive)
ROOT
ATOM      1  C1  DEN d   1       1.803  -0.269  -1.426  0.00  0.00     0.130 A 
ATOM      2  C2  DEN d   1       0.629   0.593  -1.530  0.00  0.00    -0.031 A 
ATOM      3  C3  DEN d   1      -0.307   0.222  -0.451  0.00  0.00     0.027 A 
ATOM      4  C4  DEN d   1      -0.053  -1.591   1.366  0.00  0.00     0.027 A 
ATOM      5  C5  DEN d   1       0.767  -2.585   1.852  0.00  0.00    -0.003 A 
ATOM      6  C6  DEN d   1       1.964  -2.897   1.265  0.00  0.00     0.001 A 
ATOM      7  C7  DEN d   1       2.397  -2.178   0.183  0.00  0.00     0.017 A 
ATOM      8  C8  DEN d   1       1.573  -1.179  -0.318  0.00  0.00    -0.094 A 
ATOM      9  C9  DEN d   1       0.372  -0.870   0.298  0.00  0.00    -0.072 A 
ENDROOT
TORSDOF 0
ENDMDL
