MODEL 1
REMARK minimizedAffinity -3.75907588
REMARK minimizedRMSD -1
REMARK  0 active torsions:
REMARK  status: ('A' for Active; 'I' for Inactive)
ROOT
ATOM      1  C1  DEN d   1      -1.613  -0.065   1.826  0.00  0.00     0.130 A 
ATOM      2  C2  DEN d   1      -1.936  -1.385   2.363  0.00  0.00    -0.031 A 
ATOM      3  C3  DEN d   1      -0.863  -2.316   1.961  0.00  0.00     0.027 A 
ATOM      4  C4  DEN d   1       1.259  -1.845   0.572  0.00  0.00     0.027 A 
ATOM      5  C5  DEN d   1       1.960  -0.878  -0.113  0.00  0.00    -0.003 A 
ATOM      6  C6  DEN d   1       1.506   0.410  -0.228  0.00  0.00     0.001 A 
ATOM      7  C7  DEN d   1       0.340   0.776   0.390  0.00  0.00     0.017 A 
ATOM      8  C8  DEN d   1      -0.376  -0.196   1.077  0.00  0.00    -0.094 A 
ATOM      9  C9  DEN d   1       0.105  -1.489   1.191  0.00  0.00    -0.072 A 
ENDROOT
TORSDOF 0
ENDMDL
