MODEL 1
REMARK minimizedAffinity -0.794776797
REMARK minimizedRMSD -1
REMARK  0 active torsions:
REMARK  status: ('A' for Active; 'I' for Inactive)
ROOT
ATOM      1  C1  DEN d   1       2.099  -0.475  -0.439  0.00  0.00     0.130 A 
ATOM      2  C2  DEN d   1       2.474  -1.623   0.382  0.00  0.00    -0.031 A 
ATOM      3  C3  DEN d   1       1.400  -1.848   1.370  0.00  0.00     0.027 A 
ATOM      4  C4  DEN d   1      -0.797  -0.540   1.704  0.00  0.00     0.027 A 
ATOM      5  C5  DEN d   1      -1.551   0.522   1.256  0.00  0.00    -0.003 A 
ATOM      6  C6  DEN d   1      -1.129   1.340   0.241  0.00  0.00     0.001 A 
ATOM      7  C7  DEN d   1       0.060   1.082  -0.388  0.00  0.00     0.017 A 
ATOM      8  C8  DEN d   1       0.829   0.017   0.063  0.00  0.00    -0.094 A 
ATOM      9  C9  DEN d   1       0.379  -0.806   1.082  0.00  0.00    -0.072 A 
ENDROOT
TORSDOF 0
ENDMDL
