MODEL 1
REMARK minimizedAffinity -4.21582747
REMARK minimizedRMSD -1
REMARK  0 active torsions:
REMARK  status: ('A' for Active; 'I' for Inactive)
ROOT
ATOM      1  C1  DEN d   1       1.153   0.261  -0.988  0.00  0.00     0.130 A 
ATOM      2  C2  DEN d   1      -0.094   1.010  -0.862  0.00  0.00    -0.031 A 
ATOM      3  C3  DEN d   1      -0.839   0.467   0.292  0.00  0.00     0.027 A 
ATOM      4  C4  DEN d   1      -0.182  -1.447   1.891  0.00  0.00     0.027 A 
ATOM      5  C5  DEN d   1       0.779  -2.391   2.177  0.00  0.00    -0.003 A 
ATOM      6  C6  DEN d   1       1.907  -2.539   1.414  0.00  0.00     0.001 A 
ATOM      7  C7  DEN d   1       2.124  -1.699   0.353  0.00  0.00     0.017 A 
ATOM      8  C8  DEN d   1       1.156  -0.750   0.054  0.00  0.00    -0.094 A 
ATOM      9  C9  DEN d   1       0.028  -0.608   0.846  0.00  0.00    -0.072 A 
ENDROOT
TORSDOF 0
ENDMDL
