MODEL 1
REMARK minimizedAffinity -6.32344723
REMARK minimizedRMSD -1
REMARK  0 active torsions:
REMARK  status: ('A' for Active; 'I' for Inactive)
ROOT
ATOM      1  C1  DEN d   1      -0.759   0.323   0.342  0.00  0.00     0.130 A 
ATOM      2  C2  DEN d   1       0.041   0.663  -0.832  0.00  0.00    -0.031 A 
ATOM      3  C3  DEN d   1       1.171  -0.285  -0.905  0.00  0.00     0.027 A 
ATOM      4  C4  DEN d   1       1.754  -2.239   0.675  0.00  0.00     0.027 A 
ATOM      5  C5  DEN d   1       1.376  -2.910   1.817  0.00  0.00    -0.003 A 
ATOM      6  C6  DEN d   1       0.289  -2.533   2.560  0.00  0.00     0.001 A 
ATOM      7  C7  DEN d   1      -0.486  -1.482   2.144  0.00  0.00     0.017 A 
ATOM      8  C8  DEN d   1      -0.107  -0.796   0.998  0.00  0.00    -0.094 A 
ATOM      9  C9  DEN d   1       0.989  -1.200   0.254  0.00  0.00    -0.072 A 
ENDROOT
TORSDOF 0
ENDMDL
