MODEL 1
REMARK minimizedAffinity -4.77099085
REMARK minimizedRMSD -1
REMARK  0 active torsions:
REMARK  status: ('A' for Active; 'I' for Inactive)
ROOT
ATOM      1  C1  DEN d   1       0.339  -2.698   3.043  0.00  0.00     0.130 A 
ATOM      2  C2  DEN d   1      -0.940  -2.106   3.424  0.00  0.00    -0.031 A 
ATOM      3  C3  DEN d   1      -1.278  -1.069   2.428  0.00  0.00     0.027 A 
ATOM      4  C4  DEN d   1       0.047  -0.329   0.343  0.00  0.00     0.027 A 
ATOM      5  C5  DEN d   1       1.197  -0.532  -0.387  0.00  0.00    -0.003 A 
ATOM      6  C6  DEN d   1       2.150  -1.441  -0.009  0.00  0.00     0.001 A 
ATOM      7  C7  DEN d   1       1.949  -2.212   1.105  0.00  0.00     0.017 A 
ATOM      8  C8  DEN d   1       0.795  -2.007   1.850  0.00  0.00    -0.094 A 
ATOM      9  C9  DEN d   1      -0.162  -1.093   1.445  0.00  0.00    -0.072 A 
ENDROOT
TORSDOF 0
ENDMDL
