MODEL 1
REMARK minimizedAffinity -5.89174271
REMARK minimizedRMSD -1
REMARK  0 active torsions:
REMARK  status: ('A' for Active; 'I' for Inactive)
ROOT
ATOM      1  C1  DEN d   1      -0.933   0.495   0.398  0.00  0.00     0.130 A 
ATOM      2  C2  DEN d   1      -0.236   0.753  -0.860  0.00  0.00    -0.031 A 
ATOM      3  C3  DEN d   1       0.806  -0.280  -1.024  0.00  0.00     0.027 A 
ATOM      4  C4  DEN d   1       1.402  -2.246   0.536  0.00  0.00     0.027 A 
ATOM      5  C5  DEN d   1       1.095  -2.867   1.727  0.00  0.00    -0.003 A 
ATOM      6  C6  DEN d   1       0.121  -2.395   2.567  0.00  0.00     0.001 A 
ATOM      7  C7  DEN d   1      -0.611  -1.295   2.207  0.00  0.00     0.017 A 
ATOM      8  C8  DEN d   1      -0.303  -0.659   1.011  0.00  0.00    -0.094 A 
ATOM      9  C9  DEN d   1       0.677  -1.159   0.170  0.00  0.00    -0.072 A 
ENDROOT
TORSDOF 0
ENDMDL
