MODEL 1
REMARK minimizedAffinity -3.35918784
REMARK minimizedRMSD -1
REMARK  0 active torsions:
REMARK  status: ('A' for Active; 'I' for Inactive)
ROOT
ATOM      1  C1  DEN d   1      -0.092  -2.314   1.317  0.00  0.00     0.130 A 
ATOM      2  C2  DEN d   1       1.258  -2.834   1.116  0.00  0.00    -0.031 A 
ATOM      3  C3  DEN d   1       2.065  -1.775   0.478  0.00  0.00     0.027 A 
ATOM      4  C4  DEN d   1       1.362   0.609  -0.211  0.00  0.00     0.027 A 
ATOM      5  C5  DEN d   1       0.314   1.502  -0.252  0.00  0.00    -0.003 A 
ATOM      6  C6  DEN d   1      -0.941   1.177   0.191  0.00  0.00     0.001 A 
ATOM      7  C7  DEN d   1      -1.169  -0.058   0.738  0.00  0.00     0.017 A 
ATOM      8  C8  DEN d   1      -0.119  -0.966   0.777  0.00  0.00    -0.094 A 
ATOM      9  C9  DEN d   1       1.145  -0.615   0.334  0.00  0.00    -0.072 A 
ENDROOT
TORSDOF 0
ENDMDL
