MODEL 1
REMARK minimizedAffinity 11.6638441
REMARK minimizedRMSD -1
REMARK  2 active torsions:
REMARK  status: ('A' for Active; 'I' for Inactive)
REMARK    1  A    between atoms: C2'_3  and  C1'_4 
REMARK    2  A    between atoms: C1'_4  and  C1_5 
ROOT
ATOM      1  C1  I4B d   1       4.506   2.686  -1.288  0.00  0.00    -0.075 A 
ATOM      2  C2  I4B d   1       4.273   1.456  -1.850  0.00  0.00     0.003 A 
ATOM      3  C3  I4B d   1       3.401   0.537  -1.218  0.00  0.00     0.002 A 
ATOM      4  C4  I4B d   1       2.825   0.867  -0.008  0.00  0.00    -0.004 A 
ATOM      5  C5  I4B d   1       3.044   2.124   0.549  0.00  0.00     0.002 A 
ATOM      6  C6  I4B d   1       3.880   3.044  -0.101  0.00  0.00     0.003 A 
ENDROOT
BRANCH   1   7
ATOM      7  C1' I4B d   1       5.459   3.619  -1.964  0.00  0.00     0.060 C 
BRANCH   7   8
ATOM      8  C2' I4B d   1       5.323   4.980  -1.311  0.00  0.00    -0.013 C 
ATOM      9  C4' I4B d   1       5.999   5.007   0.035  0.00  0.00     0.013 C 
ATOM     10  C3' I4B d   1       5.918   5.999  -2.236  0.00  0.00     0.013 C 
ENDBRANCH   7   8
ENDBRANCH   1   7
TORSDOF 2
ENDMDL
