MODEL 1
REMARK minimizedAffinity 19.2856236
REMARK minimizedRMSD -1
REMARK  2 active torsions:
REMARK  status: ('A' for Active; 'I' for Inactive)
REMARK    1  A    between atoms: C2'_3  and  C1'_4 
REMARK    2  A    between atoms: C1'_4  and  C1_5 
ROOT
ATOM      1  C1  I4B d   1       2.570  -1.091   1.143  0.00  0.00    -0.075 A 
ATOM      2  C2  I4B d   1       2.053  -0.221   0.215  0.00  0.00     0.003 A 
ATOM      3  C3  I4B d   1       2.869   0.791  -0.346  0.00  0.00     0.002 A 
ATOM      4  C4  I4B d   1       4.174   0.927   0.082  0.00  0.00    -0.004 A 
ATOM      5  C5  I4B d   1       4.703   0.030   1.006  0.00  0.00     0.002 A 
ATOM      6  C6  I4B d   1       3.900  -0.993   1.531  0.00  0.00     0.003 A 
ENDROOT
BRANCH   1   7
ATOM      7  C1' I4B d   1       1.671  -2.126   1.740  0.00  0.00     0.060 C 
BRANCH   7   8
ATOM      8  C2' I4B d   1       1.230  -1.632   3.103  0.00  0.00    -0.013 C 
ATOM      9  C4' I4B d   1       0.318  -0.440   2.982  0.00  0.00     0.013 C 
ATOM     10  C3' I4B d   1       0.549  -2.766   3.809  0.00  0.00     0.013 C 
ENDBRANCH   7   8
ENDBRANCH   1   7
TORSDOF 2
ENDMDL
