MODEL 1
REMARK minimizedAffinity 16.1727276
REMARK minimizedRMSD -1
REMARK  2 active torsions:
REMARK  status: ('A' for Active; 'I' for Inactive)
REMARK    1  A    between atoms: C2'_3  and  C1'_4 
REMARK    2  A    between atoms: C1'_4  and  C1_5 
ROOT
ATOM      1  C1  I4B d   1      -5.055   2.217  -1.105  0.00  0.00    -0.075 A 
ATOM      2  C2  I4B d   1      -4.125   1.412  -1.713  0.00  0.00     0.003 A 
ATOM      3  C3  I4B d   1      -4.113   0.019  -1.458  0.00  0.00     0.002 A 
ATOM      4  C4  I4B d   1      -5.011  -0.515  -0.557  0.00  0.00    -0.004 A 
ATOM      5  C5  I4B d   1      -5.968   0.299   0.041  0.00  0.00     0.002 A 
ATOM      6  C6  I4B d   1      -5.999   1.672  -0.244  0.00  0.00     0.003 A 
ENDROOT
BRANCH   1   7
ATOM      7  C1' I4B d   1      -5.019   3.689  -1.370  0.00  0.00     0.060 C 
BRANCH   7   8
ATOM      8  C2' I4B d   1      -4.637   4.387  -0.080  0.00  0.00    -0.013 C 
ATOM      9  C4' I4B d   1      -3.259   4.987  -0.172  0.00  0.00     0.013 C 
ATOM     10  C3' I4B d   1      -5.669   5.439   0.199  0.00  0.00     0.013 C 
ENDBRANCH   7   8
ENDBRANCH   1   7
TORSDOF 2
ENDMDL
