MODEL 1
REMARK minimizedAffinity 11.7910833
REMARK minimizedRMSD -1
REMARK  2 active torsions:
REMARK  status: ('A' for Active; 'I' for Inactive)
REMARK    1  A    between atoms: C2'_3  and  C1'_4 
REMARK    2  A    between atoms: C1'_4  and  C1_5 
ROOT
ATOM      1  C1  I4B d   1       3.249   1.265  -0.811  0.00  0.00    -0.075 A 
ATOM      2  C2  I4B d   1       2.274   0.505  -1.405  0.00  0.00     0.003 A 
ATOM      3  C3  I4B d   1       1.740  -0.622  -0.733  0.00  0.00     0.002 A 
ATOM      4  C4  I4B d   1       2.243  -0.978   0.501  0.00  0.00    -0.004 A 
ATOM      5  C5  I4B d   1       3.216  -0.192   1.112  0.00  0.00     0.002 A 
ATOM      6  C6  I4B d   1       3.714   0.944   0.458  0.00  0.00     0.003 A 
ENDROOT
BRANCH   1   7
ATOM      7  C1' I4B d   1       3.814   2.429  -1.562  0.00  0.00     0.060 C 
BRANCH   7   8
ATOM      8  C2' I4B d   1       5.176   2.027  -2.090  0.00  0.00    -0.013 C 
ATOM      9  C4' I4B d   1       5.058   1.291  -3.399  0.00  0.00     0.013 C 
ATOM     10  C3' I4B d   1       6.000   3.271  -2.241  0.00  0.00     0.013 C 
ENDBRANCH   7   8
ENDBRANCH   1   7
TORSDOF 2
ENDMDL
