MODEL 1
REMARK minimizedAffinity 20.0844402
REMARK minimizedRMSD -1
REMARK  2 active torsions:
REMARK  status: ('A' for Active; 'I' for Inactive)
REMARK    1  A    between atoms: C2'_3  and  C1'_4 
REMARK    2  A    between atoms: C1'_4  and  C1_5 
ROOT
ATOM      1  C1  I4B d   1       2.177  -2.579   1.624  0.00  0.00    -0.075 A 
ATOM      2  C2  I4B d   1       1.729  -3.340   0.573  0.00  0.00     0.003 A 
ATOM      3  C3  I4B d   1       1.916  -2.898  -0.759  0.00  0.00     0.002 A 
ATOM      4  C4  I4B d   1       2.507  -1.673  -0.991  0.00  0.00    -0.004 A 
ATOM      5  C5  I4B d   1       2.982  -0.913   0.074  0.00  0.00     0.002 A 
ATOM      6  C6  I4B d   1       2.827  -1.374   1.389  0.00  0.00     0.003 A 
ENDROOT
BRANCH   1   7
ATOM      7  C1' I4B d   1       1.934  -3.061   3.019  0.00  0.00     0.060 C 
BRANCH   7   8
ATOM      8  C2' I4B d   1       0.508  -2.710   3.392  0.00  0.00    -0.013 C 
ATOM      9  C4' I4B d   1       0.059  -3.475   4.609  0.00  0.00     0.013 C 
ATOM     10  C3' I4B d   1       0.442  -1.230   3.627  0.00  0.00     0.013 C 
ENDBRANCH   7   8
ENDBRANCH   1   7
TORSDOF 2
ENDMDL
