MODEL 1
REMARK minimizedAffinity -2.50413465
REMARK minimizedRMSD -1
REMARK  1 active torsions:
REMARK  status: ('A' for Active; 'I' for Inactive)
REMARK    1  A    between atoms: C1_2  and  C2_3 
ROOT
ATOM      1  C2  UNL d   1       0.171   0.325   0.182  0.00  0.00    -0.076 A 
ATOM      2  C3  UNL d   1       1.435   0.245   0.791  0.00  0.00     0.004 A 
ATOM      3  C4  UNL d   1       1.560  -0.046   2.149  0.00  0.00    -0.003 A 
ATOM      4  C5  UNL d   1       0.423  -0.262   2.919  0.00  0.00     0.000 A 
ATOM      5  C6  UNL d   1      -0.839  -0.204   2.327  0.00  0.00     0.000 A 
ATOM      6  C7  UNL d   1      -0.982   0.072   0.957  0.00  0.00    -0.073 A 
ATOM      7  C8  UNL d   1      -2.367   0.129   0.373  0.00  0.00     0.078 C 
ENDROOT
BRANCH   1   8
ATOM      8  C1  UNL d   1       0.096   0.671  -1.288  0.00  0.00     0.053 C 
ATOM      9  C   UNL d   1       0.461  -0.503  -2.182  0.00  0.00     0.018 C 
ENDBRANCH   1   8
TORSDOF 1
ENDMDL
