MODEL 1
REMARK minimizedAffinity -4.60550547
REMARK minimizedRMSD -1
REMARK  1 active torsions:
REMARK  status: ('A' for Active; 'I' for Inactive)
REMARK    1  A    between atoms: C1_2  and  C2_3 
ROOT
ATOM      1  C2  UNL d   1      -0.044   0.178   0.104  0.00  0.00    -0.076 A 
ATOM      2  C3  UNL d   1       1.264   0.106   0.613  0.00  0.00     0.004 A 
ATOM      3  C4  UNL d   1       1.497  -0.186   1.956  0.00  0.00    -0.003 A 
ATOM      4  C5  UNL d   1       0.424  -0.411   2.811  0.00  0.00     0.000 A 
ATOM      5  C6  UNL d   1      -0.880  -0.361   2.320  0.00  0.00     0.000 A 
ATOM      6  C7  UNL d   1      -1.131  -0.084   0.965  0.00  0.00    -0.073 A 
ATOM      7  C8  UNL d   1      -2.557  -0.036   0.490  0.00  0.00     0.078 C 
ENDROOT
BRANCH   1   8
ATOM      8  C1  UNL d   1      -0.235   0.525  -1.355  0.00  0.00     0.053 C 
ATOM      9  C   UNL d   1       0.506  -0.425  -2.283  0.00  0.00     0.018 C 
ENDBRANCH   1   8
TORSDOF 1
ENDMDL
