MODEL 1
REMARK minimizedAffinity -3.02715755
REMARK minimizedRMSD -1
REMARK  1 active torsions:
REMARK  status: ('A' for Active; 'I' for Inactive)
REMARK    1  A    between atoms: C1_2  and  C2_3 
ROOT
ATOM      1  C2  UNL d   1       0.181  -0.549   0.410  0.00  0.00    -0.076 A 
ATOM      2  C3  UNL d   1      -1.191  -0.358   0.654  0.00  0.00     0.004 A 
ATOM      3  C4  UNL d   1      -1.687  -0.301   1.956  0.00  0.00    -0.003 A 
ATOM      4  C5  UNL d   1      -0.820  -0.434   3.034  0.00  0.00     0.000 A 
ATOM      5  C6  UNL d   1       0.546  -0.606   2.811  0.00  0.00     0.000 A 
ATOM      6  C7  UNL d   1       1.065  -0.649   1.506  0.00  0.00    -0.073 A 
ATOM      7  C8  UNL d   1       2.545  -0.843   1.323  0.00  0.00     0.078 C 
ENDROOT
BRANCH   1   8
ATOM      8  C1  UNL d   1       0.657  -0.629  -1.022  0.00  0.00     0.053 C 
ATOM      9  C   UNL d   1      -0.081   0.336  -1.937  0.00  0.00     0.018 C 
ENDBRANCH   1   8
TORSDOF 1
ENDMDL
