MODEL 1
REMARK minimizedAffinity -5.38657522
REMARK minimizedRMSD -1
REMARK  1 active torsions:
REMARK  status: ('A' for Active; 'I' for Inactive)
REMARK    1  A    between atoms: C1_2  and  C2_3 
ROOT
ATOM      1  C2  UNL d   1      -0.325  -0.080   1.341  0.00  0.00    -0.076 A 
ATOM      2  C3  UNL d   1      -1.588  -0.293   0.761  0.00  0.00     0.004 A 
ATOM      3  C4  UNL d   1      -1.797  -0.080  -0.601  0.00  0.00    -0.003 A 
ATOM      4  C5  UNL d   1      -0.746   0.349  -1.404  0.00  0.00     0.000 A 
ATOM      5  C6  UNL d   1       0.517   0.549  -0.849  0.00  0.00     0.000 A 
ATOM      6  C7  UNL d   1       0.749   0.323   0.519  0.00  0.00    -0.073 A 
ATOM      7  C8  UNL d   1       2.129   0.560   1.066  0.00  0.00     0.078 C 
ENDROOT
BRANCH   1   8
ATOM      8  C1  UNL d   1      -0.165  -0.301   2.828  0.00  0.00     0.053 C 
ATOM      9  C   UNL d   1      -1.060  -1.414   3.352  0.00  0.00     0.018 C 
ENDBRANCH   1   8
TORSDOF 1
ENDMDL
