MODEL 1
REMARK minimizedAffinity -1.76752973
REMARK minimizedRMSD -1
REMARK  1 active torsions:
REMARK  status: ('A' for Active; 'I' for Inactive)
REMARK    1  A    between atoms: C1_2  and  C2_3 
ROOT
ATOM      1  C2  UNL d   1       0.233   0.210  -0.632  0.00  0.00    -0.076 A 
ATOM      2  C3  UNL d   1       1.353  -0.134   0.144  0.00  0.00     0.004 A 
ATOM      3  C4  UNL d   1       1.344   0.028   1.528  0.00  0.00    -0.003 A 
ATOM      4  C5  UNL d   1       0.214   0.536   2.159  0.00  0.00     0.000 A 
ATOM      5  C6  UNL d   1      -0.913   0.866   1.407  0.00  0.00     0.000 A 
ATOM      6  C7  UNL d   1      -0.926   0.694   0.012  0.00  0.00    -0.073 A 
ATOM      7  C8  UNL d   1      -2.166   1.072  -0.750  0.00  0.00     0.078 C 
ENDROOT
BRANCH   1   8
ATOM      8  C1  UNL d   1       0.311   0.039  -2.132  0.00  0.00     0.053 C 
ATOM      9  C   UNL d   1       0.793  -1.346  -2.536  0.00  0.00     0.018 C 
ENDBRANCH   1   8
TORSDOF 1
ENDMDL
