MODEL 1
REMARK minimizedAffinity -4.00591135
REMARK minimizedRMSD -1
REMARK  1 active torsions:
REMARK  status: ('A' for Active; 'I' for Inactive)
REMARK    1  A    between atoms: C1_2  and  C2_3 
ROOT
ATOM      1  C2  UNL d   1      -0.241   0.108   0.032  0.00  0.00    -0.076 A 
ATOM      2  C3  UNL d   1      -1.390  -0.633   0.357  0.00  0.00     0.004 A 
ATOM      3  C4  UNL d   1      -1.636  -1.036   1.669  0.00  0.00    -0.003 A 
ATOM      4  C5  UNL d   1      -0.738  -0.703   2.676  0.00  0.00     0.000 A 
ATOM      5  C6  UNL d   1       0.399   0.047   2.374  0.00  0.00     0.000 A 
ATOM      6  C7  UNL d   1       0.654   0.475   1.060  0.00  0.00    -0.073 A 
ATOM      7  C8  UNL d   1       1.898   1.276   0.790  0.00  0.00     0.078 C 
ENDROOT
BRANCH   1   8
ATOM      8  C1  UNL d   1      -0.013   0.493  -1.412  0.00  0.00     0.053 C 
ATOM      9  C   UNL d   1       0.251  -0.712  -2.302  0.00  0.00     0.018 C 
ENDBRANCH   1   8
TORSDOF 1
ENDMDL
