MODEL 1
REMARK minimizedAffinity -2.03650832
REMARK minimizedRMSD -1
REMARK  1 active torsions:
REMARK  status: ('A' for Active; 'I' for Inactive)
REMARK    1  A    between atoms: C1_2  and  C2_3 
ROOT
ATOM      1  C2  UNL d   1      -0.022  -0.175   0.490  0.00  0.00    -0.076 A 
ATOM      2  C3  UNL d   1      -0.947  -1.154   0.891  0.00  0.00     0.004 A 
ATOM      3  C4  UNL d   1      -1.196  -1.395   2.241  0.00  0.00    -0.003 A 
ATOM      4  C5  UNL d   1      -0.524  -0.661   3.212  0.00  0.00     0.000 A 
ATOM      5  C6  UNL d   1       0.384   0.327   2.832  0.00  0.00     0.000 A 
ATOM      6  C7  UNL d   1       0.634   0.594   1.475  0.00  0.00    -0.073 A 
ATOM      7  C8  UNL d   1       1.628   1.666   1.121  0.00  0.00     0.078 C 
ENDROOT
BRANCH   1   8
ATOM      8  C1  UNL d   1       0.227   0.024  -0.989  0.00  0.00     0.053 C 
ATOM      9  C   UNL d   1       0.907  -1.175  -1.631  0.00  0.00     0.018 C 
ENDBRANCH   1   8
TORSDOF 1
ENDMDL
