MODEL 1
REMARK minimizedAffinity -5.0750761
REMARK minimizedRMSD -1
REMARK  1 active torsions:
REMARK  status: ('A' for Active; 'I' for Inactive)
REMARK    1  A    between atoms: C1_2  and  C2_3 
ROOT
ATOM      1  C2  UNL d   1      -0.469  -0.269   0.715  0.00  0.00    -0.076 A 
ATOM      2  C3  UNL d   1      -1.838  -0.376   1.017  0.00  0.00     0.004 A 
ATOM      3  C4  UNL d   1      -2.311  -0.115   2.302  0.00  0.00    -0.003 A 
ATOM      4  C5  UNL d   1      -1.424   0.258   3.305  0.00  0.00     0.000 A 
ATOM      5  C6  UNL d   1      -0.065   0.387   3.019  0.00  0.00     0.000 A 
ATOM      6  C7  UNL d   1       0.426   0.143   1.725  0.00  0.00    -0.073 A 
ATOM      7  C8  UNL d   1       1.902   0.291   1.474  0.00  0.00     0.078 C 
ENDROOT
BRANCH   1   8
ATOM      8  C1  UNL d   1      -0.010  -0.591  -0.689  0.00  0.00     0.053 C 
ATOM      9  C   UNL d   1      -0.423   0.472  -1.695  0.00  0.00     0.018 C 
ENDBRANCH   1   8
TORSDOF 1
ENDMDL
