MODEL 1
REMARK minimizedAffinity 0.0834183022
REMARK minimizedRMSD -1
REMARK  0 active torsions:
REMARK  status: ('A' for Active; 'I' for Inactive)
ROOT
ATOM      1  O1  BZF d   1      -1.430  -0.767   0.211  0.00  0.00    -0.204 OA
ATOM      2  C2  BZF d   1      -1.274  -0.035  -0.950  0.00  0.00     0.174 A 
ATOM      3  C3  BZF d   1      -0.076   0.586  -0.966  0.00  0.00    -0.012 A 
ATOM      4  C3A BZF d   1       0.593   0.144   0.219  0.00  0.00    -0.107 A 
ATOM      5  C4  BZF d   1       1.824   0.399   0.753  0.00  0.00     0.055 A 
ATOM      6  C5  BZF d   1       2.142  -0.134   1.962  0.00  0.00    -0.016 A 
ATOM      7  C6  BZF d   1       1.254  -0.920   2.666  0.00  0.00     0.022 A 
ATOM      8  C7  BZF d   1       0.023  -1.205   2.175  0.00  0.00     0.029 A 
ATOM      9  C7A BZF d   1      -0.289  -0.695   0.938  0.00  0.00     0.058 A 
ENDROOT
TORSDOF 0
ENDMDL
