MODEL 1
REMARK minimizedAffinity -4.52519083
REMARK minimizedRMSD -1
REMARK  0 active torsions:
REMARK  status: ('A' for Active; 'I' for Inactive)
ROOT
ATOM      1  O1  BZF d   1       2.185  -1.386   2.148  0.00  0.00    -0.204 OA
ATOM      2  C2  BZF d   1       1.549  -1.241   3.366  0.00  0.00     0.174 A 
ATOM      3  C3  BZF d   1       0.337  -0.671   3.207  0.00  0.00    -0.012 A 
ATOM      4  C3A BZF d   1       0.169  -0.531   1.793  0.00  0.00    -0.107 A 
ATOM      5  C4  BZF d   1      -0.840  -0.045   1.011  0.00  0.00     0.055 A 
ATOM      6  C5  BZF d   1      -0.660   0.019  -0.334  0.00  0.00    -0.016 A 
ATOM      7  C6  BZF d   1       0.516  -0.389  -0.930  0.00  0.00     0.022 A 
ATOM      8  C7  BZF d   1       1.542  -0.883  -0.196  0.00  0.00     0.029 A 
ATOM      9  C7A BZF d   1       1.351  -0.980   1.161  0.00  0.00     0.058 A 
ENDROOT
TORSDOF 0
ENDMDL
