MODEL 1
REMARK minimizedAffinity -3.34862828
REMARK minimizedRMSD -1
REMARK  0 active torsions:
REMARK  status: ('A' for Active; 'I' for Inactive)
ROOT
ATOM      1  O1  BZF d   1       1.124  -0.638  -1.388  0.00  0.00    -0.204 OA
ATOM      2  C2  BZF d   1      -0.061  -0.147  -1.901  0.00  0.00     0.174 A 
ATOM      3  C3  BZF d   1      -0.886   0.247  -0.909  0.00  0.00    -0.012 A 
ATOM      4  C3A BZF d   1      -0.134   0.072   0.296  0.00  0.00    -0.107 A 
ATOM      5  C4  BZF d   1      -0.406   0.305   1.614  0.00  0.00     0.055 A 
ATOM      6  C5  BZF d   1       0.516  -0.043   2.550  0.00  0.00    -0.016 A 
ATOM      7  C6  BZF d   1       1.716  -0.628   2.205  0.00  0.00     0.022 A 
ATOM      8  C7  BZF d   1       2.033  -0.874   0.910  0.00  0.00     0.029 A 
ATOM      9  C7A BZF d   1       1.117  -0.494  -0.041  0.00  0.00     0.058 A 
ENDROOT
TORSDOF 0
ENDMDL
