MODEL 1
REMARK minimizedAffinity -4.26809692
REMARK minimizedRMSD -1
REMARK  0 active torsions:
REMARK  status: ('A' for Active; 'I' for Inactive)
ROOT
ATOM      1  O1  BZF d   1       1.854  -0.536   1.651  0.00  0.00    -0.204 OA
ATOM      2  C2  BZF d   1       1.244  -0.628   2.888  0.00  0.00     0.174 A 
ATOM      3  C3  BZF d   1      -0.085  -0.426   2.781  0.00  0.00    -0.012 A 
ATOM      4  C3A BZF d   1      -0.334  -0.284   1.380  0.00  0.00    -0.107 A 
ATOM      5  C4  BZF d   1      -1.465  -0.079   0.643  0.00  0.00     0.055 A 
ATOM      6  C5  BZF d   1      -1.356   0.087  -0.702  0.00  0.00    -0.016 A 
ATOM      7  C6  BZF d   1      -0.134   0.059  -1.340  0.00  0.00     0.022 A 
ATOM      8  C7  BZF d   1       1.016  -0.148  -0.652  0.00  0.00     0.029 A 
ATOM      9  C7A BZF d   1       0.906  -0.348   0.702  0.00  0.00     0.058 A 
ENDROOT
TORSDOF 0
ENDMDL
