MODEL 1
REMARK minimizedAffinity -4.51095676
REMARK minimizedRMSD -1
REMARK  0 active torsions:
REMARK  status: ('A' for Active; 'I' for Inactive)
ROOT
ATOM      1  O1  BZF d   1      -1.471   0.442  -0.483  0.00  0.00    -0.204 OA
ATOM      2  C2  BZF d   1      -0.596   0.592  -1.542  0.00  0.00     0.174 A 
ATOM      3  C3  BZF d   1       0.673   0.356  -1.152  0.00  0.00    -0.012 A 
ATOM      4  C3A BZF d   1       0.576  -0.052   0.217  0.00  0.00    -0.107 A 
ATOM      5  C4  BZF d   1       1.497  -0.436   1.149  0.00  0.00     0.055 A 
ATOM      6  C5  BZF d   1       1.083  -0.700   2.416  0.00  0.00    -0.016 A 
ATOM      7  C6  BZF d   1      -0.241  -0.584   2.787  0.00  0.00     0.022 A 
ATOM      8  C7  BZF d   1      -1.192  -0.211   1.895  0.00  0.00     0.029 A 
ATOM      9  C7A BZF d   1      -0.781   0.024   0.606  0.00  0.00     0.058 A 
ENDROOT
TORSDOF 0
ENDMDL
