MODEL 1
REMARK minimizedAffinity 2.60527706
REMARK minimizedRMSD -1
REMARK  0 active torsions:
REMARK  status: ('A' for Active; 'I' for Inactive)
ROOT
ATOM      1  O1  BZF d   1      -2.264   1.334  -2.628  0.00  0.00    -0.204 OA
ATOM      2  C2  BZF d   1      -2.616   2.418  -3.408  0.00  0.00     0.174 A 
ATOM      3  C3  BZF d   1      -3.538   2.067  -4.327  0.00  0.00    -0.012 A 
ATOM      4  C3A BZF d   1      -3.846   0.698  -4.048  0.00  0.00    -0.107 A 
ATOM      5  C4  BZF d   1      -4.703  -0.205  -4.609  0.00  0.00     0.055 A 
ATOM      6  C5  BZF d   1      -4.710  -1.484  -4.148  0.00  0.00    -0.016 A 
ATOM      7  C6  BZF d   1      -3.872  -1.894  -3.132  0.00  0.00     0.022 A 
ATOM      8  C7  BZF d   1      -3.008  -1.033  -2.541  0.00  0.00     0.029 A 
ATOM      9  C7A BZF d   1      -3.021   0.268  -2.983  0.00  0.00     0.058 A 
ENDROOT
TORSDOF 0
ENDMDL
