MODEL 1
REMARK minimizedAffinity -2.9190197
REMARK minimizedRMSD -1
REMARK  0 active torsions:
REMARK  status: ('A' for Active; 'I' for Inactive)
ROOT
ATOM      1  O1  BZF d   1       0.327  -0.938  -1.131  0.00  0.00    -0.204 OA
ATOM      2  C2  BZF d   1       1.623  -1.404  -1.026  0.00  0.00     0.174 A 
ATOM      3  C3  BZF d   1       2.067  -1.301   0.244  0.00  0.00    -0.012 A 
ATOM      4  C3A BZF d   1       0.949  -0.821   0.996  0.00  0.00    -0.107 A 
ATOM      5  C4  BZF d   1       0.761  -0.532   2.317  0.00  0.00     0.055 A 
ATOM      6  C5  BZF d   1      -0.430  -0.012   2.716  0.00  0.00    -0.016 A 
ATOM      7  C6  BZF d   1      -1.450   0.236   1.822  0.00  0.00     0.022 A 
ATOM      8  C7  BZF d   1      -1.312  -0.039   0.502  0.00  0.00     0.029 A 
ATOM      9  C7A BZF d   1      -0.122  -0.595   0.101  0.00  0.00     0.058 A 
ENDROOT
TORSDOF 0
ENDMDL
