MODEL 1
REMARK minimizedAffinity -2.92052603
REMARK minimizedRMSD -1
REMARK  0 active torsions:
REMARK  status: ('A' for Active; 'I' for Inactive)
ROOT
ATOM      1  O1  BZF d   1       1.399  -0.597  -0.585  0.00  0.00    -0.204 OA
ATOM      2  C2  BZF d   1       0.511  -0.086  -1.512  0.00  0.00     0.174 A 
ATOM      3  C3  BZF d   1      -0.613   0.351  -0.908  0.00  0.00    -0.012 A 
ATOM      4  C3A BZF d   1      -0.376   0.182   0.493  0.00  0.00    -0.107 A 
ATOM      5  C4  BZF d   1      -1.117   0.449   1.609  0.00  0.00     0.055 A 
ATOM      6  C5  BZF d   1      -0.627   0.098   2.827  0.00  0.00    -0.016 A 
ATOM      7  C6  BZF d   1       0.596  -0.526   2.965  0.00  0.00     0.022 A 
ATOM      8  C7  BZF d   1       1.368  -0.808   1.887  0.00  0.00     0.029 A 
ATOM      9  C7A BZF d   1       0.891  -0.424   0.658  0.00  0.00     0.058 A 
ENDROOT
TORSDOF 0
ENDMDL
