MODEL 1
REMARK minimizedAffinity 10.4699459
REMARK minimizedRMSD -1
REMARK  1 active torsions:
REMARK  status: ('A' for Active; 'I' for Inactive)
REMARK    1  A    between atoms: C1_2  and  C2_3 
ROOT
ATOM      1  C2  UNL d   1       0.591   0.392   2.906  0.00  0.00    -0.076 A 
ATOM      2  C3  UNL d   1      -0.490   1.029   3.539  0.00  0.00     0.004 A 
ATOM      3  C4  UNL d   1      -0.977   2.249   3.073  0.00  0.00    -0.003 A 
ATOM      4  C5  UNL d   1      -0.390   2.852   1.966  0.00  0.00     0.000 A 
ATOM      5  C6  UNL d   1       0.672   2.226   1.315  0.00  0.00     0.000 A 
ATOM      6  C7  UNL d   1       1.164   0.987   1.762  0.00  0.00    -0.073 A 
ATOM      7  C8  UNL d   1       2.316   0.360   1.026  0.00  0.00     0.078 C 
ENDROOT
BRANCH   1   8
ATOM      8  C1  UNL d   1       1.094  -0.917   3.473  0.00  0.00     0.053 C 
ATOM      9  C   UNL d   1       0.971  -0.981   4.988  0.00  0.00     0.018 C 
ENDBRANCH   1   8
TORSDOF 1
ENDMDL
