MODEL 1
REMARK minimizedAffinity 8.4146986
REMARK minimizedRMSD -1
REMARK  1 active torsions:
REMARK  status: ('A' for Active; 'I' for Inactive)
REMARK    1  A    between atoms: C1_2  and  C2_3 
ROOT
ATOM      1  C2  UNL d   1      -2.274  -0.248  -1.547  0.00  0.00    -0.076 A 
ATOM      2  C3  UNL d   1      -1.808   0.995  -1.085  0.00  0.00     0.004 A 
ATOM      3  C4  UNL d   1      -0.645   1.563  -1.603  0.00  0.00    -0.003 A 
ATOM      4  C5  UNL d   1       0.070   0.897  -2.592  0.00  0.00     0.000 A 
ATOM      5  C6  UNL d   1      -0.388  -0.329  -3.075  0.00  0.00     0.000 A 
ATOM      6  C7  UNL d   1      -1.567  -0.907  -2.575  0.00  0.00    -0.073 A 
ATOM      7  C8  UNL d   1      -2.011  -2.234  -3.127  0.00  0.00     0.078 C 
ENDROOT
BRANCH   1   8
ATOM      8  C1  UNL d   1      -3.527  -0.826  -0.928  0.00  0.00     0.053 C 
ATOM      9  C   UNL d   1      -4.736   0.078  -1.106  0.00  0.00     0.018 C 
ENDBRANCH   1   8
TORSDOF 1
ENDMDL
