MODEL 1
REMARK minimizedAffinity 5.87138176
REMARK minimizedRMSD -1
REMARK  1 active torsions:
REMARK  status: ('A' for Active; 'I' for Inactive)
REMARK    1  A    between atoms: C1_2  and  C2_3 
ROOT
ATOM      1  C2  UNL d   1      -2.067   3.499   0.912  0.00  0.00    -0.076 A 
ATOM      2  C3  UNL d   1      -2.011   3.214   2.287  0.00  0.00     0.004 A 
ATOM      3  C4  UNL d   1      -1.330   2.095   2.761  0.00  0.00    -0.003 A 
ATOM      4  C5  UNL d   1      -0.692   1.242   1.867  0.00  0.00     0.000 A 
ATOM      5  C6  UNL d   1      -0.721   1.518   0.501  0.00  0.00     0.000 A 
ATOM      6  C7  UNL d   1      -1.390   2.652   0.008  0.00  0.00    -0.073 A 
ATOM      7  C8  UNL d   1      -1.396   2.899  -1.476  0.00  0.00     0.078 C 
ENDROOT
BRANCH   1   8
ATOM      8  C1  UNL d   1      -2.844   4.713   0.454  0.00  0.00     0.053 C 
ATOM      9  C   UNL d   1      -3.453   5.486   1.614  0.00  0.00     0.018 C 
ENDBRANCH   1   8
TORSDOF 1
ENDMDL
