MODEL 1
REMARK minimizedAffinity 5.1916852
REMARK minimizedRMSD -1
REMARK  2 active torsions:
REMARK  status: ('A' for Active; 'I' for Inactive)
REMARK    1  A    between atoms: C2'_3  and  C1'_4 
REMARK    2  A    between atoms: C1'_4  and  C1_5 
ROOT
ATOM      1  C1  I4B d   1       1.143   1.601  -0.851  0.00  0.00    -0.075 A 
ATOM      2  C2  I4B d   1       2.013   1.932   0.158  0.00  0.00     0.003 A 
ATOM      3  C3  I4B d   1       1.518   2.318   1.427  0.00  0.00     0.002 A 
ATOM      4  C4  I4B d   1       0.156   2.408   1.627  0.00  0.00    -0.004 A 
ATOM      5  C5  I4B d   1      -0.724   2.051   0.610  0.00  0.00     0.002 A 
ATOM      6  C6  I4B d   1      -0.228   1.633  -0.634  0.00  0.00     0.003 A 
ENDROOT
BRANCH   1   7
ATOM      7  C1' I4B d   1       1.700   1.229  -2.189  0.00  0.00     0.060 C 
BRANCH   7   8
ATOM      8  C2' I4B d   1       2.852   0.271  -1.965  0.00  0.00    -0.013 C 
ATOM      9  C4' I4B d   1       2.388  -1.161  -2.022  0.00  0.00     0.013 C 
ATOM     10  C3' I4B d   1       3.892   0.545  -3.010  0.00  0.00     0.013 C 
ENDBRANCH   7   8
ENDBRANCH   1   7
TORSDOF 2
ENDMDL
