MODEL 1
REMARK minimizedAffinity 2.66659164
REMARK minimizedRMSD -1
REMARK  2 active torsions:
REMARK  status: ('A' for Active; 'I' for Inactive)
REMARK    1  A    between atoms: C2'_3  and  C1'_4 
REMARK    2  A    between atoms: C1'_4  and  C1_5 
ROOT
ATOM      1  C1  I4B d   1       2.847   0.659  -1.897  0.00  0.00    -0.075 A 
ATOM      2  C2  I4B d   1       3.945   0.372  -1.125  0.00  0.00     0.003 A 
ATOM      3  C3  I4B d   1       4.165  -0.948  -0.661  0.00  0.00     0.002 A 
ATOM      4  C4  I4B d   1       3.241  -1.932  -0.949  0.00  0.00    -0.004 A 
ATOM      5  C5  I4B d   1       2.141  -1.644  -1.751  0.00  0.00     0.002 A 
ATOM      6  C6  I4B d   1       1.949  -0.343  -2.239  0.00  0.00     0.003 A 
ENDROOT
BRANCH   1   7
ATOM      7  C1' I4B d   1       2.629   2.070  -2.342  0.00  0.00     0.060 C 
BRANCH   7   8
ATOM      8  C2' I4B d   1       1.143   2.262  -2.574  0.00  0.00    -0.013 C 
ATOM      9  C4' I4B d   1       0.366   2.091  -1.296  0.00  0.00     0.013 C 
ATOM     10  C3' I4B d   1       0.938   3.629  -3.154  0.00  0.00     0.013 C 
ENDBRANCH   7   8
ENDBRANCH   1   7
TORSDOF 2
ENDMDL
