MODEL 1
REMARK minimizedAffinity 12.0868216
REMARK minimizedRMSD -1
REMARK  2 active torsions:
REMARK  status: ('A' for Active; 'I' for Inactive)
REMARK    1  A    between atoms: C2'_3  and  C1'_4 
REMARK    2  A    between atoms: C1'_4  and  C1_5 
ROOT
ATOM      1  C1  I4B d   1       1.639  -2.700   0.352  0.00  0.00    -0.075 A 
ATOM      2  C2  I4B d   1       0.397  -2.598  -0.225  0.00  0.00     0.003 A 
ATOM      3  C3  I4B d   1       0.239  -1.933  -1.465  0.00  0.00     0.002 A 
ATOM      4  C4  I4B d   1       1.334  -1.345  -2.065  0.00  0.00    -0.004 A 
ATOM      5  C5  I4B d   1       2.596  -1.469  -1.491  0.00  0.00     0.002 A 
ATOM      6  C6  I4B d   1       2.752  -2.161  -0.281  0.00  0.00     0.003 A 
ENDROOT
BRANCH   1   7
ATOM      7  C1' I4B d   1       1.764  -3.380   1.678  0.00  0.00     0.060 C 
BRANCH   7   8
ATOM      8  C2' I4B d   1       1.710  -4.875   1.443  0.00  0.00    -0.013 C 
ATOM      9  C4' I4B d   1       2.812  -5.584   2.184  0.00  0.00     0.013 C 
ATOM     10  C3' I4B d   1       0.361  -5.364   1.881  0.00  0.00     0.013 C 
ENDBRANCH   7   8
ENDBRANCH   1   7
TORSDOF 2
ENDMDL
