MODEL 1
REMARK minimizedAffinity 11.0460958
REMARK minimizedRMSD -1
REMARK  2 active torsions:
REMARK  status: ('A' for Active; 'I' for Inactive)
REMARK    1  A    between atoms: C2'_3  and  C1'_4 
REMARK    2  A    between atoms: C1'_4  and  C1_5 
ROOT
ATOM      1  C1  I4B d   1       1.912   0.328  -1.805  0.00  0.00    -0.075 A 
ATOM      2  C2  I4B d   1       0.898   1.010  -1.179  0.00  0.00     0.003 A 
ATOM      3  C3  I4B d   1       0.447   2.248  -1.697  0.00  0.00     0.002 A 
ATOM      4  C4  I4B d   1       1.066   2.788  -2.806  0.00  0.00    -0.004 A 
ATOM      5  C5  I4B d   1       2.077   2.084  -3.453  0.00  0.00     0.002 A 
ATOM      6  C6  I4B d   1       2.495   0.840  -2.957  0.00  0.00     0.003 A 
ENDROOT
BRANCH   1   7
ATOM      7  C1' I4B d   1       2.386  -0.961  -1.213  0.00  0.00     0.060 C 
BRANCH   7   8
ATOM      8  C2' I4B d   1       1.176  -1.842  -0.980  0.00  0.00    -0.013 C 
ATOM      9  C4' I4B d   1       0.581  -2.306  -2.283  0.00  0.00     0.013 C 
ATOM     10  C3' I4B d   1       1.604  -3.004  -0.136  0.00  0.00     0.013 C 
ENDBRANCH   7   8
ENDBRANCH   1   7
TORSDOF 2
ENDMDL
