MODEL 1
REMARK minimizedAffinity 3.66312051
REMARK minimizedRMSD -1
REMARK  2 active torsions:
REMARK  status: ('A' for Active; 'I' for Inactive)
REMARK    1  A    between atoms: C2'_3  and  C1'_4 
REMARK    2  A    between atoms: C1'_4  and  C1_5 
ROOT
ATOM      1  C1  I4B d   1      -4.359  -0.003   3.687  0.00  0.00    -0.075 A 
ATOM      2  C2  I4B d   1      -5.183   1.094   3.750  0.00  0.00     0.003 A 
ATOM      3  C3  I4B d   1      -6.000   1.306   4.887  0.00  0.00     0.002 A 
ATOM      4  C4  I4B d   1      -6.000   0.378   5.907  0.00  0.00    -0.004 A 
ATOM      5  C5  I4B d   1      -5.147  -0.721   5.852  0.00  0.00     0.002 A 
ATOM      6  C6  I4B d   1      -4.312  -0.907   4.740  0.00  0.00     0.003 A 
ENDROOT
BRANCH   1   7
ATOM      7  C1' I4B d   1      -3.534  -0.214   2.457  0.00  0.00     0.060 C 
BRANCH   7   8
ATOM      8  C2' I4B d   1      -4.128  -1.378   1.691  0.00  0.00    -0.013 C 
ATOM      9  C4' I4B d   1      -5.486  -1.033   1.141  0.00  0.00     0.013 C 
ATOM     10  C3' I4B d   1      -3.175  -1.743   0.592  0.00  0.00     0.013 C 
ENDBRANCH   7   8
ENDBRANCH   1   7
TORSDOF 2
ENDMDL
