MODEL 1
REMARK minimizedAffinity 7.10316658
REMARK minimizedRMSD -1
REMARK  2 active torsions:
REMARK  status: ('A' for Active; 'I' for Inactive)
REMARK    1  A    between atoms: C2'_3  and  C1'_4 
REMARK    2  A    between atoms: C1'_4  and  C1_5 
ROOT
ATOM      1  C1  I4B d   1       1.133  -0.867  -2.526  0.00  0.00    -0.075 A 
ATOM      2  C2  I4B d   1       1.865  -0.418  -3.596  0.00  0.00     0.003 A 
ATOM      3  C3  I4B d   1       1.840   0.952  -3.954  0.00  0.00     0.002 A 
ATOM      4  C4  I4B d   1       1.034   1.823  -3.250  0.00  0.00    -0.004 A 
ATOM      5  C5  I4B d   1       0.310   1.371  -2.151  0.00  0.00     0.002 A 
ATOM      6  C6  I4B d   1       0.368   0.020  -1.778  0.00  0.00     0.003 A 
ENDROOT
BRANCH   1   7
ATOM      7  C1' I4B d   1       1.157  -2.325  -2.196  0.00  0.00     0.060 C 
BRANCH   7   8
ATOM      8  C2' I4B d   1       0.412  -3.064  -3.289  0.00  0.00    -0.013 C 
ATOM      9  C4' I4B d   1       0.271  -2.212  -4.524  0.00  0.00     0.013 C 
ATOM     10  C3' I4B d   1       1.160  -4.329  -3.587  0.00  0.00     0.013 C 
ENDBRANCH   7   8
ENDBRANCH   1   7
TORSDOF 2
ENDMDL
