MODEL 1
REMARK minimizedAffinity 6.49918699
REMARK minimizedRMSD -1
REMARK  2 active torsions:
REMARK  status: ('A' for Active; 'I' for Inactive)
REMARK    1  A    between atoms: C2'_3  and  C1'_4 
REMARK    2  A    between atoms: C1'_4  and  C1_5 
ROOT
ATOM      1  C1  I4B d   1       2.461  -1.080  -1.709  0.00  0.00    -0.075 A 
ATOM      2  C2  I4B d   1       3.197  -1.379  -0.589  0.00  0.00     0.003 A 
ATOM      3  C3  I4B d   1       2.906  -2.540   0.166  0.00  0.00     0.002 A 
ATOM      4  C4  I4B d   1       1.845  -3.342  -0.202  0.00  0.00    -0.004 A 
ATOM      5  C5  I4B d   1       1.114  -3.050  -1.350  0.00  0.00     0.002 A 
ATOM      6  C6  I4B d   1       1.432  -1.919  -2.116  0.00  0.00     0.003 A 
ENDROOT
BRANCH   1   7
ATOM      7  C1' I4B d   1       2.775   0.172  -2.465  0.00  0.00     0.060 C 
BRANCH   7   8
ATOM      8  C2' I4B d   1       1.463   0.815  -2.867  0.00  0.00    -0.013 C 
ATOM      9  C4' I4B d   1       1.436   2.275  -2.497  0.00  0.00     0.013 C 
ATOM     10  C3' I4B d   1       1.290   0.628  -4.345  0.00  0.00     0.013 C 
ENDBRANCH   7   8
ENDBRANCH   1   7
TORSDOF 2
ENDMDL
