MODEL 1
REMARK minimizedAffinity 5.21886683
REMARK minimizedRMSD -1
REMARK  2 active torsions:
REMARK  status: ('A' for Active; 'I' for Inactive)
REMARK    1  A    between atoms: C2'_3  and  C1'_4 
REMARK    2  A    between atoms: C1'_4  and  C1_5 
ROOT
ATOM      1  C1  I4B d   1       2.018   1.957  -3.564  0.00  0.00    -0.075 A 
ATOM      2  C2  I4B d   1       2.137   3.217  -3.034  0.00  0.00     0.003 A 
ATOM      3  C3  I4B d   1       1.684   4.343  -3.764  0.00  0.00     0.002 A 
ATOM      4  C4  I4B d   1       1.169   4.168  -5.032  0.00  0.00    -0.004 A 
ATOM      5  C5  I4B d   1       1.028   2.887  -5.558  0.00  0.00     0.002 A 
ATOM      6  C6  I4B d   1       1.444   1.773  -4.815  0.00  0.00     0.003 A 
ENDROOT
BRANCH   1   7
ATOM      7  C1' I4B d   1       2.537   0.793  -2.779  0.00  0.00     0.060 C 
BRANCH   7   8
ATOM      8  C2' I4B d   1       1.347   0.028  -2.237  0.00  0.00    -0.013 C 
ATOM      9  C4' I4B d   1       1.776  -1.271  -1.607  0.00  0.00     0.013 C 
ATOM     10  C3' I4B d   1       0.644   0.905  -1.245  0.00  0.00     0.013 C 
ENDBRANCH   7   8
ENDBRANCH   1   7
TORSDOF 2
ENDMDL
