MODEL 1
REMARK minimizedAffinity -0.0513261184
REMARK minimizedRMSD -1
REMARK  2 active torsions:
REMARK  status: ('A' for Active; 'I' for Inactive)
REMARK    1  A    between atoms: C2'_3  and  C1'_4 
REMARK    2  A    between atoms: C1'_4  and  C1_5 
ROOT
ATOM      1  C1  I4B d   1       1.352   1.745  -1.300  0.00  0.00    -0.075 A 
ATOM      2  C2  I4B d   1       2.265   1.996  -0.306  0.00  0.00     0.003 A 
ATOM      3  C3  I4B d   1       1.825   2.336   0.996  0.00  0.00     0.002 A 
ATOM      4  C4  I4B d   1       0.474   2.464   1.246  0.00  0.00    -0.004 A 
ATOM      5  C5  I4B d   1      -0.450   2.187   0.243  0.00  0.00     0.002 A 
ATOM      6  C6  I4B d   1      -0.010   1.813  -1.035  0.00  0.00     0.003 A 
ENDROOT
BRANCH   1   7
ATOM      7  C1' I4B d   1       1.851   1.420  -2.672  0.00  0.00     0.060 C 
BRANCH   7   8
ATOM      8  C2' I4B d   1       1.269   2.436  -3.633  0.00  0.00    -0.013 C 
ATOM      9  C4' I4B d   1       2.047   3.725  -3.602  0.00  0.00     0.013 C 
ATOM     10  C3' I4B d   1       1.276   1.833  -5.006  0.00  0.00     0.013 C 
ENDBRANCH   7   8
ENDBRANCH   1   7
TORSDOF 2
ENDMDL
