MODEL 1
REMARK minimizedAffinity 6.16130018
REMARK minimizedRMSD -1
REMARK  2 active torsions:
REMARK  status: ('A' for Active; 'I' for Inactive)
REMARK    1  A    between atoms: C2'_3  and  C1'_4 
REMARK    2  A    between atoms: C1'_4  and  C1_5 
ROOT
ATOM      1  C1  I4B d   1       0.327   1.616  -1.105  0.00  0.00    -0.075 A 
ATOM      2  C2  I4B d   1      -0.988   1.994  -1.001  0.00  0.00     0.003 A 
ATOM      3  C3  I4B d   1      -1.471   2.574   0.197  0.00  0.00     0.002 A 
ATOM      4  C4  I4B d   1      -0.622   2.711   1.276  0.00  0.00    -0.004 A 
ATOM      5  C5  I4B d   1       0.717   2.349   1.161  0.00  0.00     0.002 A 
ATOM      6  C6  I4B d   1       1.198   1.810  -0.041  0.00  0.00     0.003 A 
ENDROOT
BRANCH   1   7
ATOM      7  C1' I4B d   1       0.796   0.976  -2.374  0.00  0.00     0.060 C 
BRANCH   7   8
ATOM      8  C2' I4B d   1       1.918   0.019  -2.027  0.00  0.00    -0.013 C 
ATOM      9  C4' I4B d   1       1.511  -1.410  -2.275  0.00  0.00     0.013 C 
ATOM     10  C3' I4B d   1       3.115   0.392  -2.848  0.00  0.00     0.013 C 
ENDBRANCH   7   8
ENDBRANCH   1   7
TORSDOF 2
ENDMDL
