MODEL 1
REMARK minimizedAffinity 7.88406944
REMARK minimizedRMSD -1
REMARK  2 active torsions:
REMARK  status: ('A' for Active; 'I' for Inactive)
REMARK    1  A    between atoms: C2'_3  and  C1'_4 
REMARK    2  A    between atoms: C1'_4  and  C1_5 
ROOT
ATOM      1  C1  I4B d   1       1.981  -0.024  -2.054  0.00  0.00    -0.075 A 
ATOM      2  C2  I4B d   1       0.631  -0.191  -1.871  0.00  0.00     0.003 A 
ATOM      3  C3  I4B d   1       0.143  -1.295  -1.130  0.00  0.00     0.002 A 
ATOM      4  C4  I4B d   1       1.032  -2.227  -0.636  0.00  0.00    -0.004 A 
ATOM      5  C5  I4B d   1       2.402  -2.044  -0.802  0.00  0.00     0.002 A 
ATOM      6  C6  I4B d   1       2.881  -0.929  -1.505  0.00  0.00     0.003 A 
ENDROOT
BRANCH   1   7
ATOM      7  C1' I4B d   1       2.460   1.135  -2.870  0.00  0.00     0.060 C 
BRANCH   7   8
ATOM      8  C2' I4B d   1       1.845   2.396  -2.296  0.00  0.00    -0.013 C 
ATOM      9  C4' I4B d   1       2.906   3.345  -1.804  0.00  0.00     0.013 C 
ATOM     10  C3' I4B d   1       1.005   3.029  -3.365  0.00  0.00     0.013 C 
ENDBRANCH   7   8
ENDBRANCH   1   7
TORSDOF 2
ENDMDL
