MODEL 1
REMARK minimizedAffinity 7.65858316
REMARK minimizedRMSD -1
REMARK  2 active torsions:
REMARK  status: ('A' for Active; 'I' for Inactive)
REMARK    1  A    between atoms: C2'_3  and  C1'_4 
REMARK    2  A    between atoms: C1'_4  and  C1_5 
ROOT
ATOM      1  C1  I4B d   1       2.471  -0.492  -2.179  0.00  0.00    -0.075 A 
ATOM      2  C2  I4B d   1       3.032  -0.910  -0.998  0.00  0.00     0.003 A 
ATOM      3  C3  I4B d   1       2.573  -2.093  -0.370  0.00  0.00     0.002 A 
ATOM      4  C4  I4B d   1       1.524  -2.795  -0.927  0.00  0.00    -0.004 A 
ATOM      5  C5  I4B d   1       0.972  -2.382  -2.136  0.00  0.00     0.002 A 
ATOM      6  C6  I4B d   1       1.456  -1.231  -2.773  0.00  0.00     0.003 A 
ENDROOT
BRANCH   1   7
ATOM      7  C1' I4B d   1       2.958   0.780  -2.798  0.00  0.00     0.060 C 
BRANCH   7   8
ATOM      8  C2' I4B d   1       1.779   1.723  -2.915  0.00  0.00    -0.013 C 
ATOM      9  C4' I4B d   1       1.236   1.747  -4.320  0.00  0.00     0.013 C 
ATOM     10  C3' I4B d   1       0.732   1.279  -1.937  0.00  0.00     0.013 C 
ENDBRANCH   7   8
ENDBRANCH   1   7
TORSDOF 2
ENDMDL
