MODEL 1
REMARK minimizedAffinity 8.40606689
REMARK minimizedRMSD -1
REMARK  2 active torsions:
REMARK  status: ('A' for Active; 'I' for Inactive)
REMARK    1  A    between atoms: C2'_3  and  C1'_4 
REMARK    2  A    between atoms: C1'_4  and  C1_5 
ROOT
ATOM      1  C1  I4B d   1      -0.286  -1.970  -1.300  0.00  0.00    -0.075 A 
ATOM      2  C2  I4B d   1       0.149  -2.925  -0.415  0.00  0.00     0.003 A 
ATOM      3  C3  I4B d   1       1.467  -2.874   0.099  0.00  0.00     0.002 A 
ATOM      4  C4  I4B d   1       2.328  -1.886  -0.334  0.00  0.00    -0.004 A 
ATOM      5  C5  I4B d   1       1.878  -0.905  -1.213  0.00  0.00     0.002 A 
ATOM      6  C6  I4B d   1       0.560  -0.939  -1.690  0.00  0.00     0.003 A 
ENDROOT
BRANCH   1   7
ATOM      7  C1' I4B d   1      -1.673  -2.073  -1.848  0.00  0.00     0.060 C 
BRANCH   7   8
ATOM      8  C2' I4B d   1      -2.628  -1.515  -0.812  0.00  0.00    -0.013 C 
ATOM      9  C4' I4B d   1      -2.535  -0.014  -0.738  0.00  0.00     0.013 C 
ATOM     10  C3' I4B d   1      -4.014  -1.955  -1.175  0.00  0.00     0.013 C 
ENDBRANCH   7   8
ENDBRANCH   1   7
TORSDOF 2
ENDMDL
