MODEL 1
REMARK minimizedAffinity 4.13735628
REMARK minimizedRMSD -1
REMARK  2 active torsions:
REMARK  status: ('A' for Active; 'I' for Inactive)
REMARK    1  A    between atoms: C2'_3  and  C1'_4 
REMARK    2  A    between atoms: C1'_4  and  C1_5 
ROOT
ATOM      1  C1  I4B d   1       0.263   1.448  -0.977  0.00  0.00    -0.075 A 
ATOM      2  C2  I4B d   1       1.190   0.485  -1.290  0.00  0.00     0.003 A 
ATOM      3  C3  I4B d   1       1.984   0.612  -2.456  0.00  0.00     0.002 A 
ATOM      4  C4  I4B d   1       1.784   1.685  -3.300  0.00  0.00    -0.004 A 
ATOM      5  C5  I4B d   1       0.860   2.671  -2.970  0.00  0.00     0.002 A 
ATOM      6  C6  I4B d   1       0.103   2.559  -1.794  0.00  0.00     0.003 A 
ENDROOT
BRANCH   1   7
ATOM      7  C1' I4B d   1      -0.582   1.265   0.244  0.00  0.00     0.060 C 
BRANCH   7   8
ATOM      8  C2' I4B d   1      -0.153   2.298   1.267  0.00  0.00    -0.013 C 
ATOM      9  C4' I4B d   1       1.335   2.254   1.496  0.00  0.00     0.013 C 
ATOM     10  C3' I4B d   1      -0.585   3.646   0.772  0.00  0.00     0.013 C 
ENDBRANCH   7   8
ENDBRANCH   1   7
TORSDOF 2
ENDMDL
