MODEL 1
REMARK minimizedAffinity -4.99298429
REMARK minimizedRMSD -1
REMARK  0 active torsions:
REMARK  status: ('A' for Active; 'I' for Inactive)
ROOT
ATOM      1  C2' OXE d   1       2.962   1.395  -0.449  0.00  0.00     0.078 C 
ATOM      2  C1' OXE d   1       1.323   2.545   1.519  0.00  0.00     0.078 C 
ATOM      3  C1  OXE d   1       0.737   1.445   0.670  0.00  0.00    -0.078 A 
ATOM      4  C2  OXE d   1       1.531   0.920  -0.321  0.00  0.00    -0.078 A 
ATOM      5  C3  OXE d   1       1.058  -0.135  -1.097  0.00  0.00     0.003 A 
ATOM      6  C4  OXE d   1      -0.270  -0.562  -0.979  0.00  0.00    -0.002 A 
ATOM      7  C5  OXE d   1      -1.108  -0.013  -0.002  0.00  0.00    -0.002 A 
ATOM      8  C6  OXE d   1      -0.608   0.959   0.857  0.00  0.00     0.003 A 
ENDROOT
TORSDOF 0
ENDMDL
