MODEL 1
REMARK minimizedAffinity -4.55004978
REMARK minimizedRMSD -1
REMARK  0 active torsions:
REMARK  status: ('A' for Active; 'I' for Inactive)
ROOT
ATOM      1  C2' OXE d   1       1.391   2.688   1.117  0.00  0.00     0.078 C 
ATOM      2  C1' OXE d   1      -0.963   1.407   1.953  0.00  0.00     0.078 C 
ATOM      3  C1  OXE d   1      -0.064   0.670   0.992  0.00  0.00    -0.078 A 
ATOM      4  C2  OXE d   1       1.062   1.323   0.553  0.00  0.00    -0.078 A 
ATOM      5  C3  OXE d   1       1.954   0.668  -0.291  0.00  0.00     0.003 A 
ATOM      6  C4  OXE d   1       1.638  -0.591  -0.817  0.00  0.00    -0.002 A 
ATOM      7  C5  OXE d   1       0.477  -1.258  -0.413  0.00  0.00    -0.002 A 
ATOM      8  C6  OXE d   1      -0.362  -0.661   0.522  0.00  0.00     0.003 A 
ENDROOT
TORSDOF 0
ENDMDL
