MODEL 1
REMARK minimizedAffinity -2.39343262
REMARK minimizedRMSD -1
REMARK  0 active torsions:
REMARK  status: ('A' for Active; 'I' for Inactive)
ROOT
ATOM      1  C2' OXE d   1      -2.502   6.000  -2.559  0.00  0.00     0.078 C 
ATOM      2  C1' OXE d   1      -1.702   5.980  -5.250  0.00  0.00     0.078 C 
ATOM      3  C1  OXE d   1      -3.182   5.982  -4.956  0.00  0.00    -0.078 A 
ATOM      4  C2  OXE d   1      -3.564   5.944  -3.636  0.00  0.00    -0.078 A 
ATOM      5  C3  OXE d   1      -4.916   5.999  -3.308  0.00  0.00     0.003 A 
ATOM      6  C4  OXE d   1      -5.891   5.938  -4.311  0.00  0.00    -0.002 A 
ATOM      7  C5  OXE d   1      -5.523   5.935  -5.660  0.00  0.00    -0.002 A 
ATOM      8  C6  OXE d   1      -4.176   6.000  -6.000  0.00  0.00     0.003 A 
ENDROOT
TORSDOF 0
ENDMDL
