MODEL 1
REMARK minimizedAffinity -3.57388759
REMARK minimizedRMSD -1
REMARK  0 active torsions:
REMARK  status: ('A' for Active; 'I' for Inactive)
ROOT
ATOM      1  C2' OXE d   1      -0.046  -1.020  -0.310  0.00  0.00     0.078 C 
ATOM      2  C1' OXE d   1       2.565  -0.075  -0.722  0.00  0.00     0.078 C 
ATOM      3  C1  OXE d   1       1.671   0.710   0.205  0.00  0.00    -0.078 A 
ATOM      4  C2  OXE d   1       0.380   0.266   0.364  0.00  0.00    -0.078 A 
ATOM      5  C3  OXE d   1      -0.469   0.922   1.251  0.00  0.00     0.003 A 
ATOM      6  C4  OXE d   1      -0.070   2.116   1.863  0.00  0.00    -0.002 A 
ATOM      7  C5  OXE d   1       1.227   2.607   1.683  0.00  0.00    -0.002 A 
ATOM      8  C6  OXE d   1       2.122   1.895   0.893  0.00  0.00     0.003 A 
ENDROOT
TORSDOF 0
ENDMDL
