MODEL 1
REMARK minimizedAffinity -5.02813101
REMARK minimizedRMSD -1
REMARK  0 active torsions:
REMARK  status: ('A' for Active; 'I' for Inactive)
ROOT
ATOM      1  C2' OXE d   1       3.492   1.230  -0.768  0.00  0.00     0.078 C 
ATOM      2  C1' OXE d   1       1.496   2.601   0.652  0.00  0.00     0.078 C 
ATOM      3  C1  OXE d   1       1.198   1.192   0.202  0.00  0.00    -0.078 A 
ATOM      4  C2  OXE d   1       2.163   0.546  -0.532  0.00  0.00    -0.078 A 
ATOM      5  C3  OXE d   1       1.961  -0.774  -0.925  0.00  0.00     0.003 A 
ATOM      6  C4  OXE d   1       0.725  -1.396  -0.712  0.00  0.00    -0.002 A 
ATOM      7  C5  OXE d   1      -0.286  -0.742  -0.001  0.00  0.00    -0.002 A 
ATOM      8  C6  OXE d   1      -0.050   0.534   0.499  0.00  0.00     0.003 A 
ENDROOT
TORSDOF 0
ENDMDL
