MODEL 1
REMARK minimizedAffinity -3.84732437
REMARK minimizedRMSD -1
REMARK  0 active torsions:
REMARK  status: ('A' for Active; 'I' for Inactive)
ROOT
ATOM      1  C2' OXE d   1       3.635   1.462  -0.117  0.00  0.00     0.078 C 
ATOM      2  C1' OXE d   1       1.802   2.640   1.652  0.00  0.00     0.078 C 
ATOM      3  C1  OXE d   1       1.424   1.323   1.022  0.00  0.00    -0.078 A 
ATOM      4  C2  OXE d   1       2.307   0.777   0.122  0.00  0.00    -0.078 A 
ATOM      5  C3  OXE d   1       2.032  -0.464  -0.447  0.00  0.00     0.003 A 
ATOM      6  C4  OXE d   1       0.797  -1.086  -0.228  0.00  0.00    -0.002 A 
ATOM      7  C5  OXE d   1      -0.133  -0.527   0.655  0.00  0.00    -0.002 A 
ATOM      8  C6  OXE d   1       0.182   0.653   1.320  0.00  0.00     0.003 A 
ENDROOT
TORSDOF 0
ENDMDL
