MODEL 1
REMARK minimizedAffinity -3.99682879
REMARK minimizedRMSD -1
REMARK  0 active torsions:
REMARK  status: ('A' for Active; 'I' for Inactive)
ROOT
ATOM      1  C2' OXE d   1       0.715  -1.285  -0.735  0.00  0.00     0.078 C 
ATOM      2  C1' OXE d   1       2.819   0.513  -0.265  0.00  0.00     0.078 C 
ATOM      3  C1  OXE d   1       1.501   0.778   0.420  0.00  0.00    -0.078 A 
ATOM      4  C2  OXE d   1       0.463  -0.081   0.147  0.00  0.00    -0.078 A 
ATOM      5  C3  OXE d   1      -0.758   0.086   0.794  0.00  0.00     0.003 A 
ATOM      6  C4  OXE d   1      -0.985   1.208   1.601  0.00  0.00    -0.002 A 
ATOM      7  C5  OXE d   1       0.047   2.117   1.860  0.00  0.00    -0.002 A 
ATOM      8  C6  OXE d   1       1.305   1.893   1.312  0.00  0.00     0.003 A 
ENDROOT
TORSDOF 0
ENDMDL
