MODEL 1
REMARK minimizedAffinity -3.58171797
REMARK minimizedRMSD -1
REMARK  0 active torsions:
REMARK  status: ('A' for Active; 'I' for Inactive)
ROOT
ATOM      1  C2' OXE d   1       1.465   2.451   1.049  0.00  0.00     0.078 C 
ATOM      2  C1' OXE d   1       2.959   0.919  -0.768  0.00  0.00     0.078 C 
ATOM      3  C1  OXE d   1       1.622   0.379  -0.324  0.00  0.00    -0.078 A 
ATOM      4  C2  OXE d   1       0.919   1.112   0.601  0.00  0.00    -0.078 A 
ATOM      5  C3  OXE d   1      -0.344   0.686   1.002  0.00  0.00     0.003 A 
ATOM      6  C4  OXE d   1      -0.836  -0.558   0.590  0.00  0.00    -0.002 A 
ATOM      7  C5  OXE d   1      -0.118  -1.339  -0.321  0.00  0.00    -0.002 A 
ATOM      8  C6  OXE d   1       1.091  -0.867  -0.820  0.00  0.00     0.003 A 
ENDROOT
TORSDOF 0
ENDMDL
