MODEL 1
REMARK minimizedAffinity -1.52719545
REMARK minimizedRMSD -1
REMARK  0 active torsions:
REMARK  status: ('A' for Active; 'I' for Inactive)
ROOT
ATOM      1  C2' OXE d   1      -1.852   0.006   1.823  0.00  0.00     0.078 C 
ATOM      2  C1' OXE d   1      -0.520  -1.072  -0.400  0.00  0.00     0.078 C 
ATOM      3  C1  OXE d   1      -0.101   0.297   0.075  0.00  0.00    -0.078 A 
ATOM      4  C2  OXE d   1      -0.790   0.837   1.135  0.00  0.00    -0.078 A 
ATOM      5  C3  OXE d   1      -0.409   2.073   1.647  0.00  0.00     0.003 A 
ATOM      6  C4  OXE d   1       0.567   2.839   0.998  0.00  0.00    -0.002 A 
ATOM      7  C5  OXE d   1       1.254   2.325  -0.107  0.00  0.00    -0.002 A 
ATOM      8  C6  OXE d   1       0.962   1.041  -0.554  0.00  0.00     0.003 A 
ENDROOT
TORSDOF 0
ENDMDL
