MODEL 1
REMARK minimizedAffinity -2.11424541
REMARK minimizedRMSD -1
REMARK  0 active torsions:
REMARK  status: ('A' for Active; 'I' for Inactive)
ROOT
ATOM      1  C2' OXE d   1      -2.048   0.227   2.102  0.00  0.00     0.078 C 
ATOM      2  C1' OXE d   1       0.187   1.925   2.152  0.00  0.00     0.078 C 
ATOM      3  C1  OXE d   1       0.148   0.844   1.101  0.00  0.00    -0.078 A 
ATOM      4  C2  OXE d   1      -0.927  -0.012   1.113  0.00  0.00    -0.078 A 
ATOM      5  C3  OXE d   1      -1.039  -0.992   0.132  0.00  0.00     0.003 A 
ATOM      6  C4  OXE d   1       0.007  -1.212  -0.773  0.00  0.00    -0.002 A 
ATOM      7  C5  OXE d   1       1.129  -0.377  -0.777  0.00  0.00    -0.002 A 
ATOM      8  C6  OXE d   1       1.196   0.680   0.123  0.00  0.00     0.003 A 
ENDROOT
TORSDOF 0
ENDMDL
