MODEL 1
REMARK minimizedAffinity -1.33483076
REMARK minimizedRMSD -1
REMARK  0 active torsions:
REMARK  status: ('A' for Active; 'I' for Inactive)
ROOT
ATOM      1  C2' OXE d   1      -3.239  -3.035  -5.385  0.00  0.00     0.078 C 
ATOM      2  C1' OXE d   1      -4.315  -3.334  -2.809  0.00  0.00     0.078 C 
ATOM      3  C1  OXE d   1      -3.421  -2.146  -3.065  0.00  0.00    -0.078 A 
ATOM      4  C2  OXE d   1      -2.862  -2.033  -4.314  0.00  0.00    -0.078 A 
ATOM      5  C3  OXE d   1      -2.074  -0.927  -4.619  0.00  0.00     0.003 A 
ATOM      6  C4  OXE d   1      -1.722  -0.011  -3.621  0.00  0.00    -0.002 A 
ATOM      7  C5  OXE d   1      -2.249  -0.129  -2.330  0.00  0.00    -0.002 A 
ATOM      8  C6  OXE d   1      -3.132  -1.165  -2.048  0.00  0.00     0.003 A 
ENDROOT
TORSDOF 0
ENDMDL
