MODEL 1
REMARK minimizedAffinity -3.50188231
REMARK minimizedRMSD -1
REMARK  0 active torsions:
REMARK  status: ('A' for Active; 'I' for Inactive)
ROOT
ATOM      1  C2' OXE d   1      -1.043  -0.912  -3.343  0.00  0.00     0.078 C 
ATOM      2  C1' OXE d   1      -0.396  -1.376  -0.651  0.00  0.00     0.078 C 
ATOM      3  C1  OXE d   1      -1.717  -1.900  -1.158  0.00  0.00    -0.078 A 
ATOM      4  C2  OXE d   1      -2.046  -1.627  -2.464  0.00  0.00    -0.078 A 
ATOM      5  C3  OXE d   1      -3.228  -2.134  -2.997  0.00  0.00     0.003 A 
ATOM      6  C4  OXE d   1      -4.154  -2.786  -2.174  0.00  0.00    -0.002 A 
ATOM      7  C5  OXE d   1      -3.856  -3.039  -0.831  0.00  0.00    -0.002 A 
ATOM      8  C6  OXE d   1      -2.626  -2.641  -0.319  0.00  0.00     0.003 A 
ENDROOT
TORSDOF 0
ENDMDL
