MODEL 1
REMARK minimizedAffinity -5.85962582
REMARK minimizedRMSD -1
REMARK  0 active torsions:
REMARK  status: ('A' for Active; 'I' for Inactive)
ROOT
ATOM      1  C2' OXE d   1       0.621  -0.902  -0.523  0.00  0.00     0.078 C 
ATOM      2  C1' OXE d   1       3.169   0.239  -0.817  0.00  0.00     0.078 C 
ATOM      3  C1  OXE d   1       2.160   0.977   0.027  0.00  0.00    -0.078 A 
ATOM      4  C2  OXE d   1       0.901   0.435   0.127  0.00  0.00    -0.078 A 
ATOM      5  C3  OXE d   1      -0.050   1.048   0.937  0.00  0.00     0.003 A 
ATOM      6  C4  OXE d   1       0.214   2.290   1.527  0.00  0.00    -0.002 A 
ATOM      7  C5  OXE d   1       1.477   2.879   1.406  0.00  0.00    -0.002 A 
ATOM      8  C6  OXE d   1       2.473   2.216   0.696  0.00  0.00     0.003 A 
ENDROOT
TORSDOF 0
ENDMDL
