MODEL 1
REMARK minimizedAffinity -1.5195986
REMARK minimizedRMSD -1
REMARK  0 active torsions:
REMARK  status: ('A' for Active; 'I' for Inactive)
ROOT
ATOM      1  C2' OXE d   1      -0.627  -0.964  -0.660  0.00  0.00     0.078 C 
ATOM      2  C1' OXE d   1      -1.709  -0.145   1.797  0.00  0.00     0.078 C 
ATOM      3  C1  OXE d   1      -0.598   0.687   1.205  0.00  0.00    -0.078 A 
ATOM      4  C2  OXE d   1      -0.043   0.253   0.026  0.00  0.00    -0.078 A 
ATOM      5  C3  OXE d   1       0.947   1.012  -0.591  0.00  0.00     0.003 A 
ATOM      6  C4  OXE d   1       1.489   2.130   0.056  0.00  0.00    -0.002 A 
ATOM      7  C5  OXE d   1       0.964   2.567   1.277  0.00  0.00    -0.002 A 
ATOM      8  C6  OXE d   1      -0.105   1.883   1.843  0.00  0.00     0.003 A 
ENDROOT
TORSDOF 0
ENDMDL
