MODEL 1
REMARK minimizedAffinity -4.57811642
REMARK minimizedRMSD -1
REMARK  0 active torsions:
REMARK  status: ('A' for Active; 'I' for Inactive)
ROOT
ATOM      1  C2' OXE d   1      -0.212  -0.205  -0.283  0.00  0.00     0.078 C 
ATOM      2  C1' OXE d   1      -0.718   1.971   1.417  0.00  0.00     0.078 C 
ATOM      3  C1  OXE d   1       0.704   1.745   0.968  0.00  0.00    -0.078 A 
ATOM      4  C2  OXE d   1       0.950   0.651   0.175  0.00  0.00    -0.078 A 
ATOM      5  C3  OXE d   1       2.234   0.427  -0.312  0.00  0.00     0.003 A 
ATOM      6  C4  OXE d   1       3.305   1.217   0.124  0.00  0.00    -0.002 A 
ATOM      7  C5  OXE d   1       3.083   2.313   0.964  0.00  0.00    -0.002 A 
ATOM      8  C6  OXE d   1       1.785   2.615   1.360  0.00  0.00     0.003 A 
ENDROOT
TORSDOF 0
ENDMDL
