MODEL 1
REMARK minimizedAffinity -2.08431244
REMARK minimizedRMSD -1
REMARK  0 active torsions:
REMARK  status: ('A' for Active; 'I' for Inactive)
ROOT
ATOM      1  C2' OXE d   1      -0.636   1.390   1.873  0.00  0.00     0.078 C 
ATOM      2  C1' OXE d   1      -0.502  -0.579  -0.124  0.00  0.00     0.078 C 
ATOM      3  C1  OXE d   1       0.786   0.083   0.299  0.00  0.00    -0.078 A 
ATOM      4  C2  OXE d   1       0.705   1.078   1.243  0.00  0.00    -0.078 A 
ATOM      5  C3  OXE d   1       1.869   1.683   1.709  0.00  0.00     0.003 A 
ATOM      6  C4  OXE d   1       3.103   1.396   1.114  0.00  0.00    -0.002 A 
ATOM      7  C5  OXE d   1       3.203   0.414   0.123  0.00  0.00    -0.002 A 
ATOM      8  C6  OXE d   1       2.062  -0.280  -0.265  0.00  0.00     0.003 A 
ENDROOT
TORSDOF 0
ENDMDL
