MODEL 1
REMARK minimizedAffinity -3.53341794
REMARK minimizedRMSD -1
REMARK  0 active torsions:
REMARK  status: ('A' for Active; 'I' for Inactive)
ROOT
ATOM      1  C2' OXE d   1      -1.694  -1.360  -1.651  0.00  0.00     0.078 C 
ATOM      2  C1' OXE d   1       0.843  -1.700  -0.498  0.00  0.00     0.078 C 
ATOM      3  C1  OXE d   1      -0.075  -0.671   0.113  0.00  0.00    -0.078 A 
ATOM      4  C2  OXE d   1      -1.297  -0.479  -0.487  0.00  0.00    -0.078 A 
ATOM      5  C3  OXE d   1      -2.204   0.419   0.069  0.00  0.00     0.003 A 
ATOM      6  C4  OXE d   1      -1.825   1.238   1.140  0.00  0.00    -0.002 A 
ATOM      7  C5  OXE d   1      -0.570   1.086   1.741  0.00  0.00    -0.002 A 
ATOM      8  C6  OXE d   1       0.298   0.109   1.267  0.00  0.00     0.003 A 
ENDROOT
TORSDOF 0
ENDMDL
