MODEL 1
REMARK minimizedAffinity -3.59757876
REMARK minimizedRMSD -1
REMARK  0 active torsions:
REMARK  status: ('A' for Active; 'I' for Inactive)
ROOT
ATOM      1  C2' OXE d   1       3.445   0.945   1.213  0.00  0.00     0.078 C 
ATOM      2  C1' OXE d   1       2.685  -1.045  -0.615  0.00  0.00     0.078 C 
ATOM      3  C1  OXE d   1       1.599  -0.380   0.192  0.00  0.00    -0.078 A 
ATOM      4  C2  OXE d   1       1.984   0.560   1.118  0.00  0.00    -0.078 A 
ATOM      5  C3  OXE d   1       1.018   1.243   1.850  0.00  0.00     0.003 A 
ATOM      6  C4  OXE d   1      -0.330   0.874   1.763  0.00  0.00    -0.002 A 
ATOM      7  C5  OXE d   1      -0.740  -0.109   0.855  0.00  0.00    -0.002 A 
ATOM      8  C6  OXE d   1       0.205  -0.714   0.034  0.00  0.00     0.003 A 
ENDROOT
TORSDOF 0
ENDMDL
