MODEL 1
REMARK minimizedAffinity -5.2762413
REMARK minimizedRMSD -1
REMARK  0 active torsions:
REMARK  status: ('A' for Active; 'I' for Inactive)
ROOT
ATOM      1  C2' OXE d   1      -1.700   0.037   1.546  0.00  0.00     0.078 C 
ATOM      2  C1' OXE d   1      -0.723  -1.359  -0.685  0.00  0.00     0.078 C 
ATOM      3  C1  OXE d   1       0.221  -0.425   0.030  0.00  0.00    -0.078 A 
ATOM      4  C2  OXE d   1      -0.279   0.289   1.092  0.00  0.00    -0.078 A 
ATOM      5  C3  OXE d   1       0.565   1.123   1.820  0.00  0.00     0.003 A 
ATOM      6  C4  OXE d   1       1.876   1.358   1.387  0.00  0.00    -0.002 A 
ATOM      7  C5  OXE d   1       2.393   0.671   0.284  0.00  0.00    -0.002 A 
ATOM      8  C6  OXE d   1       1.594  -0.254  -0.379  0.00  0.00     0.003 A 
ENDROOT
TORSDOF 0
ENDMDL
