MODEL 1
REMARK minimizedAffinity -5.14846563
REMARK minimizedRMSD -1
REMARK  0 active torsions:
REMARK  status: ('A' for Active; 'I' for Inactive)
ROOT
ATOM      1  C2' OXE d   1       1.001   2.294   1.055  0.00  0.00     0.078 C 
ATOM      2  C1' OXE d   1      -0.960   0.390   1.696  0.00  0.00     0.078 C 
ATOM      3  C1  OXE d   1      -0.147   0.169   0.444  0.00  0.00    -0.078 A 
ATOM      4  C2  OXE d   1       0.778   1.130   0.114  0.00  0.00    -0.078 A 
ATOM      5  C3  OXE d   1       1.593   0.948  -1.000  0.00  0.00     0.003 A 
ATOM      6  C4  OXE d   1       1.373  -0.127  -1.871  0.00  0.00    -0.002 A 
ATOM      7  C5  OXE d   1       0.409  -1.096  -1.574  0.00  0.00    -0.002 A 
ATOM      8  C6  OXE d   1      -0.329  -0.986  -0.400  0.00  0.00     0.003 A 
ENDROOT
TORSDOF 0
ENDMDL
