MODEL 1
REMARK minimizedAffinity 1.27254248
REMARK minimizedRMSD -1
REMARK  1 active torsions:
REMARK  status: ('A' for Active; 'I' for Inactive)
REMARK    1  A    between atoms: C1_2  and  C2_3 
ROOT
ATOM      1  C2  UNL d   1      -1.020  -1.023   0.116  0.00  0.00    -0.081 A 
ATOM      2  C3  UNL d   1      -0.914  -0.371   1.351  0.00  0.00     0.006 A 
ATOM      3  C4  UNL d   1      -0.220   0.837   1.456  0.00  0.00     0.002 A 
ATOM      4  C5  UNL d   1       0.372   1.416   0.328  0.00  0.00    -0.080 A 
ATOM      5  C6  UNL d   1       1.094   2.727   0.421  0.00  0.00     0.076 C 
ATOM      6  C7  UNL d   1       0.280   0.756  -0.902  0.00  0.00     0.002 A 
ATOM      7  C8  UNL d   1      -0.413  -0.452  -1.007  0.00  0.00     0.006 A 
ENDROOT
BRANCH   1   8
ATOM      8  C1  UNL d   1      -1.823  -2.293  -0.013  0.00  0.00     0.054 C 
ATOM      9  C   UNL d   1      -1.009  -3.507   0.408  0.00  0.00     0.018 C 
ENDBRANCH   1   8
TORSDOF 1
ENDMDL
