MODEL 1
REMARK minimizedAffinity 6.27196074
REMARK minimizedRMSD -1
REMARK  1 active torsions:
REMARK  status: ('A' for Active; 'I' for Inactive)
REMARK    1  A    between atoms: C1_2  and  C2_3 
ROOT
ATOM      1  C2  UNL d   1       1.083   1.009   1.194  0.00  0.00    -0.081 A 
ATOM      2  C3  UNL d   1       1.685   0.613  -0.006  0.00  0.00     0.006 A 
ATOM      3  C4  UNL d   1       2.642   1.425  -0.619  0.00  0.00     0.002 A 
ATOM      4  C5  UNL d   1       3.018   2.641  -0.040  0.00  0.00    -0.080 A 
ATOM      5  C6  UNL d   1       4.066   3.508  -0.672  0.00  0.00     0.076 C 
ATOM      6  C7  UNL d   1       2.403   3.045   1.150  0.00  0.00     0.002 A 
ATOM      7  C8  UNL d   1       1.446   2.234   1.764  0.00  0.00     0.006 A 
ENDROOT
BRANCH   1   8
ATOM      8  C1  UNL d   1       0.098   0.105   1.892  0.00  0.00     0.054 C 
ATOM      9  C   UNL d   1      -1.119  -0.165   1.019  0.00  0.00     0.018 C 
ENDBRANCH   1   8
TORSDOF 1
ENDMDL
