MODEL 1
REMARK minimizedAffinity 4.93472481
REMARK minimizedRMSD -1
REMARK  1 active torsions:
REMARK  status: ('A' for Active; 'I' for Inactive)
REMARK    1  A    between atoms: C1_2  and  C2_3 
ROOT
ATOM      1  C2  UNL d   1      -1.477  -1.101   1.038  0.00  0.00    -0.081 A 
ATOM      2  C3  UNL d   1      -1.558  -0.403   2.249  0.00  0.00     0.006 A 
ATOM      3  C4  UNL d   1      -1.072   0.903   2.348  0.00  0.00     0.002 A 
ATOM      4  C5  UNL d   1      -0.505   1.535   1.236  0.00  0.00    -0.080 A 
ATOM      5  C6  UNL d   1      -0.007   2.948   1.321  0.00  0.00     0.076 C 
ATOM      6  C7  UNL d   1      -0.408   0.832   0.031  0.00  0.00     0.002 A 
ATOM      7  C8  UNL d   1      -0.893  -0.474  -0.069  0.00  0.00     0.006 A 
ENDROOT
BRANCH   1   8
ATOM      8  C1  UNL d   1      -2.058  -2.485   0.911  0.00  0.00     0.054 C 
ATOM      9  C   UNL d   1      -3.472  -2.442   0.349  0.00  0.00     0.018 C 
ENDBRANCH   1   8
TORSDOF 1
ENDMDL
