MODEL 1
REMARK minimizedAffinity 1.03341329
REMARK minimizedRMSD -1
REMARK  1 active torsions:
REMARK  status: ('A' for Active; 'I' for Inactive)
REMARK    1  A    between atoms: C1_2  and  C2_3 
ROOT
ATOM      1  C2  UNL d   1       0.518  -0.674  -1.819  0.00  0.00    -0.081 A 
ATOM      2  C3  UNL d   1      -0.133  -1.828  -1.367  0.00  0.00     0.006 A 
ATOM      3  C4  UNL d   1      -0.704  -1.866  -0.093  0.00  0.00     0.002 A 
ATOM      4  C5  UNL d   1      -0.641  -0.749   0.747  0.00  0.00    -0.080 A 
ATOM      5  C6  UNL d   1      -1.277  -0.767   2.106  0.00  0.00     0.076 C 
ATOM      6  C7  UNL d   1       0.024   0.398   0.303  0.00  0.00     0.002 A 
ATOM      7  C8  UNL d   1       0.596   0.437  -0.971  0.00  0.00     0.006 A 
ENDROOT
BRANCH   1   8
ATOM      8  C1  UNL d   1       1.079  -0.607  -3.216  0.00  0.00     0.054 C 
ATOM      9  C   UNL d   1       1.461  -1.989  -3.725  0.00  0.00     0.018 C 
ENDBRANCH   1   8
TORSDOF 1
ENDMDL
