MODEL 1
REMARK minimizedAffinity 3.88008618
REMARK minimizedRMSD -1
REMARK  1 active torsions:
REMARK  status: ('A' for Active; 'I' for Inactive)
REMARK    1  A    between atoms: C1_2  and  C2_3 
ROOT
ATOM      1  C2  UNL d   1      -0.506   0.653   0.014  0.00  0.00    -0.081 A 
ATOM      2  C3  UNL d   1       0.131   0.040  -1.071  0.00  0.00     0.006 A 
ATOM      3  C4  UNL d   1       1.401   0.458  -1.476  0.00  0.00     0.002 A 
ATOM      4  C5  UNL d   1       2.058   1.490  -0.798  0.00  0.00    -0.080 A 
ATOM      5  C6  UNL d   1       3.434   1.928  -1.204  0.00  0.00     0.076 C 
ATOM      6  C7  UNL d   1       1.415   2.115   0.276  0.00  0.00     0.002 A 
ATOM      7  C8  UNL d   1       0.145   1.698   0.680  0.00  0.00     0.006 A 
ENDROOT
BRANCH   1   8
ATOM      8  C1  UNL d   1      -1.848   0.162   0.494  0.00  0.00     0.054 C 
ATOM      9  C   UNL d   1      -1.694  -0.905   1.569  0.00  0.00     0.018 C 
ENDBRANCH   1   8
TORSDOF 1
ENDMDL
