MODEL 1
REMARK minimizedAffinity -4.89899015
REMARK minimizedRMSD -1
REMARK  1 active torsions:
REMARK  status: ('A' for Active; 'I' for Inactive)
REMARK    1  A    between atoms: C1_2  and  C2_3 
ROOT
ATOM      1  C2  UNL d   1      -0.971  -0.518   1.075  0.00  0.00    -0.081 A 
ATOM      2  C3  UNL d   1      -0.507   0.589   0.354  0.00  0.00     0.006 A 
ATOM      3  C4  UNL d   1       0.322   0.414  -0.757  0.00  0.00     0.002 A 
ATOM      4  C5  UNL d   1       0.695  -0.870  -1.168  0.00  0.00    -0.080 A 
ATOM      5  C6  UNL d   1       1.560  -1.074  -2.377  0.00  0.00     0.076 C 
ATOM      6  C7  UNL d   1       0.246  -1.975  -0.437  0.00  0.00     0.002 A 
ATOM      7  C8  UNL d   1      -0.583  -1.801   0.674  0.00  0.00     0.006 A 
ENDROOT
BRANCH   1   8
ATOM      8  C1  UNL d   1      -1.917  -0.335   2.234  0.00  0.00     0.054 C 
ATOM      9  C   UNL d   1      -2.838   0.857   2.014  0.00  0.00     0.018 C 
ENDBRANCH   1   8
TORSDOF 1
ENDMDL
