MODEL 1
REMARK minimizedAffinity 2.3647747
REMARK minimizedRMSD -1
REMARK  1 active torsions:
REMARK  status: ('A' for Active; 'I' for Inactive)
REMARK    1  A    between atoms: C1_2  and  C2_3 
ROOT
ATOM      1  C2  UNL d   1       0.991   0.685   0.660  0.00  0.00    -0.081 A 
ATOM      2  C3  UNL d   1       0.331   0.121   1.758  0.00  0.00     0.006 A 
ATOM      3  C4  UNL d   1      -0.316  -1.112   1.639  0.00  0.00     0.002 A 
ATOM      4  C5  UNL d   1      -0.307  -1.804   0.424  0.00  0.00    -0.080 A 
ATOM      5  C6  UNL d   1      -0.971  -3.142   0.291  0.00  0.00     0.076 C 
ATOM      6  C7  UNL d   1       0.338  -1.232  -0.679  0.00  0.00     0.002 A 
ATOM      7  C8  UNL d   1       0.984   0.000  -0.561  0.00  0.00     0.006 A 
ENDROOT
BRANCH   1   8
ATOM      8  C1  UNL d   1       1.744   1.983   0.802  0.00  0.00     0.054 C 
ATOM      9  C   UNL d   1       1.485   2.628   2.156  0.00  0.00     0.018 C 
ENDBRANCH   1   8
TORSDOF 1
ENDMDL
