MODEL 1
REMARK minimizedAffinity -1.49782813
REMARK minimizedRMSD -1
REMARK  1 active torsions:
REMARK  status: ('A' for Active; 'I' for Inactive)
REMARK    1  A    between atoms: C1_2  and  C2_3 
ROOT
ATOM      1  C2  UNL d   1      -0.303   0.332  -0.116  0.00  0.00    -0.081 A 
ATOM      2  C3  UNL d   1      -1.213  -0.581   0.433  0.00  0.00     0.006 A 
ATOM      3  C4  UNL d   1      -0.824  -1.896   0.696  0.00  0.00     0.002 A 
ATOM      4  C5  UNL d   1       0.481  -2.319   0.423  0.00  0.00    -0.080 A 
ATOM      5  C6  UNL d   1       0.920  -3.720   0.729  0.00  0.00     0.076 C 
ATOM      6  C7  UNL d   1       1.385  -1.413  -0.141  0.00  0.00     0.002 A 
ATOM      7  C8  UNL d   1       0.997  -0.097  -0.405  0.00  0.00     0.006 A 
ENDROOT
BRANCH   1   8
ATOM      8  C1  UNL d   1      -0.700   1.769  -0.340  0.00  0.00     0.054 C 
ATOM      9  C   UNL d   1       0.048   2.703   0.600  0.00  0.00     0.018 C 
ENDBRANCH   1   8
TORSDOF 1
ENDMDL
