MODEL 1
REMARK minimizedAffinity 0.490154833
REMARK minimizedRMSD -1
REMARK  1 active torsions:
REMARK  status: ('A' for Active; 'I' for Inactive)
REMARK    1  A    between atoms: C1_2  and  C2_3 
ROOT
ATOM      1  C2  UNL d   1       1.102  -1.717  -0.914  0.00  0.00    -0.081 A 
ATOM      2  C3  UNL d   1       0.970  -2.940  -0.245  0.00  0.00     0.006 A 
ATOM      3  C4  UNL d   1      -0.199  -3.240   0.458  0.00  0.00     0.002 A 
ATOM      4  C5  UNL d   1      -1.258  -2.327   0.498  0.00  0.00    -0.080 A 
ATOM      5  C6  UNL d   1      -2.530  -2.649   1.224  0.00  0.00     0.076 C 
ATOM      6  C7  UNL d   1      -1.119  -1.097  -0.156  0.00  0.00     0.002 A 
ATOM      7  C8  UNL d   1       0.050  -0.797  -0.858  0.00  0.00     0.006 A 
ENDROOT
BRANCH   1   8
ATOM      8  C1  UNL d   1       2.335  -1.417  -1.727  0.00  0.00     0.054 C 
ATOM      9  C   UNL d   1       2.956  -0.088  -1.322  0.00  0.00     0.018 C 
ENDBRANCH   1   8
TORSDOF 1
ENDMDL
