MODEL 1
REMARK minimizedAffinity -3.62991977
REMARK minimizedRMSD -1
REMARK  1 active torsions:
REMARK  status: ('A' for Active; 'I' for Inactive)
REMARK    1  A    between atoms: C1_2  and  C2_3 
ROOT
ATOM      1  C2  UNL d   1      -0.214  -1.317  -0.495  0.00  0.00    -0.081 A 
ATOM      2  C3  UNL d   1      -0.029  -2.002   0.712  0.00  0.00     0.006 A 
ATOM      3  C4  UNL d   1       0.049  -3.397   0.731  0.00  0.00     0.002 A 
ATOM      4  C5  UNL d   1      -0.049  -4.129  -0.457  0.00  0.00    -0.080 A 
ATOM      5  C6  UNL d   1       0.064  -5.624  -0.455  0.00  0.00     0.076 C 
ATOM      6  C7  UNL d   1      -0.252  -3.446  -1.661  0.00  0.00     0.002 A 
ATOM      7  C8  UNL d   1      -0.330  -2.052  -1.680  0.00  0.00     0.006 A 
ENDROOT
BRANCH   1   8
ATOM      8  C1  UNL d   1      -0.234   0.190  -0.526  0.00  0.00     0.054 C 
ATOM      9  C   UNL d   1       0.358   0.724  -1.822  0.00  0.00     0.018 C 
ENDBRANCH   1   8
TORSDOF 1
ENDMDL
