MODEL 1
REMARK minimizedAffinity 0.173080936
REMARK minimizedRMSD -1
REMARK  1 active torsions:
REMARK  status: ('A' for Active; 'I' for Inactive)
REMARK    1  A    between atoms: C1_2  and  C2_3 
ROOT
ATOM      1  C2  UNL d   1       0.746   2.376   1.409  0.00  0.00    -0.081 A 
ATOM      2  C3  UNL d   1      -0.120   2.356   0.310  0.00  0.00     0.006 A 
ATOM      3  C4  UNL d   1      -0.704   1.159  -0.111  0.00  0.00     0.002 A 
ATOM      4  C5  UNL d   1      -0.438  -0.036   0.565  0.00  0.00    -0.080 A 
ATOM      5  C6  UNL d   1      -1.082  -1.323   0.142  0.00  0.00     0.076 C 
ATOM      6  C7  UNL d   1       0.441  -0.020   1.653  0.00  0.00     0.002 A 
ATOM      7  C8  UNL d   1       1.026   1.176   2.074  0.00  0.00     0.006 A 
ENDROOT
BRANCH   1   8
ATOM      8  C1  UNL d   1       1.326   3.676   1.905  0.00  0.00     0.054 C 
ATOM      9  C   UNL d   1       2.821   3.755   1.630  0.00  0.00     0.018 C 
ENDBRANCH   1   8
TORSDOF 1
ENDMDL
