MODEL 1
REMARK minimizedAffinity -6.09906006
REMARK minimizedRMSD -1
REMARK  1 active torsions:
REMARK  status: ('A' for Active; 'I' for Inactive)
REMARK    1  A    between atoms: C1_2  and  C2_3 
ROOT
ATOM      1  C2  UNL d   1       0.329   0.657  -0.600  0.00  0.00    -0.081 A 
ATOM      2  C3  UNL d   1      -0.210  -0.030   0.495  0.00  0.00     0.006 A 
ATOM      3  C4  UNL d   1      -0.320  -1.422   0.472  0.00  0.00     0.002 A 
ATOM      4  C5  UNL d   1       0.113  -2.151  -0.641  0.00  0.00    -0.080 A 
ATOM      5  C6  UNL d   1       0.028  -3.648  -0.666  0.00  0.00     0.076 C 
ATOM      6  C7  UNL d   1       0.635  -1.463  -1.742  0.00  0.00     0.002 A 
ATOM      7  C8  UNL d   1       0.745  -0.070  -1.720  0.00  0.00     0.006 A 
ENDROOT
BRANCH   1   8
ATOM      8  C1  UNL d   1       0.509   2.153  -0.552  0.00  0.00     0.054 C 
ATOM      9  C   UNL d   1       1.976   2.538  -0.674  0.00  0.00     0.018 C 
ENDBRANCH   1   8
TORSDOF 1
ENDMDL
