MODEL 1
REMARK minimizedAffinity -5.60355139
REMARK minimizedRMSD -1
REMARK  1 active torsions:
REMARK  status: ('A' for Active; 'I' for Inactive)
REMARK    1  A    between atoms: C1_2  and  C2_3 
ROOT
ATOM      1  C2  UNL d   1       0.115   1.945  -0.492  0.00  0.00    -0.081 A 
ATOM      2  C3  UNL d   1       0.299   0.808   0.304  0.00  0.00     0.006 A 
ATOM      3  C4  UNL d   1       0.298  -0.466  -0.269  0.00  0.00     0.002 A 
ATOM      4  C5  UNL d   1       0.122  -0.624  -1.648  0.00  0.00    -0.080 A 
ATOM      5  C6  UNL d   1       0.149  -1.983  -2.280  0.00  0.00     0.076 C 
ATOM      6  C7  UNL d   1      -0.079   0.511  -2.442  0.00  0.00     0.002 A 
ATOM      7  C8  UNL d   1      -0.080   1.785  -1.869  0.00  0.00     0.006 A 
ENDROOT
BRANCH   1   8
ATOM      8  C1  UNL d   1       0.179   3.324   0.113  0.00  0.00     0.054 C 
ATOM      9  C   UNL d   1       1.612   3.715   0.447  0.00  0.00     0.018 C 
ENDBRANCH   1   8
TORSDOF 1
ENDMDL
