MODEL 1
REMARK minimizedAffinity -2.67946267
REMARK minimizedRMSD -1
REMARK  3 active torsions:
REMARK  status: ('A' for Active; 'I' for Inactive)
REMARK    1  A    between atoms: C3'_2  and  C2'_3 
REMARK    2  A    between atoms: C2'_3  and  C1'_4 
REMARK    3  A    between atoms: C1'_4  and  C1_5 
ROOT
ATOM      1  C1  N4B d   1       1.327   0.461  -0.208  0.00  0.00    -0.075 A 
ATOM      2  C2  N4B d   1       2.685   0.085  -0.301  0.00  0.00     0.002 A 
ATOM      3  C3  N4B d   1       3.022  -1.237  -0.454  0.00  0.00     0.002 A 
ATOM      4  C4  N4B d   1       2.024  -2.199  -0.498  0.00  0.00    -0.004 A 
ATOM      5  C5  N4B d   1       0.714  -1.825  -0.433  0.00  0.00     0.002 A 
ATOM      6  C6  N4B d   1       0.360  -0.499  -0.284  0.00  0.00     0.002 A 
ENDROOT
BRANCH   1   7
ATOM      7  C1' N4B d   1       0.912   1.885   0.045  0.00  0.00     0.057 C 
BRANCH   7   8
ATOM      8  C2' N4B d   1      -0.081   1.919   1.204  0.00  0.00     0.009 C 
BRANCH   8   9
ATOM      9  C3' N4B d   1       0.595   2.254   2.522  0.00  0.00     0.004 C 
ATOM     10  C4' N4B d   1      -0.383   2.593   3.607  0.00  0.00     0.003 C 
ENDBRANCH   8   9
ENDBRANCH   7   8
ENDBRANCH   1   7
TORSDOF 3
ENDMDL
