MODEL 1
REMARK minimizedAffinity 4.46768618
REMARK minimizedRMSD -1
REMARK  3 active torsions:
REMARK  status: ('A' for Active; 'I' for Inactive)
REMARK    1  A    between atoms: C3'_2  and  C2'_3 
REMARK    2  A    between atoms: C2'_3  and  C1'_4 
REMARK    3  A    between atoms: C1'_4  and  C1_5 
ROOT
ATOM      1  C1  N4B d   1       1.237  -1.754  -0.930  0.00  0.00    -0.075 A 
ATOM      2  C2  N4B d   1       0.450  -2.420  -1.895  0.00  0.00     0.002 A 
ATOM      3  C3  N4B d   1      -0.886  -2.634  -1.663  0.00  0.00     0.002 A 
ATOM      4  C4  N4B d   1      -1.452  -2.210  -0.469  0.00  0.00    -0.004 A 
ATOM      5  C5  N4B d   1      -0.691  -1.545   0.447  0.00  0.00     0.002 A 
ATOM      6  C6  N4B d   1       0.653  -1.319   0.225  0.00  0.00     0.002 A 
ENDROOT
BRANCH   1   7
ATOM      7  C1' N4B d   1       2.720  -1.573  -1.102  0.00  0.00     0.057 C 
BRANCH   7   8
ATOM      8  C2' N4B d   1       3.055  -0.086  -1.027  0.00  0.00     0.009 C 
BRANCH   8   9
ATOM      9  C3' N4B d   1       4.531   0.177  -1.272  0.00  0.00     0.004 C 
ATOM     10  C4' N4B d   1       4.818   1.612  -1.601  0.00  0.00     0.003 C 
ENDBRANCH   8   9
ENDBRANCH   7   8
ENDBRANCH   1   7
TORSDOF 3
ENDMDL
