MODEL 1
REMARK minimizedAffinity 1.5986433
REMARK minimizedRMSD -1
REMARK  3 active torsions:
REMARK  status: ('A' for Active; 'I' for Inactive)
REMARK    1  A    between atoms: C3'_2  and  C2'_3 
REMARK    2  A    between atoms: C2'_3  and  C1'_4 
REMARK    3  A    between atoms: C1'_4  and  C1_5 
ROOT
ATOM      1  C1  N4B d   1       1.712  -0.584  -0.454  0.00  0.00    -0.075 A 
ATOM      2  C2  N4B d   1       2.299  -1.826  -0.128  0.00  0.00     0.002 A 
ATOM      3  C3  N4B d   1       1.568  -2.983  -0.240  0.00  0.00     0.002 A 
ATOM      4  C4  N4B d   1       0.246  -2.921  -0.657  0.00  0.00    -0.004 A 
ATOM      5  C5  N4B d   1      -0.306  -1.720  -0.994  0.00  0.00     0.002 A 
ATOM      6  C6  N4B d   1       0.419  -0.550  -0.890  0.00  0.00     0.002 A 
ENDROOT
BRANCH   1   7
ATOM      7  C1' N4B d   1       2.445   0.715  -0.265  0.00  0.00     0.057 C 
BRANCH   7   8
ATOM      8  C2' N4B d   1       1.462   1.781   0.211  0.00  0.00     0.009 C 
BRANCH   8   9
ATOM      9  C3' N4B d   1       1.450   1.906   1.725  0.00  0.00     0.004 C 
ATOM     10  C4' N4B d   1       0.093   2.238   2.270  0.00  0.00     0.003 C 
ENDBRANCH   8   9
ENDBRANCH   7   8
ENDBRANCH   1   7
TORSDOF 3
ENDMDL
