MODEL 1
REMARK minimizedAffinity 1.55939138
REMARK minimizedRMSD -1
REMARK  3 active torsions:
REMARK  status: ('A' for Active; 'I' for Inactive)
REMARK    1  A    between atoms: C3'_2  and  C2'_3 
REMARK    2  A    between atoms: C2'_3  and  C1'_4 
REMARK    3  A    between atoms: C1'_4  and  C1_5 
ROOT
ATOM      1  C1  N4B d   1       0.409  -0.378  -0.792  0.00  0.00    -0.075 A 
ATOM      2  C2  N4B d   1       1.263  -1.426  -0.385  0.00  0.00     0.002 A 
ATOM      3  C3  N4B d   1       0.837  -2.729  -0.466  0.00  0.00     0.002 A 
ATOM      4  C4  N4B d   1      -0.440  -3.006  -0.930  0.00  0.00    -0.004 A 
ATOM      5  C5  N4B d   1      -1.250  -1.989  -1.346  0.00  0.00     0.002 A 
ATOM      6  C6  N4B d   1      -0.833  -0.675  -1.274  0.00  0.00     0.002 A 
ENDROOT
BRANCH   1   7
ATOM      7  C1' N4B d   1       0.798   1.067  -0.642  0.00  0.00     0.057 C 
BRANCH   7   8
ATOM      8  C2' N4B d   1       1.094   1.356   0.827  0.00  0.00     0.009 C 
BRANCH   8   9
ATOM      9  C3' N4B d   1      -0.178   1.471   1.650  0.00  0.00     0.004 C 
ATOM     10  C4' N4B d   1       0.030   2.206   2.941  0.00  0.00     0.003 C 
ENDBRANCH   8   9
ENDBRANCH   7   8
ENDBRANCH   1   7
TORSDOF 3
ENDMDL
