MODEL 1
REMARK minimizedAffinity -2.71246147
REMARK minimizedRMSD -1
REMARK  0 active torsions:
REMARK  status: ('A' for Active; 'I' for Inactive)
ROOT
ATOM      1  C1  BNZ d   1       0.018   1.334   0.279  0.00  0.00     0.000 A 
ATOM      2  C2  BNZ d   1       1.325   1.076   0.597  0.00  0.00     0.000 A 
ATOM      3  C3  BNZ d   1       1.733  -0.193   0.902  0.00  0.00     0.000 A 
ATOM      4  C4  BNZ d   1       0.828  -1.192   0.927  0.00  0.00     0.000 A 
ATOM      5  C5  BNZ d   1      -0.494  -0.946   0.617  0.00  0.00     0.000 A 
ATOM      6  C6  BNZ d   1      -0.894   0.325   0.273  0.00  0.00     0.000 A 
ENDROOT
TORSDOF 0
ENDMDL
