MODEL 1
REMARK minimizedAffinity -4.99104881
REMARK minimizedRMSD -1
REMARK  0 active torsions:
REMARK  status: ('A' for Active; 'I' for Inactive)
ROOT
ATOM      1  C1  BNZ d   1       0.926  -0.036   0.820  0.00  0.00     0.000 A 
ATOM      2  C2  BNZ d   1       0.689  -1.119   1.624  0.00  0.00     0.000 A 
ATOM      3  C3  BNZ d   1       1.720  -1.890   2.081  0.00  0.00     0.000 A 
ATOM      4  C4  BNZ d   1       2.982  -1.602   1.702  0.00  0.00     0.000 A 
ATOM      5  C5  BNZ d   1       3.237  -0.519   0.885  0.00  0.00     0.000 A 
ATOM      6  C6  BNZ d   1       2.199   0.279   0.458  0.00  0.00     0.000 A 
ENDROOT
TORSDOF 0
ENDMDL
