MODEL 1
REMARK minimizedAffinity -3.74803448
REMARK minimizedRMSD -1
REMARK  0 active torsions:
REMARK  status: ('A' for Active; 'I' for Inactive)
ROOT
ATOM      1  C1  BNZ d   1       0.622  -1.030   0.331  0.00  0.00     0.000 A 
ATOM      2  C2  BNZ d   1      -0.497  -0.325  -0.022  0.00  0.00     0.000 A 
ATOM      3  C3  BNZ d   1      -0.435   1.023  -0.242  0.00  0.00     0.000 A 
ATOM      4  C4  BNZ d   1       0.737   1.669  -0.070  0.00  0.00     0.000 A 
ATOM      5  C5  BNZ d   1       1.872   0.973   0.294  0.00  0.00     0.000 A 
ATOM      6  C6  BNZ d   1       1.814  -0.390   0.477  0.00  0.00     0.000 A 
ENDROOT
TORSDOF 0
ENDMDL
