MODEL 1
REMARK minimizedAffinity -3.50503159
REMARK minimizedRMSD -1
REMARK  0 active torsions:
REMARK  status: ('A' for Active; 'I' for Inactive)
ROOT
ATOM      1  C1  BNZ d   1       1.317  -1.761   1.104  0.00  0.00     0.000 A 
ATOM      2  C2  BNZ d   1       0.104  -1.332   0.637  0.00  0.00     0.000 A 
ATOM      3  C3  BNZ d   1      -0.070  -0.040   0.225  0.00  0.00     0.000 A 
ATOM      4  C4  BNZ d   1       0.956   0.829   0.318  0.00  0.00     0.000 A 
ATOM      5  C5  BNZ d   1       2.183   0.414   0.796  0.00  0.00     0.000 A 
ATOM      6  C6  BNZ d   1       2.366  -0.896   1.173  0.00  0.00     0.000 A 
ENDROOT
TORSDOF 0
ENDMDL
