MODEL 1
REMARK minimizedAffinity -4.07045984
REMARK minimizedRMSD -1
REMARK  0 active torsions:
REMARK  status: ('A' for Active; 'I' for Inactive)
ROOT
ATOM      1  C1  BNZ d   1       2.275   1.032   0.545  0.00  0.00     0.000 A 
ATOM      2  C2  BNZ d   1       1.104   1.607   0.128  0.00  0.00     0.000 A 
ATOM      3  C3  BNZ d   1      -0.062   0.894   0.118  0.00  0.00     0.000 A 
ATOM      4  C4  BNZ d   1      -0.048  -0.404   0.485  0.00  0.00     0.000 A 
ATOM      5  C5  BNZ d   1       1.126  -1.001   0.899  0.00  0.00     0.000 A 
ATOM      6  C6  BNZ d   1       2.290  -0.269   0.945  0.00  0.00     0.000 A 
ENDROOT
TORSDOF 0
ENDMDL
