MODEL 1
REMARK minimizedAffinity -4.41292381
REMARK minimizedRMSD -1
REMARK  0 active torsions:
REMARK  status: ('A' for Active; 'I' for Inactive)
ROOT
ATOM      1  C1  BNZ d   1       1.390   1.111   0.101  0.00  0.00     0.000 A 
ATOM      2  C2  BNZ d   1       2.598   0.763   0.646  0.00  0.00     0.000 A 
ATOM      3  C3  BNZ d   1       2.836  -0.518   1.059  0.00  0.00     0.000 A 
ATOM      4  C4  BNZ d   1       1.856  -1.439   0.963  0.00  0.00     0.000 A 
ATOM      5  C5  BNZ d   1       0.631  -1.102   0.424  0.00  0.00     0.000 A 
ATOM      6  C6  BNZ d   1       0.407   0.179  -0.027  0.00  0.00     0.000 A 
ENDROOT
TORSDOF 0
ENDMDL
