MODEL 1
REMARK minimizedAffinity -2.99749279
REMARK minimizedRMSD -1
REMARK  0 active torsions:
REMARK  status: ('A' for Active; 'I' for Inactive)
ROOT
ATOM      1  C1  BNZ d   1      -0.232   0.479   0.114  0.00  0.00     0.000 A 
ATOM      2  C2  BNZ d   1       0.979   1.119   0.117  0.00  0.00     0.000 A 
ATOM      3  C3  BNZ d   1       2.104   0.487   0.567  0.00  0.00     0.000 A 
ATOM      4  C4  BNZ d   1       2.011  -0.768   1.051  0.00  0.00     0.000 A 
ATOM      5  C5  BNZ d   1       0.796  -1.424   1.064  0.00  0.00     0.000 A 
ATOM      6  C6  BNZ d   1      -0.328  -0.798   0.573  0.00  0.00     0.000 A 
ENDROOT
TORSDOF 0
ENDMDL
