MODEL 1
REMARK minimizedAffinity -4.94231987
REMARK minimizedRMSD -1
REMARK  0 active torsions:
REMARK  status: ('A' for Active; 'I' for Inactive)
ROOT
ATOM      1  N1  IND d   1       2.467   0.409  -0.313  0.00  0.00    -0.196 N 
ATOM      2  C2  IND d   1       3.169   1.506   0.102  0.00  0.00     0.054 A 
ATOM      3  C3  IND d   1       2.402   2.281   0.901  0.00  0.00    -0.031 A 
ATOM      4  C4  IND d   1       0.001   1.889   1.742  0.00  0.00     0.051 A 
ATOM      5  C5  IND d   1      -1.064   1.043   1.605  0.00  0.00    -0.031 A 
ATOM      6  C6  IND d   1      -1.004  -0.081   0.807  0.00  0.00     0.015 A 
ATOM      7  C7  IND d   1       0.132  -0.409   0.123  0.00  0.00    -0.016 A 
ATOM      8  C8  IND d   1       1.213   0.451   0.255  0.00  0.00    -0.047 A 
ATOM      9  C9  IND d   1       1.144   1.616   1.029  0.00  0.00    -0.096 A 
ATOM     10  HN1 IND d   1       2.760  -0.204  -0.840  0.00  0.00     0.298 HD
ENDROOT
TORSDOF 0
ENDMDL
