MODEL 1
REMARK minimizedAffinity -4.50804186
REMARK minimizedRMSD -1
REMARK  0 active torsions:
REMARK  status: ('A' for Active; 'I' for Inactive)
ROOT
ATOM      1  N1  IND d   1       1.111   2.351   1.316  0.00  0.00    -0.196 N 
ATOM      2  C2  IND d   1       2.421   2.728   1.203  0.00  0.00     0.054 A 
ATOM      3  C3  IND d   1       3.118   1.803   0.506  0.00  0.00    -0.031 A 
ATOM      4  C4  IND d   1       2.292  -0.355  -0.629  0.00  0.00     0.051 A 
ATOM      5  C5  IND d   1       1.183  -1.140  -0.772  0.00  0.00    -0.031 A 
ATOM      6  C6  IND d   1      -0.032  -0.794  -0.217  0.00  0.00     0.015 A 
ATOM      7  C7  IND d   1      -0.186   0.362   0.495  0.00  0.00    -0.016 A 
ATOM      8  C8  IND d   1       0.939   1.159   0.648  0.00  0.00    -0.047 A 
ATOM      9  C9  IND d   1       2.185   0.791   0.123  0.00  0.00    -0.096 A 
ATOM     10  HN1 IND d   1       0.498   2.786   1.733  0.00  0.00     0.298 HD
ENDROOT
TORSDOF 0
ENDMDL
