MODEL 1
REMARK minimizedAffinity -1.52015746
REMARK minimizedRMSD -1
REMARK  0 active torsions:
REMARK  status: ('A' for Active; 'I' for Inactive)
ROOT
ATOM      1  N1  IND d   1       2.498  -0.281  -0.522  0.00  0.00    -0.196 N 
ATOM      2  C2  IND d   1       3.488   0.406   0.122  0.00  0.00     0.054 A 
ATOM      3  C3  IND d   1       2.966   1.169   1.109  0.00  0.00    -0.031 A 
ATOM      4  C4  IND d   1       0.526   1.364   1.908  0.00  0.00     0.051 A 
ATOM      5  C5  IND d   1      -0.742   0.956   1.605  0.00  0.00    -0.031 A 
ATOM      6  C6  IND d   1      -1.001   0.095   0.558  0.00  0.00     0.015 A 
ATOM      7  C7  IND d   1       0.006  -0.401  -0.221  0.00  0.00    -0.016 A 
ATOM      8  C8  IND d   1       1.294   0.017   0.079  0.00  0.00    -0.047 A 
ATOM      9  C9  IND d   1       1.558   0.924   1.114  0.00  0.00    -0.096 A 
ATOM     10  HN1 IND d   1       2.608  -0.811  -1.191  0.00  0.00     0.298 HD
ENDROOT
TORSDOF 0
ENDMDL
