MODEL 1
REMARK minimizedAffinity -3.73194957
REMARK minimizedRMSD -1
REMARK  0 active torsions:
REMARK  status: ('A' for Active; 'I' for Inactive)
ROOT
ATOM      1  N1  IND d   1       0.684   1.430   1.995  0.00  0.00    -0.196 N 
ATOM      2  C2  IND d   1       1.471   2.324   1.325  0.00  0.00     0.054 A 
ATOM      3  C3  IND d   1       1.353   2.147  -0.010  0.00  0.00    -0.031 A 
ATOM      4  C4  IND d   1      -0.152   0.517  -1.317  0.00  0.00     0.051 A 
ATOM      5  C5  IND d   1      -1.021  -0.522  -1.141  0.00  0.00    -0.031 A 
ATOM      6  C6  IND d   1      -1.377  -0.971   0.115  0.00  0.00     0.015 A 
ATOM      7  C7  IND d   1      -0.882  -0.388   1.246  0.00  0.00    -0.016 A 
ATOM      8  C8  IND d   1       0.008   0.663   1.072  0.00  0.00    -0.047 A 
ATOM      9  C9  IND d   1       0.405   1.096  -0.200  0.00  0.00    -0.096 A 
ATOM     10  HN1 IND d   1       0.622   1.358   2.850  0.00  0.00     0.298 HD
ENDROOT
TORSDOF 0
ENDMDL
