MODEL 1
REMARK minimizedAffinity -5.54801083
REMARK minimizedRMSD -1
REMARK  0 active torsions:
REMARK  status: ('A' for Active; 'I' for Inactive)
ROOT
ATOM      1  N1  IND d   1       2.777   0.210  -0.398  0.00  0.00    -0.196 N 
ATOM      2  C2  IND d   1       3.541   1.281  -0.026  0.00  0.00     0.054 A 
ATOM      3  C3  IND d   1       2.805   2.157   0.694  0.00  0.00    -0.031 A 
ATOM      4  C4  IND d   1       0.355   1.988   1.466  0.00  0.00     0.051 A 
ATOM      5  C5  IND d   1      -0.763   1.211   1.342  0.00  0.00    -0.031 A 
ATOM      6  C6  IND d   1      -0.757   0.035   0.619  0.00  0.00     0.015 A 
ATOM      7  C7  IND d   1       0.375  -0.414  -0.000  0.00  0.00    -0.016 A 
ATOM      8  C8  IND d   1       1.510   0.375   0.118  0.00  0.00    -0.047 A 
ATOM      9  C9  IND d   1       1.499   1.591   0.815  0.00  0.00    -0.096 A 
ATOM     10  HN1 IND d   1       3.042  -0.455  -0.874  0.00  0.00     0.298 HD
ENDROOT
TORSDOF 0
ENDMDL
