MODEL 1
REMARK minimizedAffinity -3.38687468
REMARK minimizedRMSD -1
REMARK  0 active torsions:
REMARK  status: ('A' for Active; 'I' for Inactive)
ROOT
ATOM      1  N1  IND d   1       1.832  -0.903  -0.602  0.00  0.00    -0.196 N 
ATOM      2  C2  IND d   1       0.644  -1.528  -0.860  0.00  0.00     0.054 A 
ATOM      3  C3  IND d   1      -0.370  -0.888  -0.236  0.00  0.00    -0.031 A 
ATOM      4  C4  IND d   1      -0.322   1.263   1.178  0.00  0.00     0.051 A 
ATOM      5  C5  IND d   1       0.538   2.175   1.724  0.00  0.00    -0.031 A 
ATOM      6  C6  IND d   1       1.901   2.107   1.515  0.00  0.00     0.015 A 
ATOM      7  C7  IND d   1       2.455   1.127   0.741  0.00  0.00    -0.016 A 
ATOM      8  C8  IND d   1       1.586   0.196   0.192  0.00  0.00    -0.047 A 
ATOM      9  C9  IND d   1       0.206   0.235   0.434  0.00  0.00    -0.096 A 
ATOM     10  HN1 IND d   1       2.603  -1.155  -0.886  0.00  0.00     0.298 HD
ENDROOT
TORSDOF 0
ENDMDL
