MODEL 1
REMARK minimizedAffinity -6.43651199
REMARK minimizedRMSD -1
REMARK  0 active torsions:
REMARK  status: ('A' for Active; 'I' for Inactive)
ROOT
ATOM      1  N1  IND d   1       0.407  -0.753  -0.591  0.00  0.00    -0.196 N 
ATOM      2  C2  IND d   1      -0.802  -0.893   0.032  0.00  0.00     0.054 A 
ATOM      3  C3  IND d   1      -0.942   0.039   1.001  0.00  0.00    -0.031 A 
ATOM      4  C4  IND d   1       0.641   1.956   1.668  0.00  0.00     0.051 A 
ATOM      5  C5  IND d   1       1.882   2.468   1.410  0.00  0.00    -0.031 A 
ATOM      6  C6  IND d   1       2.710   1.923   0.450  0.00  0.00     0.015 A 
ATOM      7  C7  IND d   1       2.322   0.848  -0.298  0.00  0.00    -0.016 A 
ATOM      8  C8  IND d   1       1.066   0.321  -0.034  0.00  0.00    -0.047 A 
ATOM      9  C9  IND d   1       0.238   0.844   0.968  0.00  0.00    -0.096 A 
ATOM     10  HN1 IND d   1       0.706  -1.252  -1.224  0.00  0.00     0.298 HD
ENDROOT
TORSDOF 0
ENDMDL
