MODEL 1
REMARK minimizedAffinity -6.14652777
REMARK minimizedRMSD -1
REMARK  0 active torsions:
REMARK  status: ('A' for Active; 'I' for Inactive)
ROOT
ATOM      1  N1  IND d   1       1.651  -1.259  -0.139  0.00  0.00    -0.196 N 
ATOM      2  C2  IND d   1       0.286  -1.336  -0.177  0.00  0.00     0.054 A 
ATOM      3  C3  IND d   1      -0.259  -0.106  -0.043  0.00  0.00    -0.031 A 
ATOM      4  C4  IND d   1       0.901   2.184   0.147  0.00  0.00     0.051 A 
ATOM      5  C5  IND d   1       2.135   2.761   0.263  0.00  0.00    -0.031 A 
ATOM      6  C6  IND d   1       3.294   2.012   0.247  0.00  0.00     0.015 A 
ATOM      7  C7  IND d   1       3.262   0.654   0.103  0.00  0.00    -0.016 A 
ATOM      8  C8  IND d   1       2.011   0.064  -0.007  0.00  0.00    -0.047 A 
ATOM      9  C9  IND d   1       0.830   0.815   0.051  0.00  0.00    -0.096 A 
ATOM     10  HN1 IND d   1       2.193  -1.924  -0.190  0.00  0.00     0.298 HD
ENDROOT
TORSDOF 0
ENDMDL
