MODEL 1
REMARK minimizedAffinity -6.76540041
REMARK minimizedRMSD -1
REMARK  0 active torsions:
REMARK  status: ('A' for Active; 'I' for Inactive)
ROOT
ATOM      1  N1  IND d   1       1.035  -0.484  -0.490  0.00  0.00    -0.196 N 
ATOM      2  C2  IND d   1      -0.135  -0.829   0.126  0.00  0.00     0.054 A 
ATOM      3  C3  IND d   1      -0.403   0.025   1.139  0.00  0.00    -0.031 A 
ATOM      4  C4  IND d   1       0.889   2.119   1.897  0.00  0.00     0.051 A 
ATOM      5  C5  IND d   1       2.040   2.819   1.663  0.00  0.00    -0.031 A 
ATOM      6  C6  IND d   1       2.931   2.447   0.677  0.00  0.00     0.015 A 
ATOM      7  C7  IND d   1       2.698   1.363  -0.122  0.00  0.00    -0.016 A 
ATOM      8  C8  IND d   1       1.534   0.647   0.118  0.00  0.00    -0.047 A 
ATOM      9  C9  IND d   1       0.647   0.994   1.144  0.00  0.00    -0.096 A 
ATOM     10  HN1 IND d   1       1.399  -0.904  -1.147  0.00  0.00     0.298 HD
ENDROOT
TORSDOF 0
ENDMDL
