MODEL 1
REMARK minimizedAffinity -3.5771811
REMARK minimizedRMSD -1
REMARK  0 active torsions:
REMARK  status: ('A' for Active; 'I' for Inactive)
ROOT
ATOM      1  N1  IND d   1       0.363  -0.924  -1.063  0.00  0.00    -0.196 N 
ATOM      2  C2  IND d   1      -0.957  -0.804  -0.728  0.00  0.00     0.054 A 
ATOM      3  C3  IND d   1      -1.101   0.038   0.319  0.00  0.00    -0.031 A 
ATOM      4  C4  IND d   1       0.681   1.410   1.573  0.00  0.00     0.051 A 
ATOM      5  C5  IND d   1       2.031   1.605   1.652  0.00  0.00    -0.031 A 
ATOM      6  C6  IND d   1       2.912   0.956   0.811  0.00  0.00     0.015 A 
ATOM      7  C7  IND d   1       2.472   0.092  -0.152  0.00  0.00    -0.016 A 
ATOM      8  C8  IND d   1       1.102  -0.114  -0.230  0.00  0.00    -0.047 A 
ATOM      9  C9  IND d   1       0.207   0.510   0.648  0.00  0.00    -0.096 A 
ATOM     10  HN1 IND d   1       0.678  -1.422  -1.689  0.00  0.00     0.298 HD
ENDROOT
TORSDOF 0
ENDMDL
