MODEL 1
REMARK minimizedAffinity -4.23108101
REMARK minimizedRMSD -1
REMARK  0 active torsions:
REMARK  status: ('A' for Active; 'I' for Inactive)
ROOT
ATOM      1  N1  IND d   1       0.889  -0.990  -0.664  0.00  0.00    -0.196 N 
ATOM      2  C2  IND d   1      -0.408  -0.778  -0.290  0.00  0.00     0.054 A 
ATOM      3  C3  IND d   1      -0.526   0.409   0.347  0.00  0.00    -0.031 A 
ATOM      4  C4  IND d   1       1.258   2.209   0.795  0.00  0.00     0.051 A 
ATOM      5  C5  IND d   1       2.598   2.453   0.672  0.00  0.00    -0.031 A 
ATOM      6  C6  IND d   1       3.453   1.544   0.083  0.00  0.00     0.015 A 
ATOM      7  C7  IND d   1       2.996   0.357  -0.418  0.00  0.00    -0.016 A 
ATOM      8  C8  IND d   1       1.638   0.104  -0.288  0.00  0.00    -0.047 A 
ATOM      9  C9  IND d   1       0.773   1.004   0.347  0.00  0.00    -0.096 A 
ATOM     10  HN1 IND d   1       1.188  -1.688  -1.067  0.00  0.00     0.298 HD
ENDROOT
TORSDOF 0
ENDMDL
