MODEL 1
REMARK minimizedAffinity -5.98276234
REMARK minimizedRMSD -1
REMARK  0 active torsions:
REMARK  status: ('A' for Active; 'I' for Inactive)
ROOT
ATOM      1  N1  IND d   1       0.820  -1.133  -0.401  0.00  0.00    -0.196 N 
ATOM      2  C2  IND d   1      -0.497  -1.269  -0.062  0.00  0.00     0.054 A 
ATOM      3  C3  IND d   1      -0.889  -0.240   0.722  0.00  0.00    -0.031 A 
ATOM      4  C4  IND d   1       0.437   1.829   1.490  0.00  0.00     0.051 A 
ATOM      5  C5  IND d   1       1.689   2.377   1.463  0.00  0.00    -0.031 A 
ATOM      6  C6  IND d   1       2.736   1.772   0.797  0.00  0.00     0.015 A 
ATOM      7  C7  IND d   1       2.566   0.597   0.121  0.00  0.00    -0.016 A 
ATOM      8  C8  IND d   1       1.298   0.034   0.153  0.00  0.00    -0.047 A 
ATOM      9  C9  IND d   1       0.242   0.622   0.862  0.00  0.00    -0.096 A 
ATOM     10  HN1 IND d   1       1.274  -1.685  -0.880  0.00  0.00     0.298 HD
ENDROOT
TORSDOF 0
ENDMDL
