MODEL 1
REMARK minimizedAffinity -3.64181328
REMARK minimizedRMSD -1
REMARK  0 active torsions:
REMARK  status: ('A' for Active; 'I' for Inactive)
ROOT
ATOM      1  N1  IND d   1       2.748   1.964   0.834  0.00  0.00    -0.196 N 
ATOM      2  C2  IND d   1       2.283   2.703   1.886  0.00  0.00     0.054 A 
ATOM      3  C3  IND d   1       1.086   2.229   2.301  0.00  0.00    -0.031 A 
ATOM      4  C4  IND d   1      -0.245   0.190   1.465  0.00  0.00     0.051 A 
ATOM      5  C5  IND d   1      -0.243  -0.775   0.498  0.00  0.00    -0.031 A 
ATOM      6  C6  IND d   1       0.779  -0.880  -0.424  0.00  0.00     0.015 A 
ATOM      7  C7  IND d   1       1.846  -0.028  -0.406  0.00  0.00    -0.016 A 
ATOM      8  C8  IND d   1       1.843   0.958   0.571  0.00  0.00    -0.047 A 
ATOM      9  C9  IND d   1       0.789   1.096   1.483  0.00  0.00    -0.096 A 
ATOM     10  HN1 IND d   1       3.481   2.103   0.408  0.00  0.00     0.298 HD
ENDROOT
TORSDOF 0
ENDMDL
