MODEL 1
REMARK minimizedAffinity -0.0407660864
REMARK minimizedRMSD -1
REMARK  0 active torsions:
REMARK  status: ('A' for Active; 'I' for Inactive)
ROOT
ATOM      1  N1  IND d   1       0.018   1.534   2.326  0.00  0.00    -0.196 N 
ATOM      2  C2  IND d   1      -1.301   1.374   2.644  0.00  0.00     0.054 A 
ATOM      3  C3  IND d   1      -1.916   0.596   1.725  0.00  0.00    -0.031 A 
ATOM      4  C4  IND d   1      -0.926  -0.604  -0.326  0.00  0.00     0.051 A 
ATOM      5  C5  IND d   1       0.228  -0.729  -1.048  0.00  0.00    -0.031 A 
ATOM      6  C6  IND d   1       1.395  -0.096  -0.673  0.00  0.00     0.015 A 
ATOM      7  C7  IND d   1       1.455   0.681   0.449  0.00  0.00    -0.016 A 
ATOM      8  C8  IND d   1       0.284   0.816   1.181  0.00  0.00    -0.047 A 
ATOM      9  C9  IND d   1      -0.914   0.210   0.782  0.00  0.00    -0.096 A 
ATOM     10  HN1 IND d   1       0.587   2.005   2.767  0.00  0.00     0.298 HD
ENDROOT
TORSDOF 0
ENDMDL
