MODEL 1
REMARK minimizedAffinity -2.29909039
REMARK minimizedRMSD -1
REMARK  0 active torsions:
REMARK  status: ('A' for Active; 'I' for Inactive)
ROOT
ATOM      1  N1  IND d   1       1.079   1.458   1.877  0.00  0.00    -0.196 N 
ATOM      2  C2  IND d   1       2.425   1.700   1.859  0.00  0.00     0.054 A 
ATOM      3  C3  IND d   1       3.052   0.808   1.060  0.00  0.00    -0.031 A 
ATOM      4  C4  IND d   1       2.057  -1.068  -0.395  0.00  0.00     0.051 A 
ATOM      5  C5  IND d   1       0.879  -1.699  -0.681  0.00  0.00    -0.031 A 
ATOM      6  C6  IND d   1      -0.317  -1.300  -0.120  0.00  0.00     0.015 A 
ATOM      7  C7  IND d   1      -0.381  -0.243   0.743  0.00  0.00    -0.016 A 
ATOM      8  C8  IND d   1       0.814   0.395   1.041  0.00  0.00    -0.047 A 
ATOM      9  C9  IND d   1       2.037  -0.032   0.508  0.00  0.00    -0.096 A 
ATOM     10  HN1 IND d   1       0.497   1.896   2.333  0.00  0.00     0.298 HD
ENDROOT
TORSDOF 0
ENDMDL
