MODEL 1
REMARK minimizedAffinity 8.66026974
REMARK minimizedRMSD -1
REMARK  0 active torsions:
REMARK  status: ('A' for Active; 'I' for Inactive)
ROOT
ATOM      1  N1  IND d   1      -1.055  -1.034  -3.502  0.00  0.00    -0.196 N 
ATOM      2  C2  IND d   1      -1.000  -1.649  -4.722  0.00  0.00     0.054 A 
ATOM      3  C3  IND d   1       0.272  -2.000  -5.015  0.00  0.00    -0.031 A 
ATOM      4  C4  IND d   1       2.405  -1.754  -3.594  0.00  0.00     0.051 A 
ATOM      5  C5  IND d   1       2.863  -1.221  -2.422  0.00  0.00    -0.031 A 
ATOM      6  C6  IND d   1       2.021  -0.588  -1.531  0.00  0.00     0.015 A 
ATOM      7  C7  IND d   1       0.681  -0.474  -1.774  0.00  0.00    -0.016 A 
ATOM      8  C8  IND d   1       0.214  -1.008  -2.967  0.00  0.00    -0.047 A 
ATOM      9  C9  IND d   1       1.071  -1.614  -3.895  0.00  0.00    -0.096 A 
ATOM     10  HN1 IND d   1      -1.763  -0.717  -3.131  0.00  0.00     0.298 HD
ENDROOT
TORSDOF 0
ENDMDL
