MODEL 1
REMARK minimizedAffinity 10.5752821
REMARK minimizedRMSD -1
REMARK  0 active torsions:
REMARK  status: ('A' for Active; 'I' for Inactive)
ROOT
ATOM      1  N1  IND d   1       1.634  -1.039  -0.197  0.00  0.00    -0.196 N 
ATOM      2  C2  IND d   1       2.171  -0.299   0.819  0.00  0.00     0.054 A 
ATOM      3  C3  IND d   1       1.202   0.397   1.456  0.00  0.00    -0.031 A 
ATOM      4  C4  IND d   1      -1.342   0.393   1.064  0.00  0.00     0.051 A 
ATOM      5  C5  IND d   1      -2.302  -0.098   0.225  0.00  0.00    -0.031 A 
ATOM      6  C6  IND d   1      -1.993  -0.948  -0.818  0.00  0.00     0.015 A 
ATOM      7  C7  IND d   1      -0.708  -1.348  -1.054  0.00  0.00    -0.016 A 
ATOM      8  C8  IND d   1       0.270  -0.846  -0.208  0.00  0.00    -0.047 A 
ATOM      9  C9  IND d   1      -0.032   0.050   0.826  0.00  0.00    -0.096 A 
ATOM     10  HN1 IND d   1       2.074  -1.541  -0.739  0.00  0.00     0.298 HD
ENDROOT
TORSDOF 0
ENDMDL
