MODEL 1
REMARK minimizedAffinity 7.07911777
REMARK minimizedRMSD -1
REMARK  0 active torsions:
REMARK  status: ('A' for Active; 'I' for Inactive)
ROOT
ATOM      1  N1  IND d   1       1.257  -0.807  -0.317  0.00  0.00    -0.196 N 
ATOM      2  C2  IND d   1       2.020  -0.363   0.727  0.00  0.00     0.054 A 
ATOM      3  C3  IND d   1       1.262   0.342   1.597  0.00  0.00    -0.031 A 
ATOM      4  C4  IND d   1      -1.270   0.804   1.558  0.00  0.00     0.051 A 
ATOM      5  C5  IND d   1      -2.385   0.634   0.786  0.00  0.00    -0.031 A 
ATOM      6  C6  IND d   1      -2.342  -0.042  -0.416  0.00  0.00     0.015 A 
ATOM      7  C7  IND d   1      -1.180  -0.584  -0.888  0.00  0.00    -0.016 A 
ATOM      8  C8  IND d   1      -0.045  -0.407  -0.110  0.00  0.00    -0.047 A 
ATOM      9  C9  IND d   1      -0.074   0.314   1.091  0.00  0.00    -0.096 A 
ATOM     10  HN1 IND d   1       1.542  -1.260  -0.990  0.00  0.00     0.298 HD
ENDROOT
TORSDOF 0
ENDMDL
