MODEL 1
REMARK minimizedAffinity 13.5542717
REMARK minimizedRMSD -1
REMARK  0 active torsions:
REMARK  status: ('A' for Active; 'I' for Inactive)
ROOT
ATOM      1  N1  IND d   1       0.436  -0.613  -0.656  0.00  0.00    -0.196 N 
ATOM      2  C2  IND d   1      -0.687  -0.161  -0.022  0.00  0.00     0.054 A 
ATOM      3  C3  IND d   1      -0.374   0.839   0.833  0.00  0.00    -0.031 A 
ATOM      4  C4  IND d   1       1.900   1.961   1.275  0.00  0.00     0.051 A 
ATOM      5  C5  IND d   1       3.227   1.867   0.961  0.00  0.00    -0.031 A 
ATOM      6  C6  IND d   1       3.700   0.924   0.071  0.00  0.00     0.015 A 
ATOM      7  C7  IND d   1       2.859   0.044  -0.548  0.00  0.00    -0.016 A 
ATOM      8  C8  IND d   1       1.512   0.131  -0.226  0.00  0.00    -0.047 A 
ATOM      9  C9  IND d   1       1.032   1.058   0.708  0.00  0.00    -0.096 A 
ATOM     10  HN1 IND d   1       0.466  -1.256  -1.227  0.00  0.00     0.298 HD
ENDROOT
TORSDOF 0
ENDMDL
