MODEL 1
REMARK minimizedAffinity -2.9759984
REMARK minimizedRMSD -1
REMARK  0 active torsions:
REMARK  status: ('A' for Active; 'I' for Inactive)
ROOT
ATOM      1  N1  IND d   1       1.324  -1.323   3.343  0.00  0.00    -0.196 N 
ATOM      2  C2  IND d   1       0.735  -1.584   4.549  0.00  0.00     0.054 A 
ATOM      3  C3  IND d   1      -0.514  -1.067   4.584  0.00  0.00    -0.031 A 
ATOM      4  C4  IND d   1      -1.831   0.155   2.741  0.00  0.00     0.051 A 
ATOM      5  C5  IND d   1      -1.700   0.660   1.478  0.00  0.00    -0.031 A 
ATOM      6  C6  IND d   1      -0.532   0.525   0.756  0.00  0.00     0.015 A 
ATOM      7  C7  IND d   1       0.550  -0.133   1.269  0.00  0.00    -0.016 A 
ATOM      8  C8  IND d   1       0.423  -0.641   2.554  0.00  0.00    -0.047 A 
ATOM      9  C9  IND d   1      -0.746  -0.470   3.307  0.00  0.00    -0.096 A 
ATOM     10  HN1 IND d   1       2.122  -1.547   3.115  0.00  0.00     0.298 HD
ENDROOT
TORSDOF 0
ENDMDL
