MODEL 1
REMARK minimizedAffinity -0.929581285
REMARK minimizedRMSD -1
REMARK  0 active torsions:
REMARK  status: ('A' for Active; 'I' for Inactive)
ROOT
ATOM      1  N1  IND d   1       1.503  -1.001   3.006  0.00  0.00    -0.196 N 
ATOM      2  C2  IND d   1       1.793  -0.398   1.813  0.00  0.00     0.054 A 
ATOM      3  C3  IND d   1       0.676   0.142   1.276  0.00  0.00    -0.031 A 
ATOM      4  C4  IND d   1      -1.713   0.246   2.229  0.00  0.00     0.051 A 
ATOM      5  C5  IND d   1      -2.477  -0.197   3.272  0.00  0.00    -0.031 A 
ATOM      6  C6  IND d   1      -1.941  -0.943   4.302  0.00  0.00     0.015 A 
ATOM      7  C7  IND d   1      -0.614  -1.266   4.333  0.00  0.00    -0.016 A 
ATOM      8  C8  IND d   1       0.163  -0.824   3.272  0.00  0.00    -0.047 A 
ATOM      9  C9  IND d   1      -0.383  -0.103   2.202  0.00  0.00    -0.096 A 
ATOM     10  HN1 IND d   1       2.063  -1.420   3.505  0.00  0.00     0.298 HD
ENDROOT
TORSDOF 0
ENDMDL
