MODEL 1
REMARK minimizedAffinity 3.39847517
REMARK minimizedRMSD -1
REMARK  0 active torsions:
REMARK  status: ('A' for Active; 'I' for Inactive)
ROOT
ATOM      1  N1  IND d   1      -3.444  -1.315   4.513  0.00  0.00    -0.196 N 
ATOM      2  C2  IND d   1      -3.013  -1.932   5.655  0.00  0.00     0.054 A 
ATOM      3  C3  IND d   1      -1.671  -2.086   5.628  0.00  0.00    -0.031 A 
ATOM      4  C4  IND d   1       0.030  -1.311   3.858  0.00  0.00     0.051 A 
ATOM      5  C5  IND d   1       0.111  -0.736   2.621  0.00  0.00    -0.031 A 
ATOM      6  C6  IND d   1      -1.012  -0.313   1.939  0.00  0.00     0.015 A 
ATOM      7  C7  IND d   1      -2.261  -0.440   2.476  0.00  0.00    -0.016 A 
ATOM      8  C8  IND d   1      -2.348  -1.030   3.729  0.00  0.00    -0.047 A 
ATOM      9  C9  IND d   1      -1.216  -1.500   4.407  0.00  0.00    -0.096 A 
ATOM     10  HN1 IND d   1      -4.262  -1.135   4.318  0.00  0.00     0.298 HD
ENDROOT
TORSDOF 0
ENDMDL
