MODEL 1
REMARK minimizedAffinity -1.32621074
REMARK minimizedRMSD -1
REMARK  0 active torsions:
REMARK  status: ('A' for Active; 'I' for Inactive)
ROOT
ATOM      1  N1  IND d   1       1.351  -0.454   2.083  0.00  0.00    -0.196 N 
ATOM      2  C2  IND d   1       1.448  -0.837   3.391  0.00  0.00     0.054 A 
ATOM      3  C3  IND d   1       0.229  -0.825   3.976  0.00  0.00    -0.031 A 
ATOM      4  C4  IND d   1      -2.074  -0.310   2.947  0.00  0.00     0.051 A 
ATOM      5  C5  IND d   1      -2.666   0.124   1.794  0.00  0.00    -0.031 A 
ATOM      6  C6  IND d   1      -1.935   0.390   0.654  0.00  0.00     0.015 A 
ATOM      7  C7  IND d   1      -0.579   0.221   0.622  0.00  0.00    -0.016 A 
ATOM      8  C8  IND d   1       0.026  -0.213   1.793  0.00  0.00    -0.047 A 
ATOM      9  C9  IND d   1      -0.706  -0.444   2.965  0.00  0.00    -0.096 A 
ATOM     10  HN1 IND d   1       2.007  -0.376   1.533  0.00  0.00     0.298 HD
ENDROOT
TORSDOF 0
ENDMDL
