MODEL 1
REMARK minimizedAffinity 4.22313356
REMARK minimizedRMSD -1
REMARK  0 active torsions:
REMARK  status: ('A' for Active; 'I' for Inactive)
ROOT
ATOM      1  N1  IND d   1       1.408  -0.523   2.458  0.00  0.00    -0.196 N 
ATOM      2  C2  IND d   1       1.327  -0.803   3.793  0.00  0.00     0.054 A 
ATOM      3  C3  IND d   1       0.085  -0.535   4.255  0.00  0.00    -0.031 A 
ATOM      4  C4  IND d   1      -1.997   0.274   2.975  0.00  0.00     0.051 A 
ATOM      5  C5  IND d   1      -2.405   0.702   1.742  0.00  0.00    -0.031 A 
ATOM      6  C6  IND d   1      -1.546   0.741   0.663  0.00  0.00     0.015 A 
ATOM      7  C7  IND d   1      -0.244   0.342   0.774  0.00  0.00    -0.016 A 
ATOM      8  C8  IND d   1       0.175  -0.086   2.025  0.00  0.00    -0.047 A 
ATOM      9  C9  IND d   1      -0.680  -0.088   3.134  0.00  0.00    -0.096 A 
ATOM     10  HN1 IND d   1       2.111  -0.606   1.970  0.00  0.00     0.298 HD
ENDROOT
TORSDOF 0
ENDMDL
