MODEL 1
REMARK minimizedAffinity 1.77376842
REMARK minimizedRMSD -1
REMARK  1 active torsions:
REMARK  status: ('A' for Active; 'I' for Inactive)
REMARK    1  A    between atoms: C1_2  and  C2_3 
ROOT
ATOM      1  C2  UNL d   1      -3.945   0.566  -4.903  0.00  0.00    -0.077 A 
ATOM      2  C3  UNL d   1      -3.560   0.688  -3.560  0.00  0.00     0.002 A 
ATOM      3  C4  UNL d   1      -3.750   1.891  -2.878  0.00  0.00     0.002 A 
ATOM      4  C5  UNL d   1      -4.328   2.979  -3.528  0.00  0.00    -0.004 A 
ATOM      5  C6  UNL d   1      -4.713   2.868  -4.863  0.00  0.00     0.002 A 
ATOM      6  C7  UNL d   1      -4.522   1.667  -5.548  0.00  0.00     0.002 A 
ENDROOT
BRANCH   1   7
ATOM      7  C1  UNL d   1      -3.786  -0.746  -5.626  0.00  0.00     0.055 C 
ATOM      8  C   UNL d   1      -5.137  -1.347  -5.986  0.00  0.00     0.019 C 
ENDBRANCH   1   7
TORSDOF 1
ENDMDL
