MODEL 1
REMARK minimizedAffinity 5.0083642
REMARK minimizedRMSD -1
REMARK  1 active torsions:
REMARK  status: ('A' for Active; 'I' for Inactive)
REMARK    1  A    between atoms: C1_2  and  C2_3 
ROOT
ATOM      1  C2  UNL d   1      -5.426  -3.420  -5.323  0.00  0.00    -0.077 A 
ATOM      2  C3  UNL d   1      -4.722  -3.625  -4.128  0.00  0.00     0.002 A 
ATOM      3  C4  UNL d   1      -4.593  -4.910  -3.596  0.00  0.00     0.002 A 
ATOM      4  C5  UNL d   1      -5.162  -5.998  -4.254  0.00  0.00    -0.004 A 
ATOM      5  C6  UNL d   1      -5.865  -5.804  -5.442  0.00  0.00     0.002 A 
ATOM      6  C7  UNL d   1      -5.996  -4.520  -5.974  0.00  0.00     0.002 A 
ENDROOT
BRANCH   1   7
ATOM      7  C1  UNL d   1      -5.524  -2.042  -5.924  0.00  0.00     0.055 C 
ATOM      8  C   UNL d   1      -4.706  -1.033  -5.131  0.00  0.00     0.019 C 
ENDBRANCH   1   7
TORSDOF 1
ENDMDL
