MODEL 1
REMARK minimizedAffinity 0.160052687
REMARK minimizedRMSD -1
REMARK  1 active torsions:
REMARK  status: ('A' for Active; 'I' for Inactive)
REMARK    1  A    between atoms: C1_2  and  C2_3 
ROOT
ATOM      1  C2  UNL d   1       2.995  -5.685  -2.852  0.00  0.00    -0.077 A 
ATOM      2  C3  UNL d   1       4.383  -5.654  -2.654  0.00  0.00     0.002 A 
ATOM      3  C4  UNL d   1       5.254  -5.795  -3.736  0.00  0.00     0.002 A 
ATOM      4  C5  UNL d   1       4.747  -5.965  -5.023  0.00  0.00    -0.004 A 
ATOM      5  C6  UNL d   1       3.369  -6.000  -5.230  0.00  0.00     0.002 A 
ATOM      6  C7  UNL d   1       2.497  -5.860  -4.149  0.00  0.00     0.002 A 
ENDROOT
BRANCH   1   7
ATOM      7  C1  UNL d   1       2.054  -5.484  -1.693  0.00  0.00     0.055 C 
ATOM      8  C   UNL d   1       2.657  -5.999  -0.394  0.00  0.00     0.019 C 
ENDBRANCH   1   7
TORSDOF 1
ENDMDL
