MODEL 1
REMARK minimizedAffinity 10.528676
REMARK minimizedRMSD -1
REMARK  1 active torsions:
REMARK  status: ('A' for Active; 'I' for Inactive)
REMARK    1  A    between atoms: C1_2  and  C2_3 
ROOT
ATOM      1  C2  UNL d   1      -4.883  -3.188  -5.476  0.00  0.00    -0.077 A 
ATOM      2  C3  UNL d   1      -3.755  -3.900  -5.043  0.00  0.00     0.002 A 
ATOM      3  C4  UNL d   1      -3.742  -5.295  -5.084  0.00  0.00     0.002 A 
ATOM      4  C5  UNL d   1      -4.851  -5.990  -5.561  0.00  0.00    -0.004 A 
ATOM      5  C6  UNL d   1      -5.978  -5.291  -5.993  0.00  0.00     0.002 A 
ATOM      6  C7  UNL d   1      -5.993  -3.897  -5.951  0.00  0.00     0.002 A 
ENDROOT
BRANCH   1   7
ATOM      7  C1  UNL d   1      -4.880  -1.681  -5.478  0.00  0.00     0.055 C 
ATOM      8  C   UNL d   1      -4.284  -1.127  -4.193  0.00  0.00     0.019 C 
ENDBRANCH   1   7
TORSDOF 1
ENDMDL
