MODEL 1
REMARK minimizedAffinity 5.26628637
REMARK minimizedRMSD -1
REMARK  1 active torsions:
REMARK  status: ('A' for Active; 'I' for Inactive)
REMARK    1  A    between atoms: C1_2  and  C2_3 
ROOT
ATOM      1  C2  UNL d   1       1.956  -0.911   2.092  0.00  0.00    -0.077 A 
ATOM      2  C3  UNL d   1       2.426   0.346   2.498  0.00  0.00     0.002 A 
ATOM      3  C4  UNL d   1       2.598   1.371   1.565  0.00  0.00     0.002 A 
ATOM      4  C5  UNL d   1       2.299   1.150   0.223  0.00  0.00    -0.004 A 
ATOM      5  C6  UNL d   1       1.833  -0.097  -0.191  0.00  0.00     0.002 A 
ATOM      6  C7  UNL d   1       1.661  -1.123   0.739  0.00  0.00     0.002 A 
ENDROOT
BRANCH   1   7
ATOM      7  C1  UNL d   1       1.722  -2.002   3.105  0.00  0.00     0.055 C 
ATOM      8  C   UNL d   1       3.033  -2.496   3.698  0.00  0.00     0.019 C 
ENDBRANCH   1   7
TORSDOF 1
ENDMDL
