MODEL 1
REMARK minimizedAffinity 3.72726035
REMARK minimizedRMSD -1
REMARK  1 active torsions:
REMARK  status: ('A' for Active; 'I' for Inactive)
REMARK    1  A    between atoms: C1_2  and  C2_3 
ROOT
ATOM      1  C2  UNL d   1      -4.009   2.243  -2.043  0.00  0.00    -0.077 A 
ATOM      2  C3  UNL d   1      -3.747   1.912  -3.380  0.00  0.00     0.002 A 
ATOM      3  C4  UNL d   1      -4.606   2.339  -4.395  0.00  0.00     0.002 A 
ATOM      4  C5  UNL d   1      -5.728   3.103  -4.084  0.00  0.00    -0.004 A 
ATOM      5  C6  UNL d   1      -5.998   3.436  -2.757  0.00  0.00     0.002 A 
ATOM      6  C7  UNL d   1      -5.142   3.009  -1.741  0.00  0.00     0.002 A 
ENDROOT
BRANCH   1   7
ATOM      7  C1  UNL d   1      -3.057   1.825  -0.953  0.00  0.00     0.055 C 
ATOM      8  C   UNL d   1      -3.361   2.545   0.353  0.00  0.00     0.019 C 
ENDBRANCH   1   7
TORSDOF 1
ENDMDL
