MODEL 1
REMARK minimizedAffinity -5.33258057
REMARK minimizedRMSD -1
REMARK  0 active torsions:
REMARK  status: ('A' for Active; 'I' for Inactive)
ROOT
ATOM      1  O1  BZF d   1       0.757   0.330  -0.923  0.00  0.00    -0.204 OA
ATOM      2  C2  BZF d   1       0.389   0.757   0.339  0.00  0.00     0.174 A 
ATOM      3  C3  BZF d   1      -0.133  -0.260   1.054  0.00  0.00    -0.012 A 
ATOM      4  C3A BZF d   1      -0.003  -1.414   0.219  0.00  0.00    -0.107 A 
ATOM      5  C4  BZF d   1      -0.326  -2.731   0.380  0.00  0.00     0.055 A 
ATOM      6  C5  BZF d   1      -0.136  -3.589  -0.657  0.00  0.00    -0.016 A 
ATOM      7  C6  BZF d   1       0.370  -3.164  -1.868  0.00  0.00     0.022 A 
ATOM      8  C7  BZF d   1       0.710  -1.868  -2.073  0.00  0.00     0.029 A 
ATOM      9  C7A BZF d   1       0.550  -1.005  -1.017  0.00  0.00     0.058 A 
ENDROOT
TORSDOF 0
ENDMDL
