MODEL 1
REMARK minimizedAffinity -5.34662819
REMARK minimizedRMSD -1
REMARK  0 active torsions:
REMARK  status: ('A' for Active; 'I' for Inactive)
ROOT
ATOM      1  O1  BZF d   1      -0.093  -0.224  -2.535  0.00  0.00    -0.204 OA
ATOM      2  C2  BZF d   1      -0.289   0.937  -1.813  0.00  0.00     0.174 A 
ATOM      3  C3  BZF d   1      -0.489   0.661  -0.508  0.00  0.00    -0.012 A 
ATOM      4  C3A BZF d   1      -0.320  -0.755  -0.392  0.00  0.00    -0.107 A 
ATOM      5  C4  BZF d   1      -0.378  -1.626   0.658  0.00  0.00     0.055 A 
ATOM      6  C5  BZF d   1      -0.238  -2.956   0.422  0.00  0.00    -0.016 A 
ATOM      7  C6  BZF d   1      -0.045  -3.452  -0.851  0.00  0.00     0.022 A 
ATOM      8  C7  BZF d   1       0.025  -2.627  -1.924  0.00  0.00     0.029 A 
ATOM      9  C7A BZF d   1      -0.082  -1.279  -1.684  0.00  0.00     0.058 A 
ENDROOT
TORSDOF 0
ENDMDL
