MODEL 1
REMARK minimizedAffinity -4.012609
REMARK minimizedRMSD -1
REMARK  0 active torsions:
REMARK  status: ('A' for Active; 'I' for Inactive)
ROOT
ATOM      1  O1  BZF d   1       0.505   0.129  -1.300  0.00  0.00    -0.204 OA
ATOM      2  C2  BZF d   1      -0.029   1.141  -0.526  0.00  0.00     0.174 A 
ATOM      3  C3  BZF d   1      -0.669   0.634   0.548  0.00  0.00    -0.012 A 
ATOM      4  C3A BZF d   1      -0.447  -0.778   0.487  0.00  0.00    -0.107 A 
ATOM      5  C4  BZF d   1      -0.818  -1.822   1.285  0.00  0.00     0.055 A 
ATOM      6  C5  BZF d   1      -0.501  -3.088   0.907  0.00  0.00    -0.016 A 
ATOM      7  C6  BZF d   1       0.180  -3.346  -0.265  0.00  0.00     0.022 A 
ATOM      8  C7  BZF d   1       0.574  -2.343  -1.086  0.00  0.00     0.029 A 
ATOM      9  C7A BZF d   1       0.284  -1.060  -0.690  0.00  0.00     0.058 A 
ENDROOT
TORSDOF 0
ENDMDL
