MODEL 1
REMARK minimizedAffinity -3.00069451
REMARK minimizedRMSD -1
REMARK  0 active torsions:
REMARK  status: ('A' for Active; 'I' for Inactive)
ROOT
ATOM      1  O1  BZF d   1      -0.007   1.913   0.749  0.00  0.00    -0.204 OA
ATOM      2  C2  BZF d   1       0.226   2.171  -0.588  0.00  0.00     0.174 A 
ATOM      3  C3  BZF d   1       0.041   1.059  -1.329  0.00  0.00    -0.012 A 
ATOM      4  C3A BZF d   1      -0.420   0.066  -0.409  0.00  0.00    -0.107 A 
ATOM      5  C4  BZF d   1      -0.790  -1.241  -0.546  0.00  0.00     0.055 A 
ATOM      6  C5  BZF d   1      -1.121  -1.954   0.562  0.00  0.00    -0.016 A 
ATOM      7  C6  BZF d   1      -1.087  -1.394   1.823  0.00  0.00     0.022 A 
ATOM      8  C7  BZF d   1      -0.731  -0.100   2.008  0.00  0.00     0.029 A 
ATOM      9  C7A BZF d   1      -0.429   0.633   0.886  0.00  0.00     0.058 A 
ENDROOT
TORSDOF 0
ENDMDL
