MODEL 1
REMARK minimizedAffinity -4.18744802
REMARK minimizedRMSD -1
REMARK  0 active torsions:
REMARK  status: ('A' for Active; 'I' for Inactive)
ROOT
ATOM      1  O1  BZF d   1      -0.170   0.586  -0.755  0.00  0.00    -0.204 OA
ATOM      2  C2  BZF d   1      -0.643   0.893   0.506  0.00  0.00     0.174 A 
ATOM      3  C3  BZF d   1      -1.049  -0.221   1.149  0.00  0.00    -0.012 A 
ATOM      4  C3A BZF d   1      -0.730  -1.302   0.268  0.00  0.00    -0.107 A 
ATOM      5  C4  BZF d   1      -0.876  -2.657   0.352  0.00  0.00     0.055 A 
ATOM      6  C5  BZF d   1      -0.530  -3.426  -0.713  0.00  0.00    -0.016 A 
ATOM      7  C6  BZF d   1      -0.039  -2.875  -1.878  0.00  0.00     0.022 A 
ATOM      8  C7  BZF d   1       0.129  -1.536  -2.007  0.00  0.00     0.029 A 
ATOM      9  C7A BZF d   1      -0.189  -0.758  -0.921  0.00  0.00     0.058 A 
ENDROOT
TORSDOF 0
ENDMDL
