MODEL 1
REMARK minimizedAffinity -6.21039915
REMARK minimizedRMSD -1
REMARK  0 active torsions:
REMARK  status: ('A' for Active; 'I' for Inactive)
ROOT
ATOM      1  O1  BZF d   1      -0.084   0.347  -1.378  0.00  0.00    -0.204 OA
ATOM      2  C2  BZF d   1      -0.502   1.125  -0.316  0.00  0.00     0.174 A 
ATOM      3  C3  BZF d   1      -0.780   0.358   0.758  0.00  0.00    -0.012 A 
ATOM      4  C3A BZF d   1      -0.430  -0.974   0.370  0.00  0.00    -0.107 A 
ATOM      5  C4  BZF d   1      -0.465  -2.179   1.012  0.00  0.00     0.055 A 
ATOM      6  C5  BZF d   1      -0.124  -3.302   0.327  0.00  0.00    -0.016 A 
ATOM      7  C6  BZF d   1       0.250  -3.258  -1.000  0.00  0.00     0.022 A 
ATOM      8  C7  BZF d   1       0.304  -2.086  -1.678  0.00  0.00     0.029 A 
ATOM      9  C7A BZF d   1      -0.008  -0.945  -0.979  0.00  0.00     0.058 A 
ENDROOT
TORSDOF 0
ENDMDL
