MODEL 1
REMARK minimizedAffinity -3.96539521
REMARK minimizedRMSD -1
REMARK  0 active torsions:
REMARK  status: ('A' for Active; 'I' for Inactive)
ROOT
ATOM      1  O1  BZF d   1       0.283  -0.020  -1.941  0.00  0.00    -0.204 OA
ATOM      2  C2  BZF d   1       0.259   1.068  -1.090  0.00  0.00     0.174 A 
ATOM      3  C3  BZF d   1       0.073   0.673   0.186  0.00  0.00    -0.012 A 
ATOM      4  C3A BZF d   1       0.067  -0.757   0.140  0.00  0.00    -0.107 A 
ATOM      5  C4  BZF d   1      -0.063  -1.726   1.093  0.00  0.00     0.055 A 
ATOM      6  C5  BZF d   1      -0.100  -3.029   0.710  0.00  0.00    -0.016 A 
ATOM      7  C6  BZF d   1      -0.015  -3.398  -0.617  0.00  0.00     0.022 A 
ATOM      8  C7  BZF d   1       0.120  -2.473  -1.598  0.00  0.00     0.029 A 
ATOM      9  C7A BZF d   1       0.191  -1.157  -1.210  0.00  0.00     0.058 A 
ENDROOT
TORSDOF 0
ENDMDL
