MODEL 1
REMARK minimizedAffinity -6.42822361
REMARK minimizedRMSD -1
REMARK  0 active torsions:
REMARK  status: ('A' for Active; 'I' for Inactive)
ROOT
ATOM      1  O1  BZF d   1       0.027   0.126  -0.842  0.00  0.00    -0.204 OA
ATOM      2  C2  BZF d   1      -0.221   0.644   0.414  0.00  0.00     0.174 A 
ATOM      3  C3  BZF d   1      -0.433  -0.345   1.307  0.00  0.00    -0.012 A 
ATOM      4  C3A BZF d   1      -0.219  -1.559   0.581  0.00  0.00    -0.107 A 
ATOM      5  C4  BZF d   1      -0.267  -2.879   0.925  0.00  0.00     0.055 A 
ATOM      6  C5  BZF d   1      -0.080  -3.820  -0.038  0.00  0.00    -0.016 A 
ATOM      7  C6  BZF d   1       0.152  -3.477  -1.353  0.00  0.00     0.022 A 
ATOM      8  C7  BZF d   1       0.213  -2.180  -1.742  0.00  0.00     0.029 A 
ATOM      9  C7A BZF d   1       0.057  -1.226  -0.766  0.00  0.00     0.058 A 
ENDROOT
TORSDOF 0
ENDMDL
