MODEL 1
REMARK minimizedAffinity -2.3538909
REMARK minimizedRMSD -1
REMARK  0 active torsions:
REMARK  status: ('A' for Active; 'I' for Inactive)
ROOT
ATOM      1  O1  BZF d   1       0.539  -0.521  -0.199  0.00  0.00    -0.204 OA
ATOM      2  C2  BZF d   1      -0.625  -0.603   0.541  0.00  0.00     0.174 A 
ATOM      3  C3  BZF d   1      -0.916   0.585   1.108  0.00  0.00    -0.012 A 
ATOM      4  C3A BZF d   1       0.081   1.489   0.622  0.00  0.00    -0.107 A 
ATOM      5  C4  BZF d   1       0.317   2.820   0.815  0.00  0.00     0.055 A 
ATOM      6  C5  BZF d   1       1.418   3.385   0.254  0.00  0.00    -0.016 A 
ATOM      7  C6  BZF d   1       2.306   2.648  -0.502  0.00  0.00     0.022 A 
ATOM      8  C7  BZF d   1       2.112   1.325  -0.726  0.00  0.00     0.029 A 
ATOM      9  C7A BZF d   1       0.983   0.759  -0.187  0.00  0.00     0.058 A 
ENDROOT
TORSDOF 0
ENDMDL
