MODEL 1
REMARK minimizedAffinity -5.38643026
REMARK minimizedRMSD -1
REMARK  0 active torsions:
REMARK  status: ('A' for Active; 'I' for Inactive)
ROOT
ATOM      1  O1  BZF d   1       0.495   0.442  -0.917  0.00  0.00    -0.204 OA
ATOM      2  C2  BZF d   1      -0.031   1.133   0.157  0.00  0.00     0.174 A 
ATOM      3  C3  BZF d   1      -0.587   0.285   1.046  0.00  0.00    -0.012 A 
ATOM      4  C3A BZF d   1      -0.315  -1.025   0.538  0.00  0.00    -0.107 A 
ATOM      5  C4  BZF d   1      -0.599  -2.284   0.985  0.00  0.00     0.055 A 
ATOM      6  C5  BZF d   1      -0.257  -3.351   0.216  0.00  0.00    -0.016 A 
ATOM      7  C6  BZF d   1       0.365  -3.196  -1.006  0.00  0.00     0.022 A 
ATOM      8  C7  BZF d   1       0.671  -1.967  -1.489  0.00  0.00     0.029 A 
ATOM      9  C7A BZF d   1       0.356  -0.888  -0.699  0.00  0.00     0.058 A 
ENDROOT
TORSDOF 0
ENDMDL
