MODEL 1
REMARK minimizedAffinity -2.90279722
REMARK minimizedRMSD -1
REMARK  0 active torsions:
REMARK  status: ('A' for Active; 'I' for Inactive)
ROOT
ATOM      1  O1  BZF d   1       0.418   0.099  -1.457  0.00  0.00    -0.204 OA
ATOM      2  C2  BZF d   1       0.247   1.375  -0.956  0.00  0.00     0.174 A 
ATOM      3  C3  BZF d   1      -0.273   1.336   0.288  0.00  0.00    -0.012 A 
ATOM      4  C3A BZF d   1      -0.350  -0.054   0.619  0.00  0.00    -0.107 A 
ATOM      5  C4  BZF d   1      -0.769  -0.732   1.728  0.00  0.00     0.055 A 
ATOM      6  C5  BZF d   1      -0.785  -2.091   1.704  0.00  0.00    -0.016 A 
ATOM      7  C6  BZF d   1      -0.395  -2.802   0.588  0.00  0.00     0.022 A 
ATOM      8  C7  BZF d   1       0.032  -2.173  -0.534  0.00  0.00     0.029 A 
ATOM      9  C7A BZF d   1       0.081  -0.801  -0.501  0.00  0.00     0.058 A 
ENDROOT
TORSDOF 0
ENDMDL
