MODEL 1
REMARK minimizedAffinity -4.61841393
REMARK minimizedRMSD -1
REMARK  0 active torsions:
REMARK  status: ('A' for Active; 'I' for Inactive)
ROOT
ATOM      1  O1  BZF d   1      -0.626  -1.395  -2.875  0.00  0.00    -0.204 OA
ATOM      2  C2  BZF d   1      -0.606  -2.774  -2.789  0.00  0.00     0.174 A 
ATOM      3  C3  BZF d   1      -0.356  -3.170  -1.524  0.00  0.00    -0.012 A 
ATOM      4  C3A BZF d   1      -0.302  -1.964  -0.756  0.00  0.00    -0.107 A 
ATOM      5  C4  BZF d   1      -0.100  -1.704   0.570  0.00  0.00     0.055 A 
ATOM      6  C5  BZF d   1      -0.033  -0.412   0.986  0.00  0.00    -0.016 A 
ATOM      7  C6  BZF d   1      -0.158   0.642   0.106  0.00  0.00     0.022 A 
ATOM      8  C7  BZF d   1      -0.365   0.434  -1.218  0.00  0.00     0.029 A 
ATOM      9  C7A BZF d   1      -0.465  -0.870  -1.637  0.00  0.00     0.058 A 
ENDROOT
TORSDOF 0
ENDMDL
