MODEL 1
REMARK minimizedAffinity -3.79303837
REMARK minimizedRMSD -1
REMARK  0 active torsions:
REMARK  status: ('A' for Active; 'I' for Inactive)
ROOT
ATOM      1  O1  BZF d   1      -0.210  -0.876  -2.513  0.00  0.00    -0.204 OA
ATOM      2  C2  BZF d   1       0.012  -2.237  -2.597  0.00  0.00     0.174 A 
ATOM      3  C3  BZF d   1      -0.010  -2.801  -1.372  0.00  0.00    -0.012 A 
ATOM      4  C3A BZF d   1      -0.352  -1.741  -0.475  0.00  0.00    -0.107 A 
ATOM      5  C4  BZF d   1      -0.543  -1.678   0.876  0.00  0.00     0.055 A 
ATOM      6  C5  BZF d   1      -0.797  -0.474   1.452  0.00  0.00    -0.016 A 
ATOM      7  C6  BZF d   1      -0.862   0.687   0.709  0.00  0.00     0.022 A 
ATOM      8  C7  BZF d   1      -0.685   0.674  -0.634  0.00  0.00     0.029 A 
ATOM      9  C7A BZF d   1      -0.461  -0.546  -1.224  0.00  0.00     0.058 A 
ENDROOT
TORSDOF 0
ENDMDL
