MODEL 1
REMARK minimizedAffinity -0.572405815
REMARK minimizedRMSD -1
REMARK  0 active torsions:
REMARK  status: ('A' for Active; 'I' for Inactive)
ROOT
ATOM      1  O1  BZF d   1       0.201   0.174  -2.361  0.00  0.00    -0.204 OA
ATOM      2  C2  BZF d   1       0.642  -0.904  -3.104  0.00  0.00     0.174 A 
ATOM      3  C3  BZF d   1       0.616  -2.035  -2.369  0.00  0.00    -0.012 A 
ATOM      4  C3A BZF d   1       0.041  -1.655  -1.115  0.00  0.00    -0.107 A 
ATOM      5  C4  BZF d   1      -0.261  -2.342   0.026  0.00  0.00     0.055 A 
ATOM      6  C5  BZF d   1      -0.747  -1.662   1.097  0.00  0.00    -0.016 A 
ATOM      7  C6  BZF d   1      -0.938  -0.297   1.065  0.00  0.00     0.022 A 
ATOM      8  C7  BZF d   1      -0.658   0.427  -0.046  0.00  0.00     0.029 A 
ATOM      9  C7A BZF d   1      -0.198  -0.262  -1.141  0.00  0.00     0.058 A 
ENDROOT
TORSDOF 0
ENDMDL
