MODEL 1
REMARK minimizedAffinity -0.666443765
REMARK minimizedRMSD -1
REMARK  0 active torsions:
REMARK  status: ('A' for Active; 'I' for Inactive)
ROOT
ATOM      1  C   UNL d   1       2.397  -1.702   4.134  0.00  0.00     0.023 A 
ATOM      2  C1  UNL d   1       1.256  -1.827   4.927  0.00  0.00     0.003 A 
ATOM      3  C2  UNL d   1       0.010  -1.441   4.427  0.00  0.00     0.048 A 
ATOM      4  C3  UNL d   1      -0.087  -0.930   3.133  0.00  0.00     0.023 A 
ATOM      5  C4  UNL d   1       1.052  -0.804   2.335  0.00  0.00     0.048 A 
ATOM      6  C5  UNL d   1       2.295  -1.191   2.840  0.00  0.00     0.003 A 
ATOM      7  I   UNL d   1      -1.939  -0.354   2.386  0.00  0.00    -0.146 I 
ENDROOT
TORSDOF 0
ENDMDL
