MODEL 1
REMARK minimizedAffinity 0.477428496
REMARK minimizedRMSD -1
REMARK  0 active torsions:
REMARK  status: ('A' for Active; 'I' for Inactive)
ROOT
ATOM      1  C   UNL d   1      -1.091   0.272   1.016  0.00  0.00     0.023 A 
ATOM      2  C1  UNL d   1       0.218  -0.172   0.828  0.00  0.00     0.003 A 
ATOM      3  C2  UNL d   1       0.964  -0.630   1.917  0.00  0.00     0.048 A 
ATOM      4  C3  UNL d   1       0.394  -0.642   3.189  0.00  0.00     0.023 A 
ATOM      5  C4  UNL d   1      -0.916  -0.200   3.381  0.00  0.00     0.048 A 
ATOM      6  C5  UNL d   1      -1.657   0.258   2.290  0.00  0.00     0.003 A 
ATOM      7  I   UNL d   1       1.501  -1.324   4.810  0.00  0.00    -0.146 I 
ENDROOT
TORSDOF 0
ENDMDL
