MODEL 1
REMARK minimizedAffinity 7.61400509
REMARK minimizedRMSD -1
REMARK  0 active torsions:
REMARK  status: ('A' for Active; 'I' for Inactive)
ROOT
ATOM      1  C   UNL d   1      -1.510   0.031  -0.409  0.00  0.00     0.023 A 
ATOM      2  C1  UNL d   1      -1.341   0.472   0.903  0.00  0.00     0.003 A 
ATOM      3  C2  UNL d   1      -2.043  -0.141   1.943  0.00  0.00     0.048 A 
ATOM      4  C3  UNL d   1      -2.911  -1.196   1.664  0.00  0.00     0.023 A 
ATOM      5  C4  UNL d   1      -3.083  -1.641   0.352  0.00  0.00     0.048 A 
ATOM      6  C5  UNL d   1      -2.379  -1.024  -0.685  0.00  0.00     0.003 A 
ATOM      7  I   UNL d   1      -3.957  -2.110   3.210  0.00  0.00    -0.146 I 
ENDROOT
TORSDOF 0
ENDMDL
