MODEL 1
REMARK minimizedAffinity 9.6051054
REMARK minimizedRMSD -1
REMARK  0 active torsions:
REMARK  status: ('A' for Active; 'I' for Inactive)
ROOT
ATOM      1  C   UNL d   1       6.000   3.432   1.179  0.00  0.00     0.077 C 
ATOM      2  C1  UNL d   1       5.317   2.099   1.103  0.00  0.00    -0.074 A 
ATOM      3  C2  UNL d   1       6.000   0.922   1.425  0.00  0.00    -0.005 A 
ATOM      4  C3  UNL d   1       5.349  -0.310   1.359  0.00  0.00     0.006 A 
ATOM      5  C4  UNL d   1       4.010  -0.377   0.970  0.00  0.00    -0.005 A 
ATOM      6  C5  UNL d   1       3.311   0.790   0.645  0.00  0.00    -0.074 A 
ATOM      7  C6  UNL d   1       1.869   0.736   0.235  0.00  0.00     0.077 C 
ATOM      8  C7  UNL d   1       3.970   2.024   0.721  0.00  0.00    -0.001 A 
ENDROOT
TORSDOF 0
ENDMDL
