MODEL 1
REMARK minimizedAffinity 11.4911652
REMARK minimizedRMSD -1
REMARK  0 active torsions:
REMARK  status: ('A' for Active; 'I' for Inactive)
ROOT
ATOM      1  C   UNL d   1       1.896   0.642   0.413  0.00  0.00     0.077 C 
ATOM      2  C1  UNL d   1       3.319   0.537   0.876  0.00  0.00    -0.074 A 
ATOM      3  C2  UNL d   1       4.006  -0.679   0.815  0.00  0.00    -0.005 A 
ATOM      4  C3  UNL d   1       5.332  -0.760   1.240  0.00  0.00     0.006 A 
ATOM      5  C4  UNL d   1       5.983   0.373   1.729  0.00  0.00    -0.005 A 
ATOM      6  C5  UNL d   1       5.312   1.598   1.797  0.00  0.00    -0.074 A 
ATOM      7  C6  UNL d   1       6.000   2.828   2.312  0.00  0.00     0.077 C 
ATOM      8  C7  UNL d   1       3.982   1.673   1.362  0.00  0.00    -0.001 A 
ENDROOT
TORSDOF 0
ENDMDL
