MODEL 1
REMARK minimizedAffinity 4.06410122
REMARK minimizedRMSD -1
REMARK  0 active torsions:
REMARK  status: ('A' for Active; 'I' for Inactive)
ROOT
ATOM      1  C   UNL d   1      -0.503  -4.901  -3.490  0.00  0.00     0.077 C 
ATOM      2  C1  UNL d   1      -1.135  -3.805  -2.683  0.00  0.00    -0.074 A 
ATOM      3  C2  UNL d   1      -1.962  -2.854  -3.288  0.00  0.00    -0.005 A 
ATOM      4  C3  UNL d   1      -2.551  -1.846  -2.524  0.00  0.00     0.006 A 
ATOM      5  C4  UNL d   1      -2.318  -1.780  -1.149  0.00  0.00    -0.005 A 
ATOM      6  C5  UNL d   1      -1.494  -2.723  -0.527  0.00  0.00    -0.074 A 
ATOM      7  C6  UNL d   1      -1.241  -2.672   0.950  0.00  0.00     0.077 C 
ATOM      8  C7  UNL d   1      -0.912  -3.737  -1.301  0.00  0.00    -0.001 A 
ENDROOT
TORSDOF 0
ENDMDL
