MODEL 1
REMARK minimizedAffinity 19.059679
REMARK minimizedRMSD -1
REMARK  0 active torsions:
REMARK  status: ('A' for Active; 'I' for Inactive)
ROOT
ATOM      1  C   UNL d   1      -1.567  -2.588   0.098  0.00  0.00     0.077 C 
ATOM      2  C1  UNL d   1      -1.976  -3.781   0.909  0.00  0.00    -0.074 A 
ATOM      3  C2  UNL d   1      -1.099  -4.357   1.833  0.00  0.00    -0.005 A 
ATOM      4  C3  UNL d   1      -1.496  -5.461   2.587  0.00  0.00     0.006 A 
ATOM      5  C4  UNL d   1      -2.774  -5.999   2.425  0.00  0.00    -0.005 A 
ATOM      6  C5  UNL d   1      -3.665  -5.436   1.507  0.00  0.00    -0.074 A 
ATOM      7  C6  UNL d   1      -5.045  -5.996   1.328  0.00  0.00     0.077 C 
ATOM      8  C7  UNL d   1      -3.261  -4.323   0.758  0.00  0.00    -0.001 A 
ENDROOT
TORSDOF 0
ENDMDL
