MODEL 1
REMARK minimizedAffinity 4.71595287
REMARK minimizedRMSD -1
REMARK  0 active torsions:
REMARK  status: ('A' for Active; 'I' for Inactive)
ROOT
ATOM      1  C   UNL d   1       2.261   1.186  -0.587  0.00  0.00     0.077 C 
ATOM      2  C1  UNL d   1       2.549   0.598   0.762  0.00  0.00    -0.074 A 
ATOM      3  C2  UNL d   1       3.753  -0.066   1.015  0.00  0.00    -0.005 A 
ATOM      4  C3  UNL d   1       4.011  -0.600   2.278  0.00  0.00     0.006 A 
ATOM      5  C4  UNL d   1       3.068  -0.475   3.299  0.00  0.00    -0.005 A 
ATOM      6  C5  UNL d   1       1.859   0.187   3.065  0.00  0.00    -0.074 A 
ATOM      7  C6  UNL d   1       0.839   0.340   4.155  0.00  0.00     0.077 C 
ATOM      8  C7  UNL d   1       1.610   0.727   1.796  0.00  0.00    -0.001 A 
ENDROOT
TORSDOF 0
ENDMDL
