MODEL 1
REMARK minimizedAffinity 4.34441853
REMARK minimizedRMSD -1
REMARK  0 active torsions:
REMARK  status: ('A' for Active; 'I' for Inactive)
ROOT
ATOM      1  C   UNL d   1      -2.166  -1.611  -0.884  0.00  0.00     0.077 C 
ATOM      2  C1  UNL d   1      -2.379  -2.650  -1.944  0.00  0.00    -0.074 A 
ATOM      3  C2  UNL d   1      -1.419  -2.871  -2.937  0.00  0.00    -0.005 A 
ATOM      4  C3  UNL d   1      -1.627  -3.847  -3.912  0.00  0.00     0.006 A 
ATOM      5  C4  UNL d   1      -2.795  -4.611  -3.903  0.00  0.00    -0.005 A 
ATOM      6  C5  UNL d   1      -3.765  -4.405  -2.918  0.00  0.00    -0.074 A 
ATOM      7  C6  UNL d   1      -5.022  -5.224  -2.888  0.00  0.00     0.077 C 
ATOM      8  C7  UNL d   1      -3.546  -3.427  -1.938  0.00  0.00    -0.001 A 
ENDROOT
TORSDOF 0
ENDMDL
