MODEL 1
REMARK minimizedAffinity 0.0516578034
REMARK minimizedRMSD -1
REMARK  0 active torsions:
REMARK  status: ('A' for Active; 'I' for Inactive)
ROOT
ATOM      1  C   UNL d   1       0.630   0.566   4.258  0.00  0.00     0.077 C 
ATOM      2  C1  UNL d   1       1.503   0.450   3.043  0.00  0.00    -0.074 A 
ATOM      3  C2  UNL d   1       2.388  -0.622   2.894  0.00  0.00    -0.005 A 
ATOM      4  C3  UNL d   1       3.186  -0.721   1.754  0.00  0.00     0.006 A 
ATOM      5  C4  UNL d   1       3.107   0.249   0.754  0.00  0.00    -0.005 A 
ATOM      6  C5  UNL d   1       2.227   1.327   0.886  0.00  0.00    -0.074 A 
ATOM      7  C6  UNL d   1       2.123   2.373  -0.184  0.00  0.00     0.077 C 
ATOM      8  C7  UNL d   1       1.423   1.417   2.030  0.00  0.00    -0.001 A 
ENDROOT
TORSDOF 0
ENDMDL
