MODEL 1
REMARK minimizedAffinity 7.04405212
REMARK minimizedRMSD -1
REMARK  0 active torsions:
REMARK  status: ('A' for Active; 'I' for Inactive)
ROOT
ATOM      1  C   UNL d   1       5.721  -0.619  -1.473  0.00  0.00     0.077 C 
ATOM      2  C1  UNL d   1       4.699  -0.171  -0.471  0.00  0.00    -0.074 A 
ATOM      3  C2  UNL d   1       4.014  -1.099   0.321  0.00  0.00    -0.005 A 
ATOM      4  C3  UNL d   1       3.073  -0.667   1.255  0.00  0.00     0.006 A 
ATOM      5  C4  UNL d   1       2.807   0.695   1.406  0.00  0.00    -0.005 A 
ATOM      6  C5  UNL d   1       3.482   1.637   0.624  0.00  0.00    -0.074 A 
ATOM      7  C6  UNL d   1       3.216   3.104   0.781  0.00  0.00     0.077 C 
ATOM      8  C7  UNL d   1       4.432   1.195  -0.308  0.00  0.00    -0.001 A 
ENDROOT
TORSDOF 0
ENDMDL
