MODEL 1
REMARK minimizedAffinity -0.0578785948
REMARK minimizedRMSD -1
REMARK  0 active torsions:
REMARK  status: ('A' for Active; 'I' for Inactive)
ROOT
ATOM      1  C   UNL d   1       1.127  -0.270   4.144  0.00  0.00     0.077 C 
ATOM      2  C1  UNL d   1       1.780   0.123   2.852  0.00  0.00    -0.074 A 
ATOM      3  C2  UNL d   1       1.461   1.331   2.224  0.00  0.00    -0.005 A 
ATOM      4  C3  UNL d   1       2.083   1.687   1.028  0.00  0.00     0.006 A 
ATOM      5  C4  UNL d   1       3.030   0.841   0.449  0.00  0.00    -0.005 A 
ATOM      6  C5  UNL d   1       3.363  -0.370   1.063  0.00  0.00    -0.074 A 
ATOM      7  C6  UNL d   1       4.385  -1.286   0.460  0.00  0.00     0.077 C 
ATOM      8  C7  UNL d   1       2.738  -0.718   2.269  0.00  0.00    -0.001 A 
ENDROOT
TORSDOF 0
ENDMDL
