MODEL 1
REMARK minimizedAffinity 10.3985386
REMARK minimizedRMSD -1
REMARK  0 active torsions:
REMARK  status: ('A' for Active; 'I' for Inactive)
ROOT
ATOM      1  C   UNL d   1      -4.807   5.343   5.249  0.00  0.00     0.077 C 
ATOM      2  C1  UNL d   1      -4.936   3.851   5.183  0.00  0.00    -0.074 A 
ATOM      3  C2  UNL d   1      -5.847   3.171   5.998  0.00  0.00    -0.005 A 
ATOM      4  C3  UNL d   1      -5.963   1.784   5.919  0.00  0.00     0.006 A 
ATOM      5  C4  UNL d   1      -5.170   1.062   5.026  0.00  0.00    -0.005 A 
ATOM      6  C5  UNL d   1      -4.255   1.724   4.202  0.00  0.00    -0.074 A 
ATOM      7  C6  UNL d   1      -3.402   0.965   3.229  0.00  0.00     0.077 C 
ATOM      8  C7  UNL d   1      -4.149   3.120   4.282  0.00  0.00    -0.001 A 
ENDROOT
TORSDOF 0
ENDMDL
