MODEL 1
REMARK minimizedAffinity 6.54897594
REMARK minimizedRMSD -1
REMARK  0 active torsions:
REMARK  status: ('A' for Active; 'I' for Inactive)
ROOT
ATOM      1  C   UNL d   1       0.806  -0.056   2.870  0.00  0.00     0.077 C 
ATOM      2  C1  UNL d   1       1.849   0.132   1.809  0.00  0.00    -0.074 A 
ATOM      3  C2  UNL d   1       1.600   0.935   0.691  0.00  0.00    -0.005 A 
ATOM      4  C3  UNL d   1       2.584   1.109  -0.283  0.00  0.00     0.006 A 
ATOM      5  C4  UNL d   1       3.823   0.482  -0.150  0.00  0.00    -0.005 A 
ATOM      6  C5  UNL d   1       4.090  -0.324   0.962  0.00  0.00    -0.074 A 
ATOM      7  C6  UNL d   1       5.420  -0.997   1.125  0.00  0.00     0.077 C 
ATOM      8  C7  UNL d   1       3.100  -0.488   1.940  0.00  0.00    -0.001 A 
ENDROOT
TORSDOF 0
ENDMDL
