MODEL 1
REMARK minimizedAffinity 11.4792452
REMARK minimizedRMSD -1
REMARK  0 active torsions:
REMARK  status: ('A' for Active; 'I' for Inactive)
ROOT
ATOM      1  C   UNL d   1      -1.082  -2.838   0.422  0.00  0.00     0.077 C 
ATOM      2  C1  UNL d   1      -1.954  -3.140  -0.760  0.00  0.00    -0.074 A 
ATOM      3  C2  UNL d   1      -1.993  -2.280  -1.863  0.00  0.00    -0.005 A 
ATOM      4  C3  UNL d   1      -2.802  -2.579  -2.960  0.00  0.00     0.006 A 
ATOM      5  C4  UNL d   1      -3.579  -3.738  -2.965  0.00  0.00    -0.005 A 
ATOM      6  C5  UNL d   1      -3.552  -4.610  -1.872  0.00  0.00    -0.074 A 
ATOM      7  C6  UNL d   1      -4.374  -5.865  -1.865  0.00  0.00     0.077 C 
ATOM      8  C7  UNL d   1      -2.732  -4.306  -0.777  0.00  0.00    -0.001 A 
ENDROOT
TORSDOF 0
ENDMDL
