MODEL 1
REMARK minimizedAffinity 4.51739025
REMARK minimizedRMSD -1
REMARK  0 active torsions:
REMARK  status: ('A' for Active; 'I' for Inactive)
ROOT
ATOM      1  C   UNL d   1      -0.982  -3.050  -0.150  0.00  0.00     0.077 C 
ATOM      2  C1  UNL d   1      -1.420  -3.401  -1.541  0.00  0.00    -0.074 A 
ATOM      3  C2  UNL d   1      -0.484  -3.711  -2.533  0.00  0.00    -0.005 A 
ATOM      4  C3  UNL d   1      -0.907  -4.045  -3.819  0.00  0.00     0.006 A 
ATOM      5  C4  UNL d   1      -2.268  -4.071  -4.127  0.00  0.00    -0.005 A 
ATOM      6  C5  UNL d   1      -3.218  -3.764  -3.148  0.00  0.00    -0.074 A 
ATOM      7  C6  UNL d   1      -4.685  -3.798  -3.459  0.00  0.00     0.077 C 
ATOM      8  C7  UNL d   1      -2.786  -3.437  -1.856  0.00  0.00    -0.001 A 
ENDROOT
TORSDOF 0
ENDMDL
