MODEL 1
REMARK minimizedAffinity 9.44420528
REMARK minimizedRMSD -1
REMARK  0 active torsions:
REMARK  status: ('A' for Active; 'I' for Inactive)
ROOT
ATOM      1  C   UNL d   1      -4.261   1.603   3.688  0.00  0.00     0.077 C 
ATOM      2  C1  UNL d   1      -4.830   2.990   3.635  0.00  0.00    -0.074 A 
ATOM      3  C2  UNL d   1      -5.468   3.462   2.484  0.00  0.00    -0.005 A 
ATOM      4  C3  UNL d   1      -6.000   4.751   2.452  0.00  0.00     0.006 A 
ATOM      5  C4  UNL d   1      -5.900   5.579   3.571  0.00  0.00    -0.005 A 
ATOM      6  C5  UNL d   1      -5.267   5.125   4.731  0.00  0.00    -0.074 A 
ATOM      7  C6  UNL d   1      -5.160   5.999   5.945  0.00  0.00     0.077 C 
ATOM      8  C7  UNL d   1      -4.740   3.826   4.757  0.00  0.00    -0.001 A 
ENDROOT
TORSDOF 0
ENDMDL
