MODEL 1
REMARK minimizedAffinity 3.90089393
REMARK minimizedRMSD -1
REMARK  0 active torsions:
REMARK  status: ('A' for Active; 'I' for Inactive)
ROOT
ATOM      1  C   UNL d   1       0.315   2.543   1.581  0.00  0.00     0.077 C 
ATOM      2  C1  UNL d   1       1.163   1.444   1.015  0.00  0.00    -0.074 A 
ATOM      3  C2  UNL d   1       0.962   0.113   1.393  0.00  0.00    -0.005 A 
ATOM      4  C3  UNL d   1       1.753  -0.900   0.851  0.00  0.00     0.006 A 
ATOM      5  C4  UNL d   1       2.751  -0.593  -0.074  0.00  0.00    -0.005 A 
ATOM      6  C5  UNL d   1       2.967   0.732  -0.465  0.00  0.00    -0.074 A 
ATOM      7  C6  UNL d   1       4.029   1.079  -1.466  0.00  0.00     0.077 C 
ATOM      8  C7  UNL d   1       2.163   1.744   0.079  0.00  0.00    -0.001 A 
ENDROOT
TORSDOF 0
ENDMDL
