MODEL 1
REMARK minimizedAffinity -1.00513673
REMARK minimizedRMSD -1
REMARK  0 active torsions:
REMARK  status: ('A' for Active; 'I' for Inactive)
ROOT
ATOM      1  C   UNL d   1      -1.045  -1.045   2.847  0.00  0.00    -0.002 A 
ATOM      2  C1  UNL d   1      -0.281  -0.105   3.523  0.00  0.00     0.010 A 
ATOM      3  C2  UNL d   1       0.527   0.792   2.821  0.00  0.00     0.041 A 
ATOM      4  C3  UNL d   1       0.552   0.730   1.414  0.00  0.00    -0.075 A 
ATOM      5  S   UNL d   1       1.465   1.728   0.345  0.00  0.00     0.015 SA
ATOM      6  C4  UNL d   1       0.861   0.930  -1.035  0.00  0.00     0.022 A 
ATOM      7  C5  UNL d   1      -0.017  -0.076  -0.707  0.00  0.00     0.026 A 
ATOM      8  C6  UNL d   1      -0.210  -0.207   0.710  0.00  0.00    -0.082 A 
ATOM      9  C7  UNL d   1      -1.018  -1.104   1.451  0.00  0.00     0.045 A 
ENDROOT
TORSDOF 0
ENDMDL
