MODEL 1
REMARK minimizedAffinity -0.80532217
REMARK minimizedRMSD -1
REMARK  0 active torsions:
REMARK  status: ('A' for Active; 'I' for Inactive)
ROOT
ATOM      1  C   UNL d   1      -0.304  -0.494   2.708  0.00  0.00    -0.002 A 
ATOM      2  C1  UNL d   1      -1.564  -0.876   2.268  0.00  0.00     0.010 A 
ATOM      3  C2  UNL d   1      -1.885  -0.831   0.910  0.00  0.00     0.041 A 
ATOM      4  C3  UNL d   1      -0.910  -0.394  -0.007  0.00  0.00    -0.075 A 
ATOM      5  S   UNL d   1      -1.078  -0.259  -1.718  0.00  0.00     0.015 SA
ATOM      6  C4  UNL d   1       0.518   0.308  -1.905  0.00  0.00     0.022 A 
ATOM      7  C5  UNL d   1       1.178   0.398  -0.702  0.00  0.00     0.026 A 
ATOM      8  C6  UNL d   1       0.366  -0.006   0.411  0.00  0.00    -0.082 A 
ATOM      9  C7  UNL d   1       0.661  -0.062   1.795  0.00  0.00     0.045 A 
ENDROOT
TORSDOF 0
ENDMDL
