MODEL 1
REMARK minimizedAffinity 0.960481703
REMARK minimizedRMSD -1
REMARK  0 active torsions:
REMARK  status: ('A' for Active; 'I' for Inactive)
ROOT
ATOM      1  C   UNL d   1      -0.390   0.015   2.458  0.00  0.00    -0.002 A 
ATOM      2  C1  UNL d   1      -1.581  -0.512   1.978  0.00  0.00     0.010 A 
ATOM      3  C2  UNL d   1      -1.701  -0.894   0.641  0.00  0.00     0.041 A 
ATOM      4  C3  UNL d   1      -0.592  -0.738  -0.215  0.00  0.00    -0.075 A 
ATOM      5  S   UNL d   1      -0.508  -1.138  -1.890  0.00  0.00     0.015 SA
ATOM      6  C4  UNL d   1       1.112  -0.620  -2.008  0.00  0.00     0.022 A 
ATOM      7  C5  UNL d   1       1.592  -0.150  -0.809  0.00  0.00     0.026 A 
ATOM      8  C6  UNL d   1       0.618  -0.211   0.245  0.00  0.00    -0.082 A 
ATOM      9  C7  UNL d   1       0.708   0.168   1.606  0.00  0.00     0.045 A 
ENDROOT
TORSDOF 0
ENDMDL
