MODEL 1
REMARK minimizedAffinity -3.95807862
REMARK minimizedRMSD -1
REMARK  0 active torsions:
REMARK  status: ('A' for Active; 'I' for Inactive)
ROOT
ATOM      1  C   UNL d   1      -2.388   0.597  -0.867  0.00  0.00    -0.002 A 
ATOM      2  C1  UNL d   1      -1.090   0.671  -1.350  0.00  0.00     0.010 A 
ATOM      3  C2  UNL d   1      -0.003   0.421  -0.509  0.00  0.00     0.041 A 
ATOM      4  C3  UNL d   1      -0.247   0.090   0.838  0.00  0.00    -0.075 A 
ATOM      5  S   UNL d   1       0.927  -0.258   2.052  0.00  0.00     0.015 SA
ATOM      6  C4  UNL d   1      -0.267  -0.514   3.240  0.00  0.00     0.022 A 
ATOM      7  C5  UNL d   1      -1.537  -0.342   2.741  0.00  0.00     0.026 A 
ATOM      8  C6  UNL d   1      -1.546   0.008   1.348  0.00  0.00    -0.082 A 
ATOM      9  C7  UNL d   1      -2.626   0.268   0.470  0.00  0.00     0.045 A 
ENDROOT
TORSDOF 0
ENDMDL
