MODEL 1
REMARK minimizedAffinity -5.54358721
REMARK minimizedRMSD -1
REMARK  0 active torsions:
REMARK  status: ('A' for Active; 'I' for Inactive)
ROOT
ATOM      1  C   UNL d   1      -2.420  -0.053   2.880  0.00  0.00    -0.002 A 
ATOM      2  C1  UNL d   1      -3.221  -0.014   1.747  0.00  0.00     0.010 A 
ATOM      3  C2  UNL d   1      -2.655   0.165   0.484  0.00  0.00     0.041 A 
ATOM      4  C3  UNL d   1      -1.257   0.305   0.376  0.00  0.00    -0.075 A 
ATOM      5  S   UNL d   1      -0.344   0.534  -1.068  0.00  0.00     0.015 SA
ATOM      6  C4  UNL d   1       1.131   0.584  -0.216  0.00  0.00     0.022 A 
ATOM      7  C5  UNL d   1       0.950   0.432   1.138  0.00  0.00     0.026 A 
ATOM      8  C6  UNL d   1      -0.430   0.268   1.502  0.00  0.00    -0.082 A 
ATOM      9  C7  UNL d   1      -1.034   0.085   2.769  0.00  0.00     0.045 A 
ENDROOT
TORSDOF 0
ENDMDL
