MODEL 1
REMARK minimizedAffinity -4.77026606
REMARK minimizedRMSD -1
REMARK  0 active torsions:
REMARK  status: ('A' for Active; 'I' for Inactive)
ROOT
ATOM      1  C   UNL d   1      -0.699   1.012  -1.317  0.00  0.00    -0.002 A 
ATOM      2  C1  UNL d   1      -1.876   0.611  -0.702  0.00  0.00     0.010 A 
ATOM      3  C2  UNL d   1      -1.872   0.173   0.624  0.00  0.00     0.041 A 
ATOM      4  C3  UNL d   1      -0.652   0.144   1.328  0.00  0.00    -0.075 A 
ATOM      5  S   UNL d   1      -0.405  -0.355   2.960  0.00  0.00     0.015 SA
ATOM      6  C4  UNL d   1       1.270  -0.047   2.879  0.00  0.00     0.022 A 
ATOM      7  C5  UNL d   1       1.648   0.424   1.644  0.00  0.00     0.026 A 
ATOM      8  C6  UNL d   1       0.547   0.543   0.730  0.00  0.00    -0.082 A 
ATOM      9  C7  UNL d   1       0.509   0.982  -0.615  0.00  0.00     0.045 A 
ENDROOT
TORSDOF 0
ENDMDL
