MODEL 1
REMARK minimizedAffinity -3.91550851
REMARK minimizedRMSD -1
REMARK  0 active torsions:
REMARK  status: ('A' for Active; 'I' for Inactive)
ROOT
ATOM      1  C   UNL d   1       1.287   0.195   2.531  0.00  0.00    -0.002 A 
ATOM      2  C1  UNL d   1      -0.022  -0.206   2.762  0.00  0.00     0.010 A 
ATOM      3  C2  UNL d   1      -0.881  -0.476   1.695  0.00  0.00     0.041 A 
ATOM      4  C3  UNL d   1      -0.398  -0.336   0.379  0.00  0.00    -0.075 A 
ATOM      5  S   UNL d   1      -1.269  -0.613  -1.083  0.00  0.00     0.015 SA
ATOM      6  C4  UNL d   1       0.075  -0.206  -2.049  0.00  0.00     0.022 A 
ATOM      7  C5  UNL d   1       1.170   0.135  -1.291  0.00  0.00     0.026 A 
ATOM      8  C6  UNL d   1       0.916   0.065   0.121  0.00  0.00    -0.082 A 
ATOM      9  C7  UNL d   1       1.762   0.332   1.224  0.00  0.00     0.045 A 
ENDROOT
TORSDOF 0
ENDMDL
