MODEL 1
REMARK minimizedAffinity -3.27027678
REMARK minimizedRMSD -1
REMARK  0 active torsions:
REMARK  status: ('A' for Active; 'I' for Inactive)
ROOT
ATOM      1  C   UNL d   1       0.275   0.365   2.658  0.00  0.00    -0.002 A 
ATOM      2  C1  UNL d   1      -0.662  -0.658   2.634  0.00  0.00     0.010 A 
ATOM      3  C2  UNL d   1      -0.971  -1.311   1.439  0.00  0.00     0.041 A 
ATOM      4  C3  UNL d   1      -0.314  -0.916   0.257  0.00  0.00    -0.075 A 
ATOM      5  S   UNL d   1      -0.531  -1.573  -1.322  0.00  0.00     0.015 SA
ATOM      6  C4  UNL d   1       0.617  -0.513  -2.002  0.00  0.00     0.022 A 
ATOM      7  C5  UNL d   1       1.162   0.329  -1.062  0.00  0.00     0.026 A 
ATOM      8  C6  UNL d   1       0.635   0.110   0.256  0.00  0.00    -0.082 A 
ATOM      9  C7  UNL d   1       0.925   0.753   1.483  0.00  0.00     0.045 A 
ENDROOT
TORSDOF 0
ENDMDL
