MODEL 1
REMARK minimizedAffinity -1.81011331
REMARK minimizedRMSD -1
REMARK  0 active torsions:
REMARK  status: ('A' for Active; 'I' for Inactive)
ROOT
ATOM      1  C   UNL d   1       0.849   0.194   2.551  0.00  0.00    -0.002 A 
ATOM      2  C1  UNL d   1      -0.428  -0.341   2.470  0.00  0.00     0.010 A 
ATOM      3  C2  UNL d   1      -1.002  -0.625   1.229  0.00  0.00     0.041 A 
ATOM      4  C3  UNL d   1      -0.261  -0.361   0.060  0.00  0.00    -0.075 A 
ATOM      5  S   UNL d   1      -0.760  -0.630  -1.569  0.00  0.00     0.015 SA
ATOM      6  C4  UNL d   1       0.712  -0.041  -2.195  0.00  0.00     0.022 A 
ATOM      7  C5  UNL d   1       1.574   0.355  -1.200  0.00  0.00     0.026 A 
ATOM      8  C6  UNL d   1       1.027   0.177   0.116  0.00  0.00    -0.082 A 
ATOM      9  C7  UNL d   1       1.581   0.455   1.389  0.00  0.00     0.045 A 
ENDROOT
TORSDOF 0
ENDMDL
