MODEL 1
REMARK minimizedAffinity -0.431018412
REMARK minimizedRMSD -1
REMARK  0 active torsions:
REMARK  status: ('A' for Active; 'I' for Inactive)
ROOT
ATOM      1  C   UNL d   1      -1.826  -0.506   2.493  0.00  0.00    -0.002 A 
ATOM      2  C1  UNL d   1      -0.671  -0.281   3.230  0.00  0.00     0.010 A 
ATOM      3  C2  UNL d   1       0.537  -0.003   2.588  0.00  0.00     0.041 A 
ATOM      4  C3  UNL d   1       0.566   0.046   1.180  0.00  0.00    -0.075 A 
ATOM      5  S   UNL d   1       1.932   0.370   0.179  0.00  0.00     0.015 SA
ATOM      6  C4  UNL d   1       1.015   0.217  -1.249  0.00  0.00     0.022 A 
ATOM      7  C5  UNL d   1      -0.303  -0.073  -0.987  0.00  0.00     0.026 A 
ATOM      8  C6  UNL d   1      -0.584  -0.176   0.417  0.00  0.00    -0.082 A 
ATOM      9  C7  UNL d   1      -1.794  -0.456   1.097  0.00  0.00     0.045 A 
ENDROOT
TORSDOF 0
ENDMDL
