MODEL 1
REMARK minimizedAffinity 0.308894753
REMARK minimizedRMSD -1
REMARK  0 active torsions:
REMARK  status: ('A' for Active; 'I' for Inactive)
ROOT
ATOM      1  C   UNL d   1       2.093  -2.371  -3.862  0.00  0.00    -0.002 A 
ATOM      2  C1  UNL d   1       2.059  -1.158  -4.536  0.00  0.00     0.010 A 
ATOM      3  C2  UNL d   1       1.361  -0.071  -4.007  0.00  0.00     0.041 A 
ATOM      4  C3  UNL d   1       0.693  -0.224  -2.776  0.00  0.00    -0.075 A 
ATOM      5  S   UNL d   1      -0.225   0.970  -1.936  0.00  0.00     0.015 SA
ATOM      6  C4  UNL d   1      -0.592  -0.101  -0.662  0.00  0.00     0.022 A 
ATOM      7  C5  UNL d   1      -0.036  -1.344  -0.857  0.00  0.00     0.026 A 
ATOM      8  C6  UNL d   1       0.714  -1.435  -2.078  0.00  0.00    -0.082 A 
ATOM      9  C7  UNL d   1       1.430  -2.519  -2.641  0.00  0.00     0.045 A 
ENDROOT
TORSDOF 0
ENDMDL
