MODEL 1
REMARK minimizedAffinity 13.8381786
REMARK minimizedRMSD -1
REMARK  1 active torsions:
REMARK  status: ('A' for Active; 'I' for Inactive)
REMARK    1  A    between atoms: N_2  and  C1_3 
ROOT
ATOM      1  C1  UNL d   1       0.815   3.006  -4.874  0.00  0.00     0.143 A 
ATOM      2  C2  UNL d   1       0.866   4.272  -5.468  0.00  0.00    -0.057 A 
ATOM      3  C3  UNL d   1      -0.283   4.871  -6.000  0.00  0.00     0.033 A 
ATOM      4  C4  UNL d   1      -1.501   4.200  -5.972  0.00  0.00    -0.042 A 
ATOM      5  C5  UNL d   1      -1.570   2.931  -5.408  0.00  0.00     0.033 A 
ATOM      6  C6  UNL d   1      -0.421   2.340  -4.873  0.00  0.00    -0.057 A 
ENDROOT
BRANCH   1   7
ATOM      7  N   UNL d   1       1.940   2.316  -4.417  0.00  0.00    -0.732 N 
ATOM      8  C   UNL d   1       1.803   1.030  -3.768  0.00  0.00     0.284 C 
ATOM      9  H3  UNL d   1       2.721   2.372  -5.067  0.00  0.00     0.395 HD
ENDBRANCH   1   7
TORSDOF 1
ENDMDL
