MODEL 1
REMARK minimizedAffinity -2.94187117
REMARK minimizedRMSD -1
REMARK  1 active torsions:
REMARK  status: ('A' for Active; 'I' for Inactive)
REMARK    1  A    between atoms: N_2  and  C1_3 
ROOT
ATOM      1  C1  UNL d   1      -4.926   5.126  -3.682  0.00  0.00     0.143 A 
ATOM      2  C2  UNL d   1      -4.151   5.643  -4.727  0.00  0.00    -0.057 A 
ATOM      3  C3  UNL d   1      -3.757   4.841  -5.804  0.00  0.00     0.033 A 
ATOM      4  C4  UNL d   1      -4.108   3.495  -5.842  0.00  0.00    -0.042 A 
ATOM      5  C5  UNL d   1      -4.856   2.954  -4.802  0.00  0.00     0.033 A 
ATOM      6  C6  UNL d   1      -5.252   3.762  -3.732  0.00  0.00    -0.057 A 
ENDROOT
BRANCH   1   7
ATOM      7  N   UNL d   1      -5.265   5.848  -2.535  0.00  0.00    -0.732 N 
ATOM      8  C   UNL d   1      -6.000   5.218  -1.459  0.00  0.00     0.284 C 
ATOM      9  H3  UNL d   1      -4.514   6.459  -2.224  0.00  0.00     0.395 HD
ENDBRANCH   1   7
TORSDOF 1
ENDMDL
