MODEL 1
REMARK minimizedAffinity 10.1967525
REMARK minimizedRMSD -1
REMARK  1 active torsions:
REMARK  status: ('A' for Active; 'I' for Inactive)
REMARK    1  A    between atoms: N_2  and  C1_3 
ROOT
ATOM      1  C1  UNL d   1      -3.345  -4.741  -2.098  0.00  0.00     0.143 A 
ATOM      2  C2  UNL d   1      -3.876  -3.729  -2.904  0.00  0.00    -0.057 A 
ATOM      3  C3  UNL d   1      -5.091  -3.110  -2.586  0.00  0.00     0.033 A 
ATOM      4  C4  UNL d   1      -5.814  -3.515  -1.469  0.00  0.00    -0.042 A 
ATOM      5  C5  UNL d   1      -5.317  -4.537  -0.667  0.00  0.00     0.033 A 
ATOM      6  C6  UNL d   1      -4.100  -5.146  -0.986  0.00  0.00    -0.057 A 
ENDROOT
BRANCH   1   7
ATOM      7  N   UNL d   1      -2.191  -5.462  -2.414  0.00  0.00    -0.732 N 
ATOM      8  C   UNL d   1      -1.905  -5.833  -3.783  0.00  0.00     0.284 C 
ATOM      9  H3  UNL d   1      -1.378  -5.143  -1.892  0.00  0.00     0.395 HD
ENDBRANCH   1   7
TORSDOF 1
ENDMDL
