MODEL 1
REMARK minimizedAffinity -1.90870404
REMARK minimizedRMSD -1
REMARK  1 active torsions:
REMARK  status: ('A' for Active; 'I' for Inactive)
REMARK    1  A    between atoms: N_2  and  C1_3 
ROOT
ATOM      1  C1  UNL d   1       2.998   2.115  -3.594  0.00  0.00     0.143 A 
ATOM      2  C2  UNL d   1       4.072   1.469  -2.973  0.00  0.00    -0.057 A 
ATOM      3  C3  UNL d   1       5.168   1.008  -3.713  0.00  0.00     0.033 A 
ATOM      4  C4  UNL d   1       5.195   1.160  -5.095  0.00  0.00    -0.042 A 
ATOM      5  C5  UNL d   1       4.127   1.777  -5.737  0.00  0.00     0.033 A 
ATOM      6  C6  UNL d   1       3.039   2.241  -4.992  0.00  0.00    -0.057 A 
ENDROOT
BRANCH   1   7
ATOM      7  N   UNL d   1       1.835   2.508  -2.927  0.00  0.00    -0.732 N 
ATOM      8  C   UNL d   1       1.911   3.314  -1.727  0.00  0.00     0.284 C 
ATOM      9  H3  UNL d   1       1.094   2.784  -3.567  0.00  0.00     0.395 HD
ENDBRANCH   1   7
TORSDOF 1
ENDMDL
