MODEL 1
REMARK minimizedAffinity -2.02109671
REMARK minimizedRMSD -1
REMARK  1 active torsions:
REMARK  status: ('A' for Active; 'I' for Inactive)
REMARK    1  A    between atoms: N_2  and  C1_3 
ROOT
ATOM      1  C1  UNL d   1      -5.932   3.391  -0.756  0.00  0.00     0.143 A 
ATOM      2  C2  UNL d   1      -5.824   2.274  -1.591  0.00  0.00    -0.057 A 
ATOM      3  C3  UNL d   1      -5.831   0.975  -1.070  0.00  0.00     0.033 A 
ATOM      4  C4  UNL d   1      -5.916   0.770   0.303  0.00  0.00    -0.042 A 
ATOM      5  C5  UNL d   1      -5.999   1.866   1.154  0.00  0.00     0.033 A 
ATOM      6  C6  UNL d   1      -5.999   3.161   0.628  0.00  0.00    -0.057 A 
ENDROOT
BRANCH   1   7
ATOM      7  N   UNL d   1      -5.833   4.711  -1.204  0.00  0.00    -0.732 N 
ATOM      8  C   UNL d   1      -5.808   5.008  -2.620  0.00  0.00     0.284 C 
ATOM      9  H3  UNL d   1      -6.401   5.352  -0.654  0.00  0.00     0.395 HD
ENDBRANCH   1   7
TORSDOF 1
ENDMDL
