MODEL 1
REMARK minimizedAffinity 8.25428677
REMARK minimizedRMSD -1
REMARK  1 active torsions:
REMARK  status: ('A' for Active; 'I' for Inactive)
REMARK    1  A    between atoms: N_2  and  C1_3 
ROOT
ATOM      1  C1  UNL d   1       5.090   5.250   0.985  0.00  0.00     0.143 A 
ATOM      2  C2  UNL d   1       5.077   6.000   2.166  0.00  0.00    -0.057 A 
ATOM      3  C3  UNL d   1       5.541   5.462   3.373  0.00  0.00     0.033 A 
ATOM      4  C4  UNL d   1       6.000   4.150   3.425  0.00  0.00    -0.042 A 
ATOM      5  C5  UNL d   1       5.998   3.378   2.269  0.00  0.00     0.033 A 
ATOM      6  C6  UNL d   1       5.540   3.923   1.065  0.00  0.00    -0.057 A 
ENDROOT
BRANCH   1   7
ATOM      7  N   UNL d   1       4.551   5.695  -0.225  0.00  0.00    -0.732 N 
ATOM      8  C   UNL d   1       3.925   4.765  -1.140  0.00  0.00     0.284 C 
ATOM      9  H3  UNL d   1       4.056   6.579  -0.128  0.00  0.00     0.395 HD
ENDBRANCH   1   7
TORSDOF 1
ENDMDL
