MODEL 1
REMARK minimizedAffinity 2.79070735
REMARK minimizedRMSD -1
REMARK  1 active torsions:
REMARK  status: ('A' for Active; 'I' for Inactive)
REMARK    1  A    between atoms: N_2  and  C1_3 
ROOT
ATOM      1  C1  UNL d   1      -5.459   2.823  -0.315  0.00  0.00     0.143 A 
ATOM      2  C2  UNL d   1      -4.941   2.247  -1.480  0.00  0.00    -0.057 A 
ATOM      3  C3  UNL d   1      -4.918   2.950  -2.690  0.00  0.00     0.033 A 
ATOM      4  C4  UNL d   1      -5.443   4.236  -2.765  0.00  0.00    -0.042 A 
ATOM      5  C5  UNL d   1      -5.987   4.819  -1.626  0.00  0.00     0.033 A 
ATOM      6  C6  UNL d   1      -6.000   4.114  -0.418  0.00  0.00    -0.057 A 
ENDROOT
BRANCH   1   7
ATOM      7  N   UNL d   1      -5.599   2.140   0.895  0.00  0.00    -0.732 N 
ATOM      8  C   UNL d   1      -5.659   0.694   0.923  0.00  0.00     0.284 C 
ATOM      9  H3  UNL d   1      -5.036   2.547   1.638  0.00  0.00     0.395 HD
ENDBRANCH   1   7
TORSDOF 1
ENDMDL
