MODEL 1
REMARK minimizedAffinity 1.90949595
REMARK minimizedRMSD -1
REMARK  1 active torsions:
REMARK  status: ('A' for Active; 'I' for Inactive)
REMARK    1  A    between atoms: N_2  and  C1_3 
ROOT
ATOM      1  C1  UNL d   1      -2.224   4.474  -5.836  0.00  0.00     0.143 A 
ATOM      2  C2  UNL d   1      -2.747   5.770  -5.899  0.00  0.00    -0.057 A 
ATOM      3  C3  UNL d   1      -4.127   5.994  -5.964  0.00  0.00     0.033 A 
ATOM      4  C4  UNL d   1      -5.011   4.921  -5.995  0.00  0.00    -0.042 A 
ATOM      5  C5  UNL d   1      -4.513   3.623  -5.959  0.00  0.00     0.033 A 
ATOM      6  C6  UNL d   1      -3.134   3.406  -5.888  0.00  0.00    -0.057 A 
ENDROOT
BRANCH   1   7
ATOM      7  N   UNL d   1      -0.858   4.183  -5.870  0.00  0.00    -0.732 N 
ATOM      8  C   UNL d   1       0.123   5.230  -5.679  0.00  0.00     0.284 C 
ATOM      9  H3  UNL d   1      -0.634   3.312  -5.394  0.00  0.00     0.395 HD
ENDBRANCH   1   7
TORSDOF 1
ENDMDL
