MODEL 1
REMARK minimizedAffinity -1.53820598
REMARK minimizedRMSD -1
REMARK  1 active torsions:
REMARK  status: ('A' for Active; 'I' for Inactive)
REMARK    1  A    between atoms: C1_2  and  C2_3 
ROOT
ATOM      1  C2  UNL d   1       0.954   1.510   0.488  0.00  0.00    -0.081 A 
ATOM      2  C3  UNL d   1       0.008   1.231  -0.506  0.00  0.00     0.006 A 
ATOM      3  C4  UNL d   1      -0.769   0.073  -0.440  0.00  0.00     0.002 A 
ATOM      4  C5  UNL d   1      -0.621  -0.822   0.625  0.00  0.00    -0.080 A 
ATOM      5  C6  UNL d   1      -1.470  -2.054   0.725  0.00  0.00     0.076 C 
ATOM      6  C7  UNL d   1       0.336  -0.553   1.610  0.00  0.00     0.002 A 
ATOM      7  C8  UNL d   1       1.114   0.605   1.544  0.00  0.00     0.006 A 
ENDROOT
BRANCH   1   8
ATOM      8  C1  UNL d   1       1.748   2.790   0.454  0.00  0.00     0.054 C 
ATOM      9  C   UNL d   1       1.764   3.468   1.816  0.00  0.00     0.018 C 
ENDBRANCH   1   8
TORSDOF 1
ENDMDL
