MODEL 1
REMARK minimizedAffinity -4.22969389
REMARK minimizedRMSD -1
REMARK  1 active torsions:
REMARK  status: ('A' for Active; 'I' for Inactive)
REMARK    1  A    between atoms: C1_2  and  C2_3 
ROOT
ATOM      1  C2  UNL d   1      -0.154  -0.344   0.599  0.00  0.00    -0.081 A 
ATOM      2  C3  UNL d   1       1.087  -0.048   1.176  0.00  0.00     0.006 A 
ATOM      3  C4  UNL d   1       1.676   1.205   0.985  0.00  0.00     0.002 A 
ATOM      4  C5  UNL d   1       1.031   2.183   0.221  0.00  0.00    -0.080 A 
ATOM      5  C6  UNL d   1       1.638   3.542   0.033  0.00  0.00     0.076 C 
ATOM      6  C7  UNL d   1      -0.200   1.881  -0.370  0.00  0.00     0.002 A 
ATOM      7  C8  UNL d   1      -0.789   0.629  -0.181  0.00  0.00     0.006 A 
ENDROOT
BRANCH   1   8
ATOM      8  C1  UNL d   1      -0.822  -1.670   0.856  0.00  0.00     0.054 C 
ATOM      9  C   UNL d   1      -0.842  -2.532  -0.398  0.00  0.00     0.018 C 
ENDBRANCH   1   8
TORSDOF 1
ENDMDL
