MODEL 1
REMARK minimizedAffinity -3.97327399
REMARK minimizedRMSD -1
REMARK  1 active torsions:
REMARK  status: ('A' for Active; 'I' for Inactive)
REMARK    1  A    between atoms: C1_2  and  C2_3 
ROOT
ATOM      1  C2  UNL d   1      -0.316  -0.982  -0.851  0.00  0.00    -0.081 A 
ATOM      2  C3  UNL d   1      -0.688  -2.067  -0.049  0.00  0.00     0.006 A 
ATOM      3  C4  UNL d   1      -1.217  -1.856   1.227  0.00  0.00     0.002 A 
ATOM      4  C5  UNL d   1      -1.389  -0.557   1.718  0.00  0.00    -0.080 A 
ATOM      5  C6  UNL d   1      -1.984  -0.316   3.074  0.00  0.00     0.076 C 
ATOM      6  C7  UNL d   1      -1.001   0.526   0.923  0.00  0.00     0.002 A 
ATOM      7  C8  UNL d   1      -0.472   0.316  -0.352  0.00  0.00     0.006 A 
ENDROOT
BRANCH   1   8
ATOM      8  C1  UNL d   1       0.194  -1.204  -2.252  0.00  0.00     0.054 C 
ATOM      9  C   UNL d   1      -0.246  -2.556  -2.793  0.00  0.00     0.018 C 
ENDBRANCH   1   8
TORSDOF 1
ENDMDL
