MODEL 1
REMARK minimizedAffinity -4.08409357
REMARK minimizedRMSD -1
REMARK  1 active torsions:
REMARK  status: ('A' for Active; 'I' for Inactive)
REMARK    1  A    between atoms: C1_2  and  C2_3 
ROOT
ATOM      1  C2  UNL d   1       0.917   1.464   0.710  0.00  0.00    -0.081 A 
ATOM      2  C3  UNL d   1       0.175   1.073  -0.412  0.00  0.00     0.006 A 
ATOM      3  C4  UNL d   1      -0.625  -0.071  -0.369  0.00  0.00     0.002 A 
ATOM      4  C5  UNL d   1      -0.704  -0.838   0.798  0.00  0.00    -0.080 A 
ATOM      5  C6  UNL d   1      -1.583  -2.052   0.867  0.00  0.00     0.076 C 
ATOM      6  C7  UNL d   1       0.050  -0.458   1.913  0.00  0.00     0.002 A 
ATOM      7  C8  UNL d   1       0.851   0.685   1.870  0.00  0.00     0.006 A 
ENDROOT
BRANCH   1   8
ATOM      8  C1  UNL d   1       1.730   2.732   0.687  0.00  0.00     0.054 C 
ATOM      9  C   UNL d   1       0.839   3.963   0.786  0.00  0.00     0.018 C 
ENDBRANCH   1   8
TORSDOF 1
ENDMDL
