MODEL 1
REMARK minimizedAffinity -1.79242253
REMARK minimizedRMSD -1
REMARK  1 active torsions:
REMARK  status: ('A' for Active; 'I' for Inactive)
REMARK    1  A    between atoms: C1_2  and  C2_3 
ROOT
ATOM      1  C2  UNL d   1       0.301   0.780   0.737  0.00  0.00    -0.081 A 
ATOM      2  C3  UNL d   1       1.668   0.647   1.010  0.00  0.00     0.006 A 
ATOM      3  C4  UNL d   1       2.514   1.757   0.947  0.00  0.00     0.002 A 
ATOM      4  C5  UNL d   1       2.006   3.019   0.618  0.00  0.00    -0.080 A 
ATOM      5  C6  UNL d   1       2.898   4.224   0.576  0.00  0.00     0.076 C 
ATOM      6  C7  UNL d   1       0.644   3.148   0.328  0.00  0.00     0.002 A 
ATOM      7  C8  UNL d   1      -0.202   2.039   0.391  0.00  0.00     0.006 A 
ENDROOT
BRANCH   1   8
ATOM      8  C1  UNL d   1      -0.625  -0.402   0.868  0.00  0.00     0.054 C 
ATOM      9  C   UNL d   1      -0.729  -0.867   2.314  0.00  0.00     0.018 C 
ENDBRANCH   1   8
TORSDOF 1
ENDMDL
