MODEL 1
REMARK minimizedAffinity -3.23434162
REMARK minimizedRMSD -1
REMARK  1 active torsions:
REMARK  status: ('A' for Active; 'I' for Inactive)
REMARK    1  A    between atoms: C1_2  and  C2_3 
ROOT
ATOM      1  C2  UNL d   1       0.507   1.593   0.287  0.00  0.00    -0.081 A 
ATOM      2  C3  UNL d   1      -0.356   1.122  -0.710  0.00  0.00     0.006 A 
ATOM      3  C4  UNL d   1      -0.896  -0.164  -0.631  0.00  0.00     0.002 A 
ATOM      4  C5  UNL d   1      -0.588  -0.997   0.450  0.00  0.00    -0.080 A 
ATOM      5  C6  UNL d   1      -1.184  -2.369   0.562  0.00  0.00     0.076 C 
ATOM      6  C7  UNL d   1       0.288  -0.534   1.437  0.00  0.00     0.002 A 
ATOM      7  C8  UNL d   1       0.829   0.752   1.358  0.00  0.00     0.006 A 
ENDROOT
BRANCH   1   8
ATOM      8  C1  UNL d   1       1.039   3.002   0.238  0.00  0.00     0.054 C 
ATOM      9  C   UNL d   1       2.552   3.017   0.076  0.00  0.00     0.018 C 
ENDBRANCH   1   8
TORSDOF 1
ENDMDL
