MODEL 1
REMARK minimizedAffinity -0.328316718
REMARK minimizedRMSD -1
REMARK  1 active torsions:
REMARK  status: ('A' for Active; 'I' for Inactive)
REMARK    1  A    between atoms: C1_2  and  C2_3 
ROOT
ATOM      1  C2  UNL d   1       0.297   1.383  -0.491  0.00  0.00    -0.081 A 
ATOM      2  C3  UNL d   1      -0.010   0.885   0.781  0.00  0.00     0.006 A 
ATOM      3  C4  UNL d   1      -0.369  -0.454   0.951  0.00  0.00     0.002 A 
ATOM      4  C5  UNL d   1      -0.419  -1.320  -0.147  0.00  0.00    -0.080 A 
ATOM      5  C6  UNL d   1      -0.773  -2.767   0.025  0.00  0.00     0.076 C 
ATOM      6  C7  UNL d   1      -0.129  -0.819  -1.421  0.00  0.00     0.002 A 
ATOM      7  C8  UNL d   1       0.229   0.520  -1.591  0.00  0.00     0.006 A 
ENDROOT
BRANCH   1   8
ATOM      8  C1  UNL d   1       0.747   2.810  -0.669  0.00  0.00     0.054 C 
ATOM      9  C   UNL d   1       0.795   3.544   0.664  0.00  0.00     0.018 C 
ENDBRANCH   1   8
TORSDOF 1
ENDMDL
