MODEL 1
REMARK minimizedAffinity -5.00382423
REMARK minimizedRMSD -1
REMARK  1 active torsions:
REMARK  status: ('A' for Active; 'I' for Inactive)
REMARK    1  A    between atoms: C1_2  and  C2_3 
ROOT
ATOM      1  C2  UNL d   1       1.091   1.168   0.154  0.00  0.00    -0.081 A 
ATOM      2  C3  UNL d   1       0.936   0.541   1.396  0.00  0.00     0.006 A 
ATOM      3  C4  UNL d   1       0.106  -0.574   1.529  0.00  0.00     0.002 A 
ATOM      4  C5  UNL d   1      -0.577  -1.087   0.421  0.00  0.00    -0.080 A 
ATOM      5  C6  UNL d   1      -1.447  -2.302   0.544  0.00  0.00     0.076 C 
ATOM      6  C7  UNL d   1      -0.436  -0.451  -0.817  0.00  0.00     0.002 A 
ATOM      7  C8  UNL d   1       0.393   0.665  -0.950  0.00  0.00     0.006 A 
ENDROOT
BRANCH   1   8
ATOM      8  C1  UNL d   1       2.035   2.331  -0.007  0.00  0.00     0.054 C 
ATOM      9  C   UNL d   1       1.630   3.499   0.881  0.00  0.00     0.018 C 
ENDBRANCH   1   8
TORSDOF 1
ENDMDL
