MODEL 1
REMARK minimizedAffinity -3.16422462
REMARK minimizedRMSD -1
REMARK  1 active torsions:
REMARK  status: ('A' for Active; 'I' for Inactive)
REMARK    1  A    between atoms: C1_2  and  C2_3 
ROOT
ATOM      1  C2  UNL d   1       0.188   1.416   0.013  0.00  0.00    -0.081 A 
ATOM      2  C3  UNL d   1      -0.360   0.727  -1.076  0.00  0.00     0.006 A 
ATOM      3  C4  UNL d   1      -0.571  -0.652  -1.009  0.00  0.00     0.002 A 
ATOM      4  C5  UNL d   1      -0.246  -1.364   0.151  0.00  0.00    -0.080 A 
ATOM      5  C6  UNL d   1      -0.495  -2.840   0.248  0.00  0.00     0.076 C 
ATOM      6  C7  UNL d   1       0.318  -0.679   1.233  0.00  0.00     0.002 A 
ATOM      7  C8  UNL d   1       0.530   0.700   1.165  0.00  0.00     0.006 A 
ENDROOT
BRANCH   1   8
ATOM      8  C1  UNL d   1       0.357   2.913  -0.033  0.00  0.00     0.054 C 
ATOM      9  C   UNL d   1       1.475   3.372   0.891  0.00  0.00     0.018 C 
ENDBRANCH   1   8
TORSDOF 1
ENDMDL
