MODEL 1
REMARK minimizedAffinity -1.79959643
REMARK minimizedRMSD -1
REMARK  1 active torsions:
REMARK  status: ('A' for Active; 'I' for Inactive)
REMARK    1  A    between atoms: C1_2  and  C2_3 
ROOT
ATOM      1  C2  UNL d   1       0.953   1.268  -0.008  0.00  0.00    -0.081 A 
ATOM      2  C3  UNL d   1       0.024   0.761  -0.925  0.00  0.00     0.006 A 
ATOM      3  C4  UNL d   1      -0.830  -0.284  -0.565  0.00  0.00     0.002 A 
ATOM      4  C5  UNL d   1      -0.775  -0.834   0.720  0.00  0.00    -0.080 A 
ATOM      5  C6  UNL d   1      -1.706  -1.936   1.130  0.00  0.00     0.076 C 
ATOM      6  C7  UNL d   1       0.165  -0.339   1.631  0.00  0.00     0.002 A 
ATOM      7  C8  UNL d   1       1.019   0.705   1.271  0.00  0.00     0.006 A 
ENDROOT
BRANCH   1   8
ATOM      8  C1  UNL d   1       1.830   2.438  -0.373  0.00  0.00     0.054 C 
ATOM      9  C   UNL d   1       1.930   3.434   0.774  0.00  0.00     0.018 C 
ENDBRANCH   1   8
TORSDOF 1
ENDMDL
