MODEL 1
REMARK minimizedAffinity -1.42857373
REMARK minimizedRMSD -1
REMARK  1 active torsions:
REMARK  status: ('A' for Active; 'I' for Inactive)
REMARK    1  A    between atoms: C1_2  and  C2_3 
ROOT
ATOM      1  C2  UNL d   1       0.177   1.146  -0.140  0.00  0.00    -0.081 A 
ATOM      2  C3  UNL d   1       0.388   0.357  -1.277  0.00  0.00     0.006 A 
ATOM      3  C4  UNL d   1       0.096  -1.009  -1.254  0.00  0.00     0.002 A 
ATOM      4  C5  UNL d   1      -0.419  -1.606  -0.098  0.00  0.00    -0.080 A 
ATOM      5  C6  UNL d   1      -0.765  -3.065  -0.071  0.00  0.00     0.076 C 
ATOM      6  C7  UNL d   1      -0.613  -0.821   1.043  0.00  0.00     0.002 A 
ATOM      7  C8  UNL d   1      -0.321   0.545   1.021  0.00  0.00     0.006 A 
ENDROOT
BRANCH   1   8
ATOM      8  C1  UNL d   1       0.430   2.632  -0.181  0.00  0.00     0.054 C 
ATOM      9  C   UNL d   1       1.904   2.936  -0.408  0.00  0.00     0.018 C 
ENDBRANCH   1   8
TORSDOF 1
ENDMDL
