MODEL 1
REMARK minimizedAffinity 9.09140682
REMARK minimizedRMSD -1
REMARK  1 active torsions:
REMARK  status: ('A' for Active; 'I' for Inactive)
REMARK    1  A    between atoms: C3_4  and  O_7 
ROOT
ATOM      1  C   UNL d   1       0.828   3.681   1.871  0.00  0.00    -0.033 A 
ATOM      2  C1  UNL d   1       0.517   2.731   2.846  0.00  0.00     0.039 A 
ATOM      3  C2  UNL d   1      -0.802   2.577   3.277  0.00  0.00    -0.080 A 
ATOM      4  C3  UNL d   1      -1.799   3.377   2.726  0.00  0.00     0.150 A 
ATOM      5  C4  UNL d   1      -1.497   4.322   1.751  0.00  0.00    -0.007 A 
ATOM      6  C5  UNL d   1      -0.179   4.475   1.322  0.00  0.00     0.039 A 
ENDROOT
BRANCH   4   7
ATOM      7  O   UNL d   1      -3.100   3.266   3.118  0.00  0.00    -0.526 OA
ATOM      8  H5  UNL d   1      -3.154   2.593   3.817  0.00  0.00     0.418 HD
ENDBRANCH   4   7
TORSDOF 1
ENDMDL
