MODEL 1
REMARK minimizedAffinity -1.73632729
REMARK minimizedRMSD -1
REMARK  1 active torsions:
REMARK  status: ('A' for Active; 'I' for Inactive)
REMARK    1  A    between atoms: C3_4  and  O_7 
ROOT
ATOM      1  C   UNL d   1      -0.597  -2.604  -0.410  0.00  0.00    -0.033 A 
ATOM      2  C1  UNL d   1      -0.260  -3.711  -1.192  0.00  0.00     0.039 A 
ATOM      3  C2  UNL d   1      -0.745  -3.820  -2.496  0.00  0.00    -0.080 A 
ATOM      4  C3  UNL d   1      -1.565  -2.817  -3.007  0.00  0.00     0.150 A 
ATOM      5  C4  UNL d   1      -1.901  -1.710  -2.235  0.00  0.00    -0.007 A 
ATOM      6  C5  UNL d   1      -1.416  -1.603  -0.932  0.00  0.00     0.039 A 
ENDROOT
BRANCH   4   7
ATOM      7  O   UNL d   1      -2.066  -2.882  -4.273  0.00  0.00    -0.526 OA
ATOM      8  H5  UNL d   1      -1.774  -3.716  -4.677  0.00  0.00     0.418 HD
ENDBRANCH   4   7
TORSDOF 1
ENDMDL
