MODEL 1
REMARK minimizedAffinity 8.09770966
REMARK minimizedRMSD -1
REMARK  1 active torsions:
REMARK  status: ('A' for Active; 'I' for Inactive)
REMARK    1  A    between atoms: C3_4  and  O_7 
ROOT
ATOM      1  C   UNL d   1      -3.554  -3.750  -3.944  0.00  0.00    -0.033 A 
ATOM      2  C1  UNL d   1      -3.704  -3.412  -5.290  0.00  0.00     0.039 A 
ATOM      3  C2  UNL d   1      -2.634  -2.861  -5.997  0.00  0.00    -0.080 A 
ATOM      4  C3  UNL d   1      -1.421  -2.653  -5.347  0.00  0.00     0.150 A 
ATOM      5  C4  UNL d   1      -1.263  -2.991  -4.007  0.00  0.00    -0.007 A 
ATOM      6  C5  UNL d   1      -2.333  -3.540  -3.303  0.00  0.00     0.039 A 
ENDROOT
BRANCH   4   7
ATOM      7  O   UNL d   1      -0.349  -2.114  -5.994  0.00  0.00    -0.526 OA
ATOM      8  H5  UNL d   1      -0.613  -1.904  -6.906  0.00  0.00     0.418 HD
ENDBRANCH   4   7
TORSDOF 1
ENDMDL
