MODEL 1
REMARK minimizedAffinity 2.54391456
REMARK minimizedRMSD -1
REMARK  1 active torsions:
REMARK  status: ('A' for Active; 'I' for Inactive)
REMARK    1  A    between atoms: C3_4  and  O_7 
ROOT
ATOM      1  C   UNL d   1      -3.390  -3.733  -5.995  0.00  0.00    -0.033 A 
ATOM      2  C1  UNL d   1      -3.996  -4.080  -4.787  0.00  0.00     0.039 A 
ATOM      3  C2  UNL d   1      -3.438  -3.661  -3.578  0.00  0.00    -0.080 A 
ATOM      4  C3  UNL d   1      -2.275  -2.895  -3.591  0.00  0.00     0.150 A 
ATOM      5  C4  UNL d   1      -1.668  -2.542  -4.792  0.00  0.00    -0.007 A 
ATOM      6  C5  UNL d   1      -2.227  -2.963  -5.998  0.00  0.00     0.039 A 
ENDROOT
BRANCH   4   7
ATOM      7  O   UNL d   1      -1.690  -2.467  -2.437  0.00  0.00    -0.526 OA
ATOM      8  H5  UNL d   1      -2.203  -2.810  -1.686  0.00  0.00     0.418 HD
ENDBRANCH   4   7
TORSDOF 1
ENDMDL
