MODEL 1
REMARK minimizedAffinity 0.301503152
REMARK minimizedRMSD -1
REMARK  1 active torsions:
REMARK  status: ('A' for Active; 'I' for Inactive)
REMARK    1  A    between atoms: C3_4  and  O_7 
ROOT
ATOM      1  C   UNL d   1       3.741   5.488  -4.340  0.00  0.00    -0.033 A 
ATOM      2  C1  UNL d   1       3.360   4.263  -3.788  0.00  0.00     0.039 A 
ATOM      3  C2  UNL d   1       2.292   3.551  -4.335  0.00  0.00    -0.080 A 
ATOM      4  C3  UNL d   1       1.614   4.072  -5.434  0.00  0.00     0.150 A 
ATOM      5  C4  UNL d   1       1.991   5.289  -5.992  0.00  0.00    -0.007 A 
ATOM      6  C5  UNL d   1       3.058   6.000  -5.443  0.00  0.00     0.039 A 
ENDROOT
BRANCH   4   7
ATOM      7  O   UNL d   1       0.562   3.415  -6.000  0.00  0.00    -0.526 OA
ATOM      8  H5  UNL d   1       0.397   2.603  -5.492  0.00  0.00     0.418 HD
ENDBRANCH   4   7
TORSDOF 1
ENDMDL
