MODEL 1
REMARK minimizedAffinity 5.17837048
REMARK minimizedRMSD -1
REMARK  1 active torsions:
REMARK  status: ('A' for Active; 'I' for Inactive)
REMARK    1  A    between atoms: C3_4  and  O_7 
ROOT
ATOM      1  C   UNL d   1      -2.091  -1.865  -1.174  0.00  0.00    -0.033 A 
ATOM      2  C1  UNL d   1      -0.848  -2.415  -0.854  0.00  0.00     0.039 A 
ATOM      3  C2  UNL d   1      -0.568  -2.796   0.459  0.00  0.00    -0.080 A 
ATOM      4  C3  UNL d   1      -1.538  -2.623   1.443  0.00  0.00     0.150 A 
ATOM      5  C4  UNL d   1      -2.780  -2.079   1.131  0.00  0.00    -0.007 A 
ATOM      6  C5  UNL d   1      -3.058  -1.698  -0.181  0.00  0.00     0.039 A 
ENDROOT
BRANCH   4   7
ATOM      7  O   UNL d   1      -1.309  -2.975   2.740  0.00  0.00    -0.526 OA
ATOM      8  H5  UNL d   1      -0.399  -3.309   2.812  0.00  0.00     0.418 HD
ENDBRANCH   4   7
TORSDOF 1
ENDMDL
