MODEL 1
REMARK minimizedAffinity -3.62791991
REMARK minimizedRMSD -1
REMARK  1 active torsions:
REMARK  status: ('A' for Active; 'I' for Inactive)
REMARK    1  A    between atoms: C3_4  and  O_7 
ROOT
ATOM      1  C   UNL d   1       4.030  -2.282  -5.130  0.00  0.00    -0.033 A 
ATOM      2  C1  UNL d   1       3.359  -1.240  -5.774  0.00  0.00     0.039 A 
ATOM      3  C2  UNL d   1       4.008  -0.024  -5.999  0.00  0.00    -0.080 A 
ATOM      4  C3  UNL d   1       5.325   0.137  -5.578  0.00  0.00     0.150 A 
ATOM      5  C4  UNL d   1       6.000  -0.898  -4.939  0.00  0.00    -0.007 A 
ATOM      6  C5  UNL d   1       5.351  -2.111  -4.714  0.00  0.00     0.039 A 
ENDROOT
BRANCH   4   7
ATOM      7  O   UNL d   1       5.997   1.307  -5.771  0.00  0.00    -0.526 OA
ATOM      8  H5  UNL d   1       5.396   1.940  -6.198  0.00  0.00     0.418 HD
ENDBRANCH   4   7
TORSDOF 1
ENDMDL
