MODEL 1
REMARK minimizedAffinity 1.43999517
REMARK minimizedRMSD -1
REMARK  1 active torsions:
REMARK  status: ('A' for Active; 'I' for Inactive)
REMARK    1  A    between atoms: C3_4  and  O_7 
ROOT
ATOM      1  C   UNL d   1       3.710   5.023  -6.000  0.00  0.00    -0.033 A 
ATOM      2  C1  UNL d   1       3.080   3.777  -5.998  0.00  0.00     0.039 A 
ATOM      3  C2  UNL d   1       2.079   3.500  -5.064  0.00  0.00    -0.080 A 
ATOM      4  C3  UNL d   1       1.718   4.476  -4.140  0.00  0.00     0.150 A 
ATOM      5  C4  UNL d   1       2.339   5.721  -4.139  0.00  0.00    -0.007 A 
ATOM      6  C5  UNL d   1       3.339   5.995  -5.071  0.00  0.00     0.039 A 
ENDROOT
BRANCH   4   7
ATOM      7  O   UNL d   1       0.751   4.251  -3.206  0.00  0.00    -0.526 OA
ATOM      8  H5  UNL d   1       0.431   3.339  -3.309  0.00  0.00     0.418 HD
ENDBRANCH   4   7
TORSDOF 1
ENDMDL
