MODEL 1
REMARK minimizedAffinity 1.70952594
REMARK minimizedRMSD -1
REMARK  1 active torsions:
REMARK  status: ('A' for Active; 'I' for Inactive)
REMARK    1  A    between atoms: C3_4  and  O_7 
ROOT
ATOM      1  C   UNL d   1       3.256   0.963   0.812  0.00  0.00    -0.033 A 
ATOM      2  C1  UNL d   1       2.735   1.027   2.105  0.00  0.00     0.039 A 
ATOM      3  C2  UNL d   1       1.931   2.105   2.483  0.00  0.00    -0.080 A 
ATOM      4  C3  UNL d   1       1.656   3.109   1.559  0.00  0.00     0.150 A 
ATOM      5  C4  UNL d   1       2.169   3.049   0.268  0.00  0.00    -0.007 A 
ATOM      6  C5  UNL d   1       2.972   1.973  -0.108  0.00  0.00     0.039 A 
ENDROOT
BRANCH   4   7
ATOM      7  O   UNL d   1       0.881   4.183   1.884  0.00  0.00    -0.526 OA
ATOM      8  H5  UNL d   1       0.621   4.104   2.816  0.00  0.00     0.418 HD
ENDBRANCH   4   7
TORSDOF 1
ENDMDL
