MODEL 1
REMARK minimizedAffinity 7.36707497
REMARK minimizedRMSD -1
REMARK  1 active torsions:
REMARK  status: ('A' for Active; 'I' for Inactive)
REMARK    1  A    between atoms: C3_4  and  O_7 
ROOT
ATOM      1  C   UNL d   1       1.164   3.258   1.635  0.00  0.00    -0.033 A 
ATOM      2  C1  UNL d   1       0.641   2.281   2.484  0.00  0.00     0.039 A 
ATOM      3  C2  UNL d   1      -0.668   2.393   2.956  0.00  0.00    -0.080 A 
ATOM      4  C3  UNL d   1      -1.443   3.484   2.571  0.00  0.00     0.150 A 
ATOM      5  C4  UNL d   1      -0.929   4.459   1.722  0.00  0.00    -0.007 A 
ATOM      6  C5  UNL d   1       0.379   4.346   1.253  0.00  0.00     0.039 A 
ENDROOT
BRANCH   4   7
ATOM      7  O   UNL d   1      -2.724   3.639   3.010  0.00  0.00    -0.526 OA
ATOM      8  H5  UNL d   1      -2.934   2.905   3.612  0.00  0.00     0.418 HD
ENDBRANCH   4   7
TORSDOF 1
ENDMDL
