MODEL 1
REMARK minimizedAffinity 6.6332593
REMARK minimizedRMSD -1
REMARK  1 active torsions:
REMARK  status: ('A' for Active; 'I' for Inactive)
REMARK    1  A    between atoms: C3_4  and  O_7 
ROOT
ATOM      1  C   UNL d   1       4.085  -2.824  -4.346  0.00  0.00    -0.033 A 
ATOM      2  C1  UNL d   1       4.775  -1.676  -3.952  0.00  0.00     0.039 A 
ATOM      3  C2  UNL d   1       4.372  -0.422  -4.416  0.00  0.00    -0.080 A 
ATOM      4  C3  UNL d   1       3.277  -0.331  -5.271  0.00  0.00     0.150 A 
ATOM      5  C4  UNL d   1       2.583  -1.470  -5.665  0.00  0.00    -0.007 A 
ATOM      6  C5  UNL d   1       2.988  -2.721  -5.201  0.00  0.00     0.039 A 
ENDROOT
BRANCH   4   7
ATOM      7  O   UNL d   1       2.849   0.870  -5.754  0.00  0.00    -0.526 OA
ATOM      8  H5  UNL d   1       3.441   1.565  -5.421  0.00  0.00     0.418 HD
ENDBRANCH   4   7
TORSDOF 1
ENDMDL
