MODEL 1
REMARK minimizedAffinity 1.62578297
REMARK minimizedRMSD -1
REMARK  1 active torsions:
REMARK  status: ('A' for Active; 'I' for Inactive)
REMARK    1  A    between atoms: C3_4  and  O_7 
ROOT
ATOM      1  C   UNL d   1      -2.261  -3.992  -6.000  0.00  0.00    -0.033 A 
ATOM      2  C1  UNL d   1      -1.701  -2.748  -5.702  0.00  0.00     0.039 A 
ATOM      3  C2  UNL d   1      -1.424  -2.404  -4.377  0.00  0.00    -0.080 A 
ATOM      4  C3  UNL d   1      -1.711  -3.312  -3.362  0.00  0.00     0.150 A 
ATOM      5  C4  UNL d   1      -2.265  -4.555  -3.652  0.00  0.00    -0.007 A 
ATOM      6  C5  UNL d   1      -2.541  -4.896  -4.975  0.00  0.00     0.039 A 
ENDROOT
BRANCH   4   7
ATOM      7  O   UNL d   1      -1.463  -3.020  -2.054  0.00  0.00    -0.526 OA
ATOM      8  H5  UNL d   1      -1.107  -2.117  -2.002  0.00  0.00     0.418 HD
ENDBRANCH   4   7
TORSDOF 1
ENDMDL
