MODEL 1
REMARK minimizedAffinity 2.32540464
REMARK minimizedRMSD -1
REMARK  1 active torsions:
REMARK  status: ('A' for Active; 'I' for Inactive)
REMARK    1  A    between atoms: C3_4  and  O_7 
ROOT
ATOM      1  C   UNL d   1      -4.070  -3.975  -3.212  0.00  0.00    -0.033 A 
ATOM      2  C1  UNL d   1      -2.878  -3.298  -3.475  0.00  0.00     0.039 A 
ATOM      3  C2  UNL d   1      -2.400  -2.346  -2.571  0.00  0.00    -0.080 A 
ATOM      4  C3  UNL d   1      -3.123  -2.083  -1.411  0.00  0.00     0.150 A 
ATOM      5  C4  UNL d   1      -4.309  -2.757  -1.141  0.00  0.00    -0.007 A 
ATOM      6  C5  UNL d   1      -4.785  -3.706  -2.045  0.00  0.00     0.039 A 
ENDROOT
BRANCH   4   7
ATOM      7  O   UNL d   1      -2.699  -1.159  -0.502  0.00  0.00    -0.526 OA
ATOM      8  H5  UNL d   1      -1.881  -0.753  -0.834  0.00  0.00     0.418 HD
ENDBRANCH   4   7
TORSDOF 1
ENDMDL
