MODEL 1
REMARK minimizedAffinity 1.16298354
REMARK minimizedRMSD -1
REMARK  1 active torsions:
REMARK  status: ('A' for Active; 'I' for Inactive)
REMARK    1  A    between atoms: C3_4  and  O_7 
ROOT
ATOM      1  C   UNL d   1       1.318   4.043   0.194  0.00  0.00    -0.033 A 
ATOM      2  C1  UNL d   1       0.890   3.813  -1.115  0.00  0.00     0.039 A 
ATOM      3  C2  UNL d   1      -0.244   4.465  -1.604  0.00  0.00    -0.080 A 
ATOM      4  C3  UNL d   1      -0.938   5.343  -0.777  0.00  0.00     0.150 A 
ATOM      5  C4  UNL d   1      -0.514   5.580   0.527  0.00  0.00    -0.007 A 
ATOM      6  C5  UNL d   1       0.617   4.927   1.014  0.00  0.00     0.039 A 
ENDROOT
BRANCH   4   7
ATOM      7  O   UNL d   1      -2.053   5.999  -1.208  0.00  0.00    -0.526 OA
ATOM      8  H5  UNL d   1      -2.243   5.716  -2.118  0.00  0.00     0.418 HD
ENDBRANCH   4   7
TORSDOF 1
ENDMDL
