MODEL 1
REMARK minimizedAffinity 6.2007575
REMARK minimizedRMSD -1
REMARK  1 active torsions:
REMARK  status: ('A' for Active; 'I' for Inactive)
REMARK    1  A    between atoms: C1_2  and  C2_3 
ROOT
ATOM      1  C2  UNL d   1      -2.034   2.786  -2.781  0.00  0.00    -0.081 A 
ATOM      2  C3  UNL d   1      -3.211   2.120  -3.141  0.00  0.00     0.006 A 
ATOM      3  C4  UNL d   1      -3.680   1.047  -2.379  0.00  0.00     0.002 A 
ATOM      4  C5  UNL d   1      -2.983   0.628  -1.240  0.00  0.00    -0.080 A 
ATOM      5  C6  UNL d   1      -3.491  -0.502  -0.396  0.00  0.00     0.076 C 
ATOM      6  C7  UNL d   1      -1.797   1.283  -0.890  0.00  0.00     0.002 A 
ATOM      7  C8  UNL d   1      -1.328   2.355  -1.652  0.00  0.00     0.006 A 
ENDROOT
BRANCH   1   8
ATOM      8  C1  UNL d   1      -1.561   3.984  -3.564  0.00  0.00     0.054 C 
ATOM      9  C   UNL d   1      -2.713   4.656  -4.297  0.00  0.00     0.018 C 
ENDBRANCH   1   8
TORSDOF 1
ENDMDL
