MODEL 1
REMARK minimizedAffinity 5.51104593
REMARK minimizedRMSD -1
REMARK  1 active torsions:
REMARK  status: ('A' for Active; 'I' for Inactive)
REMARK    1  A    between atoms: C1_2  and  C2_3 
ROOT
ATOM      1  C2  UNL d   1       0.084   0.410   2.956  0.00  0.00    -0.081 A 
ATOM      2  C3  UNL d   1      -1.299   0.522   3.149  0.00  0.00     0.006 A 
ATOM      3  C4  UNL d   1      -2.020   1.544   2.528  0.00  0.00     0.002 A 
ATOM      4  C5  UNL d   1      -1.374   2.466   1.697  0.00  0.00    -0.080 A 
ATOM      5  C6  UNL d   1      -2.141   3.549   1.000  0.00  0.00     0.076 C 
ATOM      6  C7  UNL d   1       0.010   2.364   1.518  0.00  0.00     0.002 A 
ATOM      7  C8  UNL d   1       0.732   1.343   2.140  0.00  0.00     0.006 A 
ENDROOT
BRANCH   1   8
ATOM      8  C1  UNL d   1       0.854  -0.729   3.573  0.00  0.00     0.054 C 
ATOM      9  C   UNL d   1       1.894  -1.280   2.608  0.00  0.00     0.018 C 
ENDBRANCH   1   8
TORSDOF 1
ENDMDL
