MODEL 1
REMARK minimizedAffinity 4.67277431
REMARK minimizedRMSD -1
REMARK  1 active torsions:
REMARK  status: ('A' for Active; 'I' for Inactive)
REMARK    1  A    between atoms: C1_2  and  C2_3 
ROOT
ATOM      1  C2  UNL d   1       0.645   0.814   1.419  0.00  0.00    -0.081 A 
ATOM      2  C3  UNL d   1       0.458   1.031   0.049  0.00  0.00     0.006 A 
ATOM      3  C4  UNL d   1       0.589   2.313  -0.490  0.00  0.00     0.002 A 
ATOM      4  C5  UNL d   1       0.915   3.398   0.332  0.00  0.00    -0.080 A 
ATOM      5  C6  UNL d   1       1.088   4.775  -0.238  0.00  0.00     0.076 C 
ATOM      6  C7  UNL d   1       1.084   3.184   1.704  0.00  0.00     0.002 A 
ATOM      7  C8  UNL d   1       0.953   1.903   2.243  0.00  0.00     0.006 A 
ENDROOT
BRANCH   1   8
ATOM      8  C1  UNL d   1       0.568  -0.578   1.992  0.00  0.00     0.054 C 
ATOM      9  C   UNL d   1       1.928  -1.046   2.491  0.00  0.00     0.018 C 
ENDBRANCH   1   8
TORSDOF 1
ENDMDL
