MODEL 1
REMARK minimizedAffinity 18.8364391
REMARK minimizedRMSD -1
REMARK  1 active torsions:
REMARK  status: ('A' for Active; 'I' for Inactive)
REMARK    1  A    between atoms: C1_2  and  C2_3 
ROOT
ATOM      1  C2  UNL d   1      -1.672   2.269   1.927  0.00  0.00    -0.081 A 
ATOM      2  C3  UNL d   1      -2.174   3.241   1.054  0.00  0.00     0.006 A 
ATOM      3  C4  UNL d   1      -1.374   3.754   0.030  0.00  0.00     0.002 A 
ATOM      4  C5  UNL d   1      -0.063   3.298  -0.143  0.00  0.00    -0.080 A 
ATOM      5  C6  UNL d   1       0.795   3.818  -1.258  0.00  0.00     0.076 C 
ATOM      6  C7  UNL d   1       0.444   2.339   0.739  0.00  0.00     0.002 A 
ATOM      7  C8  UNL d   1      -0.354   1.826   1.764  0.00  0.00     0.006 A 
ENDROOT
BRANCH   1   8
ATOM      8  C1  UNL d   1      -2.552   1.667   2.992  0.00  0.00     0.054 C 
ATOM      9  C   UNL d   1      -3.177   0.361   2.521  0.00  0.00     0.018 C 
ENDBRANCH   1   8
TORSDOF 1
ENDMDL
