MODEL 1
REMARK minimizedAffinity 14.1374292
REMARK minimizedRMSD -1
REMARK  1 active torsions:
REMARK  status: ('A' for Active; 'I' for Inactive)
REMARK    1  A    between atoms: C1_2  and  C2_3 
ROOT
ATOM      1  C2  UNL d   1      -2.027   2.426  -0.552  0.00  0.00    -0.081 A 
ATOM      2  C3  UNL d   1      -2.643   3.279  -1.476  0.00  0.00     0.006 A 
ATOM      3  C4  UNL d   1      -3.890   2.957  -2.015  0.00  0.00     0.002 A 
ATOM      4  C5  UNL d   1      -4.546   1.782  -1.634  0.00  0.00    -0.080 A 
ATOM      5  C6  UNL d   1      -5.900   1.440  -2.182  0.00  0.00     0.076 C 
ATOM      6  C7  UNL d   1      -3.924   0.921  -0.724  0.00  0.00     0.002 A 
ATOM      7  C8  UNL d   1      -2.676   1.242  -0.185  0.00  0.00     0.006 A 
ENDROOT
BRANCH   1   8
ATOM      8  C1  UNL d   1      -0.711   2.802   0.080  0.00  0.00     0.054 C 
ATOM      9  C   UNL d   1       0.389   2.925  -0.964  0.00  0.00     0.018 C 
ENDBRANCH   1   8
TORSDOF 1
ENDMDL
