MODEL 1
REMARK minimizedAffinity -0.647133231
REMARK minimizedRMSD -1
REMARK  0 active torsions:
REMARK  status: ('A' for Active; 'I' for Inactive)
ROOT
ATOM      1  C4' PXY d   1       0.310   0.646   0.242  0.00  0.00     0.077 C 
ATOM      2  C1' PXY d   1      -3.215  -0.413  -4.215  0.00  0.00     0.077 C 
ATOM      3  C1  PXY d   1      -2.301  -0.130  -3.040  0.00  0.00    -0.082 A 
ATOM      4  C2  PXY d   1      -0.996  -0.033  -3.235  0.00  0.00     0.003 A 
ATOM      5  C3  PXY d   1      -0.151   0.191  -2.178  0.00  0.00     0.003 A 
ATOM      6  C4  PXY d   1      -0.652   0.370  -0.917  0.00  0.00    -0.082 A 
ATOM      7  C5  PXY d   1      -1.984   0.284  -0.711  0.00  0.00     0.003 A 
ATOM      8  C6  PXY d   1      -2.820   0.015  -1.790  0.00  0.00     0.003 A 
ENDROOT
TORSDOF 0
ENDMDL
