MODEL 1
REMARK minimizedAffinity -3.99624014
REMARK minimizedRMSD -1
REMARK  0 active torsions:
REMARK  status: ('A' for Active; 'I' for Inactive)
ROOT
ATOM      1  C4' PXY d   1      -1.366   0.483  -0.564  0.00  0.00     0.077 C 
ATOM      2  C1' PXY d   1       2.796  -1.688   2.809  0.00  0.00     0.077 C 
ATOM      3  C1  PXY d   1       1.710  -1.106   1.926  0.00  0.00    -0.082 A 
ATOM      4  C2  PXY d   1       0.570  -1.761   1.775  0.00  0.00     0.003 A 
ATOM      5  C3  PXY d   1      -0.411  -1.265   0.955  0.00  0.00     0.003 A 
ATOM      6  C4  PXY d   1      -0.245  -0.061   0.325  0.00  0.00    -0.082 A 
ATOM      7  C5  PXY d   1       0.911   0.618   0.483  0.00  0.00     0.003 A 
ATOM      8  C6  PXY d   1       1.911   0.078   1.287  0.00  0.00     0.003 A 
ENDROOT
TORSDOF 0
ENDMDL
