MODEL 1
REMARK minimizedAffinity -3.29371643
REMARK minimizedRMSD -1
REMARK  0 active torsions:
REMARK  status: ('A' for Active; 'I' for Inactive)
ROOT
ATOM      1  C4' PXY d   1      -2.087   0.202  -1.518  0.00  0.00     0.077 C 
ATOM      2  C1' PXY d   1       2.726   0.012   1.677  0.00  0.00     0.077 C 
ATOM      3  C1  PXY d   1       1.460   0.050   0.845  0.00  0.00    -0.082 A 
ATOM      4  C2  PXY d   1       1.445   0.727  -0.293  0.00  0.00     0.003 A 
ATOM      5  C3  PXY d   1       0.299   0.799  -1.042  0.00  0.00     0.003 A 
ATOM      6  C4  PXY d   1      -0.828   0.128  -0.650  0.00  0.00    -0.082 A 
ATOM      7  C5  PXY d   1      -0.818  -0.573   0.504  0.00  0.00     0.003 A 
ATOM      8  C6  PXY d   1       0.343  -0.600   1.271  0.00  0.00     0.003 A 
ENDROOT
TORSDOF 0
ENDMDL
