MODEL 1
REMARK minimizedAffinity -3.64994431
REMARK minimizedRMSD -1
REMARK  0 active torsions:
REMARK  status: ('A' for Active; 'I' for Inactive)
ROOT
ATOM      1  C4' PXY d   1      -1.499   0.375  -0.985  0.00  0.00     0.077 C 
ATOM      2  C1' PXY d   1       2.609  -1.646   2.544  0.00  0.00     0.077 C 
ATOM      3  C1  PXY d   1       1.539  -1.105   1.617  0.00  0.00    -0.082 A 
ATOM      4  C2  PXY d   1       0.307  -1.582   1.692  0.00  0.00     0.003 A 
ATOM      5  C3  PXY d   1      -0.666  -1.126   0.840  0.00  0.00     0.003 A 
ATOM      6  C4  PXY d   1      -0.388  -0.135  -0.063  0.00  0.00    -0.082 A 
ATOM      7  C5  PXY d   1       0.864   0.365  -0.138  0.00  0.00     0.003 A 
ATOM      8  C6  PXY d   1       1.847  -0.140   0.708  0.00  0.00     0.003 A 
ENDROOT
TORSDOF 0
ENDMDL
