MODEL 1
REMARK minimizedAffinity -3.23333597
REMARK minimizedRMSD -1
REMARK  0 active torsions:
REMARK  status: ('A' for Active; 'I' for Inactive)
ROOT
ATOM      1  C4' PXY d   1       3.337  -0.663   1.238  0.00  0.00     0.077 C 
ATOM      2  C1' PXY d   1      -2.023   0.270  -0.715  0.00  0.00     0.077 C 
ATOM      3  C1  PXY d   1      -0.613   0.034  -0.211  0.00  0.00    -0.082 A 
ATOM      4  C2  PXY d   1      -0.305  -1.122   0.353  0.00  0.00     0.003 A 
ATOM      5  C3  PXY d   1       0.957  -1.340   0.843  0.00  0.00     0.003 A 
ATOM      6  C4  PXY d   1       1.928  -0.385   0.707  0.00  0.00    -0.082 A 
ATOM      7  C5  PXY d   1       1.624   0.794   0.122  0.00  0.00     0.003 A 
ATOM      8  C6  PXY d   1       0.327   1.011  -0.332  0.00  0.00     0.003 A 
ENDROOT
TORSDOF 0
ENDMDL
