MODEL 1
REMARK minimizedAffinity -0.830606103
REMARK minimizedRMSD -1
REMARK  0 active torsions:
REMARK  status: ('A' for Active; 'I' for Inactive)
ROOT
ATOM      1  C4' PXY d   1      -2.463   1.069  -1.526  0.00  0.00     0.077 C 
ATOM      2  C1' PXY d   1       2.632   0.823   1.193  0.00  0.00     0.077 C 
ATOM      3  C1  PXY d   1       1.293   0.875   0.484  0.00  0.00    -0.082 A 
ATOM      4  C2  PXY d   1       1.110   1.735  -0.505  0.00  0.00     0.003 A 
ATOM      5  C3  PXY d   1      -0.104   1.817  -1.136  0.00  0.00     0.003 A 
ATOM      6  C4  PXY d   1      -1.125   0.975  -0.787  0.00  0.00    -0.082 A 
ATOM      7  C5  PXY d   1      -0.943   0.088   0.214  0.00  0.00     0.003 A 
ATOM      8  C6  PXY d   1       0.284   0.048   0.870  0.00  0.00     0.003 A 
ENDROOT
TORSDOF 0
ENDMDL
