MODEL 1
REMARK minimizedAffinity -2.7404902
REMARK minimizedRMSD -1
REMARK  0 active torsions:
REMARK  status: ('A' for Active; 'I' for Inactive)
ROOT
ATOM      1  C4' PXY d   1       0.702  -2.483   1.813  0.00  0.00     0.077 C 
ATOM      2  C1' PXY d   1       1.680   2.673  -0.609  0.00  0.00     0.077 C 
ATOM      3  C1  PXY d   1       1.436   1.319   0.028  0.00  0.00    -0.082 A 
ATOM      4  C2  PXY d   1       0.319   0.662  -0.239  0.00  0.00     0.003 A 
ATOM      5  C3  PXY d   1       0.068  -0.549   0.353  0.00  0.00     0.003 A 
ATOM      6  C4  PXY d   1       0.994  -1.118   1.185  0.00  0.00    -0.082 A 
ATOM      7  C5  PXY d   1       2.141  -0.459   1.455  0.00  0.00     0.003 A 
ATOM      8  C6  PXY d   1       2.358   0.788   0.876  0.00  0.00     0.003 A 
ENDROOT
TORSDOF 0
ENDMDL
