MODEL 1
REMARK minimizedAffinity 1.03237021
REMARK minimizedRMSD -1
REMARK  1 active torsions:
REMARK  status: ('A' for Active; 'I' for Inactive)
REMARK    1  A    between atoms: C1_2  and  C2_3 
ROOT
ATOM      1  C2  UNL d   1       1.137  -4.749   4.483  0.00  0.00    -0.081 A 
ATOM      2  C3  UNL d   1       1.887  -4.827   3.303  0.00  0.00     0.006 A 
ATOM      3  C4  UNL d   1       2.267  -3.665   2.628  0.00  0.00     0.002 A 
ATOM      4  C5  UNL d   1       1.911  -2.406   3.125  0.00  0.00    -0.080 A 
ATOM      5  C6  UNL d   1       2.338  -1.150   2.426  0.00  0.00     0.076 C 
ATOM      6  C7  UNL d   1       1.146  -2.329   4.294  0.00  0.00     0.002 A 
ATOM      7  C8  UNL d   1       0.765  -3.491   4.969  0.00  0.00     0.006 A 
ENDROOT
BRANCH   1   8
ATOM      8  C1  UNL d   1       0.781  -5.998   5.248  0.00  0.00     0.054 C 
ATOM      9  C   UNL d   1      -0.532  -5.831   6.000  0.00  0.00     0.018 C 
ENDBRANCH   1   8
TORSDOF 1
ENDMDL
