MODEL 1
REMARK minimizedAffinity 4.59162521
REMARK minimizedRMSD -1
REMARK  1 active torsions:
REMARK  status: ('A' for Active; 'I' for Inactive)
REMARK    1  A    between atoms: C1_2  and  C2_3 
ROOT
ATOM      1  C2  UNL d   1       2.952  -5.859  -2.601  0.00  0.00    -0.081 A 
ATOM      2  C3  UNL d   1       2.571  -5.941  -3.946  0.00  0.00     0.006 A 
ATOM      3  C4  UNL d   1       3.537  -5.960  -4.956  0.00  0.00     0.002 A 
ATOM      4  C5  UNL d   1       4.898  -5.904  -4.637  0.00  0.00    -0.080 A 
ATOM      5  C6  UNL d   1       5.945  -5.954  -5.710  0.00  0.00     0.076 C 
ATOM      6  C7  UNL d   1       5.278  -5.804  -3.295  0.00  0.00     0.002 A 
ATOM      7  C8  UNL d   1       4.313  -5.785  -2.285  0.00  0.00     0.006 A 
ENDROOT
BRANCH   1   8
ATOM      8  C1  UNL d   1       1.916  -5.904  -1.507  0.00  0.00     0.054 C 
ATOM      9  C   UNL d   1       0.506  -5.913  -2.080  0.00  0.00     0.018 C 
ENDBRANCH   1   8
TORSDOF 1
ENDMDL
