MODEL 1
REMARK minimizedAffinity 4.48623037
REMARK minimizedRMSD -1
REMARK  1 active torsions:
REMARK  status: ('A' for Active; 'I' for Inactive)
REMARK    1  A    between atoms: C1_2  and  C2_3 
ROOT
ATOM      1  C2  UNL d   1      -3.442  -1.858  -3.885  0.00  0.00    -0.081 A 
ATOM      2  C3  UNL d   1      -3.472  -2.003  -5.277  0.00  0.00     0.006 A 
ATOM      3  C4  UNL d   1      -4.289  -2.968  -5.871  0.00  0.00     0.002 A 
ATOM      4  C5  UNL d   1      -5.095  -3.798  -5.084  0.00  0.00    -0.080 A 
ATOM      5  C6  UNL d   1      -5.999  -4.817  -5.711  0.00  0.00     0.076 C 
ATOM      6  C7  UNL d   1      -5.052  -3.665  -3.692  0.00  0.00     0.002 A 
ATOM      7  C8  UNL d   1      -4.234  -2.701  -3.098  0.00  0.00     0.006 A 
ENDROOT
BRANCH   1   8
ATOM      8  C1  UNL d   1      -2.611  -0.776  -3.244  0.00  0.00     0.054 C 
ATOM      9  C   UNL d   1      -3.306   0.576  -3.324  0.00  0.00     0.018 C 
ENDBRANCH   1   8
TORSDOF 1
ENDMDL
