MODEL 1
REMARK minimizedAffinity 4.82215738
REMARK minimizedRMSD -1
REMARK  1 active torsions:
REMARK  status: ('A' for Active; 'I' for Inactive)
REMARK    1  A    between atoms: C1_2  and  C2_3 
ROOT
ATOM      1  C2  UNL d   1       2.125  -4.175   3.880  0.00  0.00    -0.081 A 
ATOM      2  C3  UNL d   1       1.030  -3.412   3.456  0.00  0.00     0.006 A 
ATOM      3  C4  UNL d   1       1.225  -2.169   2.850  0.00  0.00     0.002 A 
ATOM      4  C5  UNL d   1       2.517  -1.672   2.650  0.00  0.00    -0.080 A 
ATOM      5  C6  UNL d   1       2.741  -0.352   1.973  0.00  0.00     0.076 C 
ATOM      6  C7  UNL d   1       3.611  -2.426   3.089  0.00  0.00     0.002 A 
ATOM      7  C8  UNL d   1       3.416  -3.668   3.697  0.00  0.00     0.006 A 
ENDROOT
BRANCH   1   8
ATOM      8  C1  UNL d   1       1.921  -5.545   4.476  0.00  0.00     0.054 C 
ATOM      9  C   UNL d   1       1.851  -5.482   5.995  0.00  0.00     0.018 C 
ENDBRANCH   1   8
TORSDOF 1
ENDMDL
