MODEL 1
REMARK minimizedAffinity 9.24779606
REMARK minimizedRMSD -1
REMARK  1 active torsions:
REMARK  status: ('A' for Active; 'I' for Inactive)
REMARK    1  A    between atoms: C1_2  and  C2_3 
ROOT
ATOM      1  C2  UNL d   1       1.713  -1.503   2.733  0.00  0.00    -0.081 A 
ATOM      2  C3  UNL d   1       2.722  -1.509   3.704  0.00  0.00     0.006 A 
ATOM      3  C4  UNL d   1       3.038  -2.683   4.390  0.00  0.00     0.002 A 
ATOM      4  C5  UNL d   1       2.356  -3.873   4.112  0.00  0.00    -0.080 A 
ATOM      5  C6  UNL d   1       2.705  -5.148   4.820  0.00  0.00     0.076 C 
ATOM      6  C7  UNL d   1       1.336  -3.863   3.154  0.00  0.00     0.002 A 
ATOM      7  C8  UNL d   1       1.019  -2.689   2.468  0.00  0.00     0.006 A 
ENDROOT
BRANCH   1   8
ATOM      8  C1  UNL d   1       1.414  -0.253   1.945  0.00  0.00     0.054 C 
ATOM      9  C   UNL d   1       2.629   0.662   1.877  0.00  0.00     0.018 C 
ENDBRANCH   1   8
TORSDOF 1
ENDMDL
