MODEL 1
REMARK minimizedAffinity -4.05829382
REMARK minimizedRMSD -1
REMARK  0 active torsions:
REMARK  status: ('A' for Active; 'I' for Inactive)
ROOT
ATOM      1  C   UNL d   1       0.759   0.294  -1.360  0.00  0.00    -0.002 A 
ATOM      2  C1  UNL d   1       0.752   0.225   0.026  0.00  0.00     0.010 A 
ATOM      3  C2  UNL d   1       1.103   1.337   0.794  0.00  0.00     0.041 A 
ATOM      4  C3  UNL d   1       1.464   2.531   0.140  0.00  0.00    -0.075 A 
ATOM      5  S   UNL d   1       1.931   4.019   0.875  0.00  0.00     0.015 SA
ATOM      6  C4  UNL d   1       2.150   4.782  -0.634  0.00  0.00     0.022 A 
ATOM      7  C5  UNL d   1       1.879   3.936  -1.683  0.00  0.00     0.026 A 
ATOM      8  C6  UNL d   1       1.478   2.625  -1.255  0.00  0.00    -0.082 A 
ATOM      9  C7  UNL d   1       1.117   1.481  -2.006  0.00  0.00     0.045 A 
ENDROOT
TORSDOF 0
ENDMDL
