MODEL 1
REMARK minimizedAffinity 5.57490396
REMARK minimizedRMSD -1
REMARK  0 active torsions:
REMARK  status: ('A' for Active; 'I' for Inactive)
ROOT
ATOM      1  C   UNL d   1       1.294   0.056  -0.759  0.00  0.00    -0.002 A 
ATOM      2  C1  UNL d   1       1.040   0.323   0.579  0.00  0.00     0.010 A 
ATOM      3  C2  UNL d   1       1.069   1.634   1.060  0.00  0.00     0.041 A 
ATOM      4  C3  UNL d   1       1.359   2.682   0.164  0.00  0.00    -0.075 A 
ATOM      5  S   UNL d   1       1.448   4.365   0.527  0.00  0.00     0.015 SA
ATOM      6  C4  UNL d   1       1.824   4.769  -1.085  0.00  0.00     0.022 A 
ATOM      7  C5  UNL d   1       1.884   3.659  -1.895  0.00  0.00     0.026 A 
ATOM      8  C6  UNL d   1       1.616   2.438  -1.188  0.00  0.00    -0.082 A 
ATOM      9  C7  UNL d   1       1.580   1.098  -1.645  0.00  0.00     0.045 A 
ENDROOT
TORSDOF 0
ENDMDL
