MODEL 1
REMARK minimizedAffinity 0.923624754
REMARK minimizedRMSD -1
REMARK  0 active torsions:
REMARK  status: ('A' for Active; 'I' for Inactive)
ROOT
ATOM      1  C   UNL d   1       1.171  -0.101  -0.261  0.00  0.00    -0.002 A 
ATOM      2  C1  UNL d   1       1.512   0.278  -1.552  0.00  0.00     0.010 A 
ATOM      3  C2  UNL d   1       1.720   1.622  -1.866  0.00  0.00     0.041 A 
ATOM      4  C3  UNL d   1       1.581   2.589  -0.851  0.00  0.00    -0.075 A 
ATOM      5  S   UNL d   1       1.790   4.293  -1.004  0.00  0.00     0.015 SA
ATOM      6  C4  UNL d   1       1.433   4.560   0.641  0.00  0.00     0.022 A 
ATOM      7  C5  UNL d   1       1.159   3.388   1.306  0.00  0.00     0.026 A 
ATOM      8  C6  UNL d   1       1.240   2.232   0.457  0.00  0.00    -0.082 A 
ATOM      9  C7  UNL d   1       1.035   0.861   0.744  0.00  0.00     0.045 A 
ENDROOT
TORSDOF 0
ENDMDL
