MODEL 1
REMARK minimizedAffinity 4.41183424
REMARK minimizedRMSD -1
REMARK  0 active torsions:
REMARK  status: ('A' for Active; 'I' for Inactive)
ROOT
ATOM      1  C   UNL d   1       1.018   0.684  -1.352  0.00  0.00    -0.002 A 
ATOM      2  C1  UNL d   1       0.835   0.554   0.018  0.00  0.00     0.010 A 
ATOM      3  C2  UNL d   1       0.951   1.663   0.858  0.00  0.00     0.041 A 
ATOM      4  C3  UNL d   1       1.255   2.917   0.293  0.00  0.00    -0.075 A 
ATOM      5  S   UNL d   1       1.444   4.414   1.127  0.00  0.00     0.015 SA
ATOM      6  C4  UNL d   1       1.771   5.262  -0.315  0.00  0.00     0.022 A 
ATOM      7  C5  UNL d   1       1.741   4.438  -1.415  0.00  0.00     0.026 A 
ATOM      8  C6  UNL d   1       1.442   3.074  -1.083  0.00  0.00    -0.082 A 
ATOM      9  C7  UNL d   1       1.319   1.930  -1.908  0.00  0.00     0.045 A 
ENDROOT
TORSDOF 0
ENDMDL
