MODEL 1
REMARK minimizedAffinity -2.69647956
REMARK minimizedRMSD -1
REMARK  0 active torsions:
REMARK  status: ('A' for Active; 'I' for Inactive)
ROOT
ATOM      1  C   UNL d   1       1.323   0.144  -1.055  0.00  0.00    -0.002 A 
ATOM      2  C1  UNL d   1       1.094   0.096   0.313  0.00  0.00     0.010 A 
ATOM      3  C2  UNL d   1       1.060   1.269   1.069  0.00  0.00     0.041 A 
ATOM      4  C3  UNL d   1       1.260   2.504   0.421  0.00  0.00    -0.075 A 
ATOM      5  S   UNL d   1       1.260   4.069   1.144  0.00  0.00     0.015 SA
ATOM      6  C4  UNL d   1       1.564   4.839  -0.346  0.00  0.00     0.022 A 
ATOM      7  C5  UNL d   1       1.666   3.939  -1.380  0.00  0.00     0.026 A 
ATOM      8  C6  UNL d   1       1.492   2.578  -0.955  0.00  0.00    -0.082 A 
ATOM      9  C7  UNL d   1       1.521   1.371  -1.694  0.00  0.00     0.045 A 
ENDROOT
TORSDOF 0
ENDMDL
