MODEL 1
REMARK minimizedAffinity 1.84925306
REMARK minimizedRMSD -1
REMARK  0 active torsions:
REMARK  status: ('A' for Active; 'I' for Inactive)
ROOT
ATOM      1  C   UNL d   1       1.375  -0.367   1.440  0.00  0.00    -0.002 A 
ATOM      2  C1  UNL d   1       0.709   0.732   1.963  0.00  0.00     0.010 A 
ATOM      3  C2  UNL d   1       0.479   1.863   1.178  0.00  0.00     0.041 A 
ATOM      4  C3  UNL d   1       0.932   1.871  -0.156  0.00  0.00    -0.075 A 
ATOM      5  S   UNL d   1       0.762   3.146  -1.304  0.00  0.00     0.015 SA
ATOM      6  C4  UNL d   1       1.568   2.261  -2.517  0.00  0.00     0.022 A 
ATOM      7  C5  UNL d   1       1.965   1.021  -2.074  0.00  0.00     0.026 A 
ATOM      8  C6  UNL d   1       1.604   0.776  -0.706  0.00  0.00    -0.082 A 
ATOM      9  C7  UNL d   1       1.823  -0.356   0.116  0.00  0.00     0.045 A 
ENDROOT
TORSDOF 0
ENDMDL
