MODEL 1
REMARK minimizedAffinity 1.73733997
REMARK minimizedRMSD -1
REMARK  0 active torsions:
REMARK  status: ('A' for Active; 'I' for Inactive)
ROOT
ATOM      1  C   UNL d   1       1.609  -0.371   0.777  0.00  0.00    -0.002 A 
ATOM      2  C1  UNL d   1       1.649  -0.835  -0.530  0.00  0.00     0.010 A 
ATOM      3  C2  UNL d   1       1.475   0.043  -1.601  0.00  0.00     0.041 A 
ATOM      4  C3  UNL d   1       1.261   1.410  -1.334  0.00  0.00    -0.075 A 
ATOM      5  S   UNL d   1       1.024   2.670  -2.486  0.00  0.00     0.015 SA
ATOM      6  C4  UNL d   1       0.867   3.854  -1.271  0.00  0.00     0.022 A 
ATOM      7  C5  UNL d   1       0.989   3.319  -0.010  0.00  0.00     0.026 A 
ATOM      8  C6  UNL d   1       1.219   1.901  -0.026  0.00  0.00    -0.082 A 
ATOM      9  C7  UNL d   1       1.397   0.985   1.038  0.00  0.00     0.045 A 
ENDROOT
TORSDOF 0
ENDMDL
