MODEL 1
REMARK minimizedAffinity -2.53638077
REMARK minimizedRMSD -1
REMARK  0 active torsions:
REMARK  status: ('A' for Active; 'I' for Inactive)
ROOT
ATOM      1  C   UNL d   1       1.165   4.117   0.027  0.00  0.00    -0.002 A 
ATOM      2  C1  UNL d   1       1.179   3.472   1.255  0.00  0.00     0.010 A 
ATOM      3  C2  UNL d   1       1.190   2.077   1.325  0.00  0.00     0.041 A 
ATOM      4  C3  UNL d   1       1.190   1.335   0.128  0.00  0.00    -0.075 A 
ATOM      5  S   UNL d   1       1.204  -0.382  -0.030  0.00  0.00     0.015 SA
ATOM      6  C4  UNL d   1       1.192  -0.300  -1.733  0.00  0.00     0.022 A 
ATOM      7  C5  UNL d   1       1.178   0.998  -2.186  0.00  0.00     0.026 A 
ATOM      8  C6  UNL d   1       1.177   1.962  -1.121  0.00  0.00    -0.082 A 
ATOM      9  C7  UNL d   1       1.164   3.377  -1.159  0.00  0.00     0.045 A 
ENDROOT
TORSDOF 0
ENDMDL
