MODEL 1
REMARK minimizedAffinity -4.68739271
REMARK minimizedRMSD -1
REMARK  0 active torsions:
REMARK  status: ('A' for Active; 'I' for Inactive)
ROOT
ATOM      1  C4' PXY d   1      -1.230   0.586  -1.760  0.00  0.00     0.077 C 
ATOM      2  C1' PXY d   1       1.815  -0.893   2.925  0.00  0.00     0.077 C 
ATOM      3  C1  PXY d   1       1.007  -0.513   1.700  0.00  0.00    -0.082 A 
ATOM      4  C2  PXY d   1       1.629  -0.091   0.611  0.00  0.00     0.003 A 
ATOM      5  C3  PXY d   1       0.911   0.288  -0.494  0.00  0.00     0.003 A 
ATOM      6  C4  PXY d   1      -0.454   0.183  -0.504  0.00  0.00    -0.082 A 
ATOM      7  C5  PXY d   1      -1.095  -0.258   0.600  0.00  0.00     0.003 A 
ATOM      8  C6  PXY d   1      -0.351  -0.598   1.726  0.00  0.00     0.003 A 
ENDROOT
TORSDOF 0
ENDMDL
