MODEL 1
REMARK minimizedAffinity -2.50771213
REMARK minimizedRMSD -1
REMARK  0 active torsions:
REMARK  status: ('A' for Active; 'I' for Inactive)
ROOT
ATOM      1  C4' PXY d   1       1.343  -2.727   2.315  0.00  0.00     0.077 C 
ATOM      2  C1' PXY d   1      -0.654   1.074  -1.556  0.00  0.00     0.077 C 
ATOM      3  C1  PXY d   1      -0.136   0.085  -0.531  0.00  0.00    -0.082 A 
ATOM      4  C2  PXY d   1       0.903  -0.680  -0.827  0.00  0.00     0.003 A 
ATOM      5  C3  PXY d   1       1.365  -1.602   0.076  0.00  0.00     0.003 A 
ATOM      6  C4  PXY d   1       0.791  -1.707   1.315  0.00  0.00    -0.082 A 
ATOM      7  C5  PXY d   1      -0.262  -0.923   1.628  0.00  0.00     0.003 A 
ATOM      8  C6  PXY d   1      -0.742  -0.022   0.683  0.00  0.00     0.003 A 
ENDROOT
TORSDOF 0
ENDMDL
