MODEL 1
REMARK minimizedAffinity -4.11620855
REMARK minimizedRMSD -1
REMARK  0 active torsions:
REMARK  status: ('A' for Active; 'I' for Inactive)
ROOT
ATOM      1  C4' PXY d   1       1.642  -0.749   3.476  0.00  0.00     0.077 C 
ATOM      2  C1' PXY d   1      -0.792   0.646  -1.578  0.00  0.00     0.077 C 
ATOM      3  C1  PXY d   1      -0.164   0.285  -0.247  0.00  0.00    -0.082 A 
ATOM      4  C2  PXY d   1       1.153   0.205  -0.144  0.00  0.00     0.003 A 
ATOM      5  C3  PXY d   1       1.736  -0.152   1.044  0.00  0.00     0.003 A 
ATOM      6  C4  PXY d   1       0.965  -0.378   2.153  0.00  0.00    -0.082 A 
ATOM      7  C5  PXY d   1      -0.378  -0.288   2.060  0.00  0.00     0.003 A 
ATOM      8  C6  PXY d   1      -0.953   0.035   0.834  0.00  0.00     0.003 A 
ENDROOT
TORSDOF 0
ENDMDL
