MODEL 1
REMARK minimizedAffinity -4.70383644
REMARK minimizedRMSD -1
REMARK  0 active torsions:
REMARK  status: ('A' for Active; 'I' for Inactive)
ROOT
ATOM      1  C4' PXY d   1       1.881  -1.929   2.464  0.00  0.00     0.077 C 
ATOM      2  C1' PXY d   1      -0.571   0.575  -2.133  0.00  0.00     0.077 C 
ATOM      3  C1  PXY d   1       0.078  -0.090  -0.936  0.00  0.00    -0.082 A 
ATOM      4  C2  PXY d   1      -0.502  -0.011   0.251  0.00  0.00     0.003 A 
ATOM      5  C3  PXY d   1       0.088  -0.579   1.351  0.00  0.00     0.003 A 
ATOM      6  C4  PXY d   1       1.256  -1.281   1.225  0.00  0.00    -0.082 A 
ATOM      7  C5  PXY d   1       1.849  -1.376   0.016  0.00  0.00     0.003 A 
ATOM      8  C6  PXY d   1       1.255  -0.757  -1.081  0.00  0.00     0.003 A 
ENDROOT
TORSDOF 0
ENDMDL
