MODEL 1
REMARK minimizedAffinity -4.80925179
REMARK minimizedRMSD -1
REMARK  0 active torsions:
REMARK  status: ('A' for Active; 'I' for Inactive)
ROOT
ATOM      1  C4' PXY d   1      -1.037   0.369  -1.966  0.00  0.00     0.077 C 
ATOM      2  C1' PXY d   1       1.232  -0.575   3.266  0.00  0.00     0.077 C 
ATOM      3  C1  PXY d   1       0.625  -0.331   1.899  0.00  0.00    -0.082 A 
ATOM      4  C2  PXY d   1       1.393  -0.389   0.823  0.00  0.00     0.003 A 
ATOM      5  C3  PXY d   1       0.867  -0.139  -0.419  0.00  0.00     0.003 A 
ATOM      6  C4  PXY d   1      -0.470   0.120  -0.566  0.00  0.00    -0.082 A 
ATOM      7  C5  PXY d   1      -1.262   0.170   0.526  0.00  0.00     0.003 A 
ATOM      8  C6  PXY d   1      -0.700  -0.045   1.781  0.00  0.00     0.003 A 
ENDROOT
TORSDOF 0
ENDMDL
