MODEL 1
REMARK minimizedAffinity -2.84660172
REMARK minimizedRMSD -1
REMARK  0 active torsions:
REMARK  status: ('A' for Active; 'I' for Inactive)
ROOT
ATOM      1  C4' PXY d   1      -1.183   1.090  -2.428  0.00  0.00     0.077 C 
ATOM      2  C1' PXY d   1       0.594  -1.103   2.617  0.00  0.00     0.077 C 
ATOM      3  C1  PXY d   1       0.141  -0.526   1.290  0.00  0.00    -0.082 A 
ATOM      4  C2  PXY d   1      -1.063   0.014   1.189  0.00  0.00     0.003 A 
ATOM      5  C3  PXY d   1      -1.501   0.511  -0.011  0.00  0.00     0.003 A 
ATOM      6  C4  PXY d   1      -0.679   0.504  -1.106  0.00  0.00    -0.082 A 
ATOM      7  C5  PXY d   1       0.555  -0.035  -1.008  0.00  0.00     0.003 A 
ATOM      8  C6  PXY d   1       0.965  -0.572   0.209  0.00  0.00     0.003 A 
ENDROOT
TORSDOF 0
ENDMDL
