MODEL 1
REMARK minimizedAffinity -2.4292953
REMARK minimizedRMSD -1
REMARK  0 active torsions:
REMARK  status: ('A' for Active; 'I' for Inactive)
ROOT
ATOM      1  C4' PXY d   1      -2.445   0.101   0.760  0.00  0.00     0.077 C 
ATOM      2  C1' PXY d   1       3.218  -0.833   0.068  0.00  0.00     0.077 C 
ATOM      3  C1  PXY d   1       1.733  -0.582   0.238  0.00  0.00    -0.082 A 
ATOM      4  C2  PXY d   1       1.197  -0.621   1.447  0.00  0.00     0.003 A 
ATOM      5  C3  PXY d   1      -0.150  -0.428   1.616  0.00  0.00     0.003 A 
ATOM      6  C4  PXY d   1      -0.948  -0.138   0.542  0.00  0.00    -0.082 A 
ATOM      7  C5  PXY d   1      -0.407  -0.085  -0.694  0.00  0.00     0.003 A 
ATOM      8  C6  PXY d   1       0.955  -0.325  -0.849  0.00  0.00     0.003 A 
ENDROOT
TORSDOF 0
ENDMDL
