MODEL 1
REMARK minimizedAffinity -0.7387743
REMARK minimizedRMSD -1
REMARK  0 active torsions:
REMARK  status: ('A' for Active; 'I' for Inactive)
ROOT
ATOM      1  C4' PXY d   1      -0.781   0.655  -2.393  0.00  0.00     0.077 C 
ATOM      2  C1' PXY d   1       0.339  -1.739   2.747  0.00  0.00     0.077 C 
ATOM      3  C1  PXY d   1       0.058  -1.109   1.397  0.00  0.00    -0.082 A 
ATOM      4  C2  PXY d   1      -1.128  -0.573   1.160  0.00  0.00     0.003 A 
ATOM      5  C3  PXY d   1      -1.410  -0.028  -0.066  0.00  0.00     0.003 A 
ATOM      6  C4  PXY d   1      -0.450   0.017  -1.042  0.00  0.00    -0.082 A 
ATOM      7  C5  PXY d   1       0.766  -0.518  -0.803  0.00  0.00     0.003 A 
ATOM      8  C6  PXY d   1       1.019  -1.104   0.434  0.00  0.00     0.003 A 
ENDROOT
TORSDOF 0
ENDMDL
