MODEL 1
REMARK minimizedAffinity -2.83702731
REMARK minimizedRMSD -1
REMARK  0 active torsions:
REMARK  status: ('A' for Active; 'I' for Inactive)
ROOT
ATOM      1  C4' PXY d   1      -1.223   1.021  -2.067  0.00  0.00     0.077 C 
ATOM      2  C1' PXY d   1       0.811  -1.507   2.717  0.00  0.00     0.077 C 
ATOM      3  C1  PXY d   1       0.266  -0.849   1.465  0.00  0.00    -0.082 A 
ATOM      4  C2  PXY d   1       1.087  -0.556   0.470  0.00  0.00     0.003 A 
ATOM      5  C3  PXY d   1       0.616   0.068  -0.657  0.00  0.00     0.003 A 
ATOM      6  C4  PXY d   1      -0.718   0.348  -0.788  0.00  0.00    -0.082 A 
ATOM      7  C5  PXY d   1      -1.564   0.042   0.219  0.00  0.00     0.003 A 
ATOM      8  C6  PXY d   1      -1.059  -0.554   1.371  0.00  0.00     0.003 A 
ENDROOT
TORSDOF 0
ENDMDL
