MODEL 1
REMARK minimizedAffinity -3.77750731
REMARK minimizedRMSD -1
REMARK  0 active torsions:
REMARK  status: ('A' for Active; 'I' for Inactive)
ROOT
ATOM      1  C2' OXE d   1       2.025   1.079  -0.327  0.00  0.00     0.078 C 
ATOM      2  C1' OXE d   1       0.270  -0.789   0.818  0.00  0.00     0.078 C 
ATOM      3  C1  OXE d   1      -0.197   0.641   0.711  0.00  0.00    -0.078 A 
ATOM      4  C2  OXE d   1       0.687   1.557   0.193  0.00  0.00    -0.078 A 
ATOM      5  C3  OXE d   1       0.288   2.880   0.022  0.00  0.00     0.003 A 
ATOM      6  C4  OXE d   1      -0.948   3.316   0.514  0.00  0.00    -0.002 A 
ATOM      7  C5  OXE d   1      -1.847   2.408   1.082  0.00  0.00    -0.002 A 
ATOM      8  C6  OXE d   1      -1.505   1.062   1.149  0.00  0.00     0.003 A 
ENDROOT
TORSDOF 0
ENDMDL
