MODEL 1
REMARK minimizedAffinity -4.80643463
REMARK minimizedRMSD -1
REMARK  0 active torsions:
REMARK  status: ('A' for Active; 'I' for Inactive)
ROOT
ATOM      1  C2' OXE d   1       0.480  -0.444   0.605  0.00  0.00     0.078 C 
ATOM      2  C1' OXE d   1       2.391   1.284  -0.509  0.00  0.00     0.078 C 
ATOM      3  C1  OXE d   1       1.101   1.888  -0.013  0.00  0.00    -0.078 A 
ATOM      4  C2  OXE d   1       0.152   1.029   0.489  0.00  0.00    -0.078 A 
ATOM      5  C3  OXE d   1      -1.033   1.539   1.010  0.00  0.00     0.003 A 
ATOM      6  C4  OXE d   1      -1.332   2.902   0.889  0.00  0.00    -0.002 A 
ATOM      7  C5  OXE d   1      -0.396   3.788   0.346  0.00  0.00    -0.002 A 
ATOM      8  C6  OXE d   1       0.839   3.305  -0.070  0.00  0.00     0.003 A 
ENDROOT
TORSDOF 0
ENDMDL
