MODEL 1
REMARK minimizedAffinity -4.47111082
REMARK minimizedRMSD -1
REMARK  0 active torsions:
REMARK  status: ('A' for Active; 'I' for Inactive)
ROOT
ATOM      1  C2' OXE d   1      -2.269   0.627   0.519  0.00  0.00     0.078 C 
ATOM      2  C1' OXE d   1       0.127  -0.670  -0.157  0.00  0.00     0.078 C 
ATOM      3  C1  OXE d   1       0.189   0.804   0.159  0.00  0.00    -0.078 A 
ATOM      4  C2  OXE d   1      -0.995   1.440   0.443  0.00  0.00    -0.078 A 
ATOM      5  C3  OXE d   1      -0.986   2.787   0.795  0.00  0.00     0.003 A 
ATOM      6  C4  OXE d   1       0.195   3.534   0.713  0.00  0.00    -0.002 A 
ATOM      7  C5  OXE d   1       1.406   2.913   0.386  0.00  0.00    -0.002 A 
ATOM      8  C6  OXE d   1       1.427   1.543   0.149  0.00  0.00     0.003 A 
ENDROOT
TORSDOF 0
ENDMDL
