MODEL 1
REMARK minimizedAffinity -3.57627082
REMARK minimizedRMSD -1
REMARK  0 active torsions:
REMARK  status: ('A' for Active; 'I' for Inactive)
ROOT
ATOM      1  C2' OXE d   1       2.633   1.555  -0.352  0.00  0.00     0.078 C 
ATOM      2  C1' OXE d   1       0.591   3.472  -0.535  0.00  0.00     0.078 C 
ATOM      3  C1  OXE d   1       0.241   2.124   0.044  0.00  0.00    -0.078 A 
ATOM      4  C2  OXE d   1       1.235   1.176   0.087  0.00  0.00    -0.078 A 
ATOM      5  C3  OXE d   1       0.980  -0.065   0.662  0.00  0.00     0.003 A 
ATOM      6  C4  OXE d   1      -0.318  -0.410   1.056  0.00  0.00    -0.002 A 
ATOM      7  C5  OXE d   1      -1.355   0.527   0.984  0.00  0.00    -0.002 A 
ATOM      8  C6  OXE d   1      -1.083   1.809   0.522  0.00  0.00     0.003 A 
ENDROOT
TORSDOF 0
ENDMDL
