MODEL 1
REMARK minimizedAffinity -3.35103035
REMARK minimizedRMSD -1
REMARK  0 active torsions:
REMARK  status: ('A' for Active; 'I' for Inactive)
ROOT
ATOM      1  C2' OXE d   1      -2.488   0.496   1.441  0.00  0.00     0.078 C 
ATOM      2  C1' OXE d   1      -0.496   2.471   1.348  0.00  0.00     0.078 C 
ATOM      3  C1  OXE d   1      -0.178   1.122   0.752  0.00  0.00    -0.078 A 
ATOM      4  C2  OXE d   1      -1.142   0.148   0.843  0.00  0.00    -0.078 A 
ATOM      5  C3  OXE d   1      -0.921  -1.097   0.261  0.00  0.00     0.003 A 
ATOM      6  C4  OXE d   1       0.331  -1.414  -0.281  0.00  0.00    -0.002 A 
ATOM      7  C5  OXE d   1       1.340  -0.448  -0.348  0.00  0.00    -0.002 A 
ATOM      8  C6  OXE d   1       1.088   0.835   0.124  0.00  0.00     0.003 A 
ENDROOT
TORSDOF 0
ENDMDL
