MODEL 1
REMARK minimizedAffinity -3.06136727
REMARK minimizedRMSD -1
REMARK  0 active torsions:
REMARK  status: ('A' for Active; 'I' for Inactive)
ROOT
ATOM      1  C2' OXE d   1      -2.557  -0.032   1.386  0.00  0.00     0.078 C 
ATOM      2  C1' OXE d   1      -0.773  -1.458  -0.245  0.00  0.00     0.078 C 
ATOM      3  C1  OXE d   1      -0.419  -0.035   0.108  0.00  0.00    -0.078 A 
ATOM      4  C2  OXE d   1      -1.321   0.670   0.868  0.00  0.00    -0.078 A 
ATOM      5  C3  OXE d   1      -1.019   1.969   1.268  0.00  0.00     0.003 A 
ATOM      6  C4  OXE d   1       0.122   2.615   0.776  0.00  0.00    -0.002 A 
ATOM      7  C5  OXE d   1       1.034   1.927  -0.032  0.00  0.00    -0.002 A 
ATOM      8  C6  OXE d   1       0.800   0.591  -0.340  0.00  0.00     0.003 A 
ENDROOT
TORSDOF 0
ENDMDL
