MODEL 1
REMARK minimizedAffinity -4.2429409
REMARK minimizedRMSD -1
REMARK  0 active torsions:
REMARK  status: ('A' for Active; 'I' for Inactive)
ROOT
ATOM      1  C2' OXE d   1      -1.461   0.359   1.402  0.00  0.00     0.078 C 
ATOM      2  C1' OXE d   1      -0.037  -0.475  -0.870  0.00  0.00     0.078 C 
ATOM      3  C1  OXE d   1       0.013   0.988  -0.505  0.00  0.00    -0.078 A 
ATOM      4  C2  OXE d   1      -0.724   1.395   0.580  0.00  0.00    -0.078 A 
ATOM      5  C3  OXE d   1      -0.668   2.723   0.992  0.00  0.00     0.003 A 
ATOM      6  C4  OXE d   1       0.007   3.677   0.221  0.00  0.00    -0.002 A 
ATOM      7  C5  OXE d   1       0.732   3.290  -0.911  0.00  0.00    -0.002 A 
ATOM      8  C6  OXE d   1       0.780   1.946  -1.263  0.00  0.00     0.003 A 
ENDROOT
TORSDOF 0
ENDMDL
