MODEL 1
REMARK minimizedAffinity -3.93071699
REMARK minimizedRMSD -1
REMARK  0 active torsions:
REMARK  status: ('A' for Active; 'I' for Inactive)
ROOT
ATOM      1  C2' OXE d   1      -2.146   0.110   1.445  0.00  0.00     0.078 C 
ATOM      2  C1' OXE d   1      -0.106  -1.402   0.248  0.00  0.00     0.078 C 
ATOM      3  C1  OXE d   1      -0.033   0.099   0.125  0.00  0.00    -0.078 A 
ATOM      4  C2  OXE d   1      -1.061   0.829   0.673  0.00  0.00    -0.078 A 
ATOM      5  C3  OXE d   1      -1.015   2.220   0.635  0.00  0.00     0.003 A 
ATOM      6  C4  OXE d   1      -0.014   2.877  -0.089  0.00  0.00    -0.002 A 
ATOM      7  C5  OXE d   1       1.021   2.151  -0.689  0.00  0.00    -0.002 A 
ATOM      8  C6  OXE d   1       1.049   0.767  -0.556  0.00  0.00     0.003 A 
ENDROOT
TORSDOF 0
ENDMDL
