MODEL 1
REMARK minimizedAffinity -3.59774113
REMARK minimizedRMSD -1
REMARK  0 active torsions:
REMARK  status: ('A' for Active; 'I' for Inactive)
ROOT
ATOM      1  C2' OXE d   1      -0.138  -1.254  -0.053  0.00  0.00     0.078 C 
ATOM      2  C1' OXE d   1      -2.266  -0.181   1.430  0.00  0.00     0.078 C 
ATOM      3  C1  OXE d   1      -1.357   0.781   0.707  0.00  0.00    -0.078 A 
ATOM      4  C2  OXE d   1      -0.291   0.250   0.022  0.00  0.00    -0.078 A 
ATOM      5  C3  OXE d   1       0.547   1.088  -0.708  0.00  0.00     0.003 A 
ATOM      6  C4  OXE d   1       0.405   2.479  -0.626  0.00  0.00    -0.002 A 
ATOM      7  C5  OXE d   1      -0.651   3.043   0.099  0.00  0.00    -0.002 A 
ATOM      8  C6  OXE d   1      -1.564   2.208   0.734  0.00  0.00     0.003 A 
ENDROOT
TORSDOF 0
ENDMDL
