MODEL 1
REMARK minimizedAffinity -1.37456369
REMARK minimizedRMSD -1
REMARK  0 active torsions:
REMARK  status: ('A' for Active; 'I' for Inactive)
ROOT
ATOM      1  C2' OXE d   1       2.329  -0.151   0.077  0.00  0.00     0.078 C 
ATOM      2  C1' OXE d   1      -0.184  -1.356   0.417  0.00  0.00     0.078 C 
ATOM      3  C1  OXE d   1      -0.112   0.150   0.474  0.00  0.00    -0.078 A 
ATOM      4  C2  OXE d   1       1.128   0.729   0.354  0.00  0.00    -0.078 A 
ATOM      5  C3  OXE d   1       1.244   2.116   0.345  0.00  0.00     0.003 A 
ATOM      6  C4  OXE d   1       0.130   2.921   0.612  0.00  0.00    -0.002 A 
ATOM      7  C5  OXE d   1      -1.136   2.350   0.778  0.00  0.00    -0.002 A 
ATOM      8  C6  OXE d   1      -1.281   0.971   0.669  0.00  0.00     0.003 A 
ENDROOT
TORSDOF 0
ENDMDL
