MODEL 1
REMARK minimizedAffinity -3.9145236
REMARK minimizedRMSD -1
REMARK  0 active torsions:
REMARK  status: ('A' for Active; 'I' for Inactive)
ROOT
ATOM      1  C2' OXE d   1      -0.653  -1.329  -0.298  0.00  0.00     0.078 C 
ATOM      2  C1' OXE d   1      -2.626  -0.086   1.264  0.00  0.00     0.078 C 
ATOM      3  C1  OXE d   1      -1.569   0.790   0.639  0.00  0.00    -0.078 A 
ATOM      4  C2  OXE d   1      -0.580   0.168  -0.085  0.00  0.00    -0.078 A 
ATOM      5  C3  OXE d   1       0.388   0.933  -0.729  0.00  0.00     0.003 A 
ATOM      6  C4  OXE d   1       0.454   2.316  -0.519  0.00  0.00    -0.002 A 
ATOM      7  C5  OXE d   1      -0.521   2.964   0.247  0.00  0.00    -0.002 A 
ATOM      8  C6  OXE d   1      -1.561   2.223   0.797  0.00  0.00     0.003 A 
ENDROOT
TORSDOF 0
ENDMDL
