MODEL 1
REMARK minimizedAffinity -4.50629473
REMARK minimizedRMSD -1
REMARK  0 active torsions:
REMARK  status: ('A' for Active; 'I' for Inactive)
ROOT
ATOM      1  C2' OXE d   1      -0.285   3.106  -0.352  0.00  0.00     0.078 C 
ATOM      2  C1' OXE d   1      -2.388   2.364   1.353  0.00  0.00     0.078 C 
ATOM      3  C1  OXE d   1      -1.473   1.275   0.849  0.00  0.00    -0.078 A 
ATOM      4  C2  OXE d   1      -0.475   1.641  -0.022  0.00  0.00    -0.078 A 
ATOM      5  C3  OXE d   1       0.430   0.686  -0.475  0.00  0.00     0.003 A 
ATOM      6  C4  OXE d   1       0.241  -0.668  -0.173  0.00  0.00    -0.002 A 
ATOM      7  C5  OXE d   1      -0.793  -1.068   0.681  0.00  0.00    -0.002 A 
ATOM      8  C6  OXE d   1      -1.631  -0.105   1.233  0.00  0.00     0.003 A 
ENDROOT
TORSDOF 0
ENDMDL
