MODEL 1
REMARK minimizedAffinity -4.303473
REMARK minimizedRMSD -1
REMARK  0 active torsions:
REMARK  status: ('A' for Active; 'I' for Inactive)
ROOT
ATOM      1  C2' OXE d   1       1.184  -1.038   0.841  0.00  0.00     0.078 C 
ATOM      2  C1' OXE d   1       2.973   1.125   0.795  0.00  0.00     0.078 C 
ATOM      3  C1  OXE d   1       1.498   1.434   0.846  0.00  0.00    -0.078 A 
ATOM      4  C2  OXE d   1       0.628   0.370   0.820  0.00  0.00    -0.078 A 
ATOM      5  C3  OXE d   1      -0.741   0.597   0.920  0.00  0.00     0.003 A 
ATOM      6  C4  OXE d   1      -1.248   1.902   0.891  0.00  0.00    -0.002 A 
ATOM      7  C5  OXE d   1      -0.381   2.999   0.876  0.00  0.00    -0.002 A 
ATOM      8  C6  OXE d   1       0.993   2.783   0.897  0.00  0.00     0.003 A 
ENDROOT
TORSDOF 0
ENDMDL
