MODEL 1
REMARK minimizedAffinity -2.43160892
REMARK minimizedRMSD -1
REMARK  0 active torsions:
REMARK  status: ('A' for Active; 'I' for Inactive)
ROOT
ATOM      1  C2' OXE d   1       0.513   3.670   0.527  0.00  0.00     0.078 C 
ATOM      2  C1' OXE d   1      -1.569   2.957   2.269  0.00  0.00     0.078 C 
ATOM      3  C1  OXE d   1      -1.020   1.890   1.356  0.00  0.00    -0.078 A 
ATOM      4  C2  OXE d   1      -0.033   2.259   0.474  0.00  0.00    -0.078 A 
ATOM      5  C3  OXE d   1       0.547   1.301  -0.352  0.00  0.00     0.003 A 
ATOM      6  C4  OXE d   1       0.030   0.001  -0.402  0.00  0.00    -0.002 A 
ATOM      7  C5  OXE d   1      -1.002  -0.386   0.460  0.00  0.00    -0.002 A 
ATOM      8  C6  OXE d   1      -1.508   0.533   1.373  0.00  0.00     0.003 A 
ENDROOT
TORSDOF 0
ENDMDL
