MODEL 1
REMARK minimizedAffinity -4.19708681
REMARK minimizedRMSD -1
REMARK  0 active torsions:
REMARK  status: ('A' for Active; 'I' for Inactive)
ROOT
ATOM      1  C2' OXE d   1      -2.116   0.821   0.495  0.00  0.00     0.078 C 
ATOM      2  C1' OXE d   1      -0.306   2.894  -0.062  0.00  0.00     0.078 C 
ATOM      3  C1  OXE d   1       0.237   1.489   0.020  0.00  0.00    -0.078 A 
ATOM      4  C2  OXE d   1      -0.648   0.487   0.339  0.00  0.00    -0.078 A 
ATOM      5  C3  OXE d   1      -0.209  -0.833   0.375  0.00  0.00     0.003 A 
ATOM      6  C4  OXE d   1       1.152  -1.133   0.240  0.00  0.00    -0.002 A 
ATOM      7  C5  OXE d   1       2.076  -0.122  -0.046  0.00  0.00    -0.002 A 
ATOM      8  C6  OXE d   1       1.629   1.186  -0.201  0.00  0.00     0.003 A 
ENDROOT
TORSDOF 0
ENDMDL
