MODEL 1
REMARK minimizedAffinity -5.1347208
REMARK minimizedRMSD -1
REMARK  0 active torsions:
REMARK  status: ('A' for Active; 'I' for Inactive)
ROOT
ATOM      1  C2' OXE d   1      -1.797   1.090   0.260  0.00  0.00     0.078 C 
ATOM      2  C1' OXE d   1       0.235   2.986  -0.139  0.00  0.00     0.078 C 
ATOM      3  C1  OXE d   1       0.646   1.554   0.099  0.00  0.00    -0.078 A 
ATOM      4  C2  OXE d   1      -0.353   0.642   0.340  0.00  0.00    -0.078 A 
ATOM      5  C3  OXE d   1      -0.033  -0.702   0.511  0.00  0.00     0.003 A 
ATOM      6  C4  OXE d   1       1.305  -1.107   0.593  0.00  0.00    -0.002 A 
ATOM      7  C5  OXE d   1       2.339  -0.186   0.390  0.00  0.00    -0.002 A 
ATOM      8  C6  OXE d   1       2.026   1.137   0.100  0.00  0.00     0.003 A 
ENDROOT
TORSDOF 0
ENDMDL
