MODEL 1
REMARK minimizedAffinity -2.40365291
REMARK minimizedRMSD -1
REMARK  0 active torsions:
REMARK  status: ('A' for Active; 'I' for Inactive)
ROOT
ATOM      1  C2' OXE d   1      -0.432   2.986   0.195  0.00  0.00     0.078 C 
ATOM      2  C1' OXE d   1      -2.720   1.410   0.594  0.00  0.00     0.078 C 
ATOM      3  C1  OXE d   1      -1.418   0.702   0.314  0.00  0.00    -0.078 A 
ATOM      4  C2  OXE d   1      -0.313   1.482   0.074  0.00  0.00    -0.078 A 
ATOM      5  C3  OXE d   1       0.924   0.879  -0.136  0.00  0.00     0.003 A 
ATOM      6  C4  OXE d   1       1.023  -0.512  -0.256  0.00  0.00    -0.002 A 
ATOM      7  C5  OXE d   1      -0.098  -1.324  -0.054  0.00  0.00    -0.002 A 
ATOM      8  C6  OXE d   1      -1.315  -0.736   0.274  0.00  0.00     0.003 A 
ENDROOT
TORSDOF 0
ENDMDL
