MODEL 1
REMARK minimizedAffinity -2.27098036
REMARK minimizedRMSD -1
REMARK  0 active torsions:
REMARK  status: ('A' for Active; 'I' for Inactive)
ROOT
ATOM      1  C2' OXE d   1       0.091   3.047  -0.715  0.00  0.00     0.078 C 
ATOM      2  C1' OXE d   1      -1.786   2.408   1.273  0.00  0.00     0.078 C 
ATOM      3  C1  OXE d   1      -1.032   1.273   0.626  0.00  0.00    -0.078 A 
ATOM      4  C2  OXE d   1      -0.150   1.591  -0.379  0.00  0.00    -0.078 A 
ATOM      5  C3  OXE d   1       0.611   0.588  -0.971  0.00  0.00     0.003 A 
ATOM      6  C4  OXE d   1       0.375  -0.757  -0.662  0.00  0.00    -0.002 A 
ATOM      7  C5  OXE d   1      -0.548  -1.106   0.330  0.00  0.00    -0.002 A 
ATOM      8  C6  OXE d   1      -1.227  -0.103   1.012  0.00  0.00     0.003 A 
ENDROOT
TORSDOF 0
ENDMDL
