MODEL 1
REMARK minimizedAffinity -4.2334671
REMARK minimizedRMSD -1
REMARK  0 active torsions:
REMARK  status: ('A' for Active; 'I' for Inactive)
ROOT
ATOM      1  C2' OXE d   1      -2.233   1.888   1.483  0.00  0.00     0.078 C 
ATOM      2  C1' OXE d   1      -1.038   2.387  -1.008  0.00  0.00     0.078 C 
ATOM      3  C1  OXE d   1      -0.588   1.168  -0.243  0.00  0.00    -0.078 A 
ATOM      4  C2  OXE d   1      -1.144   0.957   0.996  0.00  0.00    -0.078 A 
ATOM      5  C3  OXE d   1      -0.804  -0.182   1.720  0.00  0.00     0.003 A 
ATOM      6  C4  OXE d   1       0.211  -1.033   1.267  0.00  0.00    -0.002 A 
ATOM      7  C5  OXE d   1       0.819  -0.815   0.026  0.00  0.00    -0.002 A 
ATOM      8  C6  OXE d   1       0.402   0.254  -0.759  0.00  0.00     0.003 A 
ENDROOT
TORSDOF 0
ENDMDL
