MODEL 1
REMARK minimizedAffinity -3.39155674
REMARK minimizedRMSD -1
REMARK  0 active torsions:
REMARK  status: ('A' for Active; 'I' for Inactive)
ROOT
ATOM      1  C2' OXE d   1      -0.570   2.589  -1.313  0.00  0.00     0.078 C 
ATOM      2  C1' OXE d   1      -1.932   2.119   1.095  0.00  0.00     0.078 C 
ATOM      3  C1  OXE d   1      -0.923   1.092   0.646  0.00  0.00    -0.078 A 
ATOM      4  C2  OXE d   1      -0.295   1.307  -0.557  0.00  0.00    -0.078 A 
ATOM      5  C3  OXE d   1       0.684   0.419  -0.993  0.00  0.00     0.003 A 
ATOM      6  C4  OXE d   1       0.924  -0.770  -0.292  0.00  0.00    -0.002 A 
ATOM      7  C5  OXE d   1       0.267  -1.028   0.915  0.00  0.00    -0.002 A 
ATOM      8  C6  OXE d   1      -0.627  -0.089   1.419  0.00  0.00     0.003 A 
ENDROOT
TORSDOF 0
ENDMDL
