MODEL 1
REMARK minimizedAffinity -2.99803162
REMARK minimizedRMSD -1
REMARK  0 active torsions:
REMARK  status: ('A' for Active; 'I' for Inactive)
ROOT
ATOM      1  C2' OXE d   1      -2.030   1.938   0.965  0.00  0.00     0.078 C 
ATOM      2  C1' OXE d   1      -0.575   2.412  -1.388  0.00  0.00     0.078 C 
ATOM      3  C1  OXE d   1      -0.259   1.163  -0.605  0.00  0.00    -0.078 A 
ATOM      4  C2  OXE d   1      -0.943   0.962   0.570  0.00  0.00    -0.078 A 
ATOM      5  C3  OXE d   1      -0.729  -0.202   1.302  0.00  0.00     0.003 A 
ATOM      6  C4  OXE d   1       0.285  -1.094   0.934  0.00  0.00    -0.002 A 
ATOM      7  C5  OXE d   1       1.021  -0.889  -0.237  0.00  0.00    -0.002 A 
ATOM      8  C6  OXE d   1       0.733   0.210  -1.039  0.00  0.00     0.003 A 
ENDROOT
TORSDOF 0
ENDMDL
