MODEL 1
REMARK minimizedAffinity -0.150698781
REMARK minimizedRMSD -1
REMARK  0 active torsions:
REMARK  status: ('A' for Active; 'I' for Inactive)
ROOT
ATOM      1  C2' OXE d   1       1.341  -1.051  -1.025  0.00  0.00     0.078 C 
ATOM      2  C1' OXE d   1       0.873   1.701  -1.327  0.00  0.00     0.078 C 
ATOM      3  C1  OXE d   1       0.230   1.003  -0.155  0.00  0.00    -0.078 A 
ATOM      4  C2  OXE d   1       0.427  -0.353  -0.041  0.00  0.00    -0.078 A 
ATOM      5  C3  OXE d   1      -0.098  -1.036   1.053  0.00  0.00     0.003 A 
ATOM      6  C4  OXE d   1      -0.951  -0.385   1.952  0.00  0.00    -0.002 A 
ATOM      7  C5  OXE d   1      -1.196   0.987   1.832  0.00  0.00    -0.002 A 
ATOM      8  C6  OXE d   1      -0.580   1.703   0.811  0.00  0.00     0.003 A 
ENDROOT
TORSDOF 0
ENDMDL
