MODEL 1
REMARK minimizedAffinity -5.07030439
REMARK minimizedRMSD -1
REMARK  0 active torsions:
REMARK  status: ('A' for Active; 'I' for Inactive)
ROOT
ATOM      1  C2' OXE d   1      -2.094   2.525   1.475  0.00  0.00     0.078 C 
ATOM      2  C1' OXE d   1      -0.837   2.529  -1.035  0.00  0.00     0.078 C 
ATOM      3  C1  OXE d   1      -0.488   1.419  -0.076  0.00  0.00    -0.078 A 
ATOM      4  C2  OXE d   1      -1.073   1.451   1.167  0.00  0.00    -0.078 A 
ATOM      5  C3  OXE d   1      -0.828   0.420   2.071  0.00  0.00     0.003 A 
ATOM      6  C4  OXE d   1       0.125  -0.564   1.782  0.00  0.00    -0.002 A 
ATOM      7  C5  OXE d   1       0.762  -0.592   0.537  0.00  0.00    -0.002 A 
ATOM      8  C6  OXE d   1       0.435   0.365  -0.417  0.00  0.00     0.003 A 
ENDROOT
TORSDOF 0
ENDMDL
