MODEL 1
REMARK minimizedAffinity -5.54066992
REMARK minimizedRMSD -1
REMARK  0 active torsions:
REMARK  status: ('A' for Active; 'I' for Inactive)
ROOT
ATOM      1  C2' OXE d   1      -2.413   2.083   1.133  0.00  0.00     0.078 C 
ATOM      2  C1' OXE d   1      -1.098   2.389  -1.329  0.00  0.00     0.078 C 
ATOM      3  C1  OXE d   1      -0.701   1.221  -0.460  0.00  0.00    -0.078 A 
ATOM      4  C2  OXE d   1      -1.317   1.106   0.763  0.00  0.00    -0.078 A 
ATOM      5  C3  OXE d   1      -1.028   0.017   1.581  0.00  0.00     0.003 A 
ATOM      6  C4  OXE d   1      -0.006  -0.876   1.236  0.00  0.00    -0.002 A 
ATOM      7  C5  OXE d   1       0.661  -0.754   0.013  0.00  0.00    -0.002 A 
ATOM      8  C6  OXE d   1       0.297   0.262  -0.863  0.00  0.00     0.003 A 
ENDROOT
TORSDOF 0
ENDMDL
