MODEL 1
REMARK minimizedAffinity -1.98241425
REMARK minimizedRMSD -1
REMARK  0 active torsions:
REMARK  status: ('A' for Active; 'I' for Inactive)
ROOT
ATOM      1  C2' OXE d   1      -0.573   2.221  -1.801  0.00  0.00     0.078 C 
ATOM      2  C1' OXE d   1       0.317  -0.290  -0.915  0.00  0.00     0.078 C 
ATOM      3  C1  OXE d   1      -0.552   0.518   0.017  0.00  0.00    -0.078 A 
ATOM      4  C2  OXE d   1      -0.944   1.765  -0.406  0.00  0.00    -0.078 A 
ATOM      5  C3  OXE d   1      -1.791   2.529   0.392  0.00  0.00     0.003 A 
ATOM      6  C4  OXE d   1      -2.121   2.104   1.685  0.00  0.00    -0.002 A 
ATOM      7  C5  OXE d   1      -1.699   0.855   2.151  0.00  0.00    -0.002 A 
ATOM      8  C6  OXE d   1      -0.951   0.033   1.315  0.00  0.00     0.003 A 
ENDROOT
TORSDOF 0
ENDMDL
