MODEL 1
REMARK minimizedAffinity -1.03440607
REMARK minimizedRMSD -1
REMARK  0 active torsions:
REMARK  status: ('A' for Active; 'I' for Inactive)
ROOT
ATOM      1  C2' OXE d   1       0.296  -0.602   1.391  0.00  0.00     0.078 C 
ATOM      2  C1' OXE d   1       0.744   0.920  -0.925  0.00  0.00     0.078 C 
ATOM      3  C1  OXE d   1       0.280  -0.505  -1.098  0.00  0.00    -0.078 A 
ATOM      4  C2  OXE d   1       0.108  -1.256   0.039  0.00  0.00    -0.078 A 
ATOM      5  C3  OXE d   1      -0.372  -2.559  -0.062  0.00  0.00     0.003 A 
ATOM      6  C4  OXE d   1      -0.534  -3.160  -1.316  0.00  0.00    -0.002 A 
ATOM      7  C5  OXE d   1      -0.326  -2.425  -2.487  0.00  0.00    -0.002 A 
ATOM      8  C6  OXE d   1       0.039  -1.086  -2.396  0.00  0.00     0.003 A 
ENDROOT
TORSDOF 0
ENDMDL
