MODEL 1
REMARK minimizedAffinity -5.71235561
REMARK minimizedRMSD -1
REMARK  0 active torsions:
REMARK  status: ('A' for Active; 'I' for Inactive)
ROOT
ATOM      1  C2' OXE d   1       0.715  -0.910   2.113  0.00  0.00     0.078 C 
ATOM      2  C1' OXE d   1       0.434  -0.695  -0.672  0.00  0.00     0.078 C 
ATOM      3  C1  OXE d   1      -0.297   0.305   0.188  0.00  0.00    -0.078 A 
ATOM      4  C2  OXE d   1      -0.192   0.163   1.551  0.00  0.00    -0.078 A 
ATOM      5  C3  OXE d   1      -0.802   1.091   2.390  0.00  0.00     0.003 A 
ATOM      6  C4  OXE d   1      -1.647   2.075   1.863  0.00  0.00    -0.002 A 
ATOM      7  C5  OXE d   1      -1.801   2.212   0.479  0.00  0.00    -0.002 A 
ATOM      8  C6  OXE d   1      -1.100   1.364  -0.372  0.00  0.00     0.003 A 
ENDROOT
TORSDOF 0
ENDMDL
