MODEL 1
REMARK minimizedAffinity -5.22939205
REMARK minimizedRMSD -1
REMARK  0 active torsions:
REMARK  status: ('A' for Active; 'I' for Inactive)
ROOT
ATOM      1  C2' OXE d   1      -0.183  -1.417   2.337  0.00  0.00     0.078 C 
ATOM      2  C1' OXE d   1       0.652  -0.762  -0.262  0.00  0.00     0.078 C 
ATOM      3  C1  OXE d   1      -0.285   0.191   0.438  0.00  0.00    -0.078 A 
ATOM      4  C2  OXE d   1      -0.725  -0.161   1.691  0.00  0.00    -0.078 A 
ATOM      5  C3  OXE d   1      -1.547   0.709   2.402  0.00  0.00     0.003 A 
ATOM      6  C4  OXE d   1      -2.052   1.865   1.794  0.00  0.00    -0.002 A 
ATOM      7  C5  OXE d   1      -1.647   2.222   0.503  0.00  0.00    -0.002 A 
ATOM      8  C6  OXE d   1      -0.733   1.420  -0.171  0.00  0.00     0.003 A 
ENDROOT
TORSDOF 0
ENDMDL
