MODEL 1
REMARK minimizedAffinity -3.08255839
REMARK minimizedRMSD -1
REMARK  0 active torsions:
REMARK  status: ('A' for Active; 'I' for Inactive)
ROOT
ATOM      1  C2' OXE d   1      -2.181   1.963   1.048  0.00  0.00     0.078 C 
ATOM      2  C1' OXE d   1      -0.999   2.643  -1.405  0.00  0.00     0.078 C 
ATOM      3  C1  OXE d   1      -0.516   1.392  -0.715  0.00  0.00    -0.078 A 
ATOM      4  C2  OXE d   1      -1.067   1.092   0.508  0.00  0.00    -0.078 A 
ATOM      5  C3  OXE d   1      -0.698  -0.080   1.162  0.00  0.00     0.003 A 
ATOM      6  C4  OXE d   1       0.340  -0.875   0.660  0.00  0.00    -0.002 A 
ATOM      7  C5  OXE d   1       0.942  -0.566  -0.564  0.00  0.00    -0.002 A 
ATOM      8  C6  OXE d   1       0.497   0.538  -1.283  0.00  0.00     0.003 A 
ENDROOT
TORSDOF 0
ENDMDL
