MODEL 1
REMARK minimizedAffinity -3.43256354
REMARK minimizedRMSD -1
REMARK  0 active torsions:
REMARK  status: ('A' for Active; 'I' for Inactive)
ROOT
ATOM      1  C2' OXE d   1      -2.028   1.914   1.397  0.00  0.00     0.078 C 
ATOM      2  C1' OXE d   1      -0.439   2.819  -0.733  0.00  0.00     0.078 C 
ATOM      3  C1  OXE d   1      -0.197   1.422  -0.219  0.00  0.00    -0.078 A 
ATOM      4  C2  OXE d   1      -0.947   1.004   0.854  0.00  0.00    -0.078 A 
ATOM      5  C3  OXE d   1      -0.802  -0.295   1.333  0.00  0.00     0.003 A 
ATOM      6  C4  OXE d   1       0.207  -1.127   0.832  0.00  0.00    -0.002 A 
ATOM      7  C5  OXE d   1       1.009  -0.706  -0.235  0.00  0.00    -0.002 A 
ATOM      8  C6  OXE d   1       0.792   0.546  -0.798  0.00  0.00     0.003 A 
ENDROOT
TORSDOF 0
ENDMDL
