MODEL 1
REMARK minimizedAffinity -2.98579121
REMARK minimizedRMSD -1
REMARK  0 active torsions:
REMARK  status: ('A' for Active; 'I' for Inactive)
ROOT
ATOM      1  C2' OXE d   1      -2.423   2.092   1.359  0.00  0.00     0.078 C 
ATOM      2  C1' OXE d   1      -0.941   2.297  -1.016  0.00  0.00     0.078 C 
ATOM      3  C1  OXE d   1      -0.733   1.072  -0.160  0.00  0.00    -0.078 A 
ATOM      4  C2  OXE d   1      -1.428   1.003   1.023  0.00  0.00    -0.078 A 
ATOM      5  C3  OXE d   1      -1.315  -0.131   1.823  0.00  0.00     0.003 A 
ATOM      6  C4  OXE d   1      -0.385  -1.129   1.511  0.00  0.00    -0.002 A 
ATOM      7  C5  OXE d   1       0.362  -1.059   0.330  0.00  0.00    -0.002 A 
ATOM      8  C6  OXE d   1       0.169   0.012  -0.536  0.00  0.00     0.003 A 
ENDROOT
TORSDOF 0
ENDMDL
