MODEL 1
REMARK minimizedAffinity -3.90931749
REMARK minimizedRMSD -1
REMARK  0 active torsions:
REMARK  status: ('A' for Active; 'I' for Inactive)
ROOT
ATOM      1  C2' OXE d   1      -2.151   2.664   1.483  0.00  0.00     0.078 C 
ATOM      2  C1' OXE d   1      -0.336   3.316  -0.557  0.00  0.00     0.078 C 
ATOM      3  C1  OXE d   1      -0.357   1.891  -0.063  0.00  0.00    -0.078 A 
ATOM      4  C2  OXE d   1      -1.215   1.592   0.968  0.00  0.00    -0.078 A 
ATOM      5  C3  OXE d   1      -1.313   0.281   1.425  0.00  0.00     0.003 A 
ATOM      6  C4  OXE d   1      -0.437  -0.703   0.951  0.00  0.00    -0.002 A 
ATOM      7  C5  OXE d   1       0.473  -0.410  -0.072  0.00  0.00    -0.002 A 
ATOM      8  C6  OXE d   1       0.496   0.869  -0.617  0.00  0.00     0.003 A 
ENDROOT
TORSDOF 0
ENDMDL
