MODEL 1
REMARK minimizedAffinity -5.67374563
REMARK minimizedRMSD -1
REMARK  0 active torsions:
REMARK  status: ('A' for Active; 'I' for Inactive)
ROOT
ATOM      1  C2' OXE d   1       0.931   0.843  -1.557  0.00  0.00     0.078 C 
ATOM      2  C1' OXE d   1       0.450  -0.344   0.941  0.00  0.00     0.078 C 
ATOM      3  C1  OXE d   1      -0.168   1.005   0.673  0.00  0.00    -0.078 A 
ATOM      4  C2  OXE d   1       0.111   1.600  -0.534  0.00  0.00    -0.078 A 
ATOM      5  C3  OXE d   1      -0.477   2.820  -0.854  0.00  0.00     0.003 A 
ATOM      6  C4  OXE d   1      -1.226   3.518   0.101  0.00  0.00    -0.002 A 
ATOM      7  C5  OXE d   1      -1.489   2.948   1.352  0.00  0.00    -0.002 A 
ATOM      8  C6  OXE d   1      -1.004   1.677   1.637  0.00  0.00     0.003 A 
ENDROOT
TORSDOF 0
ENDMDL
