MODEL 1
REMARK minimizedAffinity -3.30082297
REMARK minimizedRMSD -1
REMARK  0 active torsions:
REMARK  status: ('A' for Active; 'I' for Inactive)
ROOT
ATOM      1  C2' OXE d   1       0.256   1.897  -1.313  0.00  0.00     0.078 C 
ATOM      2  C1' OXE d   1       0.918  -0.766  -0.724  0.00  0.00     0.078 C 
ATOM      3  C1  OXE d   1       0.206   0.033   0.338  0.00  0.00    -0.078 A 
ATOM      4  C2  OXE d   1      -0.073   1.349   0.059  0.00  0.00    -0.078 A 
ATOM      5  C3  OXE d   1      -0.777   2.116   0.983  0.00  0.00     0.003 A 
ATOM      6  C4  OXE d   1      -1.068   1.604   2.253  0.00  0.00    -0.002 A 
ATOM      7  C5  OXE d   1      -0.758   0.278   2.573  0.00  0.00    -0.002 A 
ATOM      8  C6  OXE d   1      -0.161  -0.532   1.613  0.00  0.00     0.003 A 
ENDROOT
TORSDOF 0
ENDMDL
