MODEL 1
REMARK minimizedAffinity -4.00541925
REMARK minimizedRMSD -1
REMARK  0 active torsions:
REMARK  status: ('A' for Active; 'I' for Inactive)
ROOT
ATOM      1  C2' OXE d   1       0.740  -0.644   2.067  0.00  0.00     0.078 C 
ATOM      2  C1' OXE d   1       0.625  -0.485  -0.733  0.00  0.00     0.078 C 
ATOM      3  C1  OXE d   1      -0.245   0.456   0.061  0.00  0.00    -0.078 A 
ATOM      4  C2  OXE d   1      -0.217   0.340   1.430  0.00  0.00    -0.078 A 
ATOM      5  C3  OXE d   1      -0.959   1.221   2.212  0.00  0.00     0.003 A 
ATOM      6  C4  OXE d   1      -1.849   2.121   1.615  0.00  0.00    -0.002 A 
ATOM      7  C5  OXE d   1      -1.923   2.229   0.223  0.00  0.00    -0.002 A 
ATOM      8  C6  OXE d   1      -1.098   1.435  -0.567  0.00  0.00     0.003 A 
ENDROOT
TORSDOF 0
ENDMDL
