MODEL 1
REMARK minimizedAffinity -4.142766
REMARK minimizedRMSD -1
REMARK  0 active torsions:
REMARK  status: ('A' for Active; 'I' for Inactive)
ROOT
ATOM      1  C2' OXE d   1       0.361  -1.194   1.941  0.00  0.00     0.078 C 
ATOM      2  C1' OXE d   1       0.446  -0.899  -0.850  0.00  0.00     0.078 C 
ATOM      3  C1  OXE d   1      -0.346   0.112  -0.059  0.00  0.00    -0.078 A 
ATOM      4  C2  OXE d   1      -0.421  -0.067   1.301  0.00  0.00    -0.078 A 
ATOM      5  C3  OXE d   1      -1.093   0.867   2.083  0.00  0.00     0.003 A 
ATOM      6  C4  OXE d   1      -1.823   1.901   1.483  0.00  0.00    -0.002 A 
ATOM      7  C5  OXE d   1      -1.793   2.078   0.096  0.00  0.00    -0.002 A 
ATOM      8  C6  OXE d   1      -1.027   1.219  -0.684  0.00  0.00     0.003 A 
ENDROOT
TORSDOF 0
ENDMDL
