MODEL 1
REMARK minimizedAffinity -5.93101358
REMARK minimizedRMSD -1
REMARK  0 active torsions:
REMARK  status: ('A' for Active; 'I' for Inactive)
ROOT
ATOM      1  C   UNL d   1      -0.760   3.710  -0.390  0.00  0.00    -0.002 A 
ATOM      2  C1  UNL d   1       0.063   3.033  -1.279  0.00  0.00     0.010 A 
ATOM      3  C2  UNL d   1       0.374   1.687  -1.074  0.00  0.00     0.041 A 
ATOM      4  C3  UNL d   1      -0.161   1.027   0.049  0.00  0.00    -0.075 A 
ATOM      5  S   UNL d   1       0.083  -0.619   0.501  0.00  0.00     0.015 SA
ATOM      6  C4  UNL d   1      -0.899  -0.462   1.885  0.00  0.00     0.022 A 
ATOM      7  C5  UNL d   1      -1.409   0.808   2.014  0.00  0.00     0.026 A 
ATOM      8  C6  UNL d   1      -0.993   1.687   0.958  0.00  0.00    -0.082 A 
ATOM      9  C7  UNL d   1      -1.289   3.051   0.723  0.00  0.00     0.045 A 
ENDROOT
TORSDOF 0
ENDMDL
