MODEL 1
REMARK minimizedAffinity -3.08459616
REMARK minimizedRMSD -1
REMARK  0 active torsions:
REMARK  status: ('A' for Active; 'I' for Inactive)
ROOT
ATOM      1  C   UNL d   1      -1.694   2.622   1.464  0.00  0.00    -0.002 A 
ATOM      2  C1  UNL d   1      -1.196   3.182   0.296  0.00  0.00     0.010 A 
ATOM      3  C2  UNL d   1      -0.450   2.412  -0.598  0.00  0.00     0.041 A 
ATOM      4  C3  UNL d   1      -0.212   1.057  -0.298  0.00  0.00    -0.075 A 
ATOM      5  S   UNL d   1       0.674  -0.078  -1.246  0.00  0.00     0.015 SA
ATOM      6  C4  UNL d   1       0.412  -1.334  -0.123  0.00  0.00     0.022 A 
ATOM      7  C5  UNL d   1      -0.332  -0.914   0.955  0.00  0.00     0.026 A 
ATOM      8  C6  UNL d   1      -0.704   0.470   0.872  0.00  0.00    -0.082 A 
ATOM      9  C7  UNL d   1      -1.456   1.277   1.759  0.00  0.00     0.045 A 
ENDROOT
TORSDOF 0
ENDMDL
