MODEL 1
REMARK minimizedAffinity -1.87892568
REMARK minimizedRMSD -1
REMARK  0 active torsions:
REMARK  status: ('A' for Active; 'I' for Inactive)
ROOT
ATOM      1  C   UNL d   1      -1.591   1.151   1.583  0.00  0.00    -0.002 A 
ATOM      2  C1  UNL d   1      -1.536   2.109   0.581  0.00  0.00     0.010 A 
ATOM      3  C2  UNL d   1      -0.775   1.891  -0.569  0.00  0.00     0.041 A 
ATOM      4  C3  UNL d   1      -0.066   0.681  -0.698  0.00  0.00    -0.075 A 
ATOM      5  S   UNL d   1       0.930   0.195  -2.019  0.00  0.00     0.015 SA
ATOM      6  C4  UNL d   1       1.305  -1.297  -1.284  0.00  0.00     0.022 A 
ATOM      7  C5  UNL d   1       0.694  -1.437  -0.061  0.00  0.00     0.026 A 
ATOM      8  C6  UNL d   1      -0.107  -0.300   0.297  0.00  0.00    -0.082 A 
ATOM      9  C7  UNL d   1      -0.886  -0.048   1.452  0.00  0.00     0.045 A 
ENDROOT
TORSDOF 0
ENDMDL
