MODEL 1
REMARK minimizedAffinity 2.02355385
REMARK minimizedRMSD -1
REMARK  0 active torsions:
REMARK  status: ('A' for Active; 'I' for Inactive)
ROOT
ATOM      1  C   UNL d   1      -0.403   0.649   0.327  0.00  0.00    -0.002 A 
ATOM      2  C1  UNL d   1      -0.249  -0.309   1.320  0.00  0.00     0.010 A 
ATOM      3  C2  UNL d   1       0.140  -1.610   0.997  0.00  0.00     0.041 A 
ATOM      4  C3  UNL d   1       0.375  -1.936  -0.353  0.00  0.00    -0.075 A 
ATOM      5  S   UNL d   1       0.860  -3.466  -0.984  0.00  0.00     0.015 SA
ATOM      6  C4  UNL d   1       0.874  -2.884  -2.586  0.00  0.00     0.022 A 
ATOM      7  C5  UNL d   1       0.520  -1.557  -2.656  0.00  0.00     0.026 A 
ATOM      8  C6  UNL d   1       0.227  -0.989  -1.371  0.00  0.00    -0.082 A 
ATOM      9  C7  UNL d   1      -0.169   0.322  -1.011  0.00  0.00     0.045 A 
ENDROOT
TORSDOF 0
ENDMDL
