MODEL 1
REMARK minimizedAffinity -2.78950787
REMARK minimizedRMSD -1
REMARK  0 active torsions:
REMARK  status: ('A' for Active; 'I' for Inactive)
ROOT
ATOM      1  C   UNL d   1      -1.506   1.439   2.249  0.00  0.00    -0.002 A 
ATOM      2  C1  UNL d   1      -1.681   2.151   1.071  0.00  0.00     0.010 A 
ATOM      3  C2  UNL d   1      -1.166   1.668  -0.134  0.00  0.00     0.041 A 
ATOM      4  C3  UNL d   1      -0.467   0.445  -0.135  0.00  0.00    -0.075 A 
ATOM      5  S   UNL d   1       0.251  -0.341  -1.491  0.00  0.00     0.015 SA
ATOM      6  C4  UNL d   1       0.806  -1.641  -0.539  0.00  0.00     0.022 A 
ATOM      7  C5  UNL d   1       0.461  -1.495   0.784  0.00  0.00     0.026 A 
ATOM      8  C6  UNL d   1      -0.278  -0.291   1.038  0.00  0.00    -0.082 A 
ATOM      9  C7  UNL d   1      -0.812   0.226   2.244  0.00  0.00     0.045 A 
ENDROOT
TORSDOF 0
ENDMDL
