MODEL 1
REMARK minimizedAffinity -3.1351831
REMARK minimizedRMSD -1
REMARK  0 active torsions:
REMARK  status: ('A' for Active; 'I' for Inactive)
ROOT
ATOM      1  C   UNL d   1      -2.075   0.937   1.796  0.00  0.00    -0.002 A 
ATOM      2  C1  UNL d   1      -1.979   1.918   0.820  0.00  0.00     0.010 A 
ATOM      3  C2  UNL d   1      -1.057   1.796  -0.222  0.00  0.00     0.041 A 
ATOM      4  C3  UNL d   1      -0.226   0.659  -0.267  0.00  0.00    -0.075 A 
ATOM      5  S   UNL d   1       0.976   0.297  -1.448  0.00  0.00     0.015 SA
ATOM      6  C4  UNL d   1       1.389  -1.170  -0.686  0.00  0.00     0.022 A 
ATOM      7  C5  UNL d   1       0.639  -1.393   0.445  0.00  0.00     0.026 A 
ATOM      8  C6  UNL d   1      -0.305  -0.343   0.704  0.00  0.00    -0.082 A 
ATOM      9  C7  UNL d   1      -1.250  -0.190   1.748  0.00  0.00     0.045 A 
ENDROOT
TORSDOF 0
ENDMDL
