MODEL 1
REMARK minimizedAffinity -1.64460289
REMARK minimizedRMSD -1
REMARK  0 active torsions:
REMARK  status: ('A' for Active; 'I' for Inactive)
ROOT
ATOM      1  C   UNL d   1      -1.358   1.457   0.870  0.00  0.00    -0.002 A 
ATOM      2  C1  UNL d   1      -0.481   0.764   1.694  0.00  0.00     0.010 A 
ATOM      3  C2  UNL d   1       0.316  -0.261   1.180  0.00  0.00     0.041 A 
ATOM      4  C3  UNL d   1       0.218  -0.580  -0.189  0.00  0.00    -0.075 A 
ATOM      5  S   UNL d   1       1.096  -1.796  -1.038  0.00  0.00     0.015 SA
ATOM      6  C4  UNL d   1       0.329  -1.424  -2.514  0.00  0.00     0.022 A 
ATOM      7  C5  UNL d   1      -0.578  -0.400  -2.380  0.00  0.00     0.026 A 
ATOM      8  C6  UNL d   1      -0.657   0.104  -1.038  0.00  0.00    -0.082 A 
ATOM      9  C7  UNL d   1      -1.452   1.137  -0.487  0.00  0.00     0.045 A 
ENDROOT
TORSDOF 0
ENDMDL
