MODEL 1
REMARK minimizedAffinity -1.63303792
REMARK minimizedRMSD -1
REMARK  0 active torsions:
REMARK  status: ('A' for Active; 'I' for Inactive)
ROOT
ATOM      1  C   UNL d   1      -2.128   2.282   0.133  0.00  0.00    -0.002 A 
ATOM      2  C1  UNL d   1      -2.205   2.046   1.498  0.00  0.00     0.010 A 
ATOM      3  C2  UNL d   1      -1.449   1.030   2.087  0.00  0.00     0.041 A 
ATOM      4  C3  UNL d   1      -0.605   0.249   1.274  0.00  0.00    -0.075 A 
ATOM      5  S   UNL d   1       0.413  -1.048   1.776  0.00  0.00     0.015 SA
ATOM      6  C4  UNL d   1       0.976  -1.319   0.190  0.00  0.00     0.022 A 
ATOM      7  C5  UNL d   1       0.411  -0.450  -0.713  0.00  0.00     0.026 A 
ATOM      8  C6  UNL d   1      -0.509   0.468  -0.104  0.00  0.00    -0.082 A 
ATOM      9  C7  UNL d   1      -1.289   1.505  -0.671  0.00  0.00     0.045 A 
ENDROOT
TORSDOF 0
ENDMDL
