MODEL 1
REMARK minimizedAffinity -1.01001132
REMARK minimizedRMSD -1
REMARK  0 active torsions:
REMARK  status: ('A' for Active; 'I' for Inactive)
ROOT
ATOM      1  C   UNL d   1      -2.237   1.163   1.968  0.00  0.00    -0.002 A 
ATOM      2  C1  UNL d   1      -2.077   2.213   1.075  0.00  0.00     0.010 A 
ATOM      3  C2  UNL d   1      -1.145   2.126   0.038  0.00  0.00     0.041 A 
ATOM      4  C3  UNL d   1      -0.372   0.956  -0.088  0.00  0.00    -0.075 A 
ATOM      5  S   UNL d   1       0.829   0.626  -1.280  0.00  0.00     0.015 SA
ATOM      6  C4  UNL d   1       1.156  -0.916  -0.632  0.00  0.00     0.022 A 
ATOM      7  C5  UNL d   1       0.378  -1.189   0.467  0.00  0.00     0.026 A 
ATOM      8  C6  UNL d   1      -0.516  -0.115   0.799  0.00  0.00    -0.082 A 
ATOM      9  C7  UNL d   1      -1.468   0.003   1.840  0.00  0.00     0.045 A 
ENDROOT
TORSDOF 0
ENDMDL
