MODEL 1
REMARK minimizedAffinity -3.22708249
REMARK minimizedRMSD -1
REMARK  0 active torsions:
REMARK  status: ('A' for Active; 'I' for Inactive)
ROOT
ATOM      1  C   UNL d   1      -1.093   3.679   0.402  0.00  0.00    -0.002 A 
ATOM      2  C1  UNL d   1      -0.267   3.270  -0.635  0.00  0.00     0.010 A 
ATOM      3  C2  UNL d   1       0.091   1.928  -0.772  0.00  0.00     0.041 A 
ATOM      4  C3  UNL d   1      -0.401   0.993   0.160  0.00  0.00    -0.075 A 
ATOM      5  S   UNL d   1      -0.097  -0.704   0.191  0.00  0.00     0.015 SA
ATOM      6  C4  UNL d   1      -1.057  -0.927   1.581  0.00  0.00     0.022 A 
ATOM      7  C5  UNL d   1      -1.604   0.254   2.025  0.00  0.00     0.026 A 
ATOM      8  C6  UNL d   1      -1.235   1.380   1.213  0.00  0.00    -0.082 A 
ATOM      9  C7  UNL d   1      -1.579   2.749   1.325  0.00  0.00     0.045 A 
ENDROOT
TORSDOF 0
ENDMDL
