MODEL 1
REMARK minimizedAffinity -1.63367832
REMARK minimizedRMSD -1
REMARK  0 active torsions:
REMARK  status: ('A' for Active; 'I' for Inactive)
ROOT
ATOM      1  C   UNL d   1      -2.171   1.055   1.449  0.00  0.00    -0.002 A 
ATOM      2  C1  UNL d   1      -1.302   2.101   1.177  0.00  0.00     0.010 A 
ATOM      3  C2  UNL d   1      -0.119   1.876   0.470  0.00  0.00     0.041 A 
ATOM      4  C3  UNL d   1       0.178   0.569   0.037  0.00  0.00    -0.075 A 
ATOM      5  S   UNL d   1       1.568   0.057  -0.845  0.00  0.00     0.015 SA
ATOM      6  C4  UNL d   1       1.040  -1.563  -0.882  0.00  0.00     0.022 A 
ATOM      7  C5  UNL d   1      -0.165  -1.727  -0.242  0.00  0.00     0.026 A 
ATOM      8  C6  UNL d   1      -0.682  -0.501   0.298  0.00  0.00    -0.082 A 
ATOM      9  C7  UNL d   1      -1.874  -0.240   1.017  0.00  0.00     0.045 A 
ENDROOT
TORSDOF 0
ENDMDL
