MODEL 1
REMARK minimizedAffinity 0.255159318
REMARK minimizedRMSD -1
REMARK  0 active torsions:
REMARK  status: ('A' for Active; 'I' for Inactive)
ROOT
ATOM      1  C   UNL d   1      -0.865   0.850   0.002  0.00  0.00    -0.002 A 
ATOM      2  C1  UNL d   1      -0.376   0.086   1.052  0.00  0.00     0.010 A 
ATOM      3  C2  UNL d   1       0.293  -1.115   0.805  0.00  0.00     0.041 A 
ATOM      4  C3  UNL d   1       0.464  -1.538  -0.528  0.00  0.00    -0.075 A 
ATOM      5  S   UNL d   1       1.252  -2.973  -1.070  0.00  0.00     0.015 SA
ATOM      6  C4  UNL d   1       0.958  -2.605  -2.708  0.00  0.00     0.022 A 
ATOM      7  C5  UNL d   1       0.276  -1.420  -2.856  0.00  0.00     0.026 A 
ATOM      8  C6  UNL d   1      -0.019  -0.785  -1.602  0.00  0.00    -0.082 A 
ATOM      9  C7  UNL d   1      -0.693   0.427  -1.319  0.00  0.00     0.045 A 
ENDROOT
TORSDOF 0
ENDMDL
