MODEL 1
REMARK minimizedAffinity 25.6066837
REMARK minimizedRMSD -1
REMARK  0 active torsions:
REMARK  status: ('A' for Active; 'I' for Inactive)
ROOT
ATOM      1  C   UNL d   1      -1.221  -1.705  -0.167  0.00  0.00     0.124 A 
ATOM      2  C1  UNL d   1      -0.089  -1.951   0.597  0.00  0.00     0.062 A 
ATOM      3  C2  UNL d   1       1.177  -1.702   0.073  0.00  0.00     0.162 A 
ATOM      4  C3  UNL d   1       1.316  -1.203  -1.222  0.00  0.00    -0.034 A 
ATOM      5  C4  UNL d   1       0.172  -0.959  -1.984  0.00  0.00     0.162 A 
ATOM      6  C5  UNL d   1      -1.090  -1.210  -1.456  0.00  0.00     0.062 A 
ATOM      7  F   UNL d   1      -2.183  -0.971  -2.195  0.00  0.00    -0.097 F 
ATOM      8  F1  UNL d   1       0.271  -0.479  -3.233  0.00  0.00    -0.096 F 
ATOM      9  I   UNL d   1       3.206  -0.830  -2.009  0.00  0.00    -0.060 I 
ATOM     10  F2  UNL d   1       2.254  -1.949   0.833  0.00  0.00    -0.096 F 
ATOM     11  F3  UNL d   1      -0.213  -2.431   1.843  0.00  0.00    -0.097 F 
ATOM     12  F4  UNL d   1      -2.437  -1.947   0.340  0.00  0.00    -0.092 F 
ENDROOT
TORSDOF 0
ENDMDL
