MODEL 1
REMARK minimizedAffinity 30.0639324
REMARK minimizedRMSD -1
REMARK  0 active torsions:
REMARK  status: ('A' for Active; 'I' for Inactive)
ROOT
ATOM      1  C   UNL d   1      -2.755   2.123  -4.574  0.00  0.00     0.124 A 
ATOM      2  C1  UNL d   1      -2.325   3.391  -4.210  0.00  0.00     0.062 A 
ATOM      3  C2  UNL d   1      -3.132   4.499  -4.448  0.00  0.00     0.162 A 
ATOM      4  C3  UNL d   1      -4.380   4.344  -5.053  0.00  0.00    -0.034 A 
ATOM      5  C4  UNL d   1      -4.806   3.065  -5.416  0.00  0.00     0.162 A 
ATOM      6  C5  UNL d   1      -3.995   1.961  -5.176  0.00  0.00     0.062 A 
ATOM      7  F   UNL d   1      -4.412   0.736  -5.528  0.00  0.00    -0.097 F 
ATOM      8  F1  UNL d   1      -6.000   2.880  -5.999  0.00  0.00    -0.096 F 
ATOM      9  I   UNL d   1      -5.591   5.999  -5.411  0.00  0.00    -0.060 I 
ATOM     10  F2  UNL d   1      -2.691   5.713  -4.087  0.00  0.00    -0.096 F 
ATOM     11  F3  UNL d   1      -1.127   3.550  -3.629  0.00  0.00    -0.097 F 
ATOM     12  F4  UNL d   1      -1.975   1.058  -4.344  0.00  0.00    -0.092 F 
ENDROOT
TORSDOF 0
ENDMDL
