MODEL 1
REMARK minimizedAffinity 21.7188816
REMARK minimizedRMSD -1
REMARK  0 active torsions:
REMARK  status: ('A' for Active; 'I' for Inactive)
ROOT
ATOM      1  C   UNL d   1       3.850   4.130   4.780  0.00  0.00     0.124 A 
ATOM      2  C1  UNL d   1       4.937   3.386   4.342  0.00  0.00     0.062 A 
ATOM      3  C2  UNL d   1       4.928   2.811   3.075  0.00  0.00     0.162 A 
ATOM      4  C3  UNL d   1       3.827   2.978   2.234  0.00  0.00    -0.034 A 
ATOM      5  C4  UNL d   1       2.737   3.727   2.681  0.00  0.00     0.162 A 
ATOM      6  C5  UNL d   1       2.751   4.300   3.949  0.00  0.00     0.062 A 
ATOM      7  F   UNL d   1       1.700   5.018   4.370  0.00  0.00    -0.097 F 
ATOM      8  F1  UNL d   1       1.663   3.908   1.899  0.00  0.00    -0.096 F 
ATOM      9  I   UNL d   1       3.809   2.120   0.338  0.00  0.00    -0.060 I 
ATOM     10  F2  UNL d   1       5.992   2.098   2.678  0.00  0.00    -0.096 F 
ATOM     11  F3  UNL d   1       6.000   3.220   5.143  0.00  0.00    -0.097 F 
ATOM     12  F4  UNL d   1       3.862   4.681   6.000  0.00  0.00    -0.092 F 
ENDROOT
TORSDOF 0
ENDMDL
