MODEL 1
REMARK minimizedAffinity 27.2360973
REMARK minimizedRMSD -1
REMARK  0 active torsions:
REMARK  status: ('A' for Active; 'I' for Inactive)
ROOT
ATOM      1  C   UNL d   1       2.584   2.254  -0.086  0.00  0.00     0.124 A 
ATOM      2  C1  UNL d   1       3.829   2.858  -0.191  0.00  0.00     0.062 A 
ATOM      3  C2  UNL d   1       4.806   2.310  -1.017  0.00  0.00     0.162 A 
ATOM      4  C3  UNL d   1       4.542   1.151  -1.746  0.00  0.00    -0.034 A 
ATOM      5  C4  UNL d   1       3.288   0.548  -1.635  0.00  0.00     0.162 A 
ATOM      6  C5  UNL d   1       2.315   1.100  -0.808  0.00  0.00     0.062 A 
ATOM      7  F   UNL d   1       1.112   0.514  -0.708  0.00  0.00    -0.097 F 
ATOM      8  F1  UNL d   1       3.000  -0.568  -2.322  0.00  0.00    -0.096 F 
ATOM      9  I   UNL d   1       6.000   0.328  -2.982  0.00  0.00    -0.060 I 
ATOM     10  F2  UNL d   1       6.000   2.916  -1.099  0.00  0.00    -0.096 F 
ATOM     11  F3  UNL d   1       4.092   3.973   0.506  0.00  0.00    -0.097 F 
ATOM     12  F4  UNL d   1       1.646   2.783   0.710  0.00  0.00    -0.092 F 
ENDROOT
TORSDOF 0
ENDMDL
