MODEL 1
REMARK minimizedAffinity 30.7762356
REMARK minimizedRMSD -1
REMARK  0 active torsions:
REMARK  status: ('A' for Active; 'I' for Inactive)
ROOT
ATOM      1  C   UNL d   1      -3.138   1.987  -3.751  0.00  0.00     0.124 A 
ATOM      2  C1  UNL d   1      -3.057   3.335  -3.431  0.00  0.00     0.062 A 
ATOM      3  C2  UNL d   1      -3.323   3.764  -2.134  0.00  0.00     0.162 A 
ATOM      4  C3  UNL d   1      -3.671   2.843  -1.146  0.00  0.00    -0.034 A 
ATOM      5  C4  UNL d   1      -3.752   1.489  -1.475  0.00  0.00     0.162 A 
ATOM      6  C5  UNL d   1      -3.485   1.065  -2.773  0.00  0.00     0.062 A 
ATOM      7  F   UNL d   1      -3.564  -0.238  -3.080  0.00  0.00    -0.097 F 
ATOM      8  F1  UNL d   1      -4.084   0.577  -0.550  0.00  0.00    -0.096 F 
ATOM      9  I   UNL d   1      -4.069   3.480   0.795  0.00  0.00    -0.060 I 
ATOM     10  F2  UNL d   1      -3.237   5.073  -1.854  0.00  0.00    -0.096 F 
ATOM     11  F3  UNL d   1      -2.723   4.227  -4.375  0.00  0.00    -0.097 F 
ATOM     12  F4  UNL d   1      -2.883   1.577  -5.000  0.00  0.00    -0.092 F 
ENDROOT
TORSDOF 0
ENDMDL
