MODEL 1
REMARK minimizedAffinity 20.9177856
REMARK minimizedRMSD -1
REMARK  0 active torsions:
REMARK  status: ('A' for Active; 'I' for Inactive)
ROOT
ATOM      1  C   UNL d   1      -2.350   0.542  -2.710  0.00  0.00     0.124 A 
ATOM      2  C1  UNL d   1      -3.046   0.123  -1.584  0.00  0.00     0.062 A 
ATOM      3  C2  UNL d   1      -2.531  -0.890  -0.780  0.00  0.00     0.162 A 
ATOM      4  C3  UNL d   1      -1.313  -1.490  -1.097  0.00  0.00    -0.034 A 
ATOM      5  C4  UNL d   1      -0.619  -1.064  -2.231  0.00  0.00     0.162 A 
ATOM      6  C5  UNL d   1      -1.137  -0.051  -3.032  0.00  0.00     0.062 A 
ATOM      7  F   UNL d   1      -0.464   0.353  -4.119  0.00  0.00    -0.097 F 
ATOM      8  F1  UNL d   1       0.555  -1.619  -2.566  0.00  0.00    -0.096 F 
ATOM      9  I   UNL d   1      -0.540  -3.004   0.103  0.00  0.00    -0.060 I 
ATOM     10  F2  UNL d   1      -3.225  -1.275   0.301  0.00  0.00    -0.096 F 
ATOM     11  F3  UNL d   1      -4.218   0.694  -1.271  0.00  0.00    -0.097 F 
ATOM     12  F4  UNL d   1      -2.848   1.516  -3.482  0.00  0.00    -0.092 F 
ENDROOT
TORSDOF 0
ENDMDL
