MODEL 1
REMARK minimizedAffinity 28.3726444
REMARK minimizedRMSD -1
REMARK  0 active torsions:
REMARK  status: ('A' for Active; 'I' for Inactive)
ROOT
ATOM      1  C   UNL d   1      -1.188  -2.832  -1.593  0.00  0.00     0.124 A 
ATOM      2  C1  UNL d   1      -1.032  -2.139  -0.400  0.00  0.00     0.062 A 
ATOM      3  C2  UNL d   1      -1.795  -1.003  -0.146  0.00  0.00     0.162 A 
ATOM      4  C3  UNL d   1      -2.721  -0.551  -1.086  0.00  0.00    -0.034 A 
ATOM      5  C4  UNL d   1      -2.871  -1.253  -2.284  0.00  0.00     0.162 A 
ATOM      6  C5  UNL d   1      -2.106  -2.388  -2.533  0.00  0.00     0.062 A 
ATOM      7  F   UNL d   1      -2.258  -3.056  -3.686  0.00  0.00    -0.097 F 
ATOM      8  F1  UNL d   1      -3.752  -0.847  -3.210  0.00  0.00    -0.096 F 
ATOM      9  I   UNL d   1      -3.862   1.147  -0.710  0.00  0.00    -0.060 I 
ATOM     10  F2  UNL d   1      -1.624  -0.353   1.015  0.00  0.00    -0.096 F 
ATOM     11  F3  UNL d   1      -0.145  -2.565   0.510  0.00  0.00    -0.097 F 
ATOM     12  F4  UNL d   1      -0.452  -3.924  -1.835  0.00  0.00    -0.092 F 
ENDROOT
TORSDOF 0
ENDMDL
