MODEL 1
REMARK minimizedAffinity 29.3696404
REMARK minimizedRMSD -1
REMARK  0 active torsions:
REMARK  status: ('A' for Active; 'I' for Inactive)
ROOT
ATOM      1  C   UNL d   1       2.818   2.796   0.008  0.00  0.00     0.124 A 
ATOM      2  C1  UNL d   1       2.569   1.814  -0.942  0.00  0.00     0.062 A 
ATOM      3  C2  UNL d   1       3.476   1.594  -1.975  0.00  0.00     0.162 A 
ATOM      4  C3  UNL d   1       4.640   2.357  -2.063  0.00  0.00    -0.034 A 
ATOM      5  C4  UNL d   1       4.883   3.343  -1.105  0.00  0.00     0.162 A 
ATOM      6  C5  UNL d   1       3.974   3.559  -0.075  0.00  0.00     0.062 A 
ATOM      7  F   UNL d   1       4.215   4.508   0.842  0.00  0.00    -0.097 F 
ATOM      8  F1  UNL d   1       5.993   4.094  -1.161  0.00  0.00    -0.096 F 
ATOM      9  I   UNL d   1       5.998   2.031  -3.606  0.00  0.00    -0.060 I 
ATOM     10  F2  UNL d   1       3.210   0.639  -2.878  0.00  0.00    -0.096 F 
ATOM     11  F3  UNL d   1       1.452   1.076  -0.864  0.00  0.00    -0.097 F 
ATOM     12  F4  UNL d   1       1.943   3.006   1.000  0.00  0.00    -0.092 F 
ENDROOT
TORSDOF 0
ENDMDL
