MODEL 1
REMARK minimizedAffinity 32.1473274
REMARK minimizedRMSD -1
REMARK  0 active torsions:
REMARK  status: ('A' for Active; 'I' for Inactive)
ROOT
ATOM      1  C   UNL d   1      -1.714  -1.106  -0.687  0.00  0.00     0.124 A 
ATOM      2  C1  UNL d   1      -1.465  -1.708   0.538  0.00  0.00     0.062 A 
ATOM      3  C2  UNL d   1      -2.502  -1.900   1.447  0.00  0.00     0.162 A 
ATOM      4  C3  UNL d   1      -3.798  -1.489   1.133  0.00  0.00    -0.034 A 
ATOM      5  C4  UNL d   1      -4.040  -0.884  -0.101  0.00  0.00     0.162 A 
ATOM      6  C5  UNL d   1      -3.000  -0.695  -1.006  0.00  0.00     0.062 A 
ATOM      7  F   UNL d   1      -3.242  -0.113  -2.190  0.00  0.00    -0.097 F 
ATOM      8  F1  UNL d   1      -5.273  -0.477  -0.435  0.00  0.00    -0.096 F 
ATOM      9  I   UNL d   1      -5.350  -1.774   2.490  0.00  0.00    -0.060 I 
ATOM     10  F2  UNL d   1      -2.233  -2.484   2.624  0.00  0.00    -0.096 F 
ATOM     11  F3  UNL d   1      -0.223  -2.106   0.849  0.00  0.00    -0.097 F 
ATOM     12  F4  UNL d   1      -0.714  -0.922  -1.560  0.00  0.00    -0.092 F 
ENDROOT
TORSDOF 0
ENDMDL
