MODEL 1
REMARK minimizedAffinity 20.5573025
REMARK minimizedRMSD -1
REMARK  0 active torsions:
REMARK  status: ('A' for Active; 'I' for Inactive)
ROOT
ATOM      1  C   UNL d   1       4.387   3.004   2.530  0.00  0.00     0.124 A 
ATOM      2  C1  UNL d   1       3.328   3.860   2.262  0.00  0.00     0.062 A 
ATOM      3  C2  UNL d   1       2.852   4.716   3.251  0.00  0.00     0.162 A 
ATOM      4  C3  UNL d   1       3.436   4.721   4.518  0.00  0.00    -0.034 A 
ATOM      5  C4  UNL d   1       4.500   3.856   4.781  0.00  0.00     0.162 A 
ATOM      6  C5  UNL d   1       4.972   3.003   3.789  0.00  0.00     0.062 A 
ATOM      7  F   UNL d   1       5.995   2.176   4.050  0.00  0.00    -0.097 F 
ATOM      8  F1  UNL d   1       5.084   3.835   5.988  0.00  0.00    -0.096 F 
ATOM      9  I   UNL d   1       2.727   5.999   6.000  0.00  0.00    -0.060 I 
ATOM     10  F2  UNL d   1       1.828   5.533   2.964  0.00  0.00    -0.096 F 
ATOM     11  F3  UNL d   1       2.761   3.862   1.047  0.00  0.00    -0.097 F 
ATOM     12  F4  UNL d   1       4.842   2.180   1.577  0.00  0.00    -0.092 F 
ENDROOT
TORSDOF 0
ENDMDL
