MODEL 1
REMARK minimizedAffinity 18.8276997
REMARK minimizedRMSD -1
REMARK  0 active torsions:
REMARK  status: ('A' for Active; 'I' for Inactive)
ROOT
ATOM      1  C   UNL d   1      -3.082  -2.321   1.528  0.00  0.00     0.124 A 
ATOM      2  C1  UNL d   1      -3.418  -1.423   0.524  0.00  0.00     0.062 A 
ATOM      3  C2  UNL d   1      -2.440  -0.945  -0.344  0.00  0.00     0.162 A 
ATOM      4  C3  UNL d   1      -1.117  -1.365  -0.213  0.00  0.00    -0.034 A 
ATOM      5  C4  UNL d   1      -0.786  -2.268   0.799  0.00  0.00     0.162 A 
ATOM      6  C5  UNL d   1      -1.767  -2.743   1.664  0.00  0.00     0.062 A 
ATOM      7  F   UNL d   1      -1.440  -3.610   2.633  0.00  0.00    -0.097 F 
ATOM      8  F1  UNL d   1       0.477  -2.693   0.953  0.00  0.00    -0.096 F 
ATOM      9  I   UNL d   1       0.348  -0.653  -1.509  0.00  0.00    -0.060 I 
ATOM     10  F2  UNL d   1      -2.794  -0.078  -1.305  0.00  0.00    -0.096 F 
ATOM     11  F3  UNL d   1      -4.687  -1.013   0.391  0.00  0.00    -0.097 F 
ATOM     12  F4  UNL d   1      -4.024  -2.778   2.362  0.00  0.00    -0.092 F 
ENDROOT
TORSDOF 0
ENDMDL
