MODEL 1
REMARK minimizedAffinity 25.5009136
REMARK minimizedRMSD -1
REMARK  0 active torsions:
REMARK  status: ('A' for Active; 'I' for Inactive)
ROOT
ATOM      1  C   UNL d   1      -1.365  -2.119   3.612  0.00  0.00     0.124 A 
ATOM      2  C1  UNL d   1      -1.670  -2.031   2.261  0.00  0.00     0.062 A 
ATOM      3  C2  UNL d   1      -2.992  -2.116   1.835  0.00  0.00     0.162 A 
ATOM      4  C3  UNL d   1      -4.020  -2.290   2.762  0.00  0.00    -0.034 A 
ATOM      5  C4  UNL d   1      -3.705  -2.379   4.119  0.00  0.00     0.162 A 
ATOM      6  C5  UNL d   1      -2.382  -2.293   4.540  0.00  0.00     0.062 A 
ATOM      7  F   UNL d   1      -2.090  -2.378   5.845  0.00  0.00    -0.097 F 
ATOM      8  F1  UNL d   1      -4.669  -2.546   5.036  0.00  0.00    -0.096 F 
ATOM      9  I   UNL d   1      -5.999  -2.418   2.129  0.00  0.00    -0.060 I 
ATOM     10  F2  UNL d   1      -3.258  -2.028   0.523  0.00  0.00    -0.096 F 
ATOM     11  F3  UNL d   1      -0.688  -1.864   1.363  0.00  0.00    -0.097 F 
ATOM     12  F4  UNL d   1      -0.091  -2.037   4.019  0.00  0.00    -0.092 F 
ENDROOT
TORSDOF 0
ENDMDL
