MODEL 1
REMARK minimizedAffinity 25.7247581
REMARK minimizedRMSD -1
REMARK  0 active torsions:
REMARK  status: ('A' for Active; 'I' for Inactive)
ROOT
ATOM      1  C   UNL d   1       2.599   2.260  -0.210  0.00  0.00     0.124 A 
ATOM      2  C1  UNL d   1       3.835   2.892  -0.218  0.00  0.00     0.062 A 
ATOM      3  C2  UNL d   1       4.807   2.514  -1.139  0.00  0.00     0.162 A 
ATOM      4  C3  UNL d   1       4.548   1.499  -2.061  0.00  0.00    -0.034 A 
ATOM      5  C4  UNL d   1       3.303   0.868  -2.046  0.00  0.00     0.162 A 
ATOM      6  C5  UNL d   1       2.334   1.249  -1.123  0.00  0.00     0.062 A 
ATOM      7  F   UNL d   1       1.140   0.638  -1.117  0.00  0.00    -0.097 F 
ATOM      8  F1  UNL d   1       3.020  -0.111  -2.918  0.00  0.00    -0.096 F 
ATOM      9  I   UNL d   1       6.000   0.932  -3.440  0.00  0.00    -0.060 I 
ATOM     10  F2  UNL d   1       5.993   3.142  -1.125  0.00  0.00    -0.096 F 
ATOM     11  F3  UNL d   1       4.093   3.868   0.664  0.00  0.00    -0.097 F 
ATOM     12  F4  UNL d   1       1.665   2.625   0.678  0.00  0.00    -0.092 F 
ENDROOT
TORSDOF 0
ENDMDL
