MODEL 1
REMARK minimizedAffinity 11.1702852
REMARK minimizedRMSD -1
REMARK  0 active torsions:
REMARK  status: ('A' for Active; 'I' for Inactive)
ROOT
ATOM      1  C   UNL d   1       3.597   2.798  -1.107  0.00  0.00     0.124 A 
ATOM      2  C1  UNL d   1       2.813   2.110  -0.192  0.00  0.00     0.062 A 
ATOM      3  C2  UNL d   1       2.890   2.414   1.164  0.00  0.00     0.162 A 
ATOM      4  C3  UNL d   1       3.754   3.413   1.613  0.00  0.00    -0.034 A 
ATOM      5  C4  UNL d   1       4.540   4.100   0.687  0.00  0.00     0.162 A 
ATOM      6  C5  UNL d   1       4.460   3.792  -0.668  0.00  0.00     0.062 A 
ATOM      7  F   UNL d   1       5.218   4.457  -1.551  0.00  0.00    -0.097 F 
ATOM      8  F1  UNL d   1       5.382   5.065   1.084  0.00  0.00    -0.096 F 
ATOM      9  I   UNL d   1       3.872   3.871   3.640  0.00  0.00    -0.060 I 
ATOM     10  F2  UNL d   1       2.120   1.733   2.026  0.00  0.00    -0.096 F 
ATOM     11  F3  UNL d   1       1.979   1.148  -0.614  0.00  0.00    -0.097 F 
ATOM     12  F4  UNL d   1       3.521   2.502  -2.411  0.00  0.00    -0.092 F 
ENDROOT
TORSDOF 0
ENDMDL
