MODEL 1
REMARK minimizedAffinity 22.6021347
REMARK minimizedRMSD -1
REMARK  0 active torsions:
REMARK  status: ('A' for Active; 'I' for Inactive)
ROOT
ATOM      1  C   UNL d   1       1.661   1.508  -0.096  0.00  0.00     0.124 A 
ATOM      2  C1  UNL d   1       2.480   2.575   0.246  0.00  0.00     0.062 A 
ATOM      3  C2  UNL d   1       3.718   2.732  -0.370  0.00  0.00     0.162 A 
ATOM      4  C3  UNL d   1       4.145   1.820  -1.335  0.00  0.00    -0.034 A 
ATOM      5  C4  UNL d   1       3.316   0.749  -1.673  0.00  0.00     0.162 A 
ATOM      6  C5  UNL d   1       2.079   0.596  -1.055  0.00  0.00     0.062 A 
ATOM      7  F   UNL d   1       1.289  -0.435  -1.386  0.00  0.00    -0.097 F 
ATOM      8  F1  UNL d   1       3.695  -0.146  -2.597  0.00  0.00    -0.096 F 
ATOM      9  I   UNL d   1       5.995   2.052  -2.259  0.00  0.00    -0.060 I 
ATOM     10  F2  UNL d   1       4.489   3.772  -0.020  0.00  0.00    -0.096 F 
ATOM     11  F3  UNL d   1       2.078   3.456   1.173  0.00  0.00    -0.097 F 
ATOM     12  F4  UNL d   1       0.470   1.358   0.499  0.00  0.00    -0.092 F 
ENDROOT
TORSDOF 0
ENDMDL
