MODEL 1
REMARK minimizedAffinity 23.6826363
REMARK minimizedRMSD -1
REMARK  0 active torsions:
REMARK  status: ('A' for Active; 'I' for Inactive)
ROOT
ATOM      1  C   UNL d   1      -0.981  -3.845  -0.787  0.00  0.00     0.124 A 
ATOM      2  C1  UNL d   1      -0.706  -2.621  -0.194  0.00  0.00     0.062 A 
ATOM      3  C2  UNL d   1      -1.354  -1.469  -0.631  0.00  0.00     0.162 A 
ATOM      4  C3  UNL d   1      -2.285  -1.536  -1.668  0.00  0.00    -0.034 A 
ATOM      5  C4  UNL d   1      -2.555  -2.771  -2.261  0.00  0.00     0.162 A 
ATOM      6  C5  UNL d   1      -1.905  -3.919  -1.820  0.00  0.00     0.062 A 
ATOM      7  F   UNL d   1      -2.172  -5.100  -2.395  0.00  0.00    -0.097 F 
ATOM      8  F1  UNL d   1      -3.444  -2.871  -3.260  0.00  0.00    -0.096 F 
ATOM      9  I   UNL d   1      -3.256   0.183  -2.324  0.00  0.00    -0.060 I 
ATOM     10  F2  UNL d   1      -1.068  -0.300  -0.039  0.00  0.00    -0.096 F 
ATOM     11  F3  UNL d   1       0.188  -2.546   0.804  0.00  0.00    -0.097 F 
ATOM     12  F4  UNL d   1      -0.355  -4.951  -0.365  0.00  0.00    -0.092 F 
ENDROOT
TORSDOF 0
ENDMDL
