MODEL 1
REMARK minimizedAffinity 22.9134464
REMARK minimizedRMSD -1
REMARK  0 active torsions:
REMARK  status: ('A' for Active; 'I' for Inactive)
ROOT
ATOM      1  C   UNL d   1      -0.983  -3.465  -1.121  0.00  0.00     0.124 A 
ATOM      2  C1  UNL d   1      -0.732  -4.467  -0.194  0.00  0.00     0.062 A 
ATOM      3  C2  UNL d   1      -0.488  -4.143   1.137  0.00  0.00     0.162 A 
ATOM      4  C3  UNL d   1      -0.496  -2.811   1.550  0.00  0.00    -0.034 A 
ATOM      5  C4  UNL d   1      -0.748  -1.809   0.612  0.00  0.00     0.162 A 
ATOM      6  C5  UNL d   1      -0.991  -2.138  -0.718  0.00  0.00     0.062 A 
ATOM      7  F   UNL d   1      -1.234  -1.168  -1.612  0.00  0.00    -0.097 F 
ATOM      8  F1  UNL d   1      -0.763  -0.518   0.975  0.00  0.00    -0.096 F 
ATOM      9  I   UNL d   1      -0.132  -2.323   3.541  0.00  0.00    -0.060 I 
ATOM     10  F2  UNL d   1      -0.249  -5.132   2.012  0.00  0.00    -0.096 F 
ATOM     11  F3  UNL d   1      -0.723  -5.751  -0.582  0.00  0.00    -0.097 F 
ATOM     12  F4  UNL d   1      -1.217  -3.780  -2.402  0.00  0.00    -0.092 F 
ENDROOT
TORSDOF 0
ENDMDL
