MODEL 1
REMARK minimizedAffinity -3.42295027
REMARK minimizedRMSD -1
REMARK  0 active torsions:
REMARK  status: ('A' for Active; 'I' for Inactive)
ROOT
ATOM      1  C1  BNZ d   1       2.779   5.832   4.525  0.00  0.00     0.000 A 
ATOM      2  C2  BNZ d   1       3.654   4.780   4.457  0.00  0.00     0.000 A 
ATOM      3  C3  BNZ d   1       3.408   3.620   5.136  0.00  0.00     0.000 A 
ATOM      4  C4  BNZ d   1       2.310   3.526   5.913  0.00  0.00     0.000 A 
ATOM      5  C5  BNZ d   1       1.423   4.581   6.000  0.00  0.00     0.000 A 
ATOM      6  C6  BNZ d   1       1.654   5.733   5.284  0.00  0.00     0.000 A 
ENDROOT
TORSDOF 0
ENDMDL
