MODEL 1
REMARK minimizedAffinity -2.9335494
REMARK minimizedRMSD -1
REMARK  0 active torsions:
REMARK  status: ('A' for Active; 'I' for Inactive)
ROOT
ATOM      1  C1  BNZ d   1       4.621   4.501   4.706  0.00  0.00     0.000 A 
ATOM      2  C2  BNZ d   1       4.136   5.163   3.610  0.00  0.00     0.000 A 
ATOM      3  C3  BNZ d   1       3.007   5.929   3.697  0.00  0.00     0.000 A 
ATOM      4  C4  BNZ d   1       2.343   6.000   4.868  0.00  0.00     0.000 A 
ATOM      5  C5  BNZ d   1       2.814   5.331   5.981  0.00  0.00     0.000 A 
ATOM      6  C6  BNZ d   1       3.972   4.592   5.899  0.00  0.00     0.000 A 
ENDROOT
TORSDOF 0
ENDMDL
