MODEL 1
REMARK minimizedAffinity 8.80915451
REMARK minimizedRMSD -1
REMARK  0 active torsions:
REMARK  status: ('A' for Active; 'I' for Inactive)
ROOT
ATOM      1  C1  BNZ d   1       3.779  -0.481  -0.175  0.00  0.00     0.000 A 
ATOM      2  C2  BNZ d   1       4.609  -0.567   0.912  0.00  0.00     0.000 A 
ATOM      3  C3  BNZ d   1       4.688  -1.720   1.642  0.00  0.00     0.000 A 
ATOM      4  C4  BNZ d   1       3.910  -2.770   1.310  0.00  0.00     0.000 A 
ATOM      5  C5  BNZ d   1       3.062  -2.696   0.223  0.00  0.00     0.000 A 
ATOM      6  C6  BNZ d   1       3.014  -1.547  -0.533  0.00  0.00     0.000 A 
ENDROOT
TORSDOF 0
ENDMDL
