MODEL 1
REMARK minimizedAffinity -0.209805861
REMARK minimizedRMSD -1
REMARK  0 active torsions:
REMARK  status: ('A' for Active; 'I' for Inactive)
ROOT
ATOM      1  C1  BNZ d   1       3.412   3.115   5.999  0.00  0.00     0.000 A 
ATOM      2  C2  BNZ d   1       4.480   3.972   5.994  0.00  0.00     0.000 A 
ATOM      3  C3  BNZ d   1       4.291   5.325   5.996  0.00  0.00     0.000 A 
ATOM      4  C4  BNZ d   1       3.037   5.820   5.962  0.00  0.00     0.000 A 
ATOM      5  C5  BNZ d   1       1.950   4.969   5.958  0.00  0.00     0.000 A 
ATOM      6  C6  BNZ d   1       2.144   3.607   5.995  0.00  0.00     0.000 A 
ENDROOT
TORSDOF 0
ENDMDL
