MODEL 1
REMARK minimizedAffinity 2.40236926
REMARK minimizedRMSD -1
REMARK  0 active torsions:
REMARK  status: ('A' for Active; 'I' for Inactive)
ROOT
ATOM      1  C1  BNZ d   1       0.512  -5.997   5.806  0.00  0.00     0.000 A 
ATOM      2  C2  BNZ d   1       1.868  -6.000   5.999  0.00  0.00     0.000 A 
ATOM      3  C3  BNZ d   1       2.603  -4.863   5.814  0.00  0.00     0.000 A 
ATOM      4  C4  BNZ d   1       1.989  -3.736   5.399  0.00  0.00     0.000 A 
ATOM      5  C5  BNZ d   1       0.625  -3.719   5.191  0.00  0.00     0.000 A 
ATOM      6  C6  BNZ d   1      -0.118  -4.856   5.415  0.00  0.00     0.000 A 
ENDROOT
TORSDOF 0
ENDMDL
