MODEL 1
REMARK minimizedAffinity 1.64126968
REMARK minimizedRMSD -1
REMARK  0 active torsions:
REMARK  status: ('A' for Active; 'I' for Inactive)
ROOT
ATOM      1  C1  BNZ d   1      -1.797   1.161  -0.982  0.00  0.00     0.000 A 
ATOM      2  C2  BNZ d   1      -2.425   1.816   0.043  0.00  0.00     0.000 A 
ATOM      3  C3  BNZ d   1      -3.653   1.408   0.486  0.00  0.00     0.000 A 
ATOM      4  C4  BNZ d   1      -4.267   0.373  -0.123  0.00  0.00     0.000 A 
ATOM      5  C5  BNZ d   1      -3.650  -0.291  -1.164  0.00  0.00     0.000 A 
ATOM      6  C6  BNZ d   1      -2.397   0.098  -1.581  0.00  0.00     0.000 A 
ENDROOT
TORSDOF 0
ENDMDL
