MODEL 1
REMARK minimizedAffinity 5.74386787
REMARK minimizedRMSD -1
REMARK  0 active torsions:
REMARK  status: ('A' for Active; 'I' for Inactive)
ROOT
ATOM      1  C1  BNZ d   1       3.746  -0.205  -1.485  0.00  0.00     0.000 A 
ATOM      2  C2  BNZ d   1       3.109  -1.028  -2.375  0.00  0.00     0.000 A 
ATOM      3  C3  BNZ d   1       2.621  -2.242  -1.980  0.00  0.00     0.000 A 
ATOM      4  C4  BNZ d   1       2.806  -2.649  -0.707  0.00  0.00     0.000 A 
ATOM      5  C5  BNZ d   1       3.455  -1.835   0.199  0.00  0.00     0.000 A 
ATOM      6  C6  BNZ d   1       3.910  -0.596  -0.192  0.00  0.00     0.000 A 
ENDROOT
TORSDOF 0
ENDMDL
