MODEL 1
REMARK minimizedAffinity 5.85370064
REMARK minimizedRMSD -1
REMARK  0 active torsions:
REMARK  status: ('A' for Active; 'I' for Inactive)
ROOT
ATOM      1  C1  BNZ d   1       2.807  -2.531   0.811  0.00  0.00     0.000 A 
ATOM      2  C2  BNZ d   1       3.410  -1.302   0.765  0.00  0.00     0.000 A 
ATOM      3  C3  BNZ d   1       3.405  -0.562  -0.384  0.00  0.00     0.000 A 
ATOM      4  C4  BNZ d   1       2.835  -1.068  -1.496  0.00  0.00     0.000 A 
ATOM      5  C5  BNZ d   1       2.231  -2.310  -1.469  0.00  0.00     0.000 A 
ATOM      6  C6  BNZ d   1       2.203  -3.035  -0.300  0.00  0.00     0.000 A 
ENDROOT
TORSDOF 0
ENDMDL
