MODEL 1
REMARK minimizedAffinity 0.616116822
REMARK minimizedRMSD -1
REMARK  0 active torsions:
REMARK  status: ('A' for Active; 'I' for Inactive)
ROOT
ATOM      1  C   UNL d   1      -4.098   5.999   5.560  0.00  0.00     0.172 C 
ATOM      2  N   UNL d   1      -4.748   5.376   4.431  0.00  0.00    -0.070 N 
ATOM      3  C1  UNL d   1      -5.593   6.000   3.553  0.00  0.00    -0.004 A 
ATOM      4  C2  UNL d   1      -5.998   5.067   2.622  0.00  0.00    -0.047 A 
ATOM      5  C3  UNL d   1      -5.375   3.841   2.954  0.00  0.00    -0.047 A 
ATOM      6  C4  UNL d   1      -4.607   4.061   4.077  0.00  0.00    -0.004 A 
ENDROOT
TORSDOF 0
ENDMDL
