MODEL 1
REMARK minimizedAffinity 0.51597929
REMARK minimizedRMSD -1
REMARK  0 active torsions:
REMARK  status: ('A' for Active; 'I' for Inactive)
ROOT
ATOM      1  C   UNL d   1      -2.506   5.997   4.820  0.00  0.00     0.172 C 
ATOM      2  N   UNL d   1      -3.925   5.743   4.901  0.00  0.00    -0.070 N 
ATOM      3  C1  UNL d   1      -4.700   5.214   3.904  0.00  0.00    -0.004 A 
ATOM      4  C2  UNL d   1      -5.993   5.130   4.374  0.00  0.00    -0.047 A 
ATOM      5  C3  UNL d   1      -5.995   5.627   5.699  0.00  0.00    -0.047 A 
ATOM      6  C4  UNL d   1      -4.702   5.999   6.000  0.00  0.00    -0.004 A 
ENDROOT
TORSDOF 0
ENDMDL
