MODEL 1
REMARK minimizedAffinity 4.52336359
REMARK minimizedRMSD -1
REMARK  0 active torsions:
REMARK  status: ('A' for Active; 'I' for Inactive)
ROOT
ATOM      1  C   UNL d   1      -5.635   4.160   2.619  0.00  0.00     0.172 C 
ATOM      2  N   UNL d   1      -5.062   4.827   3.764  0.00  0.00    -0.070 N 
ATOM      3  C1  UNL d   1      -5.761   5.515   4.720  0.00  0.00    -0.004 A 
ATOM      4  C2  UNL d   1      -4.855   6.000   5.638  0.00  0.00    -0.047 A 
ATOM      5  C3  UNL d   1      -3.567   5.591   5.219  0.00  0.00    -0.047 A 
ATOM      6  C4  UNL d   1      -3.724   4.866   4.056  0.00  0.00    -0.004 A 
ENDROOT
TORSDOF 0
ENDMDL
