MODEL 1
REMARK minimizedAffinity -1.29725266
REMARK minimizedRMSD -1
REMARK  0 active torsions:
REMARK  status: ('A' for Active; 'I' for Inactive)
ROOT
ATOM      1  C   UNL d   1      -4.495   3.408   2.611  0.00  0.00     0.172 C 
ATOM      2  N   UNL d   1      -4.833   4.329   3.670  0.00  0.00    -0.070 N 
ATOM      3  C1  UNL d   1      -4.048   5.359   4.113  0.00  0.00    -0.004 A 
ATOM      4  C2  UNL d   1      -4.725   5.999   5.129  0.00  0.00    -0.047 A 
ATOM      5  C3  UNL d   1      -5.959   5.329   5.304  0.00  0.00    -0.047 A 
ATOM      6  C4  UNL d   1      -6.000   4.299   4.387  0.00  0.00    -0.004 A 
ENDROOT
TORSDOF 0
ENDMDL
