MODEL 1
REMARK minimizedAffinity -0.499709904
REMARK minimizedRMSD -1
REMARK  0 active torsions:
REMARK  status: ('A' for Active; 'I' for Inactive)
ROOT
ATOM      1  C   UNL d   1      -5.489   5.995   6.000  0.00  0.00     0.172 C 
ATOM      2  N   UNL d   1      -5.622   5.324   4.728  0.00  0.00    -0.070 N 
ATOM      3  C1  UNL d   1      -5.989   4.017   4.550  0.00  0.00    -0.004 A 
ATOM      4  C2  UNL d   1      -6.000   3.763   3.196  0.00  0.00    -0.047 A 
ATOM      5  C3  UNL d   1      -5.626   4.958   2.537  0.00  0.00    -0.047 A 
ATOM      6  C4  UNL d   1      -5.398   5.909   3.510  0.00  0.00    -0.004 A 
ENDROOT
TORSDOF 0
ENDMDL
