MODEL 1
REMARK minimizedAffinity 1.01024532
REMARK minimizedRMSD -1
REMARK  0 active torsions:
REMARK  status: ('A' for Active; 'I' for Inactive)
ROOT
ATOM      1  C   UNL d   1      -5.891   5.995   5.992  0.00  0.00     0.172 C 
ATOM      2  N   UNL d   1      -5.360   5.443   4.768  0.00  0.00    -0.070 N 
ATOM      3  C1  UNL d   1      -5.992   4.536   3.960  0.00  0.00    -0.004 A 
ATOM      4  C2  UNL d   1      -5.158   4.263   2.898  0.00  0.00    -0.047 A 
ATOM      5  C3  UNL d   1      -3.984   5.033   3.073  0.00  0.00    -0.047 A 
ATOM      6  C4  UNL d   1      -4.135   5.754   4.238  0.00  0.00    -0.004 A 
ENDROOT
TORSDOF 0
ENDMDL
