MODEL 1
REMARK minimizedAffinity 0.957917333
REMARK minimizedRMSD -1
REMARK  0 active torsions:
REMARK  status: ('A' for Active; 'I' for Inactive)
ROOT
ATOM      1  C   UNL d   1      -5.285   3.707   2.701  0.00  0.00     0.172 C 
ATOM      2  N   UNL d   1      -5.237   4.461   3.932  0.00  0.00    -0.070 N 
ATOM      3  C1  UNL d   1      -5.999   4.223   5.044  0.00  0.00    -0.004 A 
ATOM      4  C2  UNL d   1      -5.656   5.156   5.999  0.00  0.00    -0.047 A 
ATOM      5  C3  UNL d   1      -4.654   5.984   5.440  0.00  0.00    -0.047 A 
ATOM      6  C4  UNL d   1      -4.413   5.531   4.160  0.00  0.00    -0.004 A 
ENDROOT
TORSDOF 0
ENDMDL
