MODEL 1
REMARK minimizedAffinity 2.58105302
REMARK minimizedRMSD -1
REMARK  0 active torsions:
REMARK  status: ('A' for Active; 'I' for Inactive)
ROOT
ATOM      1  C   UNL d   1      -5.814   3.563   2.960  0.00  0.00     0.172 C 
ATOM      2  N   UNL d   1      -5.339   4.503   3.948  0.00  0.00    -0.070 N 
ATOM      3  C1  UNL d   1      -4.176   5.221   3.873  0.00  0.00    -0.004 A 
ATOM      4  C2  UNL d   1      -4.086   6.000   5.007  0.00  0.00    -0.047 A 
ATOM      5  C3  UNL d   1      -5.235   5.740   5.791  0.00  0.00    -0.047 A 
ATOM      6  C4  UNL d   1      -5.994   4.810   5.112  0.00  0.00    -0.004 A 
ENDROOT
TORSDOF 0
ENDMDL
