MODEL 1
REMARK minimizedAffinity 0.38836053
REMARK minimizedRMSD -1
REMARK  0 active torsions:
REMARK  status: ('A' for Active; 'I' for Inactive)
ROOT
ATOM      1  C   UNL d   1      -5.905   3.889   3.081  0.00  0.00     0.172 C 
ATOM      2  N   UNL d   1      -5.343   4.727   4.114  0.00  0.00    -0.070 N 
ATOM      3  C1  UNL d   1      -4.084   5.266   4.108  0.00  0.00    -0.004 A 
ATOM      4  C2  UNL d   1      -3.933   5.999   5.265  0.00  0.00    -0.047 A 
ATOM      5  C3  UNL d   1      -5.144   5.898   5.992  0.00  0.00    -0.047 A 
ATOM      6  C4  UNL d   1      -5.999   5.104   5.256  0.00  0.00    -0.004 A 
ENDROOT
TORSDOF 0
ENDMDL
