MODEL 1
REMARK minimizedAffinity -3.689888
REMARK minimizedRMSD -1
REMARK  1 active torsions:
REMARK  status: ('A' for Active; 'I' for Inactive)
REMARK    1  A    between atoms: C3_4  and  O_7 
ROOT
ATOM      1  C   UNL d   1      -0.457   3.291   1.526  0.00  0.00    -0.033 A 
ATOM      2  C1  UNL d   1      -0.201   2.149   2.286  0.00  0.00     0.039 A 
ATOM      3  C2  UNL d   1      -0.024   0.915   1.657  0.00  0.00    -0.080 A 
ATOM      4  C3  UNL d   1      -0.105   0.837   0.270  0.00  0.00     0.150 A 
ATOM      5  C4  UNL d   1      -0.357   1.972  -0.494  0.00  0.00    -0.007 A 
ATOM      6  C5  UNL d   1      -0.534   3.203   0.136  0.00  0.00     0.039 A 
ENDROOT
BRANCH   4   7
ATOM      7  O   UNL d   1       0.056  -0.346  -0.388  0.00  0.00    -0.526 OA
ATOM      8  H5  UNL d   1       0.195  -1.048   0.270  0.00  0.00     0.418 HD
ENDBRANCH   4   7
TORSDOF 1
ENDMDL
