MODEL 1
REMARK minimizedAffinity -4.21238041
REMARK minimizedRMSD -1
REMARK  1 active torsions:
REMARK  status: ('A' for Active; 'I' for Inactive)
REMARK    1  A    between atoms: C3_4  and  O_7 
ROOT
ATOM      1  C   UNL d   1      -0.920   3.648   0.353  0.00  0.00    -0.033 A 
ATOM      2  C1  UNL d   1      -0.836   3.321  -1.002  0.00  0.00     0.039 A 
ATOM      3  C2  UNL d   1      -0.483   2.027  -1.389  0.00  0.00    -0.080 A 
ATOM      4  C3  UNL d   1      -0.217   1.070  -0.414  0.00  0.00     0.150 A 
ATOM      5  C4  UNL d   1      -0.303   1.388   0.938  0.00  0.00    -0.007 A 
ATOM      6  C5  UNL d   1      -0.655   2.681   1.323  0.00  0.00     0.039 A 
ENDROOT
BRANCH   4   7
ATOM      7  O   UNL d   1       0.136  -0.204  -0.743  0.00  0.00    -0.526 OA
ATOM      8  H5  UNL d   1       0.183  -0.270  -1.711  0.00  0.00     0.418 HD
ENDBRANCH   4   7
TORSDOF 1
ENDMDL
