MODEL 1
REMARK minimizedAffinity -5.43974781
REMARK minimizedRMSD -1
REMARK  1 active torsions:
REMARK  status: ('A' for Active; 'I' for Inactive)
REMARK    1  A    between atoms: C3_4  and  O_7 
ROOT
ATOM      1  C   UNL d   1       0.637  -0.414   0.450  0.00  0.00    -0.033 A 
ATOM      2  C1  UNL d   1      -0.253   0.386  -0.268  0.00  0.00     0.039 A 
ATOM      3  C2  UNL d   1      -0.913   1.442   0.365  0.00  0.00    -0.080 A 
ATOM      4  C3  UNL d   1      -0.673   1.686   1.714  0.00  0.00     0.150 A 
ATOM      5  C4  UNL d   1       0.216   0.895   2.435  0.00  0.00    -0.007 A 
ATOM      6  C5  UNL d   1       0.873  -0.159   1.802  0.00  0.00     0.039 A 
ENDROOT
BRANCH   4   7
ATOM      7  O   UNL d   1      -1.297   2.702   2.376  0.00  0.00    -0.526 OA
ATOM      8  H5  UNL d   1      -1.903   3.145   1.759  0.00  0.00     0.418 HD
ENDBRANCH   4   7
TORSDOF 1
ENDMDL
