MODEL 1
REMARK minimizedAffinity -5.17088938
REMARK minimizedRMSD -1
REMARK  1 active torsions:
REMARK  status: ('A' for Active; 'I' for Inactive)
REMARK    1  A    between atoms: C3_4  and  O_7 
ROOT
ATOM      1  C   UNL d   1       0.573  -0.161   0.427  0.00  0.00    -0.033 A 
ATOM      2  C1  UNL d   1       0.903   0.305   1.701  0.00  0.00     0.039 A 
ATOM      3  C2  UNL d   1       0.098   1.259   2.328  0.00  0.00    -0.080 A 
ATOM      4  C3  UNL d   1      -1.032   1.737   1.671  0.00  0.00     0.150 A 
ATOM      5  C4  UNL d   1      -1.369   1.274   0.403  0.00  0.00    -0.007 A 
ATOM      6  C5  UNL d   1      -0.564   0.322  -0.222  0.00  0.00     0.039 A 
ENDROOT
BRANCH   4   7
ATOM      7  O   UNL d   1      -1.846   2.671   2.240  0.00  0.00    -0.526 OA
ATOM      8  H5  UNL d   1      -1.473   2.918   3.103  0.00  0.00     0.418 HD
ENDBRANCH   4   7
TORSDOF 1
ENDMDL
