MODEL 1
REMARK minimizedAffinity -4.57209158
REMARK minimizedRMSD -1
REMARK  1 active torsions:
REMARK  status: ('A' for Active; 'I' for Inactive)
REMARK    1  A    between atoms: C3_4  and  O_7 
ROOT
ATOM      1  C   UNL d   1       0.396   0.393  -1.062  0.00  0.00    -0.033 A 
ATOM      2  C1  UNL d   1      -0.212   1.631  -0.844  0.00  0.00     0.039 A 
ATOM      3  C2  UNL d   1      -0.473   2.062   0.458  0.00  0.00    -0.080 A 
ATOM      4  C3  UNL d   1      -0.121   1.249   1.532  0.00  0.00     0.150 A 
ATOM      5  C4  UNL d   1       0.489   0.016   1.322  0.00  0.00    -0.007 A 
ATOM      6  C5  UNL d   1       0.748  -0.413   0.021  0.00  0.00     0.039 A 
ENDROOT
BRANCH   4   7
ATOM      7  O   UNL d   1      -0.360   1.626   2.820  0.00  0.00    -0.526 OA
ATOM      8  H5  UNL d   1      -0.812   2.486   2.810  0.00  0.00     0.418 HD
ENDBRANCH   4   7
TORSDOF 1
ENDMDL
