MODEL 1
REMARK minimizedAffinity -3.67954254
REMARK minimizedRMSD -1
REMARK  1 active torsions:
REMARK  status: ('A' for Active; 'I' for Inactive)
REMARK    1  A    between atoms: C3_4  and  O_7 
ROOT
ATOM      1  C   UNL d   1       1.497   0.006   3.032  0.00  0.00    -0.033 A 
ATOM      2  C1  UNL d   1       1.794  -0.596   1.808  0.00  0.00     0.039 A 
ATOM      3  C2  UNL d   1       1.309  -0.045   0.620  0.00  0.00    -0.080 A 
ATOM      4  C3  UNL d   1       0.531   1.108   0.670  0.00  0.00     0.150 A 
ATOM      5  C4  UNL d   1       0.235   1.717   1.886  0.00  0.00    -0.007 A 
ATOM      6  C5  UNL d   1       0.719   1.164   3.071  0.00  0.00     0.039 A 
ENDROOT
BRANCH   4   7
ATOM      7  O   UNL d   1       0.031   1.681  -0.462  0.00  0.00    -0.526 OA
ATOM      8  H5  UNL d   1       0.293   1.136  -1.223  0.00  0.00     0.418 HD
ENDBRANCH   4   7
TORSDOF 1
ENDMDL
