MODEL 1
REMARK minimizedAffinity -5.35896444
REMARK minimizedRMSD -1
REMARK  1 active torsions:
REMARK  status: ('A' for Active; 'I' for Inactive)
REMARK    1  A    between atoms: C3_4  and  O_7 
ROOT
ATOM      1  C   UNL d   1       0.505   0.462  -0.676  0.00  0.00    -0.033 A 
ATOM      2  C1  UNL d   1      -0.291   1.560  -1.009  0.00  0.00     0.039 A 
ATOM      3  C2  UNL d   1      -1.037   2.209  -0.024  0.00  0.00    -0.080 A 
ATOM      4  C3  UNL d   1      -0.978   1.752   1.290  0.00  0.00     0.150 A 
ATOM      5  C4  UNL d   1      -0.185   0.661   1.630  0.00  0.00    -0.007 A 
ATOM      6  C5  UNL d   1       0.559   0.014   0.644  0.00  0.00     0.039 A 
ENDROOT
BRANCH   4   7
ATOM      7  O   UNL d   1      -1.692   2.350   2.285  0.00  0.00    -0.526 OA
ATOM      8  H5  UNL d   1      -2.216   3.071   1.898  0.00  0.00     0.418 HD
ENDBRANCH   4   7
TORSDOF 1
ENDMDL
