MODEL 1
REMARK minimizedAffinity 8.67202663
REMARK minimizedRMSD -1
REMARK  0 active torsions:
REMARK  status: ('A' for Active; 'I' for Inactive)
ROOT
ATOM      1  C   UNL d   1      -4.329   1.402   1.202  0.00  0.00     0.020 A 
ATOM      2  C1  UNL d   1      -4.718   0.069   1.322  0.00  0.00     0.020 A 
ATOM      3  C2  UNL d   1      -3.782  -0.902   1.685  0.00  0.00     0.034 A 
ATOM      4  C3  UNL d   1      -2.452  -0.540   1.929  0.00  0.00     0.017 A 
ATOM      5  C4  UNL d   1      -2.063   0.798   1.808  0.00  0.00     0.017 A 
ATOM      6  C5  UNL d   1      -3.004   1.766   1.444  0.00  0.00     0.034 A 
ATOM      7 Cl   UNL d   1      -0.440   1.321   2.093  0.00  0.00    -0.070 Cl
ATOM      8 Cl1  UNL d   1      -1.348  -1.793   2.374  0.00  0.00    -0.070 Cl
ENDROOT
TORSDOF 0
ENDMDL
