MODEL 1
REMARK minimizedAffinity 12.8498726
REMARK minimizedRMSD -1
REMARK  0 active torsions:
REMARK  status: ('A' for Active; 'I' for Inactive)
ROOT
ATOM      1  C   UNL d   1       2.838  -5.049  -3.786  0.00  0.00     0.020 A 
ATOM      2  C1  UNL d   1       1.585  -5.602  -4.050  0.00  0.00     0.020 A 
ATOM      3  C2  UNL d   1       0.469  -5.180  -3.325  0.00  0.00     0.034 A 
ATOM      4  C3  UNL d   1       0.603  -4.202  -2.333  0.00  0.00     0.017 A 
ATOM      5  C4  UNL d   1       1.860  -3.647  -2.069  0.00  0.00     0.017 A 
ATOM      6  C5  UNL d   1       2.975  -4.073  -2.798  0.00  0.00     0.034 A 
ATOM      7 Cl   UNL d   1       2.104  -2.436  -0.860  0.00  0.00    -0.070 Cl
ATOM      8 Cl1  UNL d   1      -0.820  -3.727  -1.476  0.00  0.00    -0.070 Cl
ENDROOT
TORSDOF 0
ENDMDL
