MODEL 1
REMARK minimizedAffinity 7.81461668
REMARK minimizedRMSD -1
REMARK  0 active torsions:
REMARK  status: ('A' for Active; 'I' for Inactive)
ROOT
ATOM      1  C   UNL d   1       1.487   1.977   1.640  0.00  0.00     0.020 A 
ATOM      2  C1  UNL d   1       1.333   1.435   2.915  0.00  0.00     0.020 A 
ATOM      3  C2  UNL d   1       2.174   1.841   3.953  0.00  0.00     0.034 A 
ATOM      4  C3  UNL d   1       3.173   2.793   3.718  0.00  0.00     0.017 A 
ATOM      5  C4  UNL d   1       3.327   3.337   2.438  0.00  0.00     0.017 A 
ATOM      6  C5  UNL d   1       2.482   2.926   1.402  0.00  0.00     0.034 A 
ATOM      7 Cl   UNL d   1       4.537   4.515   2.070  0.00  0.00    -0.070 Cl
ATOM      8 Cl1  UNL d   1       4.177   3.249   5.048  0.00  0.00    -0.070 Cl
ENDROOT
TORSDOF 0
ENDMDL
