MODEL 1
REMARK minimizedAffinity 8.31518936
REMARK minimizedRMSD -1
REMARK  0 active torsions:
REMARK  status: ('A' for Active; 'I' for Inactive)
ROOT
ATOM      1  C   UNL d   1      -0.854   5.236  -6.000  0.00  0.00     0.020 A 
ATOM      2  C1  UNL d   1      -1.438   4.416  -5.035  0.00  0.00     0.020 A 
ATOM      3  C2  UNL d   1      -0.642   3.798  -4.069  0.00  0.00     0.034 A 
ATOM      4  C3  UNL d   1       0.744   3.998  -4.066  0.00  0.00     0.017 A 
ATOM      5  C4  UNL d   1       1.329   4.821  -5.035  0.00  0.00     0.017 A 
ATOM      6  C5  UNL d   1       0.526   5.437  -6.000  0.00  0.00     0.034 A 
ATOM      7 Cl   UNL d   1       3.031   5.116  -5.095  0.00  0.00    -0.070 Cl
ATOM      8 Cl1  UNL d   1       1.668   3.202  -2.841  0.00  0.00    -0.070 Cl
ENDROOT
TORSDOF 0
ENDMDL
