MODEL 1
REMARK minimizedAffinity 3.87546515
REMARK minimizedRMSD -1
REMARK  0 active torsions:
REMARK  status: ('A' for Active; 'I' for Inactive)
ROOT
ATOM      1  C   UNL d   1      -5.062   5.834  -5.418  0.00  0.00     0.020 A 
ATOM      2  C1  UNL d   1      -5.111   5.994  -4.033  0.00  0.00     0.020 A 
ATOM      3  C2  UNL d   1      -4.115   5.434  -3.231  0.00  0.00     0.034 A 
ATOM      4  C3  UNL d   1      -3.066   4.712  -3.811  0.00  0.00     0.017 A 
ATOM      5  C4  UNL d   1      -3.018   4.552  -5.201  0.00  0.00     0.017 A 
ATOM      6  C5  UNL d   1      -4.018   5.115  -6.000  0.00  0.00     0.034 A 
ATOM      7 Cl   UNL d   1      -1.755   3.674  -5.990  0.00  0.00    -0.070 Cl
ATOM      8 Cl1  UNL d   1      -1.868   4.047  -2.758  0.00  0.00    -0.070 Cl
ENDROOT
TORSDOF 0
ENDMDL
