MODEL 1
REMARK minimizedAffinity 6.49017239
REMARK minimizedRMSD -1
REMARK  0 active torsions:
REMARK  status: ('A' for Active; 'I' for Inactive)
ROOT
ATOM      1  C   UNL d   1      -5.034  -1.716   3.858  0.00  0.00     0.020 A 
ATOM      2  C1  UNL d   1      -5.009  -0.576   3.056  0.00  0.00     0.020 A 
ATOM      3  C2  UNL d   1      -3.860  -0.259   2.328  0.00  0.00     0.034 A 
ATOM      4  C3  UNL d   1      -2.730  -1.083   2.402  0.00  0.00     0.017 A 
ATOM      5  C4  UNL d   1      -2.756  -2.227   3.207  0.00  0.00     0.017 A 
ATOM      6  C5  UNL d   1      -3.910  -2.540   3.933  0.00  0.00     0.034 A 
ATOM      7 Cl   UNL d   1      -1.402  -3.292   3.349  0.00  0.00    -0.070 Cl
ATOM      8 Cl1  UNL d   1      -1.344  -0.630   1.476  0.00  0.00    -0.070 Cl
ENDROOT
TORSDOF 0
ENDMDL
