MODEL 1
REMARK minimizedAffinity 1.87427855
REMARK minimizedRMSD -1
REMARK  0 active torsions:
REMARK  status: ('A' for Active; 'I' for Inactive)
ROOT
ATOM      1  C   UNL d   1      -1.772  -4.146  -2.621  0.00  0.00     0.020 A 
ATOM      2  C1  UNL d   1      -2.763  -4.169  -1.641  0.00  0.00     0.020 A 
ATOM      3  C2  UNL d   1      -2.597  -3.437  -0.463  0.00  0.00     0.034 A 
ATOM      4  C3  UNL d   1      -1.438  -2.678  -0.263  0.00  0.00     0.017 A 
ATOM      5  C4  UNL d   1      -0.444  -2.655  -1.248  0.00  0.00     0.017 A 
ATOM      6  C5  UNL d   1      -0.615  -3.391  -2.425  0.00  0.00     0.034 A 
ATOM      7 Cl   UNL d   1       1.013  -1.743  -1.073  0.00  0.00    -0.070 Cl
ATOM      8 Cl1  UNL d   1      -1.300  -1.796   1.216  0.00  0.00    -0.070 Cl
ENDROOT
TORSDOF 0
ENDMDL
