MODEL 1
REMARK minimizedAffinity 8.25910187
REMARK minimizedRMSD -1
REMARK  0 active torsions:
REMARK  status: ('A' for Active; 'I' for Inactive)
ROOT
ATOM      1  C   UNL d   1       5.186   5.729  -5.933  0.00  0.00     0.020 A 
ATOM      2  C1  UNL d   1       3.815   5.952  -5.808  0.00  0.00     0.020 A 
ATOM      3  C2  UNL d   1       2.935   4.870  -5.740  0.00  0.00     0.034 A 
ATOM      4  C3  UNL d   1       3.424   3.560  -5.797  0.00  0.00     0.017 A 
ATOM      5  C4  UNL d   1       4.800   3.337  -5.923  0.00  0.00     0.017 A 
ATOM      6  C5  UNL d   1       5.677   4.424  -5.990  0.00  0.00     0.034 A 
ATOM      7 Cl   UNL d   1       5.478   1.749  -6.000  0.00  0.00    -0.070 Cl
ATOM      8 Cl1  UNL d   1       2.278   2.270  -5.707  0.00  0.00    -0.070 Cl
ENDROOT
TORSDOF 0
ENDMDL
