MODEL 1
REMARK minimizedAffinity 3.79175615
REMARK minimizedRMSD -1
REMARK  0 active torsions:
REMARK  status: ('A' for Active; 'I' for Inactive)
ROOT
ATOM      1  C   UNL d   1      -2.204   1.481   1.478  0.00  0.00     0.020 A 
ATOM      2  C1  UNL d   1      -0.981   0.840   1.285  0.00  0.00     0.020 A 
ATOM      3  C2  UNL d   1      -0.760  -0.424   1.837  0.00  0.00     0.034 A 
ATOM      4  C3  UNL d   1      -1.765  -1.051   2.584  0.00  0.00     0.017 A 
ATOM      5  C4  UNL d   1      -2.992  -0.406   2.777  0.00  0.00     0.017 A 
ATOM      6  C5  UNL d   1      -3.207   0.859   2.222  0.00  0.00     0.034 A 
ATOM      7 Cl   UNL d   1      -4.279  -1.116   3.686  0.00  0.00    -0.070 Cl
ATOM      8 Cl1  UNL d   1      -1.423  -2.613   3.238  0.00  0.00    -0.070 Cl
ENDROOT
TORSDOF 0
ENDMDL
