MODEL 1
REMARK minimizedAffinity 4.81451178
REMARK minimizedRMSD -1
REMARK  0 active torsions:
REMARK  status: ('A' for Active; 'I' for Inactive)
ROOT
ATOM      1  C   UNL d   1      -5.519  -1.848   4.441  0.00  0.00     0.020 A 
ATOM      2  C1  UNL d   1      -5.738  -0.571   3.926  0.00  0.00     0.020 A 
ATOM      3  C2  UNL d   1      -4.832  -0.019   3.018  0.00  0.00     0.034 A 
ATOM      4  C3  UNL d   1      -3.703  -0.745   2.621  0.00  0.00     0.017 A 
ATOM      5  C4  UNL d   1      -3.484  -2.027   3.138  0.00  0.00     0.017 A 
ATOM      6  C5  UNL d   1      -4.395  -2.574   4.047  0.00  0.00     0.034 A 
ATOM      7 Cl   UNL d   1      -2.114  -2.983   2.696  0.00  0.00    -0.070 Cl
ATOM      8 Cl1  UNL d   1      -2.625  -0.001   1.494  0.00  0.00    -0.070 Cl
ENDROOT
TORSDOF 0
ENDMDL
