MODEL 1
REMARK minimizedAffinity 6.36103153
REMARK minimizedRMSD -1
REMARK  0 active torsions:
REMARK  status: ('A' for Active; 'I' for Inactive)
ROOT
ATOM      1  C   UNL d   1       3.847  -2.953  -1.563  0.00  0.00     0.020 A 
ATOM      2  C1  UNL d   1       3.087  -2.330  -0.573  0.00  0.00     0.020 A 
ATOM      3  C2  UNL d   1       1.696  -2.278  -0.690  0.00  0.00     0.034 A 
ATOM      4  C3  UNL d   1       1.061  -2.849  -1.799  0.00  0.00     0.017 A 
ATOM      5  C4  UNL d   1       1.825  -3.474  -2.791  0.00  0.00     0.017 A 
ATOM      6  C5  UNL d   1       3.217  -3.523  -2.669  0.00  0.00     0.034 A 
ATOM      7 Cl   UNL d   1       1.113  -4.202  -4.188  0.00  0.00    -0.070 Cl
ATOM      8 Cl1  UNL d   1      -0.662  -2.748  -1.878  0.00  0.00    -0.070 Cl
ENDROOT
TORSDOF 0
ENDMDL
