MODEL 1
REMARK minimizedAffinity 2.55623698
REMARK minimizedRMSD -1
REMARK  0 active torsions:
REMARK  status: ('A' for Active; 'I' for Inactive)
ROOT
ATOM      1  C   UNL d   1       4.381   3.811  -5.999  0.00  0.00     0.020 A 
ATOM      2  C1  UNL d   1       5.205   3.630  -4.890  0.00  0.00     0.020 A 
ATOM      3  C2  UNL d   1       4.647   3.329  -3.646  0.00  0.00     0.034 A 
ATOM      4  C3  UNL d   1       3.259   3.208  -3.508  0.00  0.00     0.017 A 
ATOM      5  C4  UNL d   1       2.432   3.390  -4.622  0.00  0.00     0.017 A 
ATOM      6  C5  UNL d   1       2.997   3.691  -5.866  0.00  0.00     0.034 A 
ATOM      7 Cl   UNL d   1       0.711   3.257  -4.531  0.00  0.00    -0.070 Cl
ATOM      8 Cl1  UNL d   1       2.637   2.834  -1.940  0.00  0.00    -0.070 Cl
ENDROOT
TORSDOF 0
ENDMDL
