MODEL 1
REMARK minimizedAffinity 9.18327045
REMARK minimizedRMSD -1
REMARK  0 active torsions:
REMARK  status: ('A' for Active; 'I' for Inactive)
ROOT
ATOM      1  C   UNL d   1      -3.845   1.352   1.369  0.00  0.00     0.020 A 
ATOM      2  C1  UNL d   1      -2.610   0.827   0.991  0.00  0.00     0.020 A 
ATOM      3  C2  UNL d   1      -2.124  -0.328   1.609  0.00  0.00     0.034 A 
ATOM      4  C3  UNL d   1      -2.873  -0.960   2.608  0.00  0.00     0.017 A 
ATOM      5  C4  UNL d   1      -4.112  -0.431   2.987  0.00  0.00     0.017 A 
ATOM      6  C5  UNL d   1      -4.594   0.725   2.365  0.00  0.00     0.034 A 
ATOM      7 Cl   UNL d   1      -5.094  -1.155   4.212  0.00  0.00    -0.070 Cl
ATOM      8 Cl1  UNL d   1      -2.211  -2.384   3.330  0.00  0.00    -0.070 Cl
ENDROOT
TORSDOF 0
ENDMDL
