MODEL 1
REMARK minimizedAffinity 7.02583265
REMARK minimizedRMSD -1
REMARK  0 active torsions:
REMARK  status: ('A' for Active; 'I' for Inactive)
ROOT
ATOM      1  C   UNL d   1      -4.861  -1.355   3.769  0.00  0.00     0.020 A 
ATOM      2  C1  UNL d   1      -4.610  -0.018   3.464  0.00  0.00     0.020 A 
ATOM      3  C2  UNL d   1      -3.378   0.354   2.921  0.00  0.00     0.034 A 
ATOM      4  C3  UNL d   1      -2.393  -0.611   2.683  0.00  0.00     0.017 A 
ATOM      5  C4  UNL d   1      -2.646  -1.953   2.989  0.00  0.00     0.017 A 
ATOM      6  C5  UNL d   1      -3.881  -2.320   3.532  0.00  0.00     0.034 A 
ATOM      7 Cl   UNL d   1      -1.480  -3.201   2.723  0.00  0.00    -0.070 Cl
ATOM      8 Cl1  UNL d   1      -0.893  -0.079   2.010  0.00  0.00    -0.070 Cl
ENDROOT
TORSDOF 0
ENDMDL
