MODEL 1
REMARK minimizedAffinity 5.29503202
REMARK minimizedRMSD -1
REMARK  0 active torsions:
REMARK  status: ('A' for Active; 'I' for Inactive)
ROOT
ATOM      1  C   UNL d   1      -0.274   2.013   3.642  0.00  0.00     0.020 A 
ATOM      2  C1  UNL d   1       0.927   2.540   3.167  0.00  0.00     0.020 A 
ATOM      3  C2  UNL d   1       0.970   3.158   1.915  0.00  0.00     0.034 A 
ATOM      4  C3  UNL d   1      -0.188   3.250   1.135  0.00  0.00     0.017 A 
ATOM      5  C4  UNL d   1      -1.392   2.721   1.613  0.00  0.00     0.017 A 
ATOM      6  C5  UNL d   1      -1.430   2.104   2.867  0.00  0.00     0.034 A 
ATOM      7 Cl   UNL d   1      -2.862   2.797   0.708  0.00  0.00    -0.070 Cl
ATOM      8 Cl1  UNL d   1      -0.061   4.027  -0.403  0.00  0.00    -0.070 Cl
ENDROOT
TORSDOF 0
ENDMDL
