MODEL 1
REMARK minimizedAffinity -1.62018812
REMARK minimizedRMSD -1
REMARK  1 active torsions:
REMARK  status: ('A' for Active; 'I' for Inactive)
REMARK    1  A    between atoms: C1_2  and  C2_3 
ROOT
ATOM      1  C2  UNL d   1      -0.201   1.120  -0.173  0.00  0.00    -0.081 A 
ATOM      2  C3  UNL d   1       0.707   0.080   0.059  0.00  0.00     0.006 A 
ATOM      3  C4  UNL d   1       0.622  -0.690   1.221  0.00  0.00     0.002 A 
ATOM      4  C5  UNL d   1      -0.377  -0.437   2.168  0.00  0.00    -0.080 A 
ATOM      5  C6  UNL d   1      -0.499  -1.275   3.406  0.00  0.00     0.076 C 
ATOM      6  C7  UNL d   1      -1.274   0.613   1.945  0.00  0.00     0.002 A 
ATOM      7  C8  UNL d   1      -1.189   1.383   0.783  0.00  0.00     0.006 A 
ENDROOT
BRANCH   1   8
ATOM      8  C1  UNL d   1      -0.152   1.910  -1.456  0.00  0.00     0.054 C 
ATOM      9  C   UNL d   1       1.257   2.411  -1.743  0.00  0.00     0.018 C 
ENDBRANCH   1   8
TORSDOF 1
ENDMDL
