MODEL 1
REMARK minimizedAffinity -4.23464012
REMARK minimizedRMSD -1
REMARK  1 active torsions:
REMARK  status: ('A' for Active; 'I' for Inactive)
REMARK    1  A    between atoms: C1_2  and  C2_3 
ROOT
ATOM      1  C2  UNL d   1       0.518  -0.669  -0.401  0.00  0.00    -0.081 A 
ATOM      2  C3  UNL d   1       0.318  -0.781   0.980  0.00  0.00     0.006 A 
ATOM      3  C4  UNL d   1      -0.485   0.141   1.656  0.00  0.00     0.002 A 
ATOM      4  C5  UNL d   1      -1.107   1.184   0.962  0.00  0.00    -0.080 A 
ATOM      5  C6  UNL d   1      -1.996   2.162   1.671  0.00  0.00     0.076 C 
ATOM      6  C7  UNL d   1      -0.893   1.306  -0.415  0.00  0.00     0.002 A 
ATOM      7  C8  UNL d   1      -0.090   0.385  -1.091  0.00  0.00     0.006 A 
ENDROOT
BRANCH   1   8
ATOM      8  C1  UNL d   1       1.330  -1.699  -1.144  0.00  0.00     0.054 C 
ATOM      9  C   UNL d   1       0.461  -2.509  -2.095  0.00  0.00     0.018 C 
ENDBRANCH   1   8
TORSDOF 1
ENDMDL
