MODEL 1
REMARK minimizedAffinity -5.81304312
REMARK minimizedRMSD -1
REMARK  1 active torsions:
REMARK  status: ('A' for Active; 'I' for Inactive)
REMARK    1  A    between atoms: C1_2  and  C2_3 
ROOT
ATOM      1  C2  UNL d   1       0.327  -0.123  -0.370  0.00  0.00    -0.081 A 
ATOM      2  C3  UNL d   1      -0.447  -0.478   0.742  0.00  0.00     0.006 A 
ATOM      3  C4  UNL d   1      -1.253   0.471   1.376  0.00  0.00     0.002 A 
ATOM      4  C5  UNL d   1      -1.305   1.787   0.904  0.00  0.00    -0.080 A 
ATOM      5  C6  UNL d   1      -2.189   2.808   1.556  0.00  0.00     0.076 C 
ATOM      6  C7  UNL d   1      -0.519   2.145  -0.196  0.00  0.00     0.002 A 
ATOM      7  C8  UNL d   1       0.288   1.197  -0.830  0.00  0.00     0.006 A 
ENDROOT
BRANCH   1   8
ATOM      8  C1  UNL d   1       1.147  -1.160  -1.095  0.00  0.00     0.054 C 
ATOM      9  C   UNL d   1       0.330  -1.856  -2.174  0.00  0.00     0.018 C 
ENDBRANCH   1   8
TORSDOF 1
ENDMDL
