MODEL 1
REMARK minimizedAffinity -3.83659029
REMARK minimizedRMSD -1
REMARK  1 active torsions:
REMARK  status: ('A' for Active; 'I' for Inactive)
REMARK    1  A    between atoms: C1_2  and  C2_3 
ROOT
ATOM      1  C2  UNL d   1       0.599  -0.544  -0.371  0.00  0.00    -0.081 A 
ATOM      2  C3  UNL d   1      -0.050  -0.925   0.810  0.00  0.00     0.006 A 
ATOM      3  C4  UNL d   1      -0.612   0.037   1.652  0.00  0.00     0.002 A 
ATOM      4  C5  UNL d   1      -0.543   1.395   1.323  0.00  0.00    -0.080 A 
ATOM      5  C6  UNL d   1      -1.169   2.436   2.202  0.00  0.00     0.076 C 
ATOM      6  C7  UNL d   1       0.120   1.778   0.152  0.00  0.00     0.002 A 
ATOM      7  C8  UNL d   1       0.683   0.816  -0.690  0.00  0.00     0.006 A 
ENDROOT
BRANCH   1   8
ATOM      8  C1  UNL d   1       1.149  -1.584  -1.313  0.00  0.00     0.054 C 
ATOM      9  C   UNL d   1       0.133  -1.955  -2.383  0.00  0.00     0.018 C 
ENDBRANCH   1   8
TORSDOF 1
ENDMDL
