MODEL 1
REMARK minimizedAffinity -3.30738449
REMARK minimizedRMSD -1
REMARK  1 active torsions:
REMARK  status: ('A' for Active; 'I' for Inactive)
REMARK    1  A    between atoms: C1_2  and  C2_3 
ROOT
ATOM      1  C2  UNL d   1       0.278   0.010   0.090  0.00  0.00    -0.081 A 
ATOM      2  C3  UNL d   1      -0.690  -0.654  -0.672  0.00  0.00     0.006 A 
ATOM      3  C4  UNL d   1      -0.322  -1.684  -1.541  0.00  0.00     0.002 A 
ATOM      4  C5  UNL d   1       1.017  -2.072  -1.656  0.00  0.00    -0.080 A 
ATOM      5  C6  UNL d   1       1.421  -3.196  -2.563  0.00  0.00     0.076 C 
ATOM      6  C7  UNL d   1       1.987  -1.396  -0.907  0.00  0.00     0.002 A 
ATOM      7  C8  UNL d   1       1.620  -0.366  -0.039  0.00  0.00     0.006 A 
ENDROOT
BRANCH   1   8
ATOM      8  C1  UNL d   1      -0.123   1.078   1.076  0.00  0.00     0.054 C 
ATOM      9  C   UNL d   1      -1.147   0.554   2.073  0.00  0.00     0.018 C 
ENDBRANCH   1   8
TORSDOF 1
ENDMDL
