MODEL 1
REMARK minimizedAffinity -3.13102269
REMARK minimizedRMSD -1
REMARK  1 active torsions:
REMARK  status: ('A' for Active; 'I' for Inactive)
REMARK    1  A    between atoms: C1_2  and  C2_3 
ROOT
ATOM      1  C2  UNL d   1       0.372  -0.354  -0.270  0.00  0.00    -0.081 A 
ATOM      2  C3  UNL d   1      -0.284  -0.778   0.892  0.00  0.00     0.006 A 
ATOM      3  C4  UNL d   1      -1.152   0.083   1.569  0.00  0.00     0.002 A 
ATOM      4  C5  UNL d   1      -1.384   1.377   1.092  0.00  0.00    -0.080 A 
ATOM      5  C6  UNL d   1      -2.336   2.300   1.792  0.00  0.00     0.076 C 
ATOM      6  C7  UNL d   1      -0.715   1.806  -0.060  0.00  0.00     0.002 A 
ATOM      7  C8  UNL d   1       0.153   0.946  -0.736  0.00  0.00     0.006 A 
ENDROOT
BRANCH   1   8
ATOM      8  C1  UNL d   1       1.258  -1.301  -1.038  0.00  0.00     0.054 C 
ATOM      9  C   UNL d   1       0.437  -2.277  -1.868  0.00  0.00     0.018 C 
ENDBRANCH   1   8
TORSDOF 1
ENDMDL
