MODEL 1
REMARK minimizedAffinity -5.8746829
REMARK minimizedRMSD -1
REMARK  1 active torsions:
REMARK  status: ('A' for Active; 'I' for Inactive)
REMARK    1  A    between atoms: C1_2  and  C2_3 
ROOT
ATOM      1  C2  UNL d   1       0.496  -0.299  -0.275  0.00  0.00    -0.081 A 
ATOM      2  C3  UNL d   1      -0.027  -0.785   0.929  0.00  0.00     0.006 A 
ATOM      3  C4  UNL d   1      -0.794   0.042   1.753  0.00  0.00     0.002 A 
ATOM      4  C5  UNL d   1      -1.057   1.366   1.383  0.00  0.00    -0.080 A 
ATOM      5  C6  UNL d   1      -1.904   2.255   2.244  0.00  0.00     0.076 C 
ATOM      6  C7  UNL d   1      -0.519   1.856   0.188  0.00  0.00     0.002 A 
ATOM      7  C8  UNL d   1       0.248   1.030  -0.635  0.00  0.00     0.006 A 
ENDROOT
BRANCH   1   8
ATOM      8  C1  UNL d   1       1.269  -1.208  -1.197  0.00  0.00     0.054 C 
ATOM      9  C   UNL d   1       0.350  -2.204  -1.891  0.00  0.00     0.018 C 
ENDBRANCH   1   8
TORSDOF 1
ENDMDL
