MODEL 1
REMARK minimizedAffinity -3.6122818
REMARK minimizedRMSD -1
REMARK  1 active torsions:
REMARK  status: ('A' for Active; 'I' for Inactive)
REMARK    1  A    between atoms: C1_2  and  C2_3 
ROOT
ATOM      1  C2  UNL d   1       0.426  -0.713   0.168  0.00  0.00    -0.081 A 
ATOM      2  C3  UNL d   1      -0.131  -0.668   1.452  0.00  0.00     0.006 A 
ATOM      3  C4  UNL d   1      -1.060   0.320   1.786  0.00  0.00     0.002 A 
ATOM      4  C5  UNL d   1      -1.454   1.273   0.841  0.00  0.00    -0.080 A 
ATOM      5  C6  UNL d   1      -2.473   2.321   1.178  0.00  0.00     0.076 C 
ATOM      6  C7  UNL d   1      -0.885   1.239  -0.436  0.00  0.00     0.002 A 
ATOM      7  C8  UNL d   1       0.045   0.252  -0.771  0.00  0.00     0.006 A 
ENDROOT
BRANCH   1   8
ATOM      8  C1  UNL d   1       1.379  -1.816  -0.216  0.00  0.00     0.054 C 
ATOM      9  C   UNL d   1       0.698  -2.854  -1.096  0.00  0.00     0.018 C 
ENDBRANCH   1   8
TORSDOF 1
ENDMDL
