MODEL 1
REMARK minimizedAffinity -3.71566129
REMARK minimizedRMSD -1
REMARK  1 active torsions:
REMARK  status: ('A' for Active; 'I' for Inactive)
REMARK    1  A    between atoms: C1_2  and  C2_3 
ROOT
ATOM      1  C2  UNL d   1       0.344  -0.742  -0.377  0.00  0.00    -0.081 A 
ATOM      2  C3  UNL d   1      -0.388  -0.891   0.807  0.00  0.00     0.006 A 
ATOM      3  C4  UNL d   1      -0.989   0.215   1.413  0.00  0.00     0.002 A 
ATOM      4  C5  UNL d   1      -0.876   1.486   0.840  0.00  0.00    -0.080 A 
ATOM      5  C6  UNL d   1      -1.542   2.677   1.463  0.00  0.00     0.076 C 
ATOM      6  C7  UNL d   1      -0.131   1.639  -0.334  0.00  0.00     0.002 A 
ATOM      7  C8  UNL d   1       0.472   0.533  -0.939  0.00  0.00     0.006 A 
ENDROOT
BRANCH   1   8
ATOM      8  C1  UNL d   1       0.939  -1.942  -1.067  0.00  0.00     0.054 C 
ATOM      9  C   UNL d   1       0.194  -2.267  -2.354  0.00  0.00     0.018 C 
ENDBRANCH   1   8
TORSDOF 1
ENDMDL
