MODEL 1
REMARK minimizedAffinity -5.04895687
REMARK minimizedRMSD -1
REMARK  1 active torsions:
REMARK  status: ('A' for Active; 'I' for Inactive)
REMARK    1  A    between atoms: C1_2  and  C2_3 
ROOT
ATOM      1  C2  UNL d   1       0.490   0.076  -0.298  0.00  0.00    -0.081 A 
ATOM      2  C3  UNL d   1       0.313   1.357  -0.837  0.00  0.00     0.006 A 
ATOM      3  C4  UNL d   1      -0.603   2.244  -0.266  0.00  0.00     0.002 A 
ATOM      4  C5  UNL d   1      -1.349   1.869   0.857  0.00  0.00    -0.080 A 
ATOM      5  C6  UNL d   1      -2.313   2.823   1.498  0.00  0.00     0.076 C 
ATOM      6  C7  UNL d   1      -1.184   0.584   1.384  0.00  0.00     0.002 A 
ATOM      7  C8  UNL d   1      -0.270  -0.304   0.813  0.00  0.00     0.006 A 
ENDROOT
BRANCH   1   8
ATOM      8  C1  UNL d   1       1.523  -0.860  -0.872  0.00  0.00     0.054 C 
ATOM      9  C   UNL d   1       0.870  -2.052  -1.556  0.00  0.00     0.018 C 
ENDBRANCH   1   8
TORSDOF 1
ENDMDL
