MODEL 1
REMARK minimizedAffinity -4.73681021
REMARK minimizedRMSD -1
REMARK  1 active torsions:
REMARK  status: ('A' for Active; 'I' for Inactive)
REMARK    1  A    between atoms: C1_2  and  C2_3 
ROOT
ATOM      1  C2  UNL d   1      -0.997   2.340   0.371  0.00  0.00    -0.081 A 
ATOM      2  C3  UNL d   1      -1.807   2.172   1.501  0.00  0.00     0.006 A 
ATOM      3  C4  UNL d   1      -1.806   0.963   2.200  0.00  0.00     0.002 A 
ATOM      4  C5  UNL d   1      -0.990  -0.096   1.786  0.00  0.00    -0.080 A 
ATOM      5  C6  UNL d   1      -0.957  -1.389   2.545  0.00  0.00     0.076 C 
ATOM      6  C7  UNL d   1      -0.194   0.065   0.646  0.00  0.00     0.002 A 
ATOM      7  C8  UNL d   1      -0.195   1.274  -0.053  0.00  0.00     0.006 A 
ENDROOT
BRANCH   1   8
ATOM      8  C1  UNL d   1      -0.947   3.664  -0.347  0.00  0.00     0.054 C 
ATOM      9  C   UNL d   1       0.010   3.617  -1.529  0.00  0.00     0.018 C 
ENDBRANCH   1   8
TORSDOF 1
ENDMDL
