MODEL 1
REMARK minimizedAffinity -5.25436258
REMARK minimizedRMSD -1
REMARK  1 active torsions:
REMARK  status: ('A' for Active; 'I' for Inactive)
REMARK    1  A    between atoms: C1_2  and  C2_3 
ROOT
ATOM      1  C2  UNL d   1       0.410  -1.256  -0.477  0.00  0.00    -0.081 A 
ATOM      2  C3  UNL d   1       0.032  -1.496   0.850  0.00  0.00     0.006 A 
ATOM      3  C4  UNL d   1      -0.494  -0.467   1.634  0.00  0.00     0.002 A 
ATOM      4  C5  UNL d   1      -0.659   0.817   1.102  0.00  0.00    -0.080 A 
ATOM      5  C6  UNL d   1      -1.251   1.924   1.924  0.00  0.00     0.076 C 
ATOM      6  C7  UNL d   1      -0.265   1.061  -0.218  0.00  0.00     0.002 A 
ATOM      7  C8  UNL d   1       0.262   0.033  -1.002  0.00  0.00     0.006 A 
ENDROOT
BRANCH   1   8
ATOM      8  C1  UNL d   1       0.918  -2.379  -1.344  0.00  0.00     0.054 C 
ATOM      9  C   UNL d   1       0.036  -2.574  -2.569  0.00  0.00     0.018 C 
ENDBRANCH   1   8
TORSDOF 1
ENDMDL
