MODEL 1
REMARK minimizedAffinity -1.90132284
REMARK minimizedRMSD -1
REMARK  1 active torsions:
REMARK  status: ('A' for Active; 'I' for Inactive)
REMARK    1  A    between atoms: C1_2  and  C2_3 
ROOT
ATOM      1  C2  UNL d   1      -0.434  -0.752  -0.989  0.00  0.00    -0.081 A 
ATOM      2  C3  UNL d   1      -1.564   0.075  -1.022  0.00  0.00     0.006 A 
ATOM      3  C4  UNL d   1      -1.838   0.943   0.038  0.00  0.00     0.002 A 
ATOM      4  C5  UNL d   1      -0.983   1.004   1.143  0.00  0.00    -0.080 A 
ATOM      5  C6  UNL d   1      -1.249   1.954   2.274  0.00  0.00     0.076 C 
ATOM      6  C7  UNL d   1       0.136   0.166   1.185  0.00  0.00     0.002 A 
ATOM      7  C8  UNL d   1       0.410  -0.703   0.126  0.00  0.00     0.006 A 
ENDROOT
BRANCH   1   8
ATOM      8  C1  UNL d   1      -0.101  -1.642  -2.159  0.00  0.00     0.054 C 
ATOM      9  C   UNL d   1      -0.107  -3.110  -1.756  0.00  0.00     0.018 C 
ENDBRANCH   1   8
TORSDOF 1
ENDMDL
