MODEL 1
REMARK minimizedAffinity 6.00883532
REMARK minimizedRMSD -1
REMARK  0 active torsions:
REMARK  status: ('A' for Active; 'I' for Inactive)
ROOT
ATOM      1  N1  IND d   1       5.999   3.097  -1.116  0.00  0.00    -0.196 N 
ATOM      2  C2  IND d   1       5.922   2.999  -2.478  0.00  0.00     0.054 A 
ATOM      3  C3  IND d   1       4.837   2.277  -2.836  0.00  0.00    -0.031 A 
ATOM      4  C4  IND d   1       2.997   1.247  -1.360  0.00  0.00     0.051 A 
ATOM      5  C5  IND d   1       2.653   1.042  -0.054  0.00  0.00    -0.031 A 
ATOM      6  C6  IND d   1       3.421   1.523   0.987  0.00  0.00     0.015 A 
ATOM      7  C7  IND d   1       4.561   2.241   0.758  0.00  0.00    -0.016 A 
ATOM      8  C8  IND d   1       4.917   2.445  -0.568  0.00  0.00    -0.047 A 
ATOM      9  C9  IND d   1       4.164   1.923  -1.627  0.00  0.00    -0.096 A 
ATOM     10  HN1 IND d   1       6.619   3.499  -0.676  0.00  0.00     0.298 HD
ENDROOT
TORSDOF 0
ENDMDL
