MODEL 1
REMARK minimizedAffinity 10.5449152
REMARK minimizedRMSD -1
REMARK  0 active torsions:
REMARK  status: ('A' for Active; 'I' for Inactive)
ROOT
ATOM      1  N1  IND d   1      -2.251  -2.460  -4.613  0.00  0.00    -0.196 N 
ATOM      2  C2  IND d   1      -3.104  -1.505  -5.090  0.00  0.00     0.054 A 
ATOM      3  C3  IND d   1      -3.097  -0.422  -4.280  0.00  0.00    -0.031 A 
ATOM      4  C4  IND d   1      -1.687   0.038  -2.176  0.00  0.00     0.051 A 
ATOM      5  C5  IND d   1      -0.791  -0.552  -1.329  0.00  0.00    -0.031 A 
ATOM      6  C6  IND d   1      -0.325  -1.834  -1.539  0.00  0.00     0.015 A 
ATOM      7  C7  IND d   1      -0.730  -2.572  -2.615  0.00  0.00    -0.016 A 
ATOM      8  C8  IND d   1      -1.645  -1.978  -3.474  0.00  0.00    -0.047 A 
ATOM      9  C9  IND d   1      -2.154  -0.694  -3.242  0.00  0.00    -0.096 A 
ATOM     10  HN1 IND d   1      -2.115  -3.233  -4.965  0.00  0.00     0.298 HD
ENDROOT
TORSDOF 0
ENDMDL
