MODEL 1
REMARK minimizedAffinity 8.16293049
REMARK minimizedRMSD -1
REMARK  0 active torsions:
REMARK  status: ('A' for Active; 'I' for Inactive)
ROOT
ATOM      1  N1  IND d   1       2.399   0.085  -0.959  0.00  0.00    -0.196 N 
ATOM      2  C2  IND d   1       2.125  -0.340   0.311  0.00  0.00     0.054 A 
ATOM      3  C3  IND d   1       2.955   0.257   1.196  0.00  0.00    -0.031 A 
ATOM      4  C4  IND d   1       4.767   2.040   0.793  0.00  0.00     0.051 A 
ATOM      5  C5  IND d   1       5.408   2.718  -0.206  0.00  0.00    -0.031 A 
ATOM      6  C6  IND d   1       5.070   2.552  -1.533  0.00  0.00     0.015 A 
ATOM      7  C7  IND d   1       4.066   1.706  -1.912  0.00  0.00    -0.016 A 
ATOM      8  C8  IND d   1       3.418   1.011  -0.901  0.00  0.00    -0.047 A 
ATOM      9  C9  IND d   1       3.785   1.143   0.444  0.00  0.00    -0.096 A 
ATOM     10  HN1 IND d   1       2.002  -0.180  -1.674  0.00  0.00     0.298 HD
ENDROOT
TORSDOF 0
ENDMDL
