MODEL 1
REMARK minimizedAffinity -2.41047311
REMARK minimizedRMSD -1
REMARK  0 active torsions:
REMARK  status: ('A' for Active; 'I' for Inactive)
ROOT
ATOM      1  C   UNL d   1      -2.680   1.352  -3.752  0.00  0.00     0.172 C 
ATOM      2  N   UNL d   1      -1.529   2.213  -3.615  0.00  0.00    -0.070 N 
ATOM      3  C1  UNL d   1      -1.032   3.042  -4.584  0.00  0.00    -0.004 A 
ATOM      4  C2  UNL d   1       0.067   3.691  -4.063  0.00  0.00    -0.047 A 
ATOM      5  C3  UNL d   1       0.236   3.235  -2.734  0.00  0.00    -0.047 A 
ATOM      6  C4  UNL d   1      -0.765   2.321  -2.482  0.00  0.00    -0.004 A 
ENDROOT
TORSDOF 0
ENDMDL
