MODEL 1
REMARK minimizedAffinity -1.44970083
REMARK minimizedRMSD -1
REMARK  0 active torsions:
REMARK  status: ('A' for Active; 'I' for Inactive)
ROOT
ATOM      1  C   UNL d   1      -0.150   0.029   0.903  0.00  0.00     0.172 C 
ATOM      2  N   UNL d   1       0.894  -0.799   1.460  0.00  0.00    -0.070 N 
ATOM      3  C1  UNL d   1       2.020  -1.215   0.801  0.00  0.00    -0.004 A 
ATOM      4  C2  UNL d   1       2.760  -1.983   1.674  0.00  0.00    -0.047 A 
ATOM      5  C3  UNL d   1       2.054  -2.031   2.900  0.00  0.00    -0.047 A 
ATOM      6  C4  UNL d   1       0.902  -1.289   2.739  0.00  0.00    -0.004 A 
ENDROOT
TORSDOF 0
ENDMDL
