MODEL 1
REMARK minimizedAffinity -2.76068592
REMARK minimizedRMSD -1
REMARK  0 active torsions:
REMARK  status: ('A' for Active; 'I' for Inactive)
ROOT
ATOM      1  C   UNL d   1       4.127  -0.827   3.860  0.00  0.00     0.172 C 
ATOM      2  N   UNL d   1       2.932  -1.150   3.116  0.00  0.00    -0.070 N 
ATOM      3  C1  UNL d   1       1.650  -1.072   3.591  0.00  0.00    -0.004 A 
ATOM      4  C2  UNL d   1       0.800  -1.462   2.578  0.00  0.00    -0.047 A 
ATOM      5  C3  UNL d   1       1.599  -1.786   1.456  0.00  0.00    -0.047 A 
ATOM      6  C4  UNL d   1       2.915  -1.584   1.817  0.00  0.00    -0.004 A 
ENDROOT
TORSDOF 0
ENDMDL
