MODEL 1
REMARK minimizedAffinity -1.19361305
REMARK minimizedRMSD -1
REMARK  0 active torsions:
REMARK  status: ('A' for Active; 'I' for Inactive)
ROOT
ATOM      1  C   UNL d   1       0.805  -5.277  -5.971  0.00  0.00     0.172 C 
ATOM      2  N   UNL d   1      -0.512  -5.397  -5.392  0.00  0.00    -0.070 N 
ATOM      3  C1  UNL d   1      -0.887  -4.931  -4.160  0.00  0.00    -0.004 A 
ATOM      4  C2  UNL d   1      -2.218  -5.240  -3.979  0.00  0.00    -0.047 A 
ATOM      5  C3  UNL d   1      -2.658  -5.916  -5.142  0.00  0.00    -0.047 A 
ATOM      6  C4  UNL d   1      -1.581  -5.999  -6.000  0.00  0.00    -0.004 A 
ENDROOT
TORSDOF 0
ENDMDL
