MODEL 1
REMARK minimizedAffinity 1.5872885
REMARK minimizedRMSD -1
REMARK  0 active torsions:
REMARK  status: ('A' for Active; 'I' for Inactive)
ROOT
ATOM      1  C   UNL d   1      -2.453  -4.549  -4.916  0.00  0.00     0.172 C 
ATOM      2  N   UNL d   1      -1.077  -4.958  -5.074  0.00  0.00    -0.070 N 
ATOM      3  C1  UNL d   1      -0.019  -4.505  -4.333  0.00  0.00    -0.004 A 
ATOM      4  C2  UNL d   1       1.118  -5.136  -4.791  0.00  0.00    -0.047 A 
ATOM      5  C3  UNL d   1       0.729  -5.997  -5.845  0.00  0.00    -0.047 A 
ATOM      6  C4  UNL d   1      -0.635  -5.867  -5.999  0.00  0.00    -0.004 A 
ENDROOT
TORSDOF 0
ENDMDL
