MODEL 1
REMARK minimizedAffinity -0.24931623
REMARK minimizedRMSD -1
REMARK  0 active torsions:
REMARK  status: ('A' for Active; 'I' for Inactive)
ROOT
ATOM      1  C   UNL d   1       1.496  -4.857  -5.362  0.00  0.00     0.172 C 
ATOM      2  N   UNL d   1       0.101  -5.174  -5.162  0.00  0.00    -0.070 N 
ATOM      3  C1  UNL d   1      -0.674  -5.932  -5.999  0.00  0.00    -0.004 A 
ATOM      4  C2  UNL d   1      -1.939  -5.999  -5.457  0.00  0.00    -0.047 A 
ATOM      5  C3  UNL d   1      -1.924  -5.254  -4.253  0.00  0.00    -0.047 A 
ATOM      6  C4  UNL d   1      -0.649  -4.755  -4.095  0.00  0.00    -0.004 A 
ENDROOT
TORSDOF 0
ENDMDL
