MODEL 1
REMARK minimizedAffinity 1.19716048
REMARK minimizedRMSD -1
REMARK  0 active torsions:
REMARK  status: ('A' for Active; 'I' for Inactive)
ROOT
ATOM      1  C   UNL d   1      -3.207  -5.242  -3.816  0.00  0.00     0.172 C 
ATOM      2  N   UNL d   1      -1.870  -5.307  -4.358  0.00  0.00    -0.070 N 
ATOM      3  C1  UNL d   1      -1.552  -5.434  -5.684  0.00  0.00    -0.004 A 
ATOM      4  C2  UNL d   1      -0.178  -5.458  -5.787  0.00  0.00    -0.047 A 
ATOM      5  C3  UNL d   1       0.348  -5.343  -4.478  0.00  0.00    -0.047 A 
ATOM      6  C4  UNL d   1      -0.722  -5.251  -3.613  0.00  0.00    -0.004 A 
ENDROOT
TORSDOF 0
ENDMDL
