MODEL 1
REMARK minimizedAffinity 1.33851457
REMARK minimizedRMSD -1
REMARK  0 active torsions:
REMARK  status: ('A' for Active; 'I' for Inactive)
ROOT
ATOM      1  C   UNL d   1      -3.310   1.692  -3.569  0.00  0.00     0.172 C 
ATOM      2  N   UNL d   1      -3.895   0.729  -2.666  0.00  0.00    -0.070 N 
ATOM      3  C1  UNL d   1      -5.235   0.497  -2.505  0.00  0.00    -0.004 A 
ATOM      4  C2  UNL d   1      -5.381  -0.492  -1.556  0.00  0.00    -0.047 A 
ATOM      5  C3  UNL d   1      -4.085  -0.868  -1.133  0.00  0.00    -0.047 A 
ATOM      6  C4  UNL d   1      -3.183  -0.096  -1.836  0.00  0.00    -0.004 A 
ENDROOT
TORSDOF 0
ENDMDL
