MODEL 1
REMARK minimizedAffinity 0.682130575
REMARK minimizedRMSD -1
REMARK  0 active torsions:
REMARK  status: ('A' for Active; 'I' for Inactive)
ROOT
ATOM      1  C   UNL d   1       0.083  -3.296  -0.091  0.00  0.00     0.172 C 
ATOM      2  N   UNL d   1       0.131  -1.853  -0.062  0.00  0.00    -0.070 N 
ATOM      3  C1  UNL d   1       0.280  -1.082   1.060  0.00  0.00    -0.004 A 
ATOM      4  C2  UNL d   1       0.277   0.240   0.667  0.00  0.00    -0.047 A 
ATOM      5  C3  UNL d   1       0.119   0.263  -0.739  0.00  0.00    -0.047 A 
ATOM      6  C4  UNL d   1       0.031  -1.045  -1.164  0.00  0.00    -0.004 A 
ENDROOT
TORSDOF 0
ENDMDL
