MODEL 1
REMARK minimizedAffinity 0.889857233
REMARK minimizedRMSD -1
REMARK  0 active torsions:
REMARK  status: ('A' for Active; 'I' for Inactive)
ROOT
ATOM      1  C   UNL d   1      -3.578   1.414  -3.078  0.00  0.00     0.172 C 
ATOM      2  N   UNL d   1      -4.140   0.549  -2.068  0.00  0.00    -0.070 N 
ATOM      3  C1  UNL d   1      -3.864   0.602  -0.728  0.00  0.00    -0.004 A 
ATOM      4  C2  UNL d   1      -4.598  -0.386  -0.106  0.00  0.00    -0.047 A 
ATOM      5  C3  UNL d   1      -5.340  -1.056  -1.108  0.00  0.00    -0.047 A 
ATOM      6  C4  UNL d   1      -5.038  -0.457  -2.313  0.00  0.00    -0.004 A 
ENDROOT
TORSDOF 0
ENDMDL
