MODEL 1
REMARK minimizedAffinity 1.06604433
REMARK minimizedRMSD -1
REMARK  0 active torsions:
REMARK  status: ('A' for Active; 'I' for Inactive)
ROOT
ATOM      1  C   UNL d   1      -2.762  -5.262  -4.470  0.00  0.00     0.172 C 
ATOM      2  N   UNL d   1      -1.374  -5.386  -4.848  0.00  0.00    -0.070 N 
ATOM      3  C1  UNL d   1      -0.306  -4.914  -4.132  0.00  0.00    -0.004 A 
ATOM      4  C2  UNL d   1       0.841  -5.232  -4.826  0.00  0.00    -0.047 A 
ATOM      5  C3  UNL d   1       0.449  -5.919  -6.000  0.00  0.00    -0.047 A 
ATOM      6  C4  UNL d   1      -0.927  -6.000  -5.988  0.00  0.00    -0.004 A 
ENDROOT
TORSDOF 0
ENDMDL
