MODEL 1
REMARK minimizedAffinity 2.38096666
REMARK minimizedRMSD -1
REMARK  0 active torsions:
REMARK  status: ('A' for Active; 'I' for Inactive)
ROOT
ATOM      1  C   UNL d   1       1.663  -0.809   0.811  0.00  0.00     0.172 C 
ATOM      2  N   UNL d   1       2.869  -0.816   1.605  0.00  0.00    -0.070 N 
ATOM      3  C1  UNL d   1       4.113  -0.444   1.171  0.00  0.00    -0.004 A 
ATOM      4  C2  UNL d   1       4.990  -0.592   2.224  0.00  0.00    -0.047 A 
ATOM      5  C3  UNL d   1       4.247  -1.070   3.329  0.00  0.00    -0.047 A 
ATOM      6  C4  UNL d   1       2.937  -1.200   2.919  0.00  0.00    -0.004 A 
ENDROOT
TORSDOF 0
ENDMDL
