MODEL 1
REMARK minimizedAffinity 1.25736642
REMARK minimizedRMSD -1
REMARK  0 active torsions:
REMARK  status: ('A' for Active; 'I' for Inactive)
ROOT
ATOM      1  C   UNL d   1       1.712  -4.749  -4.681  0.00  0.00     0.172 C 
ATOM      2  N   UNL d   1       0.347  -5.056  -5.037  0.00  0.00    -0.070 N 
ATOM      3  C1  UNL d   1      -0.048  -5.999  -5.947  0.00  0.00    -0.004 A 
ATOM      4  C2  UNL d   1      -1.425  -5.985  -6.000  0.00  0.00    -0.047 A 
ATOM      5  C3  UNL d   1      -1.873  -4.998  -5.090  0.00  0.00    -0.047 A 
ATOM      6  C4  UNL d   1      -0.755  -4.438  -4.508  0.00  0.00    -0.004 A 
ENDROOT
TORSDOF 0
ENDMDL
