MODEL 1
REMARK minimizedAffinity -1.5824405
REMARK minimizedRMSD -1
REMARK  0 active torsions:
REMARK  status: ('A' for Active; 'I' for Inactive)
ROOT
ATOM      1  C   UNL d   1      -2.228  -5.102  -4.471  0.00  0.00     0.172 C 
ATOM      2  N   UNL d   1      -0.857  -5.336  -4.859  0.00  0.00    -0.070 N 
ATOM      3  C1  UNL d   1      -0.448  -5.979  -5.997  0.00  0.00    -0.004 A 
ATOM      4  C2  UNL d   1       0.930  -5.996  -5.999  0.00  0.00    -0.047 A 
ATOM      5  C3  UNL d   1       1.364  -5.341  -4.822  0.00  0.00    -0.047 A 
ATOM      6  C4  UNL d   1       0.238  -4.943  -4.135  0.00  0.00    -0.004 A 
ENDROOT
TORSDOF 0
ENDMDL
