MODEL 1
REMARK minimizedAffinity -1.42791998
REMARK minimizedRMSD -1
REMARK  0 active torsions:
REMARK  status: ('A' for Active; 'I' for Inactive)
ROOT
ATOM      1  C   UNL d   1       1.344  -5.877  -5.991  0.00  0.00     0.172 C 
ATOM      2  N   UNL d   1       0.050  -5.855  -5.349  0.00  0.00    -0.070 N 
ATOM      3  C1  UNL d   1      -0.173  -5.689  -4.008  0.00  0.00    -0.004 A 
ATOM      4  C2  UNL d   1      -1.534  -5.727  -3.799  0.00  0.00    -0.047 A 
ATOM      5  C3  UNL d   1      -2.151  -5.924  -5.058  0.00  0.00    -0.047 A 
ATOM      6  C4  UNL d   1      -1.146  -6.000  -6.000  0.00  0.00    -0.004 A 
ENDROOT
TORSDOF 0
ENDMDL
