MODEL 1
REMARK minimizedAffinity 0.185856417
REMARK minimizedRMSD -1
REMARK  0 active torsions:
REMARK  status: ('A' for Active; 'I' for Inactive)
ROOT
ATOM      1  C   UNL d   1      -4.112   0.479   0.336  0.00  0.00     0.172 C 
ATOM      2  N   UNL d   1      -4.677   0.526  -0.992  0.00  0.00    -0.070 N 
ATOM      3  C1  UNL d   1      -4.225   1.303  -2.025  0.00  0.00    -0.004 A 
ATOM      4  C2  UNL d   1      -5.029   1.060  -3.118  0.00  0.00    -0.047 A 
ATOM      5  C3  UNL d   1      -5.998   0.106  -2.728  0.00  0.00    -0.047 A 
ATOM      6  C4  UNL d   1      -5.757  -0.208  -1.407  0.00  0.00    -0.004 A 
ENDROOT
TORSDOF 0
ENDMDL
