MODEL 1
REMARK minimizedAffinity 23.2474251
REMARK minimizedRMSD -1
REMARK  0 active torsions:
REMARK  status: ('A' for Active; 'I' for Inactive)
ROOT
ATOM      1  C   UNL d   1       1.909   0.991   4.043  0.00  0.00     0.124 A 
ATOM      2  C1  UNL d   1       2.119   2.109   3.248  0.00  0.00     0.062 A 
ATOM      3  C2  UNL d   1       2.516   1.962   1.922  0.00  0.00     0.162 A 
ATOM      4  C3  UNL d   1       2.705   0.690   1.382  0.00  0.00    -0.034 A 
ATOM      5  C4  UNL d   1       2.493  -0.431   2.187  0.00  0.00     0.162 A 
ATOM      6  C5  UNL d   1       2.096  -0.278   3.512  0.00  0.00     0.062 A 
ATOM      7  F   UNL d   1       1.894  -1.359   4.278  0.00  0.00    -0.097 F 
ATOM      8  F1  UNL d   1       2.665  -1.668   1.700  0.00  0.00    -0.096 F 
ATOM      9  I   UNL d   1       3.298   0.464  -0.600  0.00  0.00    -0.060 I 
ATOM     10  F2  UNL d   1       2.711   3.060   1.177  0.00  0.00    -0.096 F 
ATOM     11  F3  UNL d   1       1.939   3.336   3.759  0.00  0.00    -0.097 F 
ATOM     12  F4  UNL d   1       1.528   1.136   5.318  0.00  0.00    -0.092 F 
ENDROOT
TORSDOF 0
ENDMDL
