MODEL 1
REMARK minimizedAffinity 26.3351955
REMARK minimizedRMSD -1
REMARK  0 active torsions:
REMARK  status: ('A' for Active; 'I' for Inactive)
ROOT
ATOM      1  C   UNL d   1       3.211  -2.378  -2.205  0.00  0.00     0.124 A 
ATOM      2  C1  UNL d   1       4.238  -2.046  -3.078  0.00  0.00     0.062 A 
ATOM      3  C2  UNL d   1       5.013  -3.045  -3.659  0.00  0.00     0.162 A 
ATOM      4  C3  UNL d   1       4.765  -4.387  -3.369  0.00  0.00    -0.034 A 
ATOM      5  C4  UNL d   1       3.731  -4.713  -2.489  0.00  0.00     0.162 A 
ATOM      6  C5  UNL d   1       2.959  -3.711  -1.912  0.00  0.00     0.062 A 
ATOM      7  F   UNL d   1       1.967  -4.034  -1.068  0.00  0.00    -0.097 F 
ATOM      8  F1  UNL d   1       3.465  -5.993  -2.189  0.00  0.00    -0.096 F 
ATOM      9  I   UNL d   1       5.923  -5.884  -4.236  0.00  0.00    -0.060 I 
ATOM     10  F2  UNL d   1       5.999  -2.695  -4.499  0.00  0.00    -0.096 F 
ATOM     11  F3  UNL d   1       4.484  -0.759  -3.362  0.00  0.00    -0.097 F 
ATOM     12  F4  UNL d   1       2.467  -1.415  -1.647  0.00  0.00    -0.092 F 
ENDROOT
TORSDOF 0
ENDMDL
