MODEL 1
REMARK minimizedAffinity 21.5624943
REMARK minimizedRMSD -1
REMARK  0 active torsions:
REMARK  status: ('A' for Active; 'I' for Inactive)
ROOT
ATOM      1  C   UNL d   1       1.871   0.784   3.664  0.00  0.00     0.124 A 
ATOM      2  C1  UNL d   1       2.216   1.810   2.796  0.00  0.00     0.062 A 
ATOM      3  C2  UNL d   1       2.757   1.518   1.547  0.00  0.00     0.162 A 
ATOM      4  C3  UNL d   1       2.956   0.193   1.158  0.00  0.00    -0.034 A 
ATOM      5  C4  UNL d   1       2.608  -0.833   2.038  0.00  0.00     0.162 A 
ATOM      6  C5  UNL d   1       2.068  -0.537   3.285  0.00  0.00     0.062 A 
ATOM      7  F   UNL d   1       1.735  -1.530   4.122  0.00  0.00    -0.097 F 
ATOM      8  F1  UNL d   1       2.786  -2.118   1.696  0.00  0.00    -0.096 F 
ATOM      9  I   UNL d   1       3.765  -0.247  -0.708  0.00  0.00    -0.060 I 
ATOM     10  F2  UNL d   1       3.081   2.530   0.728  0.00  0.00    -0.096 F 
ATOM     11  F3  UNL d   1       2.028   3.086   3.160  0.00  0.00    -0.097 F 
ATOM     12  F4  UNL d   1       1.352   1.067   4.866  0.00  0.00    -0.092 F 
ENDROOT
TORSDOF 0
ENDMDL
