MODEL 1
REMARK minimizedAffinity 27.4366398
REMARK minimizedRMSD -1
REMARK  0 active torsions:
REMARK  status: ('A' for Active; 'I' for Inactive)
ROOT
ATOM      1  C   UNL d   1      -1.075  -4.450  -0.556  0.00  0.00     0.124 A 
ATOM      2  C1  UNL d   1       0.228  -4.812  -0.246  0.00  0.00     0.062 A 
ATOM      3  C2  UNL d   1       1.282  -3.947  -0.527  0.00  0.00     0.162 A 
ATOM      4  C3  UNL d   1       1.036  -2.710  -1.122  0.00  0.00    -0.034 A 
ATOM      5  C4  UNL d   1      -0.277  -2.352  -1.433  0.00  0.00     0.162 A 
ATOM      6  C5  UNL d   1      -1.327  -3.221  -1.149  0.00  0.00     0.062 A 
ATOM      7  F   UNL d   1      -2.585  -2.869  -1.450  0.00  0.00    -0.097 F 
ATOM      8  F1  UNL d   1      -0.549  -1.170  -2.005  0.00  0.00    -0.096 F 
ATOM      9  I   UNL d   1       2.608  -1.413  -1.545  0.00  0.00    -0.060 I 
ATOM     10  F2  UNL d   1       2.531  -4.324  -0.216  0.00  0.00    -0.096 F 
ATOM     11  F3  UNL d   1       0.474  -6.000   0.326  0.00  0.00    -0.097 F 
ATOM     12  F4  UNL d   1      -2.086  -5.285  -0.285  0.00  0.00    -0.092 F 
ENDROOT
TORSDOF 0
ENDMDL
