MODEL 1
REMARK minimizedAffinity 24.3268394
REMARK minimizedRMSD -1
REMARK  0 active torsions:
REMARK  status: ('A' for Active; 'I' for Inactive)
ROOT
ATOM      1  C   UNL d   1       3.127  -1.101  -2.915  0.00  0.00     0.124 A 
ATOM      2  C1  UNL d   1       2.321  -1.935  -2.152  0.00  0.00     0.062 A 
ATOM      3  C2  UNL d   1       2.751  -3.218  -1.827  0.00  0.00     0.162 A 
ATOM      4  C3  UNL d   1       3.994  -3.676  -2.264  0.00  0.00    -0.034 A 
ATOM      5  C4  UNL d   1       4.798  -2.832  -3.032  0.00  0.00     0.162 A 
ATOM      6  C5  UNL d   1       4.364  -1.550  -3.354  0.00  0.00     0.062 A 
ATOM      7  F   UNL d   1       5.144  -0.746  -4.092  0.00  0.00    -0.097 F 
ATOM      8  F1  UNL d   1       5.999  -3.240  -3.469  0.00  0.00    -0.096 F 
ATOM      9  I   UNL d   1       4.640  -5.594  -1.780  0.00  0.00    -0.060 I 
ATOM     10  F2  UNL d   1       1.951  -4.002  -1.088  0.00  0.00    -0.096 F 
ATOM     11  F3  UNL d   1       1.125  -1.503  -1.727  0.00  0.00    -0.097 F 
ATOM     12  F4  UNL d   1       2.710   0.133  -3.227  0.00  0.00    -0.092 F 
ENDROOT
TORSDOF 0
ENDMDL
