MODEL 1
REMARK minimizedAffinity 21.5007133
REMARK minimizedRMSD -1
REMARK  0 active torsions:
REMARK  status: ('A' for Active; 'I' for Inactive)
ROOT
ATOM      1  C   UNL d   1       1.912   4.726   0.929  0.00  0.00     0.124 A 
ATOM      2  C1  UNL d   1       2.187   3.773  -0.042  0.00  0.00     0.062 A 
ATOM      3  C2  UNL d   1       2.420   2.450   0.322  0.00  0.00     0.162 A 
ATOM      4  C3  UNL d   1       2.378   2.071   1.664  0.00  0.00    -0.034 A 
ATOM      5  C4  UNL d   1       2.102   3.035   2.635  0.00  0.00     0.162 A 
ATOM      6  C5  UNL d   1       1.869   4.356   2.266  0.00  0.00     0.062 A 
ATOM      7  F   UNL d   1       1.604   5.275   3.206  0.00  0.00    -0.097 F 
ATOM      8  F1  UNL d   1       2.054   2.705   3.934  0.00  0.00    -0.096 F 
ATOM      9  I   UNL d   1       2.726   0.094   2.211  0.00  0.00    -0.060 I 
ATOM     10  F2  UNL d   1       2.684   1.551  -0.638  0.00  0.00    -0.096 F 
ATOM     11  F3  UNL d   1       2.229   4.128  -1.334  0.00  0.00    -0.097 F 
ATOM     12  F4  UNL d   1       1.689   5.999   0.577  0.00  0.00    -0.092 F 
ENDROOT
TORSDOF 0
ENDMDL
