MODEL 1
REMARK minimizedAffinity 5.6965394
REMARK minimizedRMSD -1
REMARK  0 active torsions:
REMARK  status: ('A' for Active; 'I' for Inactive)
ROOT
ATOM      1  C   UNL d   1       3.329  -2.420   3.766  0.00  0.00     0.124 A 
ATOM      2  C1  UNL d   1       1.963  -2.426   3.523  0.00  0.00     0.062 A 
ATOM      3  C2  UNL d   1       1.151  -3.390   4.115  0.00  0.00     0.162 A 
ATOM      4  C3  UNL d   1       1.704  -4.355   4.957  0.00  0.00    -0.034 A 
ATOM      5  C4  UNL d   1       3.079  -4.342   5.196  0.00  0.00     0.162 A 
ATOM      6  C5  UNL d   1       3.886  -3.377   4.602  0.00  0.00     0.062 A 
ATOM      7  F   UNL d   1       5.206  -3.373   4.838  0.00  0.00    -0.097 F 
ATOM      8  F1  UNL d   1       3.644  -5.256   6.000  0.00  0.00    -0.096 F 
ATOM      9  I   UNL d   1       0.494  -5.797   5.844  0.00  0.00    -0.060 I 
ATOM     10  F2  UNL d   1      -0.166  -3.372   3.862  0.00  0.00    -0.096 F 
ATOM     11  F3  UNL d   1       1.423  -1.502   2.715  0.00  0.00    -0.097 F 
ATOM     12  F4  UNL d   1       4.108  -1.492   3.195  0.00  0.00    -0.092 F 
ENDROOT
TORSDOF 0
ENDMDL
