MODEL 1
REMARK minimizedAffinity 13.1664038
REMARK minimizedRMSD -1
REMARK  0 active torsions:
REMARK  status: ('A' for Active; 'I' for Inactive)
ROOT
ATOM      1  C   UNL d   1       3.592  -2.404   3.978  0.00  0.00     0.124 A 
ATOM      2  C1  UNL d   1       2.209  -2.379   3.863  0.00  0.00     0.062 A 
ATOM      3  C2  UNL d   1       1.441  -3.392   4.431  0.00  0.00     0.162 A 
ATOM      4  C3  UNL d   1       2.055  -4.438   5.121  0.00  0.00    -0.034 A 
ATOM      5  C4  UNL d   1       3.446  -4.456   5.231  0.00  0.00     0.162 A 
ATOM      6  C5  UNL d   1       4.209  -3.442   4.662  0.00  0.00     0.062 A 
ATOM      7  F   UNL d   1       5.545  -3.467   4.774  0.00  0.00    -0.097 F 
ATOM      8  F1  UNL d   1       4.069  -5.447   5.888  0.00  0.00    -0.096 F 
ATOM      9  I   UNL d   1       0.910  -5.953   5.972  0.00  0.00    -0.060 I 
ATOM     10  F2  UNL d   1       0.107  -3.343   4.305  0.00  0.00    -0.096 F 
ATOM     11  F3  UNL d   1       1.610  -1.378   3.202  0.00  0.00    -0.097 F 
ATOM     12  F4  UNL d   1       4.328  -1.429   3.429  0.00  0.00    -0.092 F 
ENDROOT
TORSDOF 0
ENDMDL
