MODEL 1
REMARK minimizedAffinity 20.7377892
REMARK minimizedRMSD -1
REMARK  0 active torsions:
REMARK  status: ('A' for Active; 'I' for Inactive)
ROOT
ATOM      1  C   UNL d   1       2.626  -1.410   3.212  0.00  0.00     0.124 A 
ATOM      2  C1  UNL d   1       2.420  -0.943   4.503  0.00  0.00     0.062 A 
ATOM      3  C2  UNL d   1       2.304   0.424   4.742  0.00  0.00     0.162 A 
ATOM      4  C3  UNL d   1       2.393   1.333   3.688  0.00  0.00    -0.034 A 
ATOM      5  C4  UNL d   1       2.601   0.855   2.393  0.00  0.00     0.162 A 
ATOM      6  C5  UNL d   1       2.716  -0.511   2.159  0.00  0.00     0.062 A 
ATOM      7  F   UNL d   1       2.914  -0.961   0.911  0.00  0.00    -0.097 F 
ATOM      8  F1  UNL d   1       2.691   1.701   1.356  0.00  0.00    -0.096 F 
ATOM      9  I   UNL d   1       2.220   3.376   4.042  0.00  0.00    -0.060 I 
ATOM     10  F2  UNL d   1       2.106   0.847   5.999  0.00  0.00    -0.096 F 
ATOM     11  F3  UNL d   1       2.334  -1.809   5.523  0.00  0.00    -0.097 F 
ATOM     12  F4  UNL d   1       2.738  -2.725   2.985  0.00  0.00    -0.092 F 
ENDROOT
TORSDOF 0
ENDMDL
