MODEL 1
REMARK minimizedAffinity 4.98711348
REMARK minimizedRMSD -1
REMARK  0 active torsions:
REMARK  status: ('A' for Active; 'I' for Inactive)
ROOT
ATOM      1  N1  IND d   1      -2.010   2.935  -0.660  0.00  0.00    -0.196 N 
ATOM      2  C2  IND d   1      -0.732   2.595  -0.313  0.00  0.00     0.054 A 
ATOM      3  C3  IND d   1      -0.740   1.566   0.563  0.00  0.00    -0.031 A 
ATOM      4  C4  IND d   1      -2.730   0.218   1.485  0.00  0.00     0.051 A 
ATOM      5  C5  IND d   1      -4.096   0.179   1.486  0.00  0.00    -0.031 A 
ATOM      6  C6  IND d   1      -4.852   1.072   0.755  0.00  0.00     0.015 A 
ATOM      7  C7  IND d   1      -4.267   2.036  -0.017  0.00  0.00    -0.016 A 
ATOM      8  C8  IND d   1      -2.880   2.083  -0.015  0.00  0.00    -0.047 A 
ATOM      9  C9  IND d   1      -2.109   1.206   0.759  0.00  0.00    -0.096 A 
ATOM     10  HN1 IND d   1      -2.234   3.573  -1.191  0.00  0.00     0.298 HD
ENDROOT
TORSDOF 0
ENDMDL
