MODEL 1
REMARK minimizedAffinity 12.2098055
REMARK minimizedRMSD -1
REMARK  0 active torsions:
REMARK  status: ('A' for Active; 'I' for Inactive)
ROOT
ATOM      1  N1  IND d   1      -0.756   3.301  -0.597  0.00  0.00    -0.196 N 
ATOM      2  C2  IND d   1       0.319   2.661  -0.046  0.00  0.00     0.054 A 
ATOM      3  C3  IND d   1      -0.078   1.535   0.589  0.00  0.00    -0.031 A 
ATOM      4  C4  IND d   1      -2.427   0.497   0.762  0.00  0.00     0.051 A 
ATOM      5  C5  IND d   1      -3.736   0.736   0.450  0.00  0.00    -0.031 A 
ATOM      6  C6  IND d   1      -4.126   1.864  -0.243  0.00  0.00     0.015 A 
ATOM      7  C7  IND d   1      -3.216   2.793  -0.662  0.00  0.00    -0.016 A 
ATOM      8  C8  IND d   1      -1.887   2.557  -0.341  0.00  0.00    -0.047 A 
ATOM      9  C9  IND d   1      -1.490   1.436   0.400  0.00  0.00    -0.096 A 
ATOM     10  HN1 IND d   1      -0.731   4.043  -1.030  0.00  0.00     0.298 HD
ENDROOT
TORSDOF 0
ENDMDL
