MODEL 1
REMARK minimizedAffinity 1.21029389
REMARK minimizedRMSD -1
REMARK  0 active torsions:
REMARK  status: ('A' for Active; 'I' for Inactive)
ROOT
ATOM      1  N1  IND d   1      -3.832   1.177   0.057  0.00  0.00    -0.196 N 
ATOM      2  C2  IND d   1      -3.942   2.244  -0.791  0.00  0.00     0.054 A 
ATOM      3  C3  IND d   1      -2.726   2.787  -1.023  0.00  0.00    -0.031 A 
ATOM      4  C4  IND d   1      -0.410   2.024  -0.198  0.00  0.00     0.051 A 
ATOM      5  C5  IND d   1       0.195   1.120   0.629  0.00  0.00    -0.031 A 
ATOM      6  C6  IND d   1      -0.526   0.167   1.319  0.00  0.00     0.015 A 
ATOM      7  C7  IND d   1      -1.884   0.075   1.199  0.00  0.00    -0.016 A 
ATOM      8  C8  IND d   1      -2.502   0.997   0.366  0.00  0.00    -0.047 A 
ATOM      9  C9  IND d   1      -1.780   1.993  -0.304  0.00  0.00    -0.096 A 
ATOM     10  HN1 IND d   1      -4.485   0.698   0.348  0.00  0.00     0.298 HD
ENDROOT
TORSDOF 0
ENDMDL
