MODEL 1
REMARK minimizedAffinity -0.656532168
REMARK minimizedRMSD -1
REMARK  0 active torsions:
REMARK  status: ('A' for Active; 'I' for Inactive)
ROOT
ATOM      1  N1  IND d   1      -3.474   1.426   0.242  0.00  0.00    -0.196 N 
ATOM      2  C2  IND d   1      -3.370   2.607  -0.439  0.00  0.00     0.054 A 
ATOM      3  C3  IND d   1      -2.074   2.975  -0.547  0.00  0.00    -0.031 A 
ATOM      4  C4  IND d   1       0.047   1.740   0.228  0.00  0.00     0.051 A 
ATOM      5  C5  IND d   1       0.459   0.641   0.928  0.00  0.00    -0.031 A 
ATOM      6  C6  IND d   1      -0.438  -0.273   1.444  0.00  0.00     0.015 A 
ATOM      7  C7  IND d   1      -1.785  -0.127   1.267  0.00  0.00    -0.016 A 
ATOM      8  C8  IND d   1      -2.206   0.992   0.563  0.00  0.00    -0.047 A 
ATOM      9  C9  IND d   1      -1.303   1.945   0.074  0.00  0.00    -0.096 A 
ATOM     10  HN1 IND d   1      -4.207   1.022   0.437  0.00  0.00     0.298 HD
ENDROOT
TORSDOF 0
ENDMDL
