MODEL 1
REMARK minimizedAffinity 6.22882557
REMARK minimizedRMSD -1
REMARK  0 active torsions:
REMARK  status: ('A' for Active; 'I' for Inactive)
ROOT
ATOM      1  N1  IND d   1      -0.620  -4.374  -3.682  0.00  0.00    -0.196 N 
ATOM      2  C2  IND d   1      -0.090  -5.548  -3.224  0.00  0.00     0.054 A 
ATOM      3  C3  IND d   1      -0.498  -5.785  -1.957  0.00  0.00    -0.031 A 
ATOM      4  C4  IND d   1      -2.118  -4.434  -0.480  0.00  0.00     0.051 A 
ATOM      5  C5  IND d   1      -2.830  -3.268  -0.450  0.00  0.00    -0.031 A 
ATOM      6  C6  IND d   1      -2.845  -2.395  -1.518  0.00  0.00     0.015 A 
ATOM      7  C7  IND d   1      -2.154  -2.662  -2.666  0.00  0.00    -0.016 A 
ATOM      8  C8  IND d   1      -1.423  -3.842  -2.698  0.00  0.00    -0.047 A 
ATOM      9  C9  IND d   1      -1.371  -4.711  -1.601  0.00  0.00    -0.096 A 
ATOM     10  HN1 IND d   1      -0.477  -4.027  -4.456  0.00  0.00     0.298 HD
ENDROOT
TORSDOF 0
ENDMDL
