MODEL 1
REMARK minimizedAffinity -0.790698647
REMARK minimizedRMSD -1
REMARK  0 active torsions:
REMARK  status: ('A' for Active; 'I' for Inactive)
ROOT
ATOM      1  N1  IND d   1      -4.140   0.594   1.131  0.00  0.00    -0.196 N 
ATOM      2  C2  IND d   1      -3.907  -0.611   1.732  0.00  0.00     0.054 A 
ATOM      3  C3  IND d   1      -2.594  -0.927   1.660  0.00  0.00    -0.031 A 
ATOM      4  C4  IND d   1      -0.636   0.435   0.693  0.00  0.00     0.051 A 
ATOM      5  C5  IND d   1      -0.358   1.583   0.004  0.00  0.00    -0.031 A 
ATOM      6  C6  IND d   1      -1.346   2.479  -0.348  0.00  0.00     0.015 A 
ATOM      7  C7  IND d   1      -2.653   2.265  -0.015  0.00  0.00    -0.016 A 
ATOM      8  C8  IND d   1      -2.940   1.098   0.678  0.00  0.00    -0.047 A 
ATOM      9  C9  IND d   1      -1.947   0.164   1.002  0.00  0.00    -0.096 A 
ATOM     10  HN1 IND d   1      -4.907   0.974   1.049  0.00  0.00     0.298 HD
ENDROOT
TORSDOF 0
ENDMDL
