MODEL 1
REMARK minimizedAffinity 1.5145551
REMARK minimizedRMSD -1
REMARK  0 active torsions:
REMARK  status: ('A' for Active; 'I' for Inactive)
ROOT
ATOM      1  N1  IND d   1      -3.581   1.751   0.151  0.00  0.00    -0.196 N 
ATOM      2  C2  IND d   1      -4.101   0.594   0.661  0.00  0.00     0.054 A 
ATOM      3  C3  IND d   1      -3.111  -0.208   1.112  0.00  0.00    -0.031 A 
ATOM      4  C4  IND d   1      -0.575   0.219   1.208  0.00  0.00     0.051 A 
ATOM      5  C5  IND d   1       0.381   1.119   0.827  0.00  0.00    -0.031 A 
ATOM      6  C6  IND d   1       0.058   2.301   0.191  0.00  0.00     0.015 A 
ATOM      7  C7  IND d   1      -1.239   2.633  -0.079  0.00  0.00    -0.016 A 
ATOM      8  C8  IND d   1      -2.212   1.719   0.300  0.00  0.00    -0.047 A 
ATOM      9  C9  IND d   1      -1.887   0.499   0.907  0.00  0.00    -0.096 A 
ATOM     10  HN1 IND d   1      -4.033   2.391  -0.203  0.00  0.00     0.298 HD
ENDROOT
TORSDOF 0
ENDMDL
