MODEL 1
REMARK minimizedAffinity 9.94118881
REMARK minimizedRMSD -1
REMARK  0 active torsions:
REMARK  status: ('A' for Active; 'I' for Inactive)
ROOT
ATOM      1  N1  IND d   1       0.276   2.590   0.224  0.00  0.00    -0.196 N 
ATOM      2  C2  IND d   1       1.036   1.807   1.048  0.00  0.00     0.054 A 
ATOM      3  C3  IND d   1       0.301   0.778   1.528  0.00  0.00    -0.031 A 
ATOM      4  C4  IND d   1      -2.137   0.129   1.013  0.00  0.00     0.051 A 
ATOM      5  C5  IND d   1      -3.248   0.561   0.345  0.00  0.00    -0.031 A 
ATOM      6  C6  IND d   1      -3.241   1.713  -0.414  0.00  0.00     0.015 A 
ATOM      7  C7  IND d   1      -2.113   2.473  -0.544  0.00  0.00    -0.016 A 
ATOM      8  C8  IND d   1      -0.985   2.042   0.138  0.00  0.00    -0.047 A 
ATOM      9  C9  IND d   1      -0.998   0.897   0.944  0.00  0.00    -0.096 A 
ATOM     10  HN1 IND d   1       0.542   3.304  -0.174  0.00  0.00     0.298 HD
ENDROOT
TORSDOF 0
ENDMDL
