MODEL 1
REMARK minimizedAffinity 1.52921796
REMARK minimizedRMSD -1
REMARK  0 active torsions:
REMARK  status: ('A' for Active; 'I' for Inactive)
ROOT
ATOM      1  N1  IND d   1       0.059   0.410   0.971  0.00  0.00    -0.196 N 
ATOM      2  C2  IND d   1       0.554   1.469   0.263  0.00  0.00     0.054 A 
ATOM      3  C3  IND d   1      -0.457   2.205  -0.251  0.00  0.00    -0.031 A 
ATOM      4  C4  IND d   1      -2.999   1.911   0.028  0.00  0.00     0.051 A 
ATOM      5  C5  IND d   1      -3.934   1.066   0.557  0.00  0.00    -0.031 A 
ATOM      6  C6  IND d   1      -3.579  -0.062   1.267  0.00  0.00     0.015 A 
ATOM      7  C7  IND d   1      -2.269  -0.383   1.486  0.00  0.00    -0.016 A 
ATOM      8  C8  IND d   1      -1.317   0.469   0.945  0.00  0.00    -0.047 A 
ATOM      9  C9  IND d   1      -1.671   1.593   0.187  0.00  0.00    -0.096 A 
ATOM     10  HN1 IND d   1       0.529  -0.193   1.366  0.00  0.00     0.298 HD
ENDROOT
TORSDOF 0
ENDMDL
