MODEL 1
REMARK minimizedAffinity 0.307037532
REMARK minimizedRMSD -1
REMARK  0 active torsions:
REMARK  status: ('A' for Active; 'I' for Inactive)
ROOT
ATOM      1  N1  IND d   1       0.323   2.078   0.546  0.00  0.00    -0.196 N 
ATOM      2  C2  IND d   1       0.828   0.873   0.946  0.00  0.00     0.054 A 
ATOM      3  C3  IND d   1      -0.170  -0.021   1.125  0.00  0.00    -0.031 A 
ATOM      4  C4  IND d   1      -2.698   0.250   0.720  0.00  0.00     0.051 A 
ATOM      5  C5  IND d   1      -3.642   1.180   0.386  0.00  0.00    -0.031 A 
ATOM      6  C6  IND d   1      -3.306   2.483   0.080  0.00  0.00     0.015 A 
ATOM      7  C7  IND d   1      -2.006   2.903   0.085  0.00  0.00    -0.016 A 
ATOM      8  C8  IND d   1      -1.045   1.963   0.430  0.00  0.00    -0.047 A 
ATOM      9  C9  IND d   1      -1.385   0.650   0.783  0.00  0.00    -0.096 A 
ATOM     10  HN1 IND d   1       0.782   2.789   0.392  0.00  0.00     0.298 HD
ENDROOT
TORSDOF 0
ENDMDL
