MODEL 1
REMARK minimizedAffinity 2.72356343
REMARK minimizedRMSD -1
REMARK  0 active torsions:
REMARK  status: ('A' for Active; 'I' for Inactive)
ROOT
ATOM      1  N1  IND d   1      -0.587   3.035  -0.199  0.00  0.00    -0.196 N 
ATOM      2  C2  IND d   1       0.523   2.587   0.461  0.00  0.00     0.054 A 
ATOM      3  C3  IND d   1       0.204   1.553   1.271  0.00  0.00    -0.031 A 
ATOM      4  C4  IND d   1      -2.058   0.367   1.595  0.00  0.00     0.051 A 
ATOM      5  C5  IND d   1      -3.374   0.441   1.235  0.00  0.00    -0.031 A 
ATOM      6  C6  IND d   1      -3.838   1.401   0.359  0.00  0.00     0.015 A 
ATOM      7  C7  IND d   1      -2.996   2.320  -0.201  0.00  0.00    -0.016 A 
ATOM      8  C8  IND d   1      -1.660   2.252   0.168  0.00  0.00    -0.047 A 
ATOM      9  C9  IND d   1      -1.192   1.307   1.089  0.00  0.00    -0.096 A 
ATOM     10  HN1 IND d   1      -0.612   3.694  -0.750  0.00  0.00     0.298 HD
ENDROOT
TORSDOF 0
ENDMDL
