MODEL 1
REMARK minimizedAffinity 2.53559184
REMARK minimizedRMSD -1
REMARK  0 active torsions:
REMARK  status: ('A' for Active; 'I' for Inactive)
ROOT
ATOM      1  N1  IND d   1       3.312   1.189   0.902  0.00  0.00    -0.196 N 
ATOM      2  C2  IND d   1       3.858   2.122   1.738  0.00  0.00     0.054 A 
ATOM      3  C3  IND d   1       2.887   2.887   2.287  0.00  0.00    -0.031 A 
ATOM      4  C4  IND d   1       0.331   2.718   2.032  0.00  0.00     0.051 A 
ATOM      5  C5  IND d   1      -0.641   2.046   1.345  0.00  0.00    -0.031 A 
ATOM      6  C6  IND d   1      -0.339   1.032   0.459  0.00  0.00     0.015 A 
ATOM      7  C7  IND d   1       0.952   0.643   0.235  0.00  0.00    -0.016 A 
ATOM      8  C8  IND d   1       1.941   1.327   0.926  0.00  0.00    -0.047 A 
ATOM      9  C9  IND d   1       1.644   2.386   1.794  0.00  0.00    -0.096 A 
ATOM     10  HN1 IND d   1       3.751   0.613   0.438  0.00  0.00     0.298 HD
ENDROOT
TORSDOF 0
ENDMDL
