MODEL 1
REMARK minimizedAffinity 8.06626892
REMARK minimizedRMSD -1
REMARK  0 active torsions:
REMARK  status: ('A' for Active; 'I' for Inactive)
ROOT
ATOM      1  N1  IND d   1      -4.433   2.395  -0.290  0.00  0.00    -0.196 N 
ATOM      2  C2  IND d   1      -5.686   1.871  -0.131  0.00  0.00     0.054 A 
ATOM      3  C3  IND d   1      -5.645   0.797   0.690  0.00  0.00    -0.031 A 
ATOM      4  C4  IND d   1      -3.650  -0.214   1.964  0.00  0.00     0.051 A 
ATOM      5  C5  IND d   1      -2.295  -0.102   2.108  0.00  0.00    -0.031 A 
ATOM      6  C6  IND d   1      -1.570   0.870   1.449  0.00  0.00     0.015 A 
ATOM      7  C7  IND d   1      -2.177   1.776   0.626  0.00  0.00    -0.016 A 
ATOM      8  C8  IND d   1      -3.551   1.661   0.472  0.00  0.00    -0.047 A 
ATOM      9  C9  IND d   1      -4.286   0.651   1.105  0.00  0.00    -0.096 A 
ATOM     10  HN1 IND d   1      -4.231   3.070  -0.783  0.00  0.00     0.298 HD
ENDROOT
TORSDOF 0
ENDMDL
