MODEL 1
REMARK minimizedAffinity 0.632095158
REMARK minimizedRMSD -1
REMARK  0 active torsions:
REMARK  status: ('A' for Active; 'I' for Inactive)
ROOT
ATOM      1  N1  IND d   1      -1.120   1.365   0.167  0.00  0.00    -0.196 N 
ATOM      2  C2  IND d   1      -0.263   1.019  -0.840  0.00  0.00     0.054 A 
ATOM      3  C3  IND d   1       1.019   1.190  -0.447  0.00  0.00    -0.031 A 
ATOM      4  C4  IND d   1       1.943   1.928   1.840  0.00  0.00     0.051 A 
ATOM      5  C5  IND d   1       1.547   2.387   3.065  0.00  0.00    -0.031 A 
ATOM      6  C6  IND d   1       0.214   2.528   3.394  0.00  0.00     0.015 A 
ATOM      7  C7  IND d   1      -0.776   2.204   2.510  0.00  0.00    -0.016 A 
ATOM      8  C8  IND d   1      -0.377   1.745   1.263  0.00  0.00    -0.047 A 
ATOM      9  C9  IND d   1       0.974   1.640   0.908  0.00  0.00    -0.096 A 
ATOM     10  HN1 IND d   1      -1.979   1.348   0.123  0.00  0.00     0.298 HD
ENDROOT
TORSDOF 0
ENDMDL
