MODEL 1
REMARK minimizedAffinity 1.0985285
REMARK minimizedRMSD -1
REMARK  0 active torsions:
REMARK  status: ('A' for Active; 'I' for Inactive)
ROOT
ATOM      1  N1  IND d   1       1.577  -1.301   0.779  0.00  0.00    -0.196 N 
ATOM      2  C2  IND d   1       2.615  -0.964  -0.044  0.00  0.00     0.054 A 
ATOM      3  C3  IND d   1       2.333   0.176  -0.713  0.00  0.00    -0.031 A 
ATOM      4  C4  IND d   1       0.272   1.710  -0.536  0.00  0.00     0.051 A 
ATOM      5  C5  IND d   1      -0.957   1.799   0.056  0.00  0.00    -0.031 A 
ATOM      6  C6  IND d   1      -1.412   0.841   0.938  0.00  0.00     0.015 A 
ATOM      7  C7  IND d   1      -0.647  -0.241   1.273  0.00  0.00    -0.016 A 
ATOM      8  C8  IND d   1       0.598  -0.338   0.669  0.00  0.00    -0.047 A 
ATOM      9  C9  IND d   1       1.049   0.609  -0.260  0.00  0.00    -0.096 A 
ATOM     10  HN1 IND d   1       1.541  -1.998   1.282  0.00  0.00     0.298 HD
ENDROOT
TORSDOF 0
ENDMDL
