MODEL 1
REMARK minimizedAffinity 11.3161955
REMARK minimizedRMSD -1
REMARK  0 active torsions:
REMARK  status: ('A' for Active; 'I' for Inactive)
ROOT
ATOM      1  N1  IND d   1       1.657  -0.011   0.769  0.00  0.00    -0.196 N 
ATOM      2  C2  IND d   1       1.471   1.089  -0.021  0.00  0.00     0.054 A 
ATOM      3  C3  IND d   1       0.208   1.111  -0.505  0.00  0.00    -0.031 A 
ATOM      4  C4  IND d   1      -1.747  -0.499  -0.048  0.00  0.00     0.051 A 
ATOM      5  C5  IND d   1      -2.051  -1.673   0.581  0.00  0.00    -0.031 A 
ATOM      6  C6  IND d   1      -1.116  -2.366   1.323  0.00  0.00     0.015 A 
ATOM      7  C7  IND d   1       0.160  -1.902   1.473  0.00  0.00    -0.016 A 
ATOM      8  C8  IND d   1       0.474  -0.714   0.829  0.00  0.00    -0.047 A 
ATOM      9  C9  IND d   1      -0.459  -0.028   0.040  0.00  0.00    -0.096 A 
ATOM     10  HN1 IND d   1       2.391  -0.227   1.163  0.00  0.00     0.298 HD
ENDROOT
TORSDOF 0
ENDMDL
