MODEL 1
REMARK minimizedAffinity -4.89879227
REMARK minimizedRMSD -1
REMARK  0 active torsions:
REMARK  status: ('A' for Active; 'I' for Inactive)
ROOT
ATOM      1  C4' PXY d   1       0.880   0.336  -2.111  0.00  0.00     0.077 C 
ATOM      2  C1' PXY d   1      -0.950  -0.939   3.222  0.00  0.00     0.077 C 
ATOM      3  C1  PXY d   1      -0.461  -0.597   1.828  0.00  0.00    -0.082 A 
ATOM      4  C2  PXY d   1      -1.287  -0.703   0.801  0.00  0.00     0.003 A 
ATOM      5  C3  PXY d   1      -0.853  -0.428  -0.470  0.00  0.00     0.003 A 
ATOM      6  C4  PXY d   1       0.427   0.010  -0.685  0.00  0.00    -0.082 A 
ATOM      7  C5  PXY d   1       1.273   0.131   0.359  0.00  0.00     0.003 A 
ATOM      8  C6  PXY d   1       0.824  -0.192   1.636  0.00  0.00     0.003 A 
ENDROOT
TORSDOF 0
ENDMDL
