MODEL 1
REMARK minimizedAffinity -1.80516279
REMARK minimizedRMSD -1
REMARK  0 active torsions:
REMARK  status: ('A' for Active; 'I' for Inactive)
ROOT
ATOM      1  C4' PXY d   1       0.183  -0.559  -2.341  0.00  0.00     0.077 C 
ATOM      2  C1' PXY d   1      -0.251   0.663   3.292  0.00  0.00     0.077 C 
ATOM      3  C1  PXY d   1      -0.150   0.345   1.813  0.00  0.00    -0.082 A 
ATOM      4  C2  PXY d   1       0.845  -0.408   1.373  0.00  0.00     0.003 A 
ATOM      5  C3  PXY d   1       0.969  -0.679   0.035  0.00  0.00     0.003 A 
ATOM      6  C4  PXY d   1       0.036  -0.219  -0.855  0.00  0.00    -0.082 A 
ATOM      7  C5  PXY d   1      -0.988   0.540  -0.412  0.00  0.00     0.003 A 
ATOM      8  C6  PXY d   1      -1.073   0.839   0.945  0.00  0.00     0.003 A 
ENDROOT
TORSDOF 0
ENDMDL
