MODEL 1
REMARK minimizedAffinity -3.6842587
REMARK minimizedRMSD -1
REMARK  0 active torsions:
REMARK  status: ('A' for Active; 'I' for Inactive)
ROOT
ATOM      1  C4' PXY d   1      -0.035  -0.312   3.429  0.00  0.00     0.077 C 
ATOM      2  C1' PXY d   1       0.638  -0.360  -2.312  0.00  0.00     0.077 C 
ATOM      3  C1  PXY d   1       0.474  -0.350  -0.805  0.00  0.00    -0.082 A 
ATOM      4  C2  PXY d   1      -0.716  -0.579  -0.275  0.00  0.00     0.003 A 
ATOM      5  C3  PXY d   1      -0.889  -0.542   1.085  0.00  0.00     0.003 A 
ATOM      6  C4  PXY d   1       0.179  -0.321   1.913  0.00  0.00    -0.082 A 
ATOM      7  C5  PXY d   1       1.399  -0.097   1.380  0.00  0.00     0.003 A 
ATOM      8  C6  PXY d   1       1.545  -0.098  -0.004  0.00  0.00     0.003 A 
ENDROOT
TORSDOF 0
ENDMDL
