MODEL 1
REMARK minimizedAffinity -3.99207544
REMARK minimizedRMSD -1
REMARK  0 active torsions:
REMARK  status: ('A' for Active; 'I' for Inactive)
ROOT
ATOM      1  C4' PXY d   1       1.031  -0.412  -2.347  0.00  0.00     0.077 C 
ATOM      2  C1' PXY d   1      -0.485  -0.837   3.215  0.00  0.00     0.077 C 
ATOM      3  C1  PXY d   1      -0.099  -0.719   1.754  0.00  0.00    -0.082 A 
ATOM      4  C2  PXY d   1       0.716  -1.614   1.218  0.00  0.00     0.003 A 
ATOM      5  C3  PXY d   1       1.101  -1.503  -0.093  0.00  0.00     0.003 A 
ATOM      6  C4  PXY d   1       0.606  -0.497  -0.879  0.00  0.00    -0.082 A 
ATOM      7  C5  PXY d   1      -0.234   0.413  -0.342  0.00  0.00     0.003 A 
ATOM      8  C6  PXY d   1      -0.580   0.308   1.002  0.00  0.00     0.003 A 
ENDROOT
TORSDOF 0
ENDMDL
