MODEL 1
REMARK minimizedAffinity -4.87317467
REMARK minimizedRMSD -1
REMARK  0 active torsions:
REMARK  status: ('A' for Active; 'I' for Inactive)
ROOT
ATOM      1  C4' PXY d   1       0.999  -0.064  -2.397  0.00  0.00     0.077 C 
ATOM      2  C1' PXY d   1      -0.953  -0.181   3.043  0.00  0.00     0.077 C 
ATOM      3  C1  PXY d   1      -0.453  -0.154   1.612  0.00  0.00    -0.082 A 
ATOM      4  C2  PXY d   1       0.831  -0.355   1.363  0.00  0.00     0.003 A 
ATOM      5  C3  PXY d   1       1.305  -0.302   0.078  0.00  0.00     0.003 A 
ATOM      6  C4  PXY d   1       0.448  -0.093  -0.969  0.00  0.00    -0.082 A 
ATOM      7  C5  PXY d   1      -0.865   0.103  -0.725  0.00  0.00     0.003 A 
ATOM      8  C6  PXY d   1      -1.320   0.086   0.591  0.00  0.00     0.003 A 
ENDROOT
TORSDOF 0
ENDMDL
