MODEL 1
REMARK minimizedAffinity -2.74966764
REMARK minimizedRMSD -1
REMARK  0 active torsions:
REMARK  status: ('A' for Active; 'I' for Inactive)
ROOT
ATOM      1  C4' PXY d   1       0.658   0.148  -1.536  0.00  0.00     0.077 C 
ATOM      2  C1' PXY d   1      -1.541  -0.361   3.786  0.00  0.00     0.077 C 
ATOM      3  C1  PXY d   1      -0.956  -0.218   2.394  0.00  0.00    -0.082 A 
ATOM      4  C2  PXY d   1      -1.652  -0.630   1.347  0.00  0.00     0.003 A 
ATOM      5  C3  PXY d   1      -1.125  -0.538   0.084  0.00  0.00     0.003 A 
ATOM      6  C4  PXY d   1       0.104   0.032  -0.113  0.00  0.00    -0.082 A 
ATOM      7  C5  PXY d   1       0.815   0.464   0.949  0.00  0.00     0.003 A 
ATOM      8  C6  PXY d   1       0.280   0.324   2.226  0.00  0.00     0.003 A 
ENDROOT
TORSDOF 0
ENDMDL
