MODEL 1
REMARK minimizedAffinity -3.96690583
REMARK minimizedRMSD -1
REMARK  0 active torsions:
REMARK  status: ('A' for Active; 'I' for Inactive)
ROOT
ATOM      1  C4' PXY d   1       0.129   0.671  -2.506  0.00  0.00     0.077 C 
ATOM      2  C1' PXY d   1      -0.923  -0.789   2.988  0.00  0.00     0.077 C 
ATOM      3  C1  PXY d   1      -0.659  -0.409   1.544  0.00  0.00    -0.082 A 
ATOM      4  C2  PXY d   1       0.577  -0.444   1.073  0.00  0.00     0.003 A 
ATOM      5  C3  PXY d   1       0.837  -0.073  -0.221  0.00  0.00     0.003 A 
ATOM      6  C4  PXY d   1      -0.185   0.287  -1.057  0.00  0.00    -0.082 A 
ATOM      7  C5  PXY d   1      -1.450   0.315  -0.588  0.00  0.00     0.003 A 
ATOM      8  C6  PXY d   1      -1.688  -0.026   0.740  0.00  0.00     0.003 A 
ENDROOT
TORSDOF 0
ENDMDL
