MODEL 1
REMARK minimizedAffinity -4.10418797
REMARK minimizedRMSD -1
REMARK  0 active torsions:
REMARK  status: ('A' for Active; 'I' for Inactive)
ROOT
ATOM      1  C4' PXY d   1       0.420   0.401  -1.496  0.00  0.00     0.077 C 
ATOM      2  C1' PXY d   1      -1.212  -0.242   4.012  0.00  0.00     0.077 C 
ATOM      3  C1  PXY d   1      -0.774  -0.066   2.571  0.00  0.00    -0.082 A 
ATOM      4  C2  PXY d   1      -1.658  -0.208   1.597  0.00  0.00     0.003 A 
ATOM      5  C3  PXY d   1      -1.272  -0.084   0.287  0.00  0.00     0.003 A 
ATOM      6  C4  PXY d   1       0.020   0.242  -0.027  0.00  0.00    -0.082 A 
ATOM      7  C5  PXY d   1       0.926   0.399   0.962  0.00  0.00     0.003 A 
ATOM      8  C6  PXY d   1       0.523   0.228   2.283  0.00  0.00     0.003 A 
ENDROOT
TORSDOF 0
ENDMDL
