MODEL 1
REMARK minimizedAffinity -2.9122901
REMARK minimizedRMSD -1
REMARK  0 active torsions:
REMARK  status: ('A' for Active; 'I' for Inactive)
ROOT
ATOM      1  C4' PXY d   1      -0.376  -0.387   3.364  0.00  0.00     0.077 C 
ATOM      2  C1' PXY d   1       0.179   0.686  -2.289  0.00  0.00     0.077 C 
ATOM      3  C1  PXY d   1       0.047   0.405  -0.805  0.00  0.00    -0.082 A 
ATOM      4  C2  PXY d   1      -1.035  -0.205  -0.349  0.00  0.00     0.003 A 
ATOM      5  C3  PXY d   1      -1.186  -0.438   0.994  0.00  0.00     0.003 A 
ATOM      6  C4  PXY d   1      -0.195  -0.091   1.873  0.00  0.00    -0.082 A 
ATOM      7  C5  PXY d   1       0.917   0.522   1.414  0.00  0.00     0.003 A 
ATOM      8  C6  PXY d   1       1.032   0.787   0.052  0.00  0.00     0.003 A 
ENDROOT
TORSDOF 0
ENDMDL
