MODEL 1
REMARK minimizedAffinity -0.209299818
REMARK minimizedRMSD -1
REMARK  0 active torsions:
REMARK  status: ('A' for Active; 'I' for Inactive)
ROOT
ATOM      1  C4' PXY d   1       1.489  -0.576  -3.739  0.00  0.00     0.077 C 
ATOM      2  C1' PXY d   1      -1.275  -0.772   1.334  0.00  0.00     0.077 C 
ATOM      3  C1  PXY d   1      -0.548  -0.708   0.005  0.00  0.00    -0.082 A 
ATOM      4  C2  PXY d   1      -0.821  -1.599  -0.933  0.00  0.00     0.003 A 
ATOM      5  C3  PXY d   1      -0.149  -1.575  -2.129  0.00  0.00     0.003 A 
ATOM      6  C4  PXY d   1       0.773  -0.596  -2.386  0.00  0.00    -0.082 A 
ATOM      7  C5  PXY d   1       1.049   0.323  -1.437  0.00  0.00     0.003 A 
ATOM      8  C6  PXY d   1       0.386   0.257  -0.215  0.00  0.00     0.003 A 
ENDROOT
TORSDOF 0
ENDMDL
