MODEL 1
REMARK minimizedAffinity -1.36089587
REMARK minimizedRMSD -1
REMARK  0 active torsions:
REMARK  status: ('A' for Active; 'I' for Inactive)
ROOT
ATOM      1  C4' PXY d   1       0.792   0.231  -1.869  0.00  0.00     0.077 C 
ATOM      2  C1' PXY d   1      -1.147  -0.748   3.488  0.00  0.00     0.077 C 
ATOM      3  C1  PXY d   1      -0.630  -0.483   2.088  0.00  0.00    -0.082 A 
ATOM      4  C2  PXY d   1      -1.429  -0.668   1.049  0.00  0.00     0.003 A 
ATOM      5  C3  PXY d   1      -0.967  -0.464  -0.226  0.00  0.00     0.003 A 
ATOM      6  C4  PXY d   1       0.309  -0.015  -0.437  0.00  0.00    -0.082 A 
ATOM      7  C5  PXY d   1       1.127   0.186   0.618  0.00  0.00     0.003 A 
ATOM      8  C6  PXY d   1       0.652  -0.066   1.902  0.00  0.00     0.003 A 
ENDROOT
TORSDOF 0
ENDMDL
