MODEL 1
REMARK minimizedAffinity -1.79219198
REMARK minimizedRMSD -1
REMARK  0 active torsions:
REMARK  status: ('A' for Active; 'I' for Inactive)
ROOT
ATOM      1  C4' PXY d   1       0.059  -1.652  -2.384  0.00  0.00     0.077 C 
ATOM      2  C1' PXY d   1      -0.101   0.601   2.937  0.00  0.00     0.077 C 
ATOM      3  C1  PXY d   1      -0.068   0.002   1.545  0.00  0.00    -0.082 A 
ATOM      4  C2  PXY d   1       1.022   0.125   0.805  0.00  0.00     0.003 A 
ATOM      5  C3  PXY d   1       1.057  -0.383  -0.468  0.00  0.00     0.003 A 
ATOM      6  C4  PXY d   1      -0.016  -1.071  -0.969  0.00  0.00    -0.082 A 
ATOM      7  C5  PXY d   1      -1.127  -1.211  -0.216  0.00  0.00     0.003 A 
ATOM      8  C6  PXY d   1      -1.158  -0.652   1.058  0.00  0.00     0.003 A 
ENDROOT
TORSDOF 0
ENDMDL
