MODEL 1
REMARK minimizedAffinity -4.96214437
REMARK minimizedRMSD -1
REMARK  0 active torsions:
REMARK  status: ('A' for Active; 'I' for Inactive)
ROOT
ATOM      1  C4' PXY d   1       1.190   1.373  -1.743  0.00  0.00     0.077 C 
ATOM      2  C1' PXY d   1      -1.396  -0.669   3.007  0.00  0.00     0.077 C 
ATOM      3  C1  PXY d   1      -0.710  -0.126   1.768  0.00  0.00    -0.082 A 
ATOM      4  C2  PXY d   1      -1.336  -0.165   0.604  0.00  0.00     0.003 A 
ATOM      5  C3  PXY d   1      -0.719   0.293  -0.532  0.00  0.00     0.003 A 
ATOM      6  C4  PXY d   1       0.532   0.845  -0.465  0.00  0.00    -0.082 A 
ATOM      7  C5  PXY d   1       1.174   0.898   0.721  0.00  0.00     0.003 A 
ATOM      8  C6  PXY d   1       0.546   0.391   1.855  0.00  0.00     0.003 A 
ENDROOT
TORSDOF 0
ENDMDL
