MODEL 1
REMARK minimizedAffinity -4.19089317
REMARK minimizedRMSD -1
REMARK  0 active torsions:
REMARK  status: ('A' for Active; 'I' for Inactive)
ROOT
ATOM      1  C4' PXY d   1       0.855  -0.254  -2.438  0.00  0.00     0.077 C 
ATOM      2  C1' PXY d   1      -0.298  -0.237   3.226  0.00  0.00     0.077 C 
ATOM      3  C1  PXY d   1      -0.008  -0.246   1.738  0.00  0.00    -0.082 A 
ATOM      4  C2  PXY d   1       1.245  -0.308   1.317  0.00  0.00     0.003 A 
ATOM      5  C3  PXY d   1       1.527  -0.285  -0.025  0.00  0.00     0.003 A 
ATOM      6  C4  PXY d   1       0.514  -0.252  -0.945  0.00  0.00    -0.082 A 
ATOM      7  C5  PXY d   1      -0.767  -0.199  -0.523  0.00  0.00     0.003 A 
ATOM      8  C6  PXY d   1      -1.030  -0.182   0.843  0.00  0.00     0.003 A 
ENDROOT
TORSDOF 0
ENDMDL
