MODEL 1
REMARK minimizedAffinity -2.62237859
REMARK minimizedRMSD -1
REMARK  0 active torsions:
REMARK  status: ('A' for Active; 'I' for Inactive)
ROOT
ATOM      1  C4' PXY d   1      -0.811   0.524   3.481  0.00  0.00     0.077 C 
ATOM      2  C1' PXY d   1       0.442  -0.760  -2.014  0.00  0.00     0.077 C 
ATOM      3  C1  PXY d   1       0.101  -0.423  -0.576  0.00  0.00    -0.082 A 
ATOM      4  C2  PXY d   1       1.002   0.172   0.189  0.00  0.00     0.003 A 
ATOM      5  C3  PXY d   1       0.722   0.454   1.501  0.00  0.00     0.003 A 
ATOM      6  C4  PXY d   1      -0.514   0.174   2.021  0.00  0.00    -0.082 A 
ATOM      7  C5  PXY d   1      -1.443  -0.423   1.244  0.00  0.00     0.003 A 
ATOM      8  C6  PXY d   1      -1.124  -0.739  -0.073  0.00  0.00     0.003 A 
ENDROOT
TORSDOF 0
ENDMDL
