MODEL 1
REMARK minimizedAffinity -5.32439327
REMARK minimizedRMSD -1
REMARK  0 active torsions:
REMARK  status: ('A' for Active; 'I' for Inactive)
ROOT
ATOM      1  C4' PXY d   1       2.446   0.759   1.125  0.00  0.00     0.077 C 
ATOM      2  C1' PXY d   1      -3.121  -0.787   0.947  0.00  0.00     0.077 C 
ATOM      3  C1  PXY d   1      -1.662  -0.379   1.007  0.00  0.00    -0.082 A 
ATOM      4  C2  PXY d   1      -1.062   0.066  -0.085  0.00  0.00     0.003 A 
ATOM      5  C3  PXY d   1       0.265   0.409  -0.057  0.00  0.00     0.003 A 
ATOM      6  C4  PXY d   1       0.972   0.345   1.114  0.00  0.00    -0.082 A 
ATOM      7  C5  PXY d   1       0.364  -0.098   2.235  0.00  0.00     0.003 A 
ATOM      8  C6  PXY d   1      -0.973  -0.480   2.175  0.00  0.00     0.003 A 
ENDROOT
TORSDOF 0
ENDMDL
