MODEL 1
REMARK minimizedAffinity -3.7941432
REMARK minimizedRMSD -1
REMARK  0 active torsions:
REMARK  status: ('A' for Active; 'I' for Inactive)
ROOT
ATOM      1  C4' PXY d   1       0.762   0.688  -1.824  0.00  0.00     0.077 C 
ATOM      2  C1' PXY d   1      -1.169  -0.912   3.384  0.00  0.00     0.077 C 
ATOM      3  C1  PXY d   1      -0.671  -0.500   2.013  0.00  0.00    -0.082 A 
ATOM      4  C2  PXY d   1       0.565  -0.049   1.874  0.00  0.00     0.003 A 
ATOM      5  C3  PXY d   1       1.020   0.358   0.646  0.00  0.00     0.003 A 
ATOM      6  C4  PXY d   1       0.220   0.252  -0.460  0.00  0.00    -0.082 A 
ATOM      7  C5  PXY d   1      -1.038  -0.217  -0.328  0.00  0.00     0.003 A 
ATOM      8  C6  PXY d   1      -1.496  -0.586   0.934  0.00  0.00     0.003 A 
ENDROOT
TORSDOF 0
ENDMDL
