MODEL 1
REMARK minimizedAffinity -2.0864327
REMARK minimizedRMSD -1
REMARK  0 active torsions:
REMARK  status: ('A' for Active; 'I' for Inactive)
ROOT
ATOM      1  C4' PXY d   1      -1.032  -0.662   3.367  0.00  0.00     0.077 C 
ATOM      2  C1' PXY d   1       0.985   0.466  -1.932  0.00  0.00     0.077 C 
ATOM      3  C1  PXY d   1       0.444   0.173  -0.547  0.00  0.00    -0.082 A 
ATOM      4  C2  PXY d   1       1.235   0.304   0.506  0.00  0.00     0.003 A 
ATOM      5  C3  PXY d   1       0.771   0.012   1.763  0.00  0.00     0.003 A 
ATOM      6  C4  PXY d   1      -0.531  -0.367   1.950  0.00  0.00    -0.082 A 
ATOM      7  C5  PXY d   1      -1.347  -0.493   0.882  0.00  0.00     0.003 A 
ATOM      8  C6  PXY d   1      -0.846  -0.232  -0.389  0.00  0.00     0.003 A 
ENDROOT
TORSDOF 0
ENDMDL
