MODEL 1
REMARK minimizedAffinity -3.5853436
REMARK minimizedRMSD -1
REMARK  0 active torsions:
REMARK  status: ('A' for Active; 'I' for Inactive)
ROOT
ATOM      1  C4' PXY d   1      -1.493  -0.620   3.739  0.00  0.00     0.077 C 
ATOM      2  C1' PXY d   1       0.497   0.363  -1.599  0.00  0.00     0.077 C 
ATOM      3  C1  PXY d   1      -0.037   0.110  -0.203  0.00  0.00    -0.082 A 
ATOM      4  C2  PXY d   1       0.798   0.096   0.824  0.00  0.00     0.003 A 
ATOM      5  C3  PXY d   1       0.337  -0.164   2.089  0.00  0.00     0.003 A 
ATOM      6  C4  PXY d   1      -1.000  -0.358   2.313  0.00  0.00    -0.082 A 
ATOM      7  C5  PXY d   1      -1.859  -0.335   1.272  0.00  0.00     0.003 A 
ATOM      8  C6  PXY d   1      -1.365  -0.111  -0.010  0.00  0.00     0.003 A 
ENDROOT
TORSDOF 0
ENDMDL
