MODEL 1
REMARK minimizedAffinity 6.61921787
REMARK minimizedRMSD -1
REMARK  0 active torsions:
REMARK  status: ('A' for Active; 'I' for Inactive)
ROOT
ATOM      1  C4' PXY d   1      -6.000   3.239   6.000  0.00  0.00     0.077 C 
ATOM      2  C1' PXY d   1      -2.130  -1.043   5.675  0.00  0.00     0.077 C 
ATOM      3  C1  PXY d   1      -3.136   0.088   5.765  0.00  0.00    -0.082 A 
ATOM      4  C2  PXY d   1      -4.429  -0.189   5.820  0.00  0.00     0.003 A 
ATOM      5  C3  PXY d   1      -5.353   0.822   5.869  0.00  0.00     0.003 A 
ATOM      6  C4  PXY d   1      -4.948   2.129   5.917  0.00  0.00    -0.082 A 
ATOM      7  C5  PXY d   1      -3.631   2.420   5.873  0.00  0.00     0.003 A 
ATOM      8  C6  PXY d   1      -2.710   1.380   5.781  0.00  0.00     0.003 A 
ENDROOT
TORSDOF 0
ENDMDL
