MODEL 1
REMARK minimizedAffinity 14.8585119
REMARK minimizedRMSD -1
REMARK  0 active torsions:
REMARK  status: ('A' for Active; 'I' for Inactive)
ROOT
ATOM      1  C4' PXY d   1       2.909  -0.342  -2.253  0.00  0.00     0.077 C 
ATOM      2  C1' PXY d   1      -0.567   3.534  -4.764  0.00  0.00     0.077 C 
ATOM      3  C1  PXY d   1       0.353   2.527  -4.102  0.00  0.00    -0.082 A 
ATOM      4  C2  PXY d   1       0.332   1.264  -4.496  0.00  0.00     0.003 A 
ATOM      5  C3  PXY d   1       1.134   0.334  -3.886  0.00  0.00     0.003 A 
ATOM      6  C4  PXY d   1       2.005   0.711  -2.899  0.00  0.00    -0.082 A 
ATOM      7  C5  PXY d   1       2.040   1.999  -2.498  0.00  0.00     0.003 A 
ATOM      8  C6  PXY d   1       1.188   2.920  -3.102  0.00  0.00     0.003 A 
ENDROOT
TORSDOF 0
ENDMDL
