MODEL 1
REMARK minimizedAffinity 12.337594
REMARK minimizedRMSD -1
REMARK  0 active torsions:
REMARK  status: ('A' for Active; 'I' for Inactive)
ROOT
ATOM      1  C4' PXY d   1      -2.265  -0.130  -2.202  0.00  0.00     0.077 C 
ATOM      2  C1' PXY d   1      -0.197   4.074  -5.588  0.00  0.00     0.077 C 
ATOM      3  C1  PXY d   1      -0.749   2.979  -4.696  0.00  0.00    -0.082 A 
ATOM      4  C2  PXY d   1       0.055   2.023  -4.260  0.00  0.00     0.003 A 
ATOM      5  C3  PXY d   1      -0.434   1.008  -3.479  0.00  0.00     0.003 A 
ATOM      6  C4  PXY d   1      -1.749   1.000  -3.097  0.00  0.00    -0.082 A 
ATOM      7  C5  PXY d   1      -2.574   1.978  -3.529  0.00  0.00     0.003 A 
ATOM      8  C6  PXY d   1      -2.066   2.977  -4.355  0.00  0.00     0.003 A 
ENDROOT
TORSDOF 0
ENDMDL
