MODEL 1
REMARK minimizedAffinity 12.9590759
REMARK minimizedRMSD -1
REMARK  0 active torsions:
REMARK  status: ('A' for Active; 'I' for Inactive)
ROOT
ATOM      1  C4' PXY d   1      -3.013   2.935  -4.124  0.00  0.00     0.077 C 
ATOM      2  C1' PXY d   1       2.434   3.406  -6.000  0.00  0.00     0.077 C 
ATOM      3  C1  PXY d   1       1.003   3.276  -5.519  0.00  0.00    -0.082 A 
ATOM      4  C2  PXY d   1       0.533   4.130  -4.624  0.00  0.00     0.003 A 
ATOM      5  C3  PXY d   1      -0.749   4.008  -4.155  0.00  0.00     0.003 A 
ATOM      6  C4  PXY d   1      -1.577   3.034  -4.645  0.00  0.00    -0.082 A 
ATOM      7  C5  PXY d   1      -1.109   2.165  -5.567  0.00  0.00     0.003 A 
ATOM      8  C6  PXY d   1       0.209   2.281  -6.000  0.00  0.00     0.003 A 
ENDROOT
TORSDOF 0
ENDMDL
