MODEL 1
REMARK minimizedAffinity 17.3985634
REMARK minimizedRMSD -1
REMARK  0 active torsions:
REMARK  status: ('A' for Active; 'I' for Inactive)
ROOT
ATOM      1  C4' PXY d   1       1.063   3.363  -5.999  0.00  0.00     0.077 C 
ATOM      2  C1' PXY d   1      -3.509   1.567  -2.952  0.00  0.00     0.077 C 
ATOM      3  C1  PXY d   1      -2.302   2.032  -3.743  0.00  0.00    -0.082 A 
ATOM      4  C2  PXY d   1      -2.400   3.101  -4.517  0.00  0.00     0.003 A 
ATOM      5  C3  PXY d   1      -1.327   3.516  -5.263  0.00  0.00     0.003 A 
ATOM      6  C4  PXY d   1      -0.127   2.863  -5.176  0.00  0.00    -0.082 A 
ATOM      7  C5  PXY d   1      -0.017   1.778  -4.380  0.00  0.00     0.003 A 
ATOM      8  C6  PXY d   1      -1.129   1.348  -3.662  0.00  0.00     0.003 A 
ENDROOT
TORSDOF 0
ENDMDL
