MODEL 1
REMARK minimizedAffinity 6.45858145
REMARK minimizedRMSD -1
REMARK  0 active torsions:
REMARK  status: ('A' for Active; 'I' for Inactive)
ROOT
ATOM      1  C4' PXY d   1      -2.519  -2.209   3.407  0.00  0.00     0.077 C 
ATOM      2  C1' PXY d   1      -0.080  -5.300  -0.826  0.00  0.00     0.077 C 
ATOM      3  C1  PXY d   1      -0.717  -4.478   0.278  0.00  0.00    -0.082 A 
ATOM      4  C2  PXY d   1      -0.804  -4.979   1.500  0.00  0.00     0.003 A 
ATOM      5  C3  PXY d   1      -1.405  -4.263   2.502  0.00  0.00     0.003 A 
ATOM      6  C4  PXY d   1      -1.875  -2.999   2.264  0.00  0.00    -0.082 A 
ATOM      7  C5  PXY d   1      -1.781  -2.477   1.023  0.00  0.00     0.003 A 
ATOM      8  C6  PXY d   1      -1.204  -3.237   0.010  0.00  0.00     0.003 A 
ENDROOT
TORSDOF 0
ENDMDL
