MODEL 1
REMARK minimizedAffinity 14.6288872
REMARK minimizedRMSD -1
REMARK  0 active torsions:
REMARK  status: ('A' for Active; 'I' for Inactive)
ROOT
ATOM      1  C4' PXY d   1      -2.569  -1.615   4.995  0.00  0.00     0.077 C 
ATOM      2  C1' PXY d   1      -5.999   2.928   5.999  0.00  0.00     0.077 C 
ATOM      3  C1  PXY d   1      -5.107   1.730   5.744  0.00  0.00    -0.082 A 
ATOM      4  C2  PXY d   1      -3.865   1.916   5.328  0.00  0.00     0.003 A 
ATOM      5  C3  PXY d   1      -3.054   0.842   5.061  0.00  0.00     0.003 A 
ATOM      6  C4  PXY d   1      -3.503  -0.434   5.275  0.00  0.00    -0.082 A 
ATOM      7  C5  PXY d   1      -4.765  -0.632   5.710  0.00  0.00     0.003 A 
ATOM      8  C6  PXY d   1      -5.585   0.470   5.935  0.00  0.00     0.003 A 
ENDROOT
TORSDOF 0
ENDMDL
