MODEL 1
REMARK minimizedAffinity 11.5218372
REMARK minimizedRMSD -1
REMARK  0 active torsions:
REMARK  status: ('A' for Active; 'I' for Inactive)
ROOT
ATOM      1  C4' PXY d   1       4.802   5.968   1.370  0.00  0.00     0.077 C 
ATOM      2  C1' PXY d   1       5.404   1.925  -2.717  0.00  0.00     0.077 C 
ATOM      3  C1  PXY d   1       5.234   2.982  -1.643  0.00  0.00    -0.082 A 
ATOM      4  C2  PXY d   1       5.992   4.066  -1.666  0.00  0.00     0.003 A 
ATOM      5  C3  PXY d   1       5.874   5.016  -0.684  0.00  0.00     0.003 A 
ATOM      6  C4  PXY d   1       4.932   4.880   0.301  0.00  0.00    -0.082 A 
ATOM      7  C5  PXY d   1       4.148   3.782   0.324  0.00  0.00     0.003 A 
ATOM      8  C6  PXY d   1       4.312   2.810  -0.658  0.00  0.00     0.003 A 
ENDROOT
TORSDOF 0
ENDMDL
