MODEL 1
REMARK minimizedAffinity 13.8116455
REMARK minimizedRMSD -1
REMARK  0 active torsions:
REMARK  status: ('A' for Active; 'I' for Inactive)
ROOT
ATOM      1  C4' PXY d   1      -5.968   3.816   2.409  0.00  0.00     0.077 C 
ATOM      2  C1' PXY d   1      -3.838   5.959  -2.520  0.00  0.00     0.077 C 
ATOM      3  C1  PXY d   1      -4.402   5.409  -1.224  0.00  0.00    -0.082 A 
ATOM      4  C2  PXY d   1      -3.843   4.347  -0.667  0.00  0.00     0.003 A 
ATOM      5  C3  PXY d   1      -4.360   3.817   0.487  0.00  0.00     0.003 A 
ATOM      6  C4  PXY d   1      -5.426   4.412   1.106  0.00  0.00    -0.082 A 
ATOM      7  C5  PXY d   1      -5.995   5.502   0.549  0.00  0.00     0.003 A 
ATOM      8  C6  PXY d   1      -5.482   6.000  -0.645  0.00  0.00     0.003 A 
ENDROOT
TORSDOF 0
ENDMDL
