MODEL 1
REMARK minimizedAffinity 6.69133091
REMARK minimizedRMSD -1
REMARK  0 active torsions:
REMARK  status: ('A' for Active; 'I' for Inactive)
ROOT
ATOM      1  C4' PXY d   1      -1.619   2.496  -4.234  0.00  0.00     0.077 C 
ATOM      2  C1' PXY d   1       3.439  -0.179  -3.409  0.00  0.00     0.077 C 
ATOM      3  C1  PXY d   1       2.117   0.533  -3.620  0.00  0.00    -0.082 A 
ATOM      4  C2  PXY d   1       1.005  -0.173  -3.738  0.00  0.00     0.003 A 
ATOM      5  C3  PXY d   1      -0.195   0.453  -3.961  0.00  0.00     0.003 A 
ATOM      6  C4  PXY d   1      -0.264   1.819  -4.011  0.00  0.00    -0.082 A 
ATOM      7  C5  PXY d   1       0.865   2.548  -3.881  0.00  0.00     0.003 A 
ATOM      8  C6  PXY d   1       2.079   1.891  -3.696  0.00  0.00     0.003 A 
ENDROOT
TORSDOF 0
ENDMDL
