MODEL 1
REMARK minimizedAffinity 19.9375076
REMARK minimizedRMSD -1
REMARK  0 active torsions:
REMARK  status: ('A' for Active; 'I' for Inactive)
ROOT
ATOM      1  C4' PXY d   1      -2.420  -1.136   0.037  0.00  0.00     0.077 C 
ATOM      2  C1' PXY d   1       0.022  -6.000   1.985  0.00  0.00     0.077 C 
ATOM      3  C1  PXY d   1      -0.626  -4.724   1.485  0.00  0.00    -0.082 A 
ATOM      4  C2  PXY d   1      -0.595  -4.437   0.194  0.00  0.00     0.003 A 
ATOM      5  C3  PXY d   1      -1.148  -3.272  -0.272  0.00  0.00     0.003 A 
ATOM      6  C4  PXY d   1      -1.787  -2.417   0.586  0.00  0.00    -0.082 A 
ATOM      7  C5  PXY d   1      -1.833  -2.708   1.903  0.00  0.00     0.003 A 
ATOM      8  C6  PXY d   1      -1.229  -3.876   2.361  0.00  0.00     0.003 A 
ENDROOT
TORSDOF 0
ENDMDL
