MODEL 1
REMARK minimizedAffinity 14.6606598
REMARK minimizedRMSD -1
REMARK  0 active torsions:
REMARK  status: ('A' for Active; 'I' for Inactive)
ROOT
ATOM      1  C4' PXY d   1      -1.824  -1.427  -1.015  0.00  0.00     0.077 C 
ATOM      2  C1' PXY d   1      -0.262  -6.000   2.158  0.00  0.00     0.077 C 
ATOM      3  C1  PXY d   1      -0.678  -4.796   1.336  0.00  0.00    -0.082 A 
ATOM      4  C2  PXY d   1      -0.682  -4.875   0.015  0.00  0.00     0.003 A 
ATOM      5  C3  PXY d   1      -1.025  -3.786  -0.744  0.00  0.00     0.003 A 
ATOM      6  C4  PXY d   1      -1.419  -2.620  -0.144  0.00  0.00    -0.082 A 
ATOM      7  C5  PXY d   1      -1.429  -2.535   1.203  0.00  0.00     0.003 A 
ATOM      8  C6  PXY d   1      -1.037  -3.639   1.955  0.00  0.00     0.003 A 
ENDROOT
TORSDOF 0
ENDMDL
