MODEL 1
REMARK minimizedAffinity 17.1502705
REMARK minimizedRMSD -1
REMARK  0 active torsions:
REMARK  status: ('A' for Active; 'I' for Inactive)
ROOT
ATOM      1  C4' PXY d   1      -5.966   6.000  -5.999  0.00  0.00     0.077 C 
ATOM      2  C1' PXY d   1      -1.516   2.797  -4.166  0.00  0.00     0.077 C 
ATOM      3  C1  PXY d   1      -2.683   3.644  -4.636  0.00  0.00    -0.082 A 
ATOM      4  C2  PXY d   1      -3.521   3.160  -5.538  0.00  0.00     0.003 A 
ATOM      5  C3  PXY d   1      -4.562   3.924  -5.997  0.00  0.00     0.003 A 
ATOM      6  C4  PXY d   1      -4.780   5.177  -5.489  0.00  0.00    -0.082 A 
ATOM      7  C5  PXY d   1      -3.935   5.673  -4.560  0.00  0.00     0.003 A 
ATOM      8  C6  PXY d   1      -2.860   4.897  -4.137  0.00  0.00     0.003 A 
ENDROOT
TORSDOF 0
ENDMDL
