MODEL 1
REMARK minimizedAffinity 5.83255434
REMARK minimizedRMSD -1
REMARK  0 active torsions:
REMARK  status: ('A' for Active; 'I' for Inactive)
ROOT
ATOM      1  C4' PXY d   1      -0.326  -6.000   1.874  0.00  0.00     0.077 C 
ATOM      2  C1' PXY d   1      -2.720  -0.932   0.458  0.00  0.00     0.077 C 
ATOM      3  C1  PXY d   1      -2.092  -2.265   0.817  0.00  0.00    -0.082 A 
ATOM      4  C2  PXY d   1      -2.264  -2.763   2.030  0.00  0.00     0.003 A 
ATOM      5  C3  PXY d   1      -1.677  -3.951   2.381  0.00  0.00     0.003 A 
ATOM      6  C4  PXY d   1      -0.950  -4.662   1.465  0.00  0.00    -0.082 A 
ATOM      7  C5  PXY d   1      -0.778  -4.166   0.222  0.00  0.00     0.003 A 
ATOM      8  C6  PXY d   1      -1.348  -2.938  -0.103  0.00  0.00     0.003 A 
ENDROOT
TORSDOF 0
ENDMDL
