MODEL 1
REMARK minimizedAffinity 19.0436974
REMARK minimizedRMSD -1
REMARK  0 active torsions:
REMARK  status: ('A' for Active; 'I' for Inactive)
ROOT
ATOM      1  C4' PXY d   1      -3.014   1.041   6.000  0.00  0.00     0.077 C 
ATOM      2  C1' PXY d   1      -0.604  -3.656   3.645  0.00  0.00     0.077 C 
ATOM      3  C1  PXY d   1      -1.231  -2.427   4.274  0.00  0.00    -0.082 A 
ATOM      4  C2  PXY d   1      -2.312  -1.893   3.730  0.00  0.00     0.003 A 
ATOM      5  C3  PXY d   1      -2.873  -0.763   4.267  0.00  0.00     0.003 A 
ATOM      6  C4  PXY d   1      -2.353  -0.205   5.404  0.00  0.00    -0.082 A 
ATOM      7  C5  PXY d   1      -1.256  -0.750   5.972  0.00  0.00     0.003 A 
ATOM      8  C6  PXY d   1      -0.678  -1.873   5.387  0.00  0.00     0.003 A 
ENDROOT
TORSDOF 0
ENDMDL
