MODEL 1
REMARK minimizedAffinity 13.2481833
REMARK minimizedRMSD -1
REMARK  0 active torsions:
REMARK  status: ('A' for Active; 'I' for Inactive)
ROOT
ATOM      1  C4' PXY d   1      -5.937   4.982   5.999  0.00  0.00     0.077 C 
ATOM      2  C1' PXY d   1      -3.291  -0.094   5.189  0.00  0.00     0.077 C 
ATOM      3  C1  PXY d   1      -3.995   1.233   5.394  0.00  0.00    -0.082 A 
ATOM      4  C2  PXY d   1      -3.287   2.310   5.695  0.00  0.00     0.003 A 
ATOM      5  C3  PXY d   1      -3.910   3.511   5.916  0.00  0.00     0.003 A 
ATOM      6  C4  PXY d   1      -5.267   3.623   5.774  0.00  0.00    -0.082 A 
ATOM      7  C5  PXY d   1      -5.996   2.532   5.457  0.00  0.00     0.003 A 
ATOM      8  C6  PXY d   1      -5.348   1.313   5.278  0.00  0.00     0.003 A 
ENDROOT
TORSDOF 0
ENDMDL
