MODEL 1
REMARK minimizedAffinity 23.4382668
REMARK minimizedRMSD -1
REMARK  0 active torsions:
REMARK  status: ('A' for Active; 'I' for Inactive)
ROOT
ATOM      1  C4' PXY d   1       1.079   5.996   6.000  0.00  0.00     0.077 C 
ATOM      2  C1' PXY d   1       5.810   2.741   5.336  0.00  0.00     0.077 C 
ATOM      3  C1  PXY d   1       4.563   3.586   5.503  0.00  0.00    -0.082 A 
ATOM      4  C2  PXY d   1       4.678   4.885   5.729  0.00  0.00     0.003 A 
ATOM      5  C3  PXY d   1       3.561   5.658   5.915  0.00  0.00     0.003 A 
ATOM      6  C4  PXY d   1       2.311   5.106   5.815  0.00  0.00    -0.082 A 
ATOM      7  C5  PXY d   1       2.186   3.784   5.574  0.00  0.00     0.003 A 
ATOM      8  C6  PXY d   1       3.333   3.009   5.430  0.00  0.00     0.003 A 
ENDROOT
TORSDOF 0
ENDMDL
