MODEL 1
REMARK minimizedAffinity 10.0228519
REMARK minimizedRMSD -1
REMARK  0 active torsions:
REMARK  status: ('A' for Active; 'I' for Inactive)
ROOT
ATOM      1  C4' PXY d   1      -1.884  -1.511   5.632  0.00  0.00     0.077 C 
ATOM      2  C1' PXY d   1      -5.939   2.593   5.997  0.00  0.00     0.077 C 
ATOM      3  C1  PXY d   1      -4.884   1.508   5.906  0.00  0.00    -0.082 A 
ATOM      4  C2  PXY d   1      -3.604   1.840   5.896  0.00  0.00     0.003 A 
ATOM      5  C3  PXY d   1      -2.637   0.874   5.782  0.00  0.00     0.003 A 
ATOM      6  C4  PXY d   1      -2.984  -0.450   5.732  0.00  0.00    -0.082 A 
ATOM      7  C5  PXY d   1      -4.288  -0.797   5.753  0.00  0.00     0.003 A 
ATOM      8  C6  PXY d   1      -5.255   0.201   5.827  0.00  0.00     0.003 A 
ENDROOT
TORSDOF 0
ENDMDL
