MODEL 1
REMARK minimizedAffinity 10.1746321
REMARK minimizedRMSD -1
REMARK  0 active torsions:
REMARK  status: ('A' for Active; 'I' for Inactive)
ROOT
ATOM      1  C4' PXY d   1      -0.516  -5.232   0.107  0.00  0.00     0.077 C 
ATOM      2  C1' PXY d   1      -2.483  -1.563   4.117  0.00  0.00     0.077 C 
ATOM      3  C1  PXY d   1      -1.976  -2.521   3.057  0.00  0.00    -0.082 A 
ATOM      4  C2  PXY d   1      -1.340  -3.622   3.421  0.00  0.00     0.003 A 
ATOM      5  C3  PXY d   1      -0.847  -4.484   2.475  0.00  0.00     0.003 A 
ATOM      6  C4  PXY d   1      -1.054  -4.241   1.143  0.00  0.00    -0.082 A 
ATOM      7  C5  PXY d   1      -1.710  -3.125   0.764  0.00  0.00     0.003 A 
ATOM      8  C6  PXY d   1      -2.167  -2.242   1.739  0.00  0.00     0.003 A 
ENDROOT
TORSDOF 0
ENDMDL
