MODEL 1
REMARK minimizedAffinity 20.5882263
REMARK minimizedRMSD -1
REMARK  0 active torsions:
REMARK  status: ('A' for Active; 'I' for Inactive)
ROOT
ATOM      1  C4' PXY d   1       1.330  -0.895  -2.737  0.00  0.00     0.077 C 
ATOM      2  C1' PXY d   1       3.971   2.807   0.832  0.00  0.00     0.077 C 
ATOM      3  C1  PXY d   1       3.288   1.828  -0.103  0.00  0.00    -0.082 A 
ATOM      4  C2  PXY d   1       2.379   2.266  -0.959  0.00  0.00     0.003 A 
ATOM      5  C3  PXY d   1       1.729   1.389  -1.789  0.00  0.00     0.003 A 
ATOM      6  C4  PXY d   1       2.051   0.059  -1.781  0.00  0.00    -0.082 A 
ATOM      7  C5  PXY d   1       2.986  -0.394  -0.918  0.00  0.00     0.003 A 
ATOM      8  C6  PXY d   1       3.604   0.505  -0.055  0.00  0.00     0.003 A 
ENDROOT
TORSDOF 0
ENDMDL
