MODEL 1
REMARK minimizedAffinity -3.02290344
REMARK minimizedRMSD -1
REMARK  0 active torsions:
REMARK  status: ('A' for Active; 'I' for Inactive)
ROOT
ATOM      1  C1  BNZ d   1       0.645   0.533  -3.522  0.00  0.00     0.000 A 
ATOM      2  C2  BNZ d   1       0.906   1.220  -4.677  0.00  0.00     0.000 A 
ATOM      3  C3  BNZ d   1       2.124   1.805  -4.883  0.00  0.00     0.000 A 
ATOM      4  C4  BNZ d   1       3.064   1.737  -3.919  0.00  0.00     0.000 A 
ATOM      5  C5  BNZ d   1       2.813   1.055  -2.745  0.00  0.00     0.000 A 
ATOM      6  C6  BNZ d   1       1.600   0.434  -2.557  0.00  0.00     0.000 A 
ENDROOT
TORSDOF 0
ENDMDL
