MODEL 1
REMARK minimizedAffinity 3.82119632
REMARK minimizedRMSD -1
REMARK  0 active torsions:
REMARK  status: ('A' for Active; 'I' for Inactive)
ROOT
ATOM      1  C1  BNZ d   1       1.037   1.851   1.450  0.00  0.00     0.000 A 
ATOM      2  C2  BNZ d   1       0.709   0.783   0.658  0.00  0.00     0.000 A 
ATOM      3  C3  BNZ d   1       1.670  -0.087   0.224  0.00  0.00     0.000 A 
ATOM      4  C4  BNZ d   1       2.960   0.134   0.547  0.00  0.00     0.000 A 
ATOM      5  C5  BNZ d   1       3.308   1.212   1.337  0.00  0.00     0.000 A 
ATOM      6  C6  BNZ d   1       2.334   2.064   1.805  0.00  0.00     0.000 A 
ENDROOT
TORSDOF 0
ENDMDL
