MODEL 1
REMARK minimizedAffinity -0.625506639
REMARK minimizedRMSD -1
REMARK  0 active torsions:
REMARK  status: ('A' for Active; 'I' for Inactive)
ROOT
ATOM      1  C1  BNZ d   1       2.380   0.797   1.228  0.00  0.00     0.000 A 
ATOM      2  C2  BNZ d   1       2.206  -0.046   0.163  0.00  0.00     0.000 A 
ATOM      3  C3  BNZ d   1       1.108  -0.857   0.084  0.00  0.00     0.000 A 
ATOM      4  C4  BNZ d   1       0.207  -0.852   1.087  0.00  0.00     0.000 A 
ATOM      5  C5  BNZ d   1       0.373  -0.014   2.172  0.00  0.00     0.000 A 
ATOM      6  C6  BNZ d   1       1.460   0.829   2.229  0.00  0.00     0.000 A 
ENDROOT
TORSDOF 0
ENDMDL
