MODEL 1
REMARK minimizedAffinity -1.14751112
REMARK minimizedRMSD -1
REMARK  0 active torsions:
REMARK  status: ('A' for Active; 'I' for Inactive)
ROOT
ATOM      1  C1  BNZ d   1       2.000  -0.294   1.311  0.00  0.00     0.000 A 
ATOM      2  C2  BNZ d   1       0.647  -0.365   1.113  0.00  0.00     0.000 A 
ATOM      3  C3  BNZ d   1       0.136  -0.851  -0.058  0.00  0.00     0.000 A 
ATOM      4  C4  BNZ d   1       0.976  -1.227  -1.043  0.00  0.00     0.000 A 
ATOM      5  C5  BNZ d   1       2.343  -1.152  -0.863  0.00  0.00     0.000 A 
ATOM      6  C6  BNZ d   1       2.854  -0.699   0.332  0.00  0.00     0.000 A 
ENDROOT
TORSDOF 0
ENDMDL
