MODEL 1
REMARK minimizedAffinity -0.550778449
REMARK minimizedRMSD -1
REMARK  0 active torsions:
REMARK  status: ('A' for Active; 'I' for Inactive)
ROOT
ATOM      1  C1  BNZ d   1       0.738  -0.226   2.160  0.00  0.00     0.000 A 
ATOM      2  C2  BNZ d   1       1.179   0.810   2.939  0.00  0.00     0.000 A 
ATOM      3  C3  BNZ d   1       2.115   1.689   2.470  0.00  0.00     0.000 A 
ATOM      4  C4  BNZ d   1       2.637   1.508   1.240  0.00  0.00     0.000 A 
ATOM      5  C5  BNZ d   1       2.209   0.463   0.446  0.00  0.00     0.000 A 
ATOM      6  C6  BNZ d   1       1.238  -0.397   0.906  0.00  0.00     0.000 A 
ENDROOT
TORSDOF 0
ENDMDL
