MODEL 1
REMARK minimizedAffinity 10.2285566
REMARK minimizedRMSD -1
REMARK  0 active torsions:
REMARK  status: ('A' for Active; 'I' for Inactive)
ROOT
ATOM      1  C1  BNZ d   1       2.378   0.310  -4.560  0.00  0.00     0.000 A 
ATOM      2  C2  BNZ d   1       2.443  -0.556  -3.502  0.00  0.00     0.000 A 
ATOM      3  C3  BNZ d   1       3.149  -0.235  -2.376  0.00  0.00     0.000 A 
ATOM      4  C4  BNZ d   1       3.821   0.933  -2.326  0.00  0.00     0.000 A 
ATOM      5  C5  BNZ d   1       3.774   1.813  -3.389  0.00  0.00     0.000 A 
ATOM      6  C6  BNZ d   1       3.030   1.503  -4.505  0.00  0.00     0.000 A 
ENDROOT
TORSDOF 0
ENDMDL
