MODEL 1
REMARK minimizedAffinity 1.74494958
REMARK minimizedRMSD -1
REMARK  0 active torsions:
REMARK  status: ('A' for Active; 'I' for Inactive)
ROOT
ATOM      1  N1  IND d   1       0.694  -0.827   0.549  0.00  0.00    -0.196 N 
ATOM      2  C2  IND d   1       1.335   0.356   0.307  0.00  0.00     0.054 A 
ATOM      3  C3  IND d   1       0.648   1.086  -0.600  0.00  0.00    -0.031 A 
ATOM      4  C4  IND d   1      -1.605   0.580  -1.739  0.00  0.00     0.051 A 
ATOM      5  C5  IND d   1      -2.555  -0.395  -1.862  0.00  0.00    -0.031 A 
ATOM      6  C6  IND d   1      -2.469  -1.587  -1.172  0.00  0.00     0.015 A 
ATOM      7  C7  IND d   1      -1.433  -1.845  -0.320  0.00  0.00    -0.016 A 
ATOM      8  C8  IND d   1      -0.463  -0.860  -0.198  0.00  0.00    -0.047 A 
ATOM      9  C9  IND d   1      -0.522   0.335  -0.928  0.00  0.00    -0.096 A 
ATOM     10  HN1 IND d   1       0.967  -1.446   1.079  0.00  0.00     0.298 HD
ENDROOT
TORSDOF 0
ENDMDL
