MODEL 1
REMARK minimizedAffinity -3.0364573
REMARK minimizedRMSD -1
REMARK  0 active torsions:
REMARK  status: ('A' for Active; 'I' for Inactive)
ROOT
ATOM      1  N1  IND d   1       1.131   0.219   0.899  0.00  0.00    -0.196 N 
ATOM      2  C2  IND d   1       1.879   1.344   0.691  0.00  0.00     0.054 A 
ATOM      3  C3  IND d   1       1.358   2.075  -0.321  0.00  0.00    -0.031 A 
ATOM      4  C4  IND d   1      -0.773   1.665  -1.706  0.00  0.00     0.051 A 
ATOM      5  C5  IND d   1      -1.768   0.750  -1.907  0.00  0.00    -0.031 A 
ATOM      6  C6  IND d   1      -1.851  -0.412  -1.166  0.00  0.00     0.015 A 
ATOM      7  C7  IND d   1      -0.944  -0.696  -0.184  0.00  0.00    -0.016 A 
ATOM      8  C8  IND d   1       0.072   0.227   0.018  0.00  0.00    -0.047 A 
ATOM      9  C9  IND d   1       0.185   1.387  -0.760  0.00  0.00    -0.096 A 
ATOM     10  HN1 IND d   1       1.294  -0.391   1.482  0.00  0.00     0.298 HD
ENDROOT
TORSDOF 0
ENDMDL
