MODEL 1
REMARK minimizedAffinity -2.55122232
REMARK minimizedRMSD -1
REMARK  0 active torsions:
REMARK  status: ('A' for Active; 'I' for Inactive)
ROOT
ATOM      1  N1  IND d   1       0.850   0.273   1.347  0.00  0.00    -0.196 N 
ATOM      2  C2  IND d   1       0.371  -0.296   0.199  0.00  0.00     0.054 A 
ATOM      3  C3  IND d   1       0.714   0.451  -0.874  0.00  0.00    -0.031 A 
ATOM      4  C4  IND d   1       2.143   2.589  -0.990  0.00  0.00     0.051 A 
ATOM      5  C5  IND d   1       2.773   3.508  -0.199  0.00  0.00    -0.031 A 
ATOM      6  C6  IND d   1       2.797   3.392   1.176  0.00  0.00     0.015 A 
ATOM      7  C7  IND d   1       2.199   2.341   1.812  0.00  0.00    -0.016 A 
ATOM      8  C8  IND d   1       1.552   1.410   1.012  0.00  0.00    -0.047 A 
ATOM      9  C9  IND d   1       1.488   1.545  -0.381  0.00  0.00    -0.096 A 
ATOM     10  HN1 IND d   1       0.732  -0.029   2.143  0.00  0.00     0.298 HD
ENDROOT
TORSDOF 0
ENDMDL
