MODEL 1
REMARK minimizedAffinity -1.94329286
REMARK minimizedRMSD -1
REMARK  0 active torsions:
REMARK  status: ('A' for Active; 'I' for Inactive)
ROOT
ATOM      1  N1  IND d   1      -0.075   0.706   0.318  0.00  0.00    -0.196 N 
ATOM      2  C2  IND d   1       0.461  -0.454  -0.169  0.00  0.00     0.054 A 
ATOM      3  C3  IND d   1       1.808  -0.362  -0.224  0.00  0.00    -0.031 A 
ATOM      4  C4  IND d   1       3.349   1.557   0.531  0.00  0.00     0.051 A 
ATOM      5  C5  IND d   1       3.321   2.838   1.008  0.00  0.00    -0.031 A 
ATOM      6  C6  IND d   1       2.134   3.485   1.288  0.00  0.00     0.015 A 
ATOM      7  C7  IND d   1       0.928   2.869   1.111  0.00  0.00    -0.016 A 
ATOM      8  C8  IND d   1       0.953   1.571   0.620  0.00  0.00    -0.047 A 
ATOM      9  C9  IND d   1       2.152   0.924   0.294  0.00  0.00    -0.096 A 
ATOM     10  HN1 IND d   1      -0.914   0.867   0.420  0.00  0.00     0.298 HD
ENDROOT
TORSDOF 0
ENDMDL
