MODEL 1
REMARK minimizedAffinity -2.54617929
REMARK minimizedRMSD -1
REMARK  0 active torsions:
REMARK  status: ('A' for Active; 'I' for Inactive)
ROOT
ATOM      1  N1  IND d   1      -0.571  -1.797   0.773  0.00  0.00    -0.196 N 
ATOM      2  C2  IND d   1       0.582  -1.112   1.037  0.00  0.00     0.054 A 
ATOM      3  C3  IND d   1       0.842  -0.229   0.046  0.00  0.00    -0.031 A 
ATOM      4  C4  IND d   1      -0.543   0.331  -2.050  0.00  0.00     0.051 A 
ATOM      5  C5  IND d   1      -1.656  -0.059  -2.742  0.00  0.00    -0.031 A 
ATOM      6  C6  IND d   1      -2.482  -1.066  -2.286  0.00  0.00     0.015 A 
ATOM      7  C7  IND d   1      -2.231  -1.716  -1.112  0.00  0.00    -0.016 A 
ATOM      8  C8  IND d   1      -1.098  -1.329  -0.410  0.00  0.00    -0.047 A 
ATOM      9  C9  IND d   1      -0.233  -0.336  -0.889  0.00  0.00    -0.096 A 
ATOM     10  HN1 IND d   1      -0.910  -2.417   1.263  0.00  0.00     0.298 HD
ENDROOT
TORSDOF 0
ENDMDL
