MODEL 1
REMARK minimizedAffinity -4.67994499
REMARK minimizedRMSD -1
REMARK  0 active torsions:
REMARK  status: ('A' for Active; 'I' for Inactive)
ROOT
ATOM      1  N1  IND d   1       0.742  -0.261   1.173  0.00  0.00    -0.196 N 
ATOM      2  C2  IND d   1       1.703   0.596   0.713  0.00  0.00     0.054 A 
ATOM      3  C3  IND d   1       1.368   1.066  -0.509  0.00  0.00    -0.031 A 
ATOM      4  C4  IND d   1      -0.757   0.643  -1.898  0.00  0.00     0.051 A 
ATOM      5  C5  IND d   1      -1.906  -0.097  -1.911  0.00  0.00    -0.031 A 
ATOM      6  C6  IND d   1      -2.239  -0.944  -0.874  0.00  0.00     0.015 A 
ATOM      7  C7  IND d   1      -1.437  -1.075   0.224  0.00  0.00    -0.016 A 
ATOM      8  C8  IND d   1      -0.266  -0.331   0.237  0.00  0.00    -0.047 A 
ATOM      9  C9  IND d   1       0.097   0.499  -0.831  0.00  0.00    -0.096 A 
ATOM     10  HN1 IND d   1       0.764  -0.685   1.921  0.00  0.00     0.298 HD
ENDROOT
TORSDOF 0
ENDMDL
