MODEL 1
REMARK minimizedAffinity -2.7532022
REMARK minimizedRMSD -1
REMARK  0 active torsions:
REMARK  status: ('A' for Active; 'I' for Inactive)
ROOT
ATOM      1  N1  IND d   1       0.168   0.004   1.262  0.00  0.00    -0.196 N 
ATOM      2  C2  IND d   1       1.429   0.167   0.761  0.00  0.00     0.054 A 
ATOM      3  C3  IND d   1       1.410   0.114  -0.589  0.00  0.00    -0.031 A 
ATOM      4  C4  IND d   1      -0.593  -0.129  -2.188  0.00  0.00     0.051 A 
ATOM      5  C5  IND d   1      -1.943  -0.345  -2.199  0.00  0.00    -0.031 A 
ATOM      6  C6  IND d   1      -2.673  -0.456  -1.033  0.00  0.00     0.015 A 
ATOM      7  C7  IND d   1      -2.080  -0.342   0.192  0.00  0.00    -0.016 A 
ATOM      8  C8  IND d   1      -0.708  -0.130   0.207  0.00  0.00    -0.047 A 
ATOM      9  C9  IND d   1       0.044  -0.059  -0.972  0.00  0.00    -0.096 A 
ATOM     10  HN1 IND d   1      -0.043  -0.012   2.095  0.00  0.00     0.298 HD
ENDROOT
TORSDOF 0
ENDMDL
