MODEL 1
REMARK minimizedAffinity 0.225996092
REMARK minimizedRMSD -1
REMARK  0 active torsions:
REMARK  status: ('A' for Active; 'I' for Inactive)
ROOT
ATOM      1  N1  IND d   1       0.784   1.387   0.304  0.00  0.00    -0.196 N 
ATOM      2  C2  IND d   1      -0.221   1.953   1.036  0.00  0.00     0.054 A 
ATOM      3  C3  IND d   1      -1.423   1.669   0.485  0.00  0.00    -0.031 A 
ATOM      4  C4  IND d   1      -1.979   0.207  -1.559  0.00  0.00     0.051 A 
ATOM      5  C5  IND d   1      -1.391  -0.493  -2.575  0.00  0.00    -0.031 A 
ATOM      6  C6  IND d   1      -0.021  -0.607  -2.683  0.00  0.00     0.015 A 
ATOM      7  C7  IND d   1       0.817  -0.032  -1.770  0.00  0.00    -0.016 A 
ATOM      8  C8  IND d   1       0.223   0.686  -0.741  0.00  0.00    -0.047 A 
ATOM      9  C9  IND d   1      -1.166   0.841  -0.650  0.00  0.00    -0.096 A 
ATOM     10  HN1 IND d   1       1.625   1.457   0.468  0.00  0.00     0.298 HD
ENDROOT
TORSDOF 0
ENDMDL
