MODEL 1
REMARK minimizedAffinity -1.37045693
REMARK minimizedRMSD -1
REMARK  0 active torsions:
REMARK  status: ('A' for Active; 'I' for Inactive)
ROOT
ATOM      1  N1  IND d   1       0.793   0.247  -0.180  0.00  0.00    -0.196 N 
ATOM      2  C2  IND d   1       0.963  -0.747   0.743  0.00  0.00     0.054 A 
ATOM      3  C3  IND d   1      -0.152  -1.507   0.828  0.00  0.00    -0.031 A 
ATOM      4  C4  IND d   1      -2.336  -1.361  -0.527  0.00  0.00     0.051 A 
ATOM      5  C5  IND d   1      -2.976  -0.595  -1.461  0.00  0.00    -0.031 A 
ATOM      6  C6  IND d   1      -2.378   0.512  -2.029  0.00  0.00     0.015 A 
ATOM      7  C7  IND d   1      -1.109   0.888  -1.691  0.00  0.00    -0.016 A 
ATOM      8  C8  IND d   1      -0.460   0.117  -0.738  0.00  0.00    -0.047 A 
ATOM      9  C9  IND d   1      -1.077  -0.982  -0.127  0.00  0.00    -0.096 A 
ATOM     10  HN1 IND d   1       1.371   0.851  -0.378  0.00  0.00     0.298 HD
ENDROOT
TORSDOF 0
ENDMDL
