MODEL 1
REMARK minimizedAffinity -2.63629699
REMARK minimizedRMSD -1
REMARK  0 active torsions:
REMARK  status: ('A' for Active; 'I' for Inactive)
ROOT
ATOM      1  N1  IND d   1       1.365   3.076   1.617  0.00  0.00    -0.196 N 
ATOM      2  C2  IND d   1       2.725   3.001   1.738  0.00  0.00     0.054 A 
ATOM      3  C3  IND d   1       3.193   1.904   1.101  0.00  0.00    -0.031 A 
ATOM      4  C4  IND d   1       1.920   0.151  -0.290  0.00  0.00     0.051 A 
ATOM      5  C5  IND d   1       0.658  -0.223  -0.657  0.00  0.00    -0.031 A 
ATOM      6  C6  IND d   1      -0.455   0.500  -0.280  0.00  0.00     0.015 A 
ATOM      7  C7  IND d   1      -0.346   1.636   0.473  0.00  0.00    -0.016 A 
ATOM      8  C8  IND d   1       0.933   2.014   0.853  0.00  0.00    -0.047 A 
ATOM      9  C9  IND d   1       2.063   1.261   0.510  0.00  0.00    -0.096 A 
ATOM     10  HN1 IND d   1       0.864   3.685   1.960  0.00  0.00     0.298 HD
ENDROOT
TORSDOF 0
ENDMDL
