MODEL 1
REMARK minimizedAffinity -2.06033254
REMARK minimizedRMSD -1
REMARK  0 active torsions:
REMARK  status: ('A' for Active; 'I' for Inactive)
ROOT
ATOM      1  N1  IND d   1       1.379  -0.674   0.386  0.00  0.00    -0.196 N 
ATOM      2  C2  IND d   1       1.985   0.419  -0.169  0.00  0.00     0.054 A 
ATOM      3  C3  IND d   1       1.094   1.135  -0.890  0.00  0.00    -0.031 A 
ATOM      4  C4  IND d   1      -1.432   0.755  -1.212  0.00  0.00     0.051 A 
ATOM      5  C5  IND d   1      -2.432  -0.132  -0.929  0.00  0.00    -0.031 A 
ATOM      6  C6  IND d   1      -2.210  -1.266  -0.176  0.00  0.00     0.015 A 
ATOM      7  C7  IND d   1      -0.975  -1.551   0.335  0.00  0.00    -0.016 A 
ATOM      8  C8  IND d   1       0.045  -0.657   0.043  0.00  0.00    -0.047 A 
ATOM      9  C9  IND d   1      -0.166   0.474  -0.756  0.00  0.00    -0.096 A 
ATOM     10  HN1 IND d   1       1.766  -1.271   0.869  0.00  0.00     0.298 HD
ENDROOT
TORSDOF 0
ENDMDL
