MODEL 1
REMARK minimizedAffinity -2.68181372
REMARK minimizedRMSD -1
REMARK  0 active torsions:
REMARK  status: ('A' for Active; 'I' for Inactive)
ROOT
ATOM      1  N1  IND d   1       0.859  -0.505   0.597  0.00  0.00    -0.196 N 
ATOM      2  C2  IND d   1       0.386  -0.459  -0.685  0.00  0.00     0.054 A 
ATOM      3  C3  IND d   1       0.509   0.790  -1.186  0.00  0.00    -0.031 A 
ATOM      4  C4  IND d   1       1.548   2.888  -0.115  0.00  0.00     0.051 A 
ATOM      5  C5  IND d   1       2.080   3.348   1.057  0.00  0.00    -0.031 A 
ATOM      6  C6  IND d   1       2.238   2.530   2.156  0.00  0.00     0.015 A 
ATOM      7  C7  IND d   1       1.879   1.212   2.122  0.00  0.00    -0.016 A 
ATOM      8  C8  IND d   1       1.331   0.743   0.936  0.00  0.00    -0.047 A 
ATOM      9  C9  IND d   1       1.129   1.580  -0.170  0.00  0.00    -0.096 A 
ATOM     10  HN1 IND d   1       0.860  -1.198   1.107  0.00  0.00     0.298 HD
ENDROOT
TORSDOF 0
ENDMDL
