MODEL 1
REMARK minimizedAffinity -4.70561695
REMARK minimizedRMSD -1
REMARK  0 active torsions:
REMARK  status: ('A' for Active; 'I' for Inactive)
ROOT
ATOM      1  N1  IND d   1       0.796  -1.031   0.829  0.00  0.00    -0.196 N 
ATOM      2  C2  IND d   1       1.156   0.022   0.035  0.00  0.00     0.054 A 
ATOM      3  C3  IND d   1       0.202   0.259  -0.893  0.00  0.00    -0.031 A 
ATOM      4  C4  IND d   1      -2.078  -0.890  -1.225  0.00  0.00     0.051 A 
ATOM      5  C5  IND d   1      -2.837  -1.931  -0.767  0.00  0.00    -0.031 A 
ATOM      6  C6  IND d   1      -2.416  -2.739   0.270  0.00  0.00     0.015 A 
ATOM      7  C7  IND d   1      -1.221  -2.529   0.897  0.00  0.00    -0.016 A 
ATOM      8  C8  IND d   1      -0.444  -1.478   0.429  0.00  0.00    -0.047 A 
ATOM      9  C9  IND d   1      -0.847  -0.681  -0.650  0.00  0.00    -0.096 A 
ATOM     10  HN1 IND d   1       1.265  -1.359   1.471  0.00  0.00     0.298 HD
ENDROOT
TORSDOF 0
ENDMDL
