MODEL 1
REMARK minimizedAffinity -1.28978968
REMARK minimizedRMSD -1
REMARK  0 active torsions:
REMARK  status: ('A' for Active; 'I' for Inactive)
ROOT
ATOM      1  N1  IND d   1      -0.790  -2.192   1.222  0.00  0.00    -0.196 N 
ATOM      2  C2  IND d   1      -1.754  -3.151   1.090  0.00  0.00     0.054 A 
ATOM      3  C3  IND d   1      -2.552  -2.874   0.035  0.00  0.00    -0.031 A 
ATOM      4  C4  IND d   1      -2.396  -0.955  -1.674  0.00  0.00     0.051 A 
ATOM      5  C5  IND d   1      -1.703   0.191  -1.946  0.00  0.00    -0.031 A 
ATOM      6  C6  IND d   1      -0.647   0.609  -1.162  0.00  0.00     0.015 A 
ATOM      7  C7  IND d   1      -0.236  -0.114  -0.078  0.00  0.00    -0.016 A 
ATOM      8  C8  IND d   1      -0.942  -1.274   0.206  0.00  0.00    -0.047 A 
ATOM      9  C9  IND d   1      -2.041  -1.681  -0.562  0.00  0.00    -0.096 A 
ATOM     10  HN1 IND d   1      -0.189  -2.165   1.837  0.00  0.00     0.298 HD
ENDROOT
TORSDOF 0
ENDMDL
