MODEL 1
REMARK minimizedAffinity -3.8051188
REMARK minimizedRMSD -1
REMARK  0 active torsions:
REMARK  status: ('A' for Active; 'I' for Inactive)
ROOT
ATOM      1  N1  IND d   1       1.363   1.947   3.019  0.00  0.00    -0.196 N 
ATOM      2  C2  IND d   1       2.017   2.987   2.421  0.00  0.00     0.054 A 
ATOM      3  C3  IND d   1       2.228   2.721   1.113  0.00  0.00    -0.031 A 
ATOM      4  C4  IND d   1       1.492   0.685  -0.281  0.00  0.00     0.051 A 
ATOM      5  C5  IND d   1       0.898  -0.541  -0.167  0.00  0.00    -0.031 A 
ATOM      6  C6  IND d   1       0.417  -1.008   1.039  0.00  0.00     0.015 A 
ATOM      7  C7  IND d   1       0.502  -0.259   2.178  0.00  0.00    -0.016 A 
ATOM      8  C8  IND d   1       1.110   0.983   2.068  0.00  0.00    -0.047 A 
ATOM      9  C9  IND d   1       1.639   1.445   0.855  0.00  0.00    -0.096 A 
ATOM     10  HN1 IND d   1       1.145   1.902   3.850  0.00  0.00     0.298 HD
ENDROOT
TORSDOF 0
ENDMDL
