MODEL 1
REMARK minimizedAffinity 1.60768867
REMARK minimizedRMSD -1
REMARK  0 active torsions:
REMARK  status: ('A' for Active; 'I' for Inactive)
ROOT
ATOM      1  N1  IND d   1      -0.122   0.122   2.208  0.00  0.00    -0.196 N 
ATOM      2  C2  IND d   1       0.223  -0.970   1.461  0.00  0.00     0.054 A 
ATOM      3  C3  IND d   1      -0.701  -1.193   0.500  0.00  0.00    -0.031 A 
ATOM      4  C4  IND d   1      -2.805   0.167  -0.094  0.00  0.00     0.051 A 
ATOM      5  C5  IND d   1      -3.557   1.227   0.328  0.00  0.00    -0.031 A 
ATOM      6  C6  IND d   1      -3.194   1.990   1.419  0.00  0.00     0.015 A 
ATOM      7  C7  IND d   1      -2.054   1.727   2.125  0.00  0.00    -0.016 A 
ATOM      8  C8  IND d   1      -1.292   0.647   1.703  0.00  0.00    -0.047 A 
ATOM      9  C9  IND d   1      -1.677  -0.157   0.623  0.00  0.00    -0.096 A 
ATOM     10  HN1 IND d   1       0.317   0.429   2.881  0.00  0.00     0.298 HD
ENDROOT
TORSDOF 0
ENDMDL
