MODEL 1
REMARK minimizedAffinity 1.54159915
REMARK minimizedRMSD -1
REMARK  0 active torsions:
REMARK  status: ('A' for Active; 'I' for Inactive)
ROOT
ATOM      1  N1  IND d   1       1.687  -3.877   0.896  0.00  0.00    -0.196 N 
ATOM      2  C2  IND d   1       3.041  -3.708   0.818  0.00  0.00     0.054 A 
ATOM      3  C3  IND d   1       3.350  -2.392   0.788  0.00  0.00    -0.031 A 
ATOM      4  C4  IND d   1       1.800  -0.344   0.958  0.00  0.00     0.051 A 
ATOM      5  C5  IND d   1       0.480   0.007   1.007  0.00  0.00    -0.031 A 
ATOM      6  C6  IND d   1      -0.525  -0.938   1.024  0.00  0.00     0.015 A 
ATOM      7  C7  IND d   1      -0.246  -2.275   1.005  0.00  0.00    -0.016 A 
ATOM      8  C8  IND d   1       1.093  -2.635   0.948  0.00  0.00    -0.047 A 
ATOM      9  C9  IND d   1       2.116  -1.680   0.887  0.00  0.00    -0.096 A 
ATOM     10  HN1 IND d   1       1.276  -4.631   0.910  0.00  0.00     0.298 HD
ENDROOT
TORSDOF 0
ENDMDL
