MODEL 1
REMARK minimizedAffinity -3.75941706
REMARK minimizedRMSD -1
REMARK  0 active torsions:
REMARK  status: ('A' for Active; 'I' for Inactive)
ROOT
ATOM      1  N1  IND d   1       1.244  -0.638   0.945  0.00  0.00    -0.196 N 
ATOM      2  C2  IND d   1      -0.086  -0.464   0.683  0.00  0.00     0.054 A 
ATOM      3  C3  IND d   1      -0.574  -1.526   0.004  0.00  0.00    -0.031 A 
ATOM      4  C4  IND d   1       0.606  -3.706  -0.692  0.00  0.00     0.051 A 
ATOM      5  C5  IND d   1       1.832  -4.310  -0.705  0.00  0.00    -0.031 A 
ATOM      6  C6  IND d   1       2.946  -3.710  -0.155  0.00  0.00     0.015 A 
ATOM      7  C7  IND d   1       2.874  -2.483   0.442  0.00  0.00    -0.016 A 
ATOM      8  C8  IND d   1       1.632  -1.864   0.450  0.00  0.00    -0.047 A 
ATOM      9  C9  IND d   1       0.507  -2.449  -0.144  0.00  0.00    -0.096 A 
ATOM     10  HN1 IND d   1       1.753  -0.076   1.352  0.00  0.00     0.298 HD
ENDROOT
TORSDOF 0
ENDMDL
