MODEL 1
REMARK minimizedAffinity 1.9552623
REMARK minimizedRMSD -1
REMARK  0 active torsions:
REMARK  status: ('A' for Active; 'I' for Inactive)
ROOT
ATOM      1  N1  IND d   1       2.234  -3.173   0.129  0.00  0.00    -0.196 N 
ATOM      2  C2  IND d   1       1.345  -4.159  -0.194  0.00  0.00     0.054 A 
ATOM      3  C3  IND d   1       0.078  -3.740   0.025  0.00  0.00    -0.031 A 
ATOM      4  C4  IND d   1      -0.771  -1.441   0.812  0.00  0.00     0.051 A 
ATOM      5  C5  IND d   1      -0.333  -0.228   1.265  0.00  0.00    -0.031 A 
ATOM      6  C6  IND d   1       1.010   0.072   1.362  0.00  0.00     0.015 A 
ATOM      7  C7  IND d   1       1.970  -0.829   0.997  0.00  0.00    -0.016 A 
ATOM      8  C8  IND d   1       1.529  -2.064   0.543  0.00  0.00    -0.047 A 
ATOM      9  C9  IND d   1       0.168  -2.390   0.483  0.00  0.00    -0.096 A 
ATOM     10  HN1 IND d   1       3.091  -3.234   0.081  0.00  0.00     0.298 HD
ENDROOT
TORSDOF 0
ENDMDL
