MODEL 1
REMARK minimizedAffinity 6.11064577
REMARK minimizedRMSD -1
REMARK  0 active torsions:
REMARK  status: ('A' for Active; 'I' for Inactive)
ROOT
ATOM      1  N1  IND d   1       2.436  -4.629  -0.301  0.00  0.00    -0.196 N 
ATOM      2  C2  IND d   1       3.762  -4.312  -0.409  0.00  0.00     0.054 A 
ATOM      3  C3  IND d   1       3.948  -2.990  -0.193  0.00  0.00    -0.031 A 
ATOM      4  C4  IND d   1       2.235  -1.181   0.452  0.00  0.00     0.051 A 
ATOM      5  C5  IND d   1       0.895  -0.982   0.633  0.00  0.00    -0.031 A 
ATOM      6  C6  IND d   1      -0.018  -2.010   0.512  0.00  0.00     0.015 A 
ATOM      7  C7  IND d   1       0.378  -3.283   0.215  0.00  0.00    -0.016 A 
ATOM      8  C8  IND d   1       1.737  -3.487   0.024  0.00  0.00    -0.047 A 
ATOM      9  C9  IND d   1       2.664  -2.440   0.104  0.00  0.00    -0.096 A 
ATOM     10  HN1 IND d   1       2.096  -5.410  -0.417  0.00  0.00     0.298 HD
ENDROOT
TORSDOF 0
ENDMDL
