MODEL 1
REMARK minimizedAffinity -5.01596546
REMARK minimizedRMSD -1
REMARK  0 active torsions:
REMARK  status: ('A' for Active; 'I' for Inactive)
ROOT
ATOM      1  N1  IND d   1       2.361  -4.075   0.543  0.00  0.00    -0.196 N 
ATOM      2  C2  IND d   1       3.585  -3.673   0.084  0.00  0.00     0.054 A 
ATOM      3  C3  IND d   1       3.608  -2.332  -0.081  0.00  0.00    -0.031 A 
ATOM      4  C4  IND d   1       1.787  -0.588   0.438  0.00  0.00     0.051 A 
ATOM      5  C5  IND d   1       0.485  -0.477   0.840  0.00  0.00    -0.031 A 
ATOM      6  C6  IND d   1      -0.272  -1.581   1.172  0.00  0.00     0.015 A 
ATOM      7  C7  IND d   1       0.250  -2.843   1.126  0.00  0.00    -0.016 A 
ATOM      8  C8  IND d   1       1.569  -2.960   0.712  0.00  0.00    -0.047 A 
ATOM      9  C9  IND d   1       2.330  -1.847   0.332  0.00  0.00    -0.096 A 
ATOM     10  HN1 IND d   1       2.126  -4.887   0.699  0.00  0.00     0.298 HD
ENDROOT
TORSDOF 0
ENDMDL
