MODEL 1
REMARK minimizedAffinity -3.43210173
REMARK minimizedRMSD -1
REMARK  0 active torsions:
REMARK  status: ('A' for Active; 'I' for Inactive)
ROOT
ATOM      1  N1  IND d   1       3.814  -2.023   0.221  0.00  0.00    -0.196 N 
ATOM      2  C2  IND d   1       3.851  -3.299  -0.267  0.00  0.00     0.054 A 
ATOM      3  C3  IND d   1       2.599  -3.793  -0.390  0.00  0.00    -0.031 A 
ATOM      4  C4  IND d   1       0.338  -2.645   0.053  0.00  0.00     0.051 A 
ATOM      5  C5  IND d   1      -0.207  -1.492   0.543  0.00  0.00    -0.031 A 
ATOM      6  C6  IND d   1       0.576  -0.434   0.958  0.00  0.00     0.015 A 
ATOM      7  C7  IND d   1       1.940  -0.486   0.886  0.00  0.00    -0.016 A 
ATOM      8  C8  IND d   1       2.496  -1.659   0.395  0.00  0.00    -0.047 A 
ATOM      9  C9  IND d   1       1.708  -2.752   0.012  0.00  0.00    -0.096 A 
ATOM     10  HN1 IND d   1       4.498  -1.531   0.392  0.00  0.00     0.298 HD
ENDROOT
TORSDOF 0
ENDMDL
