MODEL 1
REMARK minimizedAffinity 4.19407272
REMARK minimizedRMSD -1
REMARK  0 active torsions:
REMARK  status: ('A' for Active; 'I' for Inactive)
ROOT
ATOM      1  N1  IND d   1      -0.119  -3.363  -0.420  0.00  0.00    -0.196 N 
ATOM      2  C2  IND d   1       1.129  -3.920  -0.400  0.00  0.00     0.054 A 
ATOM      3  C3  IND d   1       2.008  -3.086   0.200  0.00  0.00    -0.031 A 
ATOM      4  C4  IND d   1       1.594  -0.803   1.315  0.00  0.00     0.051 A 
ATOM      5  C5  IND d   1       0.623   0.137   1.517  0.00  0.00    -0.031 A 
ATOM      6  C6  IND d   1      -0.672  -0.046   1.077  0.00  0.00     0.015 A 
ATOM      7  C7  IND d   1      -1.048  -1.187   0.426  0.00  0.00    -0.016 A 
ATOM      8  C8  IND d   1      -0.063  -2.140   0.213  0.00  0.00    -0.047 A 
ATOM      9  C9  IND d   1       1.263  -1.941   0.619  0.00  0.00    -0.096 A 
ATOM     10  HN1 IND d   1      -0.821  -3.716  -0.769  0.00  0.00     0.298 HD
ENDROOT
TORSDOF 0
ENDMDL
