MODEL 1
REMARK minimizedAffinity -0.14274022
REMARK minimizedRMSD -1
REMARK  0 active torsions:
REMARK  status: ('A' for Active; 'I' for Inactive)
ROOT
ATOM      1  N1  IND d   1       3.593  -2.093   0.408  0.00  0.00    -0.196 N 
ATOM      2  C2  IND d   1       3.644  -3.311  -0.211  0.00  0.00     0.054 A 
ATOM      3  C3  IND d   1       2.395  -3.783  -0.424  0.00  0.00    -0.031 A 
ATOM      4  C4  IND d   1       0.123  -2.677   0.068  0.00  0.00     0.051 A 
ATOM      5  C5  IND d   1      -0.435  -1.579   0.661  0.00  0.00    -0.031 A 
ATOM      6  C6  IND d   1       0.337  -0.575   1.209  0.00  0.00     0.015 A 
ATOM      7  C7  IND d   1       1.702  -0.626   1.173  0.00  0.00    -0.016 A 
ATOM      8  C8  IND d   1       2.272  -1.743   0.578  0.00  0.00    -0.047 A 
ATOM      9  C9  IND d   1       1.493  -2.785   0.059  0.00  0.00    -0.096 A 
ATOM     10  HN1 IND d   1       4.272  -1.625   0.650  0.00  0.00     0.298 HD
ENDROOT
TORSDOF 0
ENDMDL
