MODEL 1
REMARK minimizedAffinity -0.960587323
REMARK minimizedRMSD -1
REMARK  0 active torsions:
REMARK  status: ('A' for Active; 'I' for Inactive)
ROOT
ATOM      1  N1  IND d   1       1.415  -4.394   0.580  0.00  0.00    -0.196 N 
ATOM      2  C2  IND d   1       2.675  -4.332   0.053  0.00  0.00     0.054 A 
ATOM      3  C3  IND d   1       2.999  -3.053  -0.242  0.00  0.00    -0.031 A 
ATOM      4  C4  IND d   1       1.655  -0.893   0.150  0.00  0.00     0.051 A 
ATOM      5  C5  IND d   1       0.435  -0.445   0.572  0.00  0.00    -0.031 A 
ATOM      6  C6  IND d   1      -0.540  -1.308   1.030  0.00  0.00     0.015 A 
ATOM      7  C7  IND d   1      -0.325  -2.656   1.094  0.00  0.00    -0.016 A 
ATOM      8  C8  IND d   1       0.910  -3.115   0.660  0.00  0.00    -0.047 A 
ATOM      9  C9  IND d   1       1.888  -2.248   0.154  0.00  0.00    -0.096 A 
ATOM     10  HN1 IND d   1       1.007  -5.111   0.821  0.00  0.00     0.298 HD
ENDROOT
TORSDOF 0
ENDMDL
