MODEL 1
REMARK minimizedAffinity 2.20948911
REMARK minimizedRMSD -1
REMARK  0 active torsions:
REMARK  status: ('A' for Active; 'I' for Inactive)
ROOT
ATOM      1  N1  IND d   1      -0.490  -2.126   1.287  0.00  0.00    -0.196 N 
ATOM      2  C2  IND d   1      -0.441  -0.761   1.341  0.00  0.00     0.054 A 
ATOM      3  C3  IND d   1       0.786  -0.320   0.984  0.00  0.00    -0.031 A 
ATOM      4  C4  IND d   1       2.834  -1.656   0.178  0.00  0.00     0.051 A 
ATOM      5  C5  IND d   1       3.283  -2.935  -0.002  0.00  0.00    -0.031 A 
ATOM      6  C6  IND d   1       2.481  -4.031   0.241  0.00  0.00     0.015 A 
ATOM      7  C7  IND d   1       1.190  -3.888   0.664  0.00  0.00    -0.016 A 
ATOM      8  C8  IND d   1       0.732  -2.592   0.854  0.00  0.00    -0.047 A 
ATOM      9  C9  IND d   1       1.555  -1.477   0.650  0.00  0.00    -0.096 A 
ATOM     10  HN1 IND d   1      -1.170  -2.612   1.490  0.00  0.00     0.298 HD
ENDROOT
TORSDOF 0
ENDMDL
