MODEL 1
REMARK minimizedAffinity -4.06165314
REMARK minimizedRMSD -1
REMARK  2 active torsions:
REMARK  status: ('A' for Active; 'I' for Inactive)
REMARK    1  A    between atoms: C2'_3  and  C1'_4 
REMARK    2  A    between atoms: C1'_4  and  C1_5 
ROOT
ATOM      1  C1  I4B d   1      -0.757  -4.805  -2.983  0.00  0.00    -0.075 A 
ATOM      2  C2  I4B d   1      -0.754  -3.622  -3.680  0.00  0.00     0.003 A 
ATOM      3  C3  I4B d   1      -1.035  -3.612  -5.067  0.00  0.00     0.002 A 
ATOM      4  C4  I4B d   1      -1.262  -4.804  -5.724  0.00  0.00    -0.004 A 
ATOM      5  C5  I4B d   1      -1.288  -6.000  -5.011  0.00  0.00     0.002 A 
ATOM      6  C6  I4B d   1      -1.046  -5.999  -3.630  0.00  0.00     0.003 A 
ENDROOT
BRANCH   1   7
ATOM      7  C1' I4B d   1      -0.423  -4.783  -1.525  0.00  0.00     0.060 C 
BRANCH   7   8
ATOM      8  C2' I4B d   1       1.003  -5.267  -1.365  0.00  0.00    -0.013 C 
ATOM      9  C4' I4B d   1       1.983  -4.132  -1.504  0.00  0.00     0.013 C 
ATOM     10  C3' I4B d   1       1.122  -5.923  -0.022  0.00  0.00     0.013 C 
ENDBRANCH   7   8
ENDBRANCH   1   7
TORSDOF 2
ENDMDL
