MODEL 1
REMARK minimizedAffinity 3.72991943
REMARK minimizedRMSD -1
REMARK  2 active torsions:
REMARK  status: ('A' for Active; 'I' for Inactive)
REMARK    1  A    between atoms: C2'_3  and  C1'_4 
REMARK    2  A    between atoms: C1'_4  and  C1_5 
ROOT
ATOM      1  C1  I4B d   1       0.305   2.724   1.220  0.00  0.00    -0.075 A 
ATOM      2  C2  I4B d   1      -0.189   1.464   0.995  0.00  0.00     0.003 A 
ATOM      3  C3  I4B d   1       0.453   0.335   1.561  0.00  0.00     0.002 A 
ATOM      4  C4  I4B d   1       1.606   0.508   2.298  0.00  0.00    -0.004 A 
ATOM      5  C5  I4B d   1       2.092   1.789   2.545  0.00  0.00     0.002 A 
ATOM      6  C6  I4B d   1       1.431   2.905   2.013  0.00  0.00     0.003 A 
ENDROOT
BRANCH   1   7
ATOM      7  C1' I4B d   1      -0.378   3.891   0.580  0.00  0.00     0.060 C 
BRANCH   7   8
ATOM      8  C2' I4B d   1       0.178   4.047  -0.821  0.00  0.00    -0.013 C 
ATOM      9  C4' I4B d   1       1.522   4.726  -0.801  0.00  0.00     0.013 C 
ATOM     10  C3' I4B d   1       0.271   2.683  -1.437  0.00  0.00     0.013 C 
ENDBRANCH   7   8
ENDBRANCH   1   7
TORSDOF 2
ENDMDL
