MODEL 1
REMARK minimizedAffinity -0.0107257254
REMARK minimizedRMSD -1
REMARK  2 active torsions:
REMARK  status: ('A' for Active; 'I' for Inactive)
REMARK    1  A    between atoms: C2'_3  and  C1'_4 
REMARK    2  A    between atoms: C1'_4  and  C1_5 
ROOT
ATOM      1  C1  I4B d   1       0.696   3.725  -0.661  0.00  0.00    -0.075 A 
ATOM      2  C2  I4B d   1      -0.003   2.723  -0.037  0.00  0.00     0.003 A 
ATOM      3  C3  I4B d   1       0.289   2.379   1.306  0.00  0.00     0.002 A 
ATOM      4  C4  I4B d   1       1.315   3.025   1.965  0.00  0.00    -0.004 A 
ATOM      5  C5  I4B d   1       2.008   4.056   1.337  0.00  0.00     0.002 A 
ATOM      6  C6  I4B d   1       1.689   4.417   0.020  0.00  0.00     0.003 A 
ENDROOT
BRANCH   1   7
ATOM      7  C1' I4B d   1       0.384   4.040  -2.090  0.00  0.00     0.060 C 
BRANCH   7   8
ATOM      8  C2' I4B d   1       0.332   5.547  -2.235  0.00  0.00    -0.013 C 
ATOM      9  C4' I4B d   1       1.039   6.000  -3.485  0.00  0.00     0.013 C 
ATOM     10  C3' I4B d   1      -1.110   5.961  -2.248  0.00  0.00     0.013 C 
ENDBRANCH   7   8
ENDBRANCH   1   7
TORSDOF 2
ENDMDL
