MODEL 1
REMARK minimizedAffinity 0.538784742
REMARK minimizedRMSD -1
REMARK  2 active torsions:
REMARK  status: ('A' for Active; 'I' for Inactive)
REMARK    1  A    between atoms: C2'_3  and  C1'_4 
REMARK    2  A    between atoms: C1'_4  and  C1_5 
ROOT
ATOM      1  C1  I4B d   1       0.885   3.685  -0.124  0.00  0.00    -0.075 A 
ATOM      2  C2  I4B d   1       0.992   3.130   1.126  0.00  0.00     0.003 A 
ATOM      3  C3  I4B d   1       0.392   1.877   1.404  0.00  0.00     0.002 A 
ATOM      4  C4  I4B d   1      -0.343   1.244   0.423  0.00  0.00    -0.004 A 
ATOM      5  C5  I4B d   1      -0.431   1.798  -0.851  0.00  0.00     0.002 A 
ATOM      6  C6  I4B d   1       0.197   3.020  -1.131  0.00  0.00     0.003 A 
ENDROOT
BRANCH   1   7
ATOM      7  C1' I4B d   1       1.503   5.025  -0.373  0.00  0.00     0.060 C 
BRANCH   7   8
ATOM      8  C2' I4B d   1       0.392   5.994  -0.722  0.00  0.00    -0.013 C 
ATOM      9  C4' I4B d   1      -0.232   5.652  -2.049  0.00  0.00     0.013 C 
ATOM     10  C3' I4B d   1      -0.623   5.951   0.381  0.00  0.00     0.013 C 
ENDBRANCH   7   8
ENDBRANCH   1   7
TORSDOF 2
ENDMDL
