MODEL 1
REMARK minimizedAffinity -1.04610693
REMARK minimizedRMSD -1
REMARK  2 active torsions:
REMARK  status: ('A' for Active; 'I' for Inactive)
REMARK    1  A    between atoms: C2'_3  and  C1'_4 
REMARK    2  A    between atoms: C1'_4  and  C1_5 
ROOT
ATOM      1  C1  I4B d   1       0.391   4.502  -0.377  0.00  0.00    -0.075 A 
ATOM      2  C2  I4B d   1       1.130   4.573   0.777  0.00  0.00     0.003 A 
ATOM      3  C3  I4B d   1       1.487   3.391   1.469  0.00  0.00     0.002 A 
ATOM      4  C4  I4B d   1       1.043   2.170   1.003  0.00  0.00    -0.004 A 
ATOM      5  C5  I4B d   1       0.314   2.098  -0.181  0.00  0.00     0.002 A 
ATOM      6  C6  I4B d   1      -0.004   3.270  -0.882  0.00  0.00     0.003 A 
ENDROOT
BRANCH   1   7
ATOM      7  C1' I4B d   1       0.004   5.773  -1.065  0.00  0.00     0.060 C 
BRANCH   7   8
ATOM      8  C2' I4B d   1      -0.341   5.440  -2.502  0.00  0.00    -0.013 C 
ATOM      9  C4' I4B d   1      -1.686   6.000  -2.883  0.00  0.00     0.013 C 
ATOM     10  C3' I4B d   1       0.743   5.992  -3.379  0.00  0.00     0.013 C 
ENDBRANCH   7   8
ENDBRANCH   1   7
TORSDOF 2
ENDMDL
