MODEL 1
REMARK minimizedAffinity 8.09175014
REMARK minimizedRMSD -1
REMARK  2 active torsions:
REMARK  status: ('A' for Active; 'I' for Inactive)
REMARK    1  A    between atoms: C2'_3  and  C1'_4 
REMARK    2  A    between atoms: C1'_4  and  C1_5 
ROOT
ATOM      1  C1  I4B d   1       1.269   1.202   1.735  0.00  0.00    -0.075 A 
ATOM      2  C2  I4B d   1       0.488   0.476   2.599  0.00  0.00     0.003 A 
ATOM      3  C3  I4B d   1       0.941  -0.772   3.092  0.00  0.00     0.002 A 
ATOM      4  C4  I4B d   1       2.151  -1.275   2.658  0.00  0.00    -0.004 A 
ATOM      5  C5  I4B d   1       2.951  -0.527   1.800  0.00  0.00     0.002 A 
ATOM      6  C6  I4B d   1       2.513   0.726   1.345  0.00  0.00     0.003 A 
ENDROOT
BRANCH   1   7
ATOM      7  C1' I4B d   1       0.744   2.501   1.208  0.00  0.00     0.060 C 
BRANCH   7   8
ATOM      8  C2' I4B d   1       1.164   2.619  -0.243  0.00  0.00    -0.013 C 
ATOM      9  C4' I4B d   1       0.237   1.846  -1.143  0.00  0.00     0.013 C 
ATOM     10  C3' I4B d   1       1.179   4.075  -0.603  0.00  0.00     0.013 C 
ENDBRANCH   7   8
ENDBRANCH   1   7
TORSDOF 2
ENDMDL
