MODEL 1
REMARK minimizedAffinity 10.800416
REMARK minimizedRMSD -1
REMARK  2 active torsions:
REMARK  status: ('A' for Active; 'I' for Inactive)
REMARK    1  A    between atoms: C2'_3  and  C1'_4 
REMARK    2  A    between atoms: C1'_4  and  C1_5 
ROOT
ATOM      1  C1  I4B d   1       0.411   3.628  -0.810  0.00  0.00    -0.075 A 
ATOM      2  C2  I4B d   1       0.847   3.746  -2.107  0.00  0.00     0.003 A 
ATOM      3  C3  I4B d   1       0.656   4.957  -2.816  0.00  0.00     0.002 A 
ATOM      4  C4  I4B d   1      -0.015   6.000  -2.211  0.00  0.00    -0.004 A 
ATOM      5  C5  I4B d   1      -0.436   5.887  -0.889  0.00  0.00     0.002 A 
ATOM      6  C6  I4B d   1      -0.211   4.698  -0.180  0.00  0.00     0.003 A 
ENDROOT
BRANCH   1   7
ATOM      7  C1' I4B d   1       0.599   2.324  -0.102  0.00  0.00     0.060 C 
BRANCH   7   8
ATOM      8  C2' I4B d   1       0.758   2.615   1.376  0.00  0.00    -0.013 C 
ATOM      9  C4' I4B d   1       0.105   1.548   2.215  0.00  0.00     0.013 C 
ATOM     10  C3' I4B d   1       2.225   2.715   1.673  0.00  0.00     0.013 C 
ENDBRANCH   7   8
ENDBRANCH   1   7
TORSDOF 2
ENDMDL
