MODEL 1
REMARK minimizedAffinity 4.79505587
REMARK minimizedRMSD -1
REMARK  2 active torsions:
REMARK  status: ('A' for Active; 'I' for Inactive)
REMARK    1  A    between atoms: C2'_3  and  C1'_4 
REMARK    2  A    between atoms: C1'_4  and  C1_5 
ROOT
ATOM      1  C1  I4B d   1       0.547  -0.374   1.174  0.00  0.00    -0.075 A 
ATOM      2  C2  I4B d   1      -0.389  -1.375   1.263  0.00  0.00     0.003 A 
ATOM      3  C3  I4B d   1       0.012  -2.732   1.210  0.00  0.00     0.002 A 
ATOM      4  C4  I4B d   1       1.343  -3.041   1.018  0.00  0.00    -0.004 A 
ATOM      5  C5  I4B d   1       2.293  -2.026   0.951  0.00  0.00     0.002 A 
ATOM      6  C6  I4B d   1       1.894  -0.684   1.042  0.00  0.00     0.003 A 
ENDROOT
BRANCH   1   7
ATOM      7  C1' I4B d   1       0.086   1.048   1.201  0.00  0.00     0.060 C 
BRANCH   7   8
ATOM      8  C2' I4B d   1       1.022   1.859   0.328  0.00  0.00    -0.013 C 
ATOM      9  C4' I4B d   1       0.335   2.313  -0.933  0.00  0.00     0.013 C 
ATOM     10  C3' I4B d   1       1.508   3.028   1.131  0.00  0.00     0.013 C 
ENDBRANCH   7   8
ENDBRANCH   1   7
TORSDOF 2
ENDMDL
