MODEL 1
REMARK minimizedAffinity 1.07331145
REMARK minimizedRMSD -1
REMARK  0 active torsions:
REMARK  status: ('A' for Active; 'I' for Inactive)
ROOT
ATOM      1  N1  IND d   1       1.356   3.671  -0.597  0.00  0.00    -0.196 N 
ATOM      2  C2  IND d   1       1.529   3.608  -1.952  0.00  0.00     0.054 A 
ATOM      3  C3  IND d   1       1.487   2.324  -2.372  0.00  0.00    -0.031 A 
ATOM      4  C4  IND d   1       1.041   0.176  -1.025  0.00  0.00     0.051 A 
ATOM      5  C5  IND d   1       0.861  -0.277   0.251  0.00  0.00    -0.031 A 
ATOM      6  C6  IND d   1       0.833   0.580   1.332  0.00  0.00     0.015 A 
ATOM      7  C7  IND d   1       0.974   1.930   1.174  0.00  0.00    -0.016 A 
ATOM      8  C8  IND d   1       1.164   2.393  -0.120  0.00  0.00    -0.047 A 
ATOM      9  C9  IND d   1       1.236   1.523  -1.216  0.00  0.00    -0.096 A 
ATOM     10  HN1 IND d   1       1.365   4.388  -0.123  0.00  0.00     0.298 HD
ENDROOT
TORSDOF 0
ENDMDL
