MODEL 1
REMARK minimizedAffinity -5.21002626
REMARK minimizedRMSD -1
REMARK  0 active torsions:
REMARK  status: ('A' for Active; 'I' for Inactive)
ROOT
ATOM      1  N1  IND d   1       2.006   3.688  -2.072  0.00  0.00    -0.196 N 
ATOM      2  C2  IND d   1       1.838   4.787  -1.277  0.00  0.00     0.054 A 
ATOM      3  C3  IND d   1       1.393   4.420  -0.054  0.00  0.00    -0.031 A 
ATOM      4  C4  IND d   1       0.972   2.063   0.893  0.00  0.00     0.051 A 
ATOM      5  C5  IND d   1       0.951   0.745   0.532  0.00  0.00    -0.031 A 
ATOM      6  C6  IND d   1       1.290   0.332  -0.740  0.00  0.00     0.015 A 
ATOM      7  C7  IND d   1       1.676   1.225  -1.700  0.00  0.00    -0.016 A 
ATOM      8  C8  IND d   1       1.691   2.565  -1.339  0.00  0.00    -0.047 A 
ATOM      9  C9  IND d   1       1.307   2.994  -0.062  0.00  0.00    -0.096 A 
ATOM     10  HN1 IND d   1       2.265   3.697  -2.892  0.00  0.00     0.298 HD
ENDROOT
TORSDOF 0
ENDMDL
