MODEL 1
REMARK minimizedAffinity -3.87208295
REMARK minimizedRMSD -1
REMARK  0 active torsions:
REMARK  status: ('A' for Active; 'I' for Inactive)
ROOT
ATOM      1  N1  IND d   1       1.596  -0.678  -2.380  0.00  0.00    -0.196 N 
ATOM      2  C2  IND d   1       1.133  -1.746  -1.663  0.00  0.00     0.054 A 
ATOM      3  C3  IND d   1       0.787  -1.360  -0.414  0.00  0.00    -0.031 A 
ATOM      4  C4  IND d   1       0.805   0.991   0.634  0.00  0.00     0.051 A 
ATOM      5  C5  IND d   1       1.180   2.280   0.382  0.00  0.00    -0.031 A 
ATOM      6  C6  IND d   1       1.722   2.658  -0.830  0.00  0.00     0.015 A 
ATOM      7  C7  IND d   1       1.899   1.758  -1.843  0.00  0.00    -0.016 A 
ATOM      8  C8  IND d   1       1.525   0.446  -1.587  0.00  0.00    -0.047 A 
ATOM      9  C9  IND d   1       1.014   0.048  -0.345  0.00  0.00    -0.096 A 
ATOM     10  HN1 IND d   1       1.884  -0.705  -3.190  0.00  0.00     0.298 HD
ENDROOT
TORSDOF 0
ENDMDL
