MODEL 1
REMARK minimizedAffinity -1.55962479
REMARK minimizedRMSD -1
REMARK  0 active torsions:
REMARK  status: ('A' for Active; 'I' for Inactive)
ROOT
ATOM      1  N1  IND d   1       2.055  -0.046   0.194  0.00  0.00    -0.196 N 
ATOM      2  C2  IND d   1       1.542   0.845  -0.707  0.00  0.00     0.054 A 
ATOM      3  C3  IND d   1       0.736   0.211  -1.588  0.00  0.00    -0.031 A 
ATOM      4  C4  IND d   1       0.036  -2.265  -1.677  0.00  0.00     0.051 A 
ATOM      5  C5  IND d   1       0.275  -3.474  -1.086  0.00  0.00    -0.031 A 
ATOM      6  C6  IND d   1       1.135  -3.604  -0.015  0.00  0.00     0.015 A 
ATOM      7  C7  IND d   1       1.782  -2.524   0.515  0.00  0.00    -0.016 A 
ATOM      8  C8  IND d   1       1.547  -1.296  -0.087  0.00  0.00    -0.047 A 
ATOM      9  C9  IND d   1       0.709  -1.164  -1.202  0.00  0.00    -0.096 A 
ATOM     10  HN1 IND d   1       2.603   0.142   0.829  0.00  0.00     0.298 HD
ENDROOT
TORSDOF 0
ENDMDL
