MODEL 1
REMARK minimizedAffinity -1.99914384
REMARK minimizedRMSD -1
REMARK  0 active torsions:
REMARK  status: ('A' for Active; 'I' for Inactive)
ROOT
ATOM      1  N1  IND d   1       0.894  -0.987   0.454  0.00  0.00    -0.196 N 
ATOM      2  C2  IND d   1       0.886  -1.713  -0.704  0.00  0.00     0.054 A 
ATOM      3  C3  IND d   1       0.893  -0.889  -1.776  0.00  0.00    -0.031 A 
ATOM      4  C4  IND d   1       1.019   1.681  -1.863  0.00  0.00     0.051 A 
ATOM      5  C5  IND d   1       1.008   2.787  -1.061  0.00  0.00    -0.031 A 
ATOM      6  C6  IND d   1       0.960   2.691   0.315  0.00  0.00     0.015 A 
ATOM      7  C7  IND d   1       0.933   1.478   0.943  0.00  0.00    -0.016 A 
ATOM      8  C8  IND d   1       0.937   0.352   0.132  0.00  0.00    -0.047 A 
ATOM      9  C9  IND d   1       0.942   0.444  -1.266  0.00  0.00    -0.096 A 
ATOM     10  HN1 IND d   1       0.876  -1.311   1.250  0.00  0.00     0.298 HD
ENDROOT
TORSDOF 0
ENDMDL
