MODEL 1
REMARK minimizedAffinity 4.30743122
REMARK minimizedRMSD -1
REMARK  0 active torsions:
REMARK  status: ('A' for Active; 'I' for Inactive)
ROOT
ATOM      1  N1  IND d   1       2.550  -0.570  -1.698  0.00  0.00    -0.196 N 
ATOM      2  C2  IND d   1       1.772  -0.368  -2.803  0.00  0.00     0.054 A 
ATOM      3  C3  IND d   1       0.939   0.679  -2.607  0.00  0.00    -0.031 A 
ATOM      4  C4  IND d   1       0.753   2.265  -0.588  0.00  0.00     0.051 A 
ATOM      5  C5  IND d   1       1.231   2.458   0.678  0.00  0.00    -0.031 A 
ATOM      6  C6  IND d   1       2.195   1.636   1.227  0.00  0.00     0.015 A 
ATOM      7  C7  IND d   1       2.727   0.593   0.523  0.00  0.00    -0.016 A 
ATOM      8  C8  IND d   1       2.239   0.390  -0.760  0.00  0.00    -0.047 A 
ATOM      9  C9  IND d   1       1.231   1.195  -1.307  0.00  0.00    -0.096 A 
ATOM     10  HN1 IND d   1       3.136  -1.193  -1.603  0.00  0.00     0.298 HD
ENDROOT
TORSDOF 0
ENDMDL
