MODEL 1
REMARK minimizedAffinity -2.84350419
REMARK minimizedRMSD -1
REMARK  0 active torsions:
REMARK  status: ('A' for Active; 'I' for Inactive)
ROOT
ATOM      1  N1  IND d   1       2.214  -0.908  -0.150  0.00  0.00    -0.196 N 
ATOM      2  C2  IND d   1       1.831  -1.509  -1.316  0.00  0.00     0.054 A 
ATOM      3  C3  IND d   1       1.350  -0.590  -2.183  0.00  0.00    -0.031 A 
ATOM      4  C4  IND d   1       1.194   1.968  -1.935  0.00  0.00     0.051 A 
ATOM      5  C5  IND d   1       1.388   2.976  -1.033  0.00  0.00    -0.031 A 
ATOM      6  C6  IND d   1       1.880   2.737   0.234  0.00  0.00     0.015 A 
ATOM      7  C7  IND d   1       2.208   1.476   0.644  0.00  0.00    -0.016 A 
ATOM      8  C8  IND d   1       2.006   0.448  -0.267  0.00  0.00    -0.047 A 
ATOM      9  C9  IND d   1       1.467   0.680  -1.539  0.00  0.00    -0.096 A 
ATOM     10  HN1 IND d   1       2.532  -1.310   0.541  0.00  0.00     0.298 HD
ENDROOT
TORSDOF 0
ENDMDL
