MODEL 1
REMARK minimizedAffinity -3.07840252
REMARK minimizedRMSD -1
REMARK  0 active torsions:
REMARK  status: ('A' for Active; 'I' for Inactive)
ROOT
ATOM      1  N1  IND d   1       0.932   3.121  -1.542  0.00  0.00    -0.196 N 
ATOM      2  C2  IND d   1       1.206   4.029  -0.557  0.00  0.00     0.054 A 
ATOM      3  C3  IND d   1       1.538   3.394   0.589  0.00  0.00    -0.031 A 
ATOM      4  C4  IND d   1       1.795   0.874   1.048  0.00  0.00     0.051 A 
ATOM      5  C5  IND d   1       1.616  -0.350   0.467  0.00  0.00    -0.031 A 
ATOM      6  C6  IND d   1       1.193  -0.483  -0.840  0.00  0.00     0.015 A 
ATOM      7  C7  IND d   1       0.944   0.609  -1.622  0.00  0.00    -0.016 A 
ATOM      8  C8  IND d   1       1.119   1.854  -1.034  0.00  0.00    -0.047 A 
ATOM      9  C9  IND d   1       1.506   1.994   0.305  0.00  0.00    -0.096 A 
ATOM     10  HN1 IND d   1       0.684   3.309  -2.343  0.00  0.00     0.298 HD
ENDROOT
TORSDOF 0
ENDMDL
