MODEL 1
REMARK minimizedAffinity 3.34138608
REMARK minimizedRMSD -1
REMARK  0 active torsions:
REMARK  status: ('A' for Active; 'I' for Inactive)
ROOT
ATOM      1  N1  IND d   1       1.480  -1.814   0.490  0.00  0.00    -0.196 N 
ATOM      2  C2  IND d   1       0.978  -2.491  -0.586  0.00  0.00     0.054 A 
ATOM      3  C3  IND d   1       0.455  -1.626  -1.484  0.00  0.00    -0.031 A 
ATOM      4  C4  IND d   1       0.407   0.948  -1.438  0.00  0.00     0.051 A 
ATOM      5  C5  IND d   1       0.712   2.017  -0.643  0.00  0.00    -0.031 A 
ATOM      6  C6  IND d   1       1.303   1.861   0.594  0.00  0.00     0.015 A 
ATOM      7  C7  IND d   1       1.622   0.624   1.079  0.00  0.00    -0.016 A 
ATOM      8  C8  IND d   1       1.308  -0.464   0.278  0.00  0.00    -0.047 A 
ATOM      9  C9  IND d   1       0.670  -0.314  -0.960  0.00  0.00    -0.096 A 
ATOM     10  HN1 IND d   1       1.842  -2.172   1.183  0.00  0.00     0.298 HD
ENDROOT
TORSDOF 0
ENDMDL
