MODEL 1
REMARK minimizedAffinity -3.58796501
REMARK minimizedRMSD -1
REMARK  0 active torsions:
REMARK  status: ('A' for Active; 'I' for Inactive)
ROOT
ATOM      1  N1  IND d   1       1.354   1.145  -2.329  0.00  0.00    -0.196 N 
ATOM      2  C2  IND d   1       1.322  -0.059  -1.683  0.00  0.00     0.054 A 
ATOM      3  C3  IND d   1       1.419   0.121  -0.347  0.00  0.00    -0.031 A 
ATOM      4  C4  IND d   1       1.538   2.309   1.005  0.00  0.00     0.051 A 
ATOM      5  C5  IND d   1       1.633   3.664   0.854  0.00  0.00    -0.031 A 
ATOM      6  C6  IND d   1       1.638   4.261  -0.390  0.00  0.00     0.015 A 
ATOM      7  C7  IND d   1       1.536   3.522  -1.535  0.00  0.00    -0.016 A 
ATOM      8  C8  IND d   1       1.446   2.146  -1.386  0.00  0.00    -0.047 A 
ATOM      9  C9  IND d   1       1.483   1.531  -0.128  0.00  0.00    -0.096 A 
ATOM     10  HN1 IND d   1       1.323   1.259  -3.180  0.00  0.00     0.298 HD
ENDROOT
TORSDOF 0
ENDMDL
