MODEL 1
REMARK minimizedAffinity -1.44687927
REMARK minimizedRMSD -1
REMARK  0 active torsions:
REMARK  status: ('A' for Active; 'I' for Inactive)
ROOT
ATOM      1  N1  IND d   1       1.883   4.137  -1.593  0.00  0.00    -0.196 N 
ATOM      2  C2  IND d   1       1.880   4.967  -0.506  0.00  0.00     0.054 A 
ATOM      3  C3  IND d   1       1.487   4.294   0.598  0.00  0.00    -0.031 A 
ATOM      4  C4  IND d   1       0.899   1.803   0.874  0.00  0.00     0.051 A 
ATOM      5  C5  IND d   1       0.722   0.652   0.158  0.00  0.00    -0.031 A 
ATOM      6  C6  IND d   1       0.930   0.603  -1.206  0.00  0.00     0.015 A 
ATOM      7  C7  IND d   1       1.335   1.704  -1.905  0.00  0.00    -0.016 A 
ATOM      8  C8  IND d   1       1.509   2.876  -1.182  0.00  0.00    -0.047 A 
ATOM      9  C9  IND d   1       1.258   2.943   0.194  0.00  0.00    -0.096 A 
ATOM     10  HN1 IND d   1       2.084   4.364  -2.397  0.00  0.00     0.298 HD
ENDROOT
TORSDOF 0
ENDMDL
