MODEL 1
REMARK minimizedAffinity -2.68001604
REMARK minimizedRMSD -1
REMARK  0 active torsions:
REMARK  status: ('A' for Active; 'I' for Inactive)
ROOT
ATOM      1  N1  IND d   1       1.490   3.783  -2.047  0.00  0.00    -0.196 N 
ATOM      2  C2  IND d   1       1.615   4.754  -1.092  0.00  0.00     0.054 A 
ATOM      3  C3  IND d   1       1.545   4.211   0.144  0.00  0.00    -0.031 A 
ATOM      4  C4  IND d   1       1.330   1.741   0.834  0.00  0.00     0.051 A 
ATOM      5  C5  IND d   1       1.147   0.489   0.316  0.00  0.00    -0.031 A 
ATOM      6  C6  IND d   1       1.070   0.267  -1.043  0.00  0.00     0.015 A 
ATOM      7  C7  IND d   1       1.185   1.291  -1.940  0.00  0.00    -0.016 A 
ATOM      8  C8  IND d   1       1.364   2.564  -1.417  0.00  0.00    -0.047 A 
ATOM      9  C9  IND d   1       1.401   2.801  -0.037  0.00  0.00    -0.096 A 
ATOM     10  HN1 IND d   1       1.489   3.913  -2.897  0.00  0.00     0.298 HD
ENDROOT
TORSDOF 0
ENDMDL
