MODEL 1
REMARK minimizedAffinity 1.9466511
REMARK minimizedRMSD -1
REMARK  0 active torsions:
REMARK  status: ('A' for Active; 'I' for Inactive)
ROOT
ATOM      1  N1  IND d   1       2.051   2.033  -2.267  0.00  0.00    -0.196 N 
ATOM      2  C2  IND d   1       1.827   3.331  -1.902  0.00  0.00     0.054 A 
ATOM      3  C3  IND d   1       1.199   3.382  -0.706  0.00  0.00    -0.031 A 
ATOM      4  C4  IND d   1       0.535   1.462   0.876  0.00  0.00     0.051 A 
ATOM      5  C5  IND d   1       0.501   0.099   0.959  0.00  0.00    -0.031 A 
ATOM      6  C6  IND d   1       0.994  -0.706  -0.047  0.00  0.00     0.015 A 
ATOM      7  C7  IND d   1       1.553  -0.175  -1.175  0.00  0.00    -0.016 A 
ATOM      8  C8  IND d   1       1.583   1.209  -1.267  0.00  0.00    -0.047 A 
ATOM      9  C9  IND d   1       1.045   2.031  -0.267  0.00  0.00    -0.096 A 
ATOM     10  HN1 IND d   1       2.422   1.774  -2.998  0.00  0.00     0.298 HD
ENDROOT
TORSDOF 0
ENDMDL
