MODEL 1
REMARK minimizedAffinity -0.508304834
REMARK minimizedRMSD -1
REMARK  0 active torsions:
REMARK  status: ('A' for Active; 'I' for Inactive)
ROOT
ATOM      1  N1  IND d   1       1.672   3.907  -0.290  0.00  0.00    -0.196 N 
ATOM      2  C2  IND d   1       1.514   4.249  -1.604  0.00  0.00     0.054 A 
ATOM      3  C3  IND d   1       1.209   3.158  -2.341  0.00  0.00    -0.031 A 
ATOM      4  C4  IND d   1       0.816   0.729  -1.582  0.00  0.00     0.051 A 
ATOM      5  C5  IND d   1       0.882  -0.080  -0.482  0.00  0.00    -0.031 A 
ATOM      6  C6  IND d   1       1.218   0.409   0.764  0.00  0.00     0.015 A 
ATOM      7  C7  IND d   1       1.492   1.734   0.959  0.00  0.00    -0.016 A 
ATOM      8  C8  IND d   1       1.433   2.557  -0.157  0.00  0.00    -0.047 A 
ATOM      9  C9  IND d   1       1.133   2.058  -1.431  0.00  0.00    -0.096 A 
ATOM     10  HN1 IND d   1       1.884   4.444   0.347  0.00  0.00     0.298 HD
ENDROOT
TORSDOF 0
ENDMDL
