MODEL 1
REMARK minimizedAffinity 2.03080106
REMARK minimizedRMSD -1
REMARK  0 active torsions:
REMARK  status: ('A' for Active; 'I' for Inactive)
ROOT
ATOM      1  N1  IND d   1       1.739   3.857  -2.079  0.00  0.00    -0.196 N 
ATOM      2  C2  IND d   1       1.993   4.798  -1.121  0.00  0.00     0.054 A 
ATOM      3  C3  IND d   1       1.885   4.256   0.112  0.00  0.00    -0.031 A 
ATOM      4  C4  IND d   1       1.400   1.821   0.791  0.00  0.00     0.051 A 
ATOM      5  C5  IND d   1       1.063   0.604   0.269  0.00  0.00    -0.031 A 
ATOM      6  C6  IND d   1       0.935   0.404  -1.090  0.00  0.00     0.015 A 
ATOM      7  C7  IND d   1       1.150   1.416  -1.982  0.00  0.00    -0.016 A 
ATOM      8  C8  IND d   1       1.485   2.655  -1.455  0.00  0.00    -0.047 A 
ATOM      9  C9  IND d   1       1.575   2.874  -0.075  0.00  0.00    -0.096 A 
ATOM     10  HN1 IND d   1       1.737   3.992  -2.928  0.00  0.00     0.298 HD
ENDROOT
TORSDOF 0
ENDMDL
