MODEL 1
REMARK minimizedAffinity 3.2738266
REMARK minimizedRMSD -1
REMARK  0 active torsions:
REMARK  status: ('A' for Active; 'I' for Inactive)
ROOT
ATOM      1  N1  IND d   1       1.854   3.532  -0.683  0.00  0.00    -0.196 N 
ATOM      2  C2  IND d   1       1.585   3.905  -1.971  0.00  0.00     0.054 A 
ATOM      3  C3  IND d   1       1.154   2.843  -2.688  0.00  0.00    -0.031 A 
ATOM      4  C4  IND d   1       0.717   0.423  -1.925  0.00  0.00     0.051 A 
ATOM      5  C5  IND d   1       0.851  -0.408  -0.848  0.00  0.00    -0.031 A 
ATOM      6  C6  IND d   1       1.333   0.042   0.364  0.00  0.00     0.015 A 
ATOM      7  C7  IND d   1       1.691   1.348   0.549  0.00  0.00    -0.016 A 
ATOM      8  C8  IND d   1       1.563   2.193  -0.545  0.00  0.00    -0.047 A 
ATOM      9  C9  IND d   1       1.114   1.733  -1.790  0.00  0.00    -0.096 A 
ATOM     10  HN1 IND d   1       2.155   4.047  -0.064  0.00  0.00     0.298 HD
ENDROOT
TORSDOF 0
ENDMDL
