MODEL 1
REMARK minimizedAffinity -2.85247493
REMARK minimizedRMSD -1
REMARK  0 active torsions:
REMARK  status: ('A' for Active; 'I' for Inactive)
ROOT
ATOM      1  N1  IND d   1       1.720   3.579  -2.019  0.00  0.00    -0.196 N 
ATOM      2  C2  IND d   1       1.571   4.465  -0.988  0.00  0.00     0.054 A 
ATOM      3  C3  IND d   1       1.151   3.824   0.126  0.00  0.00    -0.031 A 
ATOM      4  C4  IND d   1       0.743   1.312   0.512  0.00  0.00     0.051 A 
ATOM      5  C5  IND d   1       0.712   0.113  -0.142  0.00  0.00    -0.031 A 
ATOM      6  C6  IND d   1       1.024   0.005  -1.482  0.00  0.00     0.015 A 
ATOM      7  C7  IND d   1       1.392   1.095  -2.218  0.00  0.00    -0.016 A 
ATOM      8  C8  IND d   1       1.418   2.316  -1.558  0.00  0.00    -0.047 A 
ATOM      9  C9  IND d   1       1.061   2.438  -0.209  0.00  0.00    -0.096 A 
ATOM     10  HN1 IND d   1       1.962   3.777  -2.820  0.00  0.00     0.298 HD
ENDROOT
TORSDOF 0
ENDMDL
