MODEL 1
REMARK minimizedAffinity -3.40507507
REMARK minimizedRMSD -1
REMARK  0 active torsions:
REMARK  status: ('A' for Active; 'I' for Inactive)
ROOT
ATOM      1  N1  IND d   1       0.790   3.139  -2.557  0.00  0.00    -0.196 N 
ATOM      2  C2  IND d   1       1.395   4.174  -1.899  0.00  0.00     0.054 A 
ATOM      3  C3  IND d   1       1.758   3.792  -0.654  0.00  0.00    -0.031 A 
ATOM      4  C4  IND d   1       1.549   1.489   0.476  0.00  0.00     0.051 A 
ATOM      5  C5  IND d   1       1.032   0.238   0.286  0.00  0.00    -0.031 A 
ATOM      6  C6  IND d   1       0.397  -0.118  -0.886  0.00  0.00     0.015 A 
ATOM      7  C7  IND d   1       0.265   0.765  -1.921  0.00  0.00    -0.016 A 
ATOM      8  C8  IND d   1       0.783   2.038  -1.729  0.00  0.00    -0.047 A 
ATOM      9  C9  IND d   1       1.391   2.417  -0.525  0.00  0.00    -0.096 A 
ATOM     10  HN1 IND d   1       0.468   3.170  -3.353  0.00  0.00     0.298 HD
ENDROOT
TORSDOF 0
ENDMDL
