MODEL 1
REMARK minimizedAffinity 9.13875008
REMARK minimizedRMSD -1
REMARK  0 active torsions:
REMARK  status: ('A' for Active; 'I' for Inactive)
ROOT
ATOM      1  C   UNL d   1      -0.122  -1.053   3.932  0.00  0.00     0.077 C 
ATOM      2  C1  UNL d   1      -1.371  -0.906   3.117  0.00  0.00    -0.074 A 
ATOM      3  C2  UNL d   1      -2.564  -1.521   3.512  0.00  0.00    -0.005 A 
ATOM      4  C3  UNL d   1      -3.721  -1.367   2.748  0.00  0.00     0.006 A 
ATOM      5  C4  UNL d   1      -3.697  -0.599   1.583  0.00  0.00    -0.005 A 
ATOM      6  C5  UNL d   1      -2.514   0.024   1.173  0.00  0.00    -0.074 A 
ATOM      7  C6  UNL d   1      -2.474   0.861  -0.071  0.00  0.00     0.077 C 
ATOM      8  C7  UNL d   1      -1.357  -0.130   1.949  0.00  0.00    -0.001 A 
ENDROOT
TORSDOF 0
ENDMDL
