MODEL 1
REMARK minimizedAffinity 4.69311285
REMARK minimizedRMSD -1
REMARK  0 active torsions:
REMARK  status: ('A' for Active; 'I' for Inactive)
ROOT
ATOM      1  C   UNL d   1       0.921  -0.372  -0.094  0.00  0.00     0.077 C 
ATOM      2  C1  UNL d   1      -0.108  -0.300   0.995  0.00  0.00    -0.074 A 
ATOM      3  C2  UNL d   1      -1.422   0.090   0.718  0.00  0.00    -0.005 A 
ATOM      4  C3  UNL d   1      -2.370   0.143   1.740  0.00  0.00     0.006 A 
ATOM      5  C4  UNL d   1      -2.014  -0.191   3.047  0.00  0.00    -0.005 A 
ATOM      6  C5  UNL d   1      -0.705  -0.583   3.343  0.00  0.00    -0.074 A 
ATOM      7  C6  UNL d   1      -0.308  -0.955   4.741  0.00  0.00     0.077 C 
ATOM      8  C7  UNL d   1       0.240  -0.641   2.309  0.00  0.00    -0.001 A 
ENDROOT
TORSDOF 0
ENDMDL
