MODEL 1
REMARK minimizedAffinity 5.33267355
REMARK minimizedRMSD -1
REMARK  0 active torsions:
REMARK  status: ('A' for Active; 'I' for Inactive)
ROOT
ATOM      1  C   UNL d   1       3.105   2.571   0.009  0.00  0.00     0.077 C 
ATOM      2  C1  UNL d   1       2.016   1.694  -0.534  0.00  0.00    -0.074 A 
ATOM      3  C2  UNL d   1       1.214   0.931   0.322  0.00  0.00    -0.005 A 
ATOM      4  C3  UNL d   1       0.199   0.127  -0.196  0.00  0.00     0.006 A 
ATOM      5  C4  UNL d   1      -0.025   0.078  -1.573  0.00  0.00    -0.005 A 
ATOM      6  C5  UNL d   1       0.766   0.834  -2.444  0.00  0.00    -0.074 A 
ATOM      7  C6  UNL d   1       0.533   0.800  -3.925  0.00  0.00     0.077 C 
ATOM      8  C7  UNL d   1       1.780   1.645  -1.915  0.00  0.00    -0.001 A 
ENDROOT
TORSDOF 0
ENDMDL
