MODEL 1
REMARK minimizedAffinity 7.60841274
REMARK minimizedRMSD -1
REMARK  0 active torsions:
REMARK  status: ('A' for Active; 'I' for Inactive)
ROOT
ATOM      1  C   UNL d   1      -4.078  -1.490   3.614  0.00  0.00     0.077 C 
ATOM      2  C1  UNL d   1      -2.801  -0.950   3.042  0.00  0.00    -0.074 A 
ATOM      3  C2  UNL d   1      -2.818   0.036   2.051  0.00  0.00    -0.005 A 
ATOM      4  C3  UNL d   1      -1.622   0.536   1.536  0.00  0.00     0.006 A 
ATOM      5  C4  UNL d   1      -0.399   0.056   2.006  0.00  0.00    -0.005 A 
ATOM      6  C5  UNL d   1      -0.362  -0.929   2.997  0.00  0.00    -0.074 A 
ATOM      7  C6  UNL d   1       0.943  -1.450   3.521  0.00  0.00     0.077 C 
ATOM      8  C7  UNL d   1      -1.568  -1.422   3.515  0.00  0.00    -0.001 A 
ENDROOT
TORSDOF 0
ENDMDL
