MODEL 1
REMARK minimizedAffinity 0.0527980141
REMARK minimizedRMSD -1
REMARK  0 active torsions:
REMARK  status: ('A' for Active; 'I' for Inactive)
ROOT
ATOM      1  C   UNL d   1       1.331  -1.095   3.402  0.00  0.00     0.077 C 
ATOM      2  C1  UNL d   1      -0.016  -0.683   2.887  0.00  0.00    -0.074 A 
ATOM      3  C2  UNL d   1      -0.137   0.290   1.889  0.00  0.00    -0.005 A 
ATOM      4  C3  UNL d   1      -1.395   0.656   1.412  0.00  0.00     0.006 A 
ATOM      5  C4  UNL d   1      -2.544   0.055   1.928  0.00  0.00    -0.005 A 
ATOM      6  C5  UNL d   1      -2.443  -0.920   2.926  0.00  0.00    -0.074 A 
ATOM      7  C6  UNL d   1      -3.667  -1.583   3.484  0.00  0.00     0.077 C 
ATOM      8  C7  UNL d   1      -1.174  -1.288   3.394  0.00  0.00    -0.001 A 
ENDROOT
TORSDOF 0
ENDMDL
