MODEL 1
REMARK minimizedAffinity 1.66983879
REMARK minimizedRMSD -1
REMARK  0 active torsions:
REMARK  status: ('A' for Active; 'I' for Inactive)
ROOT
ATOM      1  C   UNL d   1      -1.884   0.320  -0.462  0.00  0.00     0.077 C 
ATOM      2  C1  UNL d   1      -1.470  -0.063   0.928  0.00  0.00    -0.074 A 
ATOM      3  C2  UNL d   1      -0.133   0.022   1.329  0.00  0.00    -0.005 A 
ATOM      4  C3  UNL d   1       0.235  -0.328   2.628  0.00  0.00     0.006 A 
ATOM      5  C4  UNL d   1      -0.728  -0.768   3.537  0.00  0.00    -0.005 A 
ATOM      6  C5  UNL d   1      -2.070  -0.859   3.154  0.00  0.00    -0.074 A 
ATOM      7  C6  UNL d   1      -3.119  -1.320   4.122  0.00  0.00     0.077 C 
ATOM      8  C7  UNL d   1      -2.433  -0.498   1.849  0.00  0.00    -0.001 A 
ENDROOT
TORSDOF 0
ENDMDL
