MODEL 1
REMARK minimizedAffinity 4.22676373
REMARK minimizedRMSD -1
REMARK  0 active torsions:
REMARK  status: ('A' for Active; 'I' for Inactive)
ROOT
ATOM      1  C   UNL d   1       0.835  -1.054   3.607  0.00  0.00     0.077 C 
ATOM      2  C1  UNL d   1       0.312  -0.582   2.283  0.00  0.00    -0.074 A 
ATOM      3  C2  UNL d   1      -1.056  -0.368   2.085  0.00  0.00    -0.005 A 
ATOM      4  C3  UNL d   1      -1.527   0.081   0.851  0.00  0.00     0.006 A 
ATOM      5  C4  UNL d   1      -0.636   0.318  -0.196  0.00  0.00    -0.005 A 
ATOM      6  C5  UNL d   1       0.736   0.110  -0.017  0.00  0.00    -0.074 A 
ATOM      7  C6  UNL d   1       1.708   0.371  -1.129  0.00  0.00     0.077 C 
ATOM      8  C7  UNL d   1       1.201  -0.333   1.228  0.00  0.00    -0.001 A 
ENDROOT
TORSDOF 0
ENDMDL
