MODEL 1
REMARK minimizedAffinity 1.40696108
REMARK minimizedRMSD -1
REMARK  0 active torsions:
REMARK  status: ('A' for Active; 'I' for Inactive)
ROOT
ATOM      1  C   UNL d   1      -0.338  -0.599  -0.424  0.00  0.00     0.077 C 
ATOM      2  C1  UNL d   1      -0.761  -0.568   1.015  0.00  0.00    -0.074 A 
ATOM      3  C2  UNL d   1      -1.994  -0.025   1.390  0.00  0.00    -0.005 A 
ATOM      4  C3  UNL d   1      -2.378  -0.012   2.731  0.00  0.00     0.006 A 
ATOM      5  C4  UNL d   1      -1.535  -0.541   3.709  0.00  0.00    -0.005 A 
ATOM      6  C5  UNL d   1      -0.298  -1.089   3.352  0.00  0.00    -0.074 A 
ATOM      7  C6  UNL d   1       0.616  -1.670   4.389  0.00  0.00     0.077 C 
ATOM      8  C7  UNL d   1       0.077  -1.105   2.002  0.00  0.00    -0.001 A 
ENDROOT
TORSDOF 0
ENDMDL
