MODEL 1
REMARK minimizedAffinity 2.03855014
REMARK minimizedRMSD -1
REMARK  0 active torsions:
REMARK  status: ('A' for Active; 'I' for Inactive)
ROOT
ATOM      1  C   UNL d   1      -4.042  -1.125   4.352  0.00  0.00     0.077 C 
ATOM      2  C1  UNL d   1      -2.910  -0.555   3.550  0.00  0.00    -0.074 A 
ATOM      3  C2  UNL d   1      -1.638  -0.398   4.111  0.00  0.00    -0.005 A 
ATOM      4  C3  UNL d   1      -0.593   0.125   3.350  0.00  0.00     0.006 A 
ATOM      5  C4  UNL d   1      -0.809   0.497   2.023  0.00  0.00    -0.005 A 
ATOM      6  C5  UNL d   1      -2.073   0.347   1.444  0.00  0.00    -0.074 A 
ATOM      7  C6  UNL d   1      -2.319   0.732   0.016  0.00  0.00     0.077 C 
ATOM      8  C7  UNL d   1      -3.116  -0.186   2.213  0.00  0.00    -0.001 A 
ENDROOT
TORSDOF 0
ENDMDL
