MODEL 1
REMARK minimizedAffinity -0.793691933
REMARK minimizedRMSD -1
REMARK  0 active torsions:
REMARK  status: ('A' for Active; 'I' for Inactive)
ROOT
ATOM      1  C   UNL d   1      -0.386  -0.722  -1.011  0.00  0.00     0.077 C 
ATOM      2  C1  UNL d   1      -0.852  -0.484   0.395  0.00  0.00    -0.074 A 
ATOM      3  C2  UNL d   1      -2.082   0.130   0.651  0.00  0.00    -0.005 A 
ATOM      4  C3  UNL d   1      -2.506   0.336   1.963  0.00  0.00     0.006 A 
ATOM      5  C4  UNL d   1      -1.705  -0.069   3.032  0.00  0.00    -0.005 A 
ATOM      6  C5  UNL d   1      -0.472  -0.685   2.796  0.00  0.00    -0.074 A 
ATOM      7  C6  UNL d   1       0.396  -1.135   3.933  0.00  0.00     0.077 C 
ATOM      8  C7  UNL d   1      -0.056  -0.895   1.474  0.00  0.00    -0.001 A 
ENDROOT
TORSDOF 0
ENDMDL
