MODEL 1
REMARK minimizedAffinity 6.76948547
REMARK minimizedRMSD -1
REMARK  0 active torsions:
REMARK  status: ('A' for Active; 'I' for Inactive)
ROOT
ATOM      1  C   UNL d   1      -2.184  -0.157   3.562  0.00  0.00     0.077 C 
ATOM      2  C1  UNL d   1      -1.716  -0.254   2.141  0.00  0.00    -0.074 A 
ATOM      3  C2  UNL d   1      -0.359  -0.141   1.821  0.00  0.00    -0.005 A 
ATOM      4  C3  UNL d   1       0.063  -0.244   0.496  0.00  0.00     0.006 A 
ATOM      5  C4  UNL d   1      -0.867  -0.460  -0.522  0.00  0.00    -0.005 A 
ATOM      6  C5  UNL d   1      -2.228  -0.577  -0.222  0.00  0.00    -0.074 A 
ATOM      7  C6  UNL d   1      -3.239  -0.820  -1.303  0.00  0.00     0.077 C 
ATOM      8  C7  UNL d   1      -2.642  -0.480   1.113  0.00  0.00    -0.001 A 
ENDROOT
TORSDOF 0
ENDMDL
