MODEL 1
REMARK minimizedAffinity -2.82163739
REMARK minimizedRMSD -1
REMARK  0 active torsions:
REMARK  status: ('A' for Active; 'I' for Inactive)
ROOT
ATOM      1  C   UNL d   1       1.460   1.098  -1.107  0.00  0.00     0.124 A 
ATOM      2  C1  UNL d   1       0.173   1.491  -1.449  0.00  0.00     0.062 A 
ATOM      3  C2  UNL d   1      -0.915   1.052  -0.701  0.00  0.00     0.162 A 
ATOM      4  C3  UNL d   1      -0.722   0.216   0.399  0.00  0.00    -0.034 A 
ATOM      5  C4  UNL d   1       0.575  -0.176   0.736  0.00  0.00     0.162 A 
ATOM      6  C5  UNL d   1       1.660   0.265  -0.015  0.00  0.00     0.062 A 
ATOM      7  F   UNL d   1       2.902  -0.115   0.317  0.00  0.00    -0.097 F 
ATOM      8  F1  UNL d   1       0.797  -0.979   1.787  0.00  0.00    -0.096 F 
ATOM      9  I   UNL d   1      -2.346  -0.443   1.521  0.00  0.00    -0.060 I 
ATOM     10  F2  UNL d   1      -2.147   1.447  -1.054  0.00  0.00    -0.096 F 
ATOM     11  F3  UNL d   1      -0.023   2.294  -2.505  0.00  0.00    -0.097 F 
ATOM     12  F4  UNL d   1       2.505   1.521  -1.830  0.00  0.00    -0.092 F 
ENDROOT
TORSDOF 0
ENDMDL
