MODEL 1
REMARK minimizedAffinity -3.22155881
REMARK minimizedRMSD -1
REMARK  0 active torsions:
REMARK  status: ('A' for Active; 'I' for Inactive)
ROOT
ATOM      1  C   UNL d   1       2.078   0.306  -1.993  0.00  0.00     0.124 A 
ATOM      2  C1  UNL d   1       0.927   1.057  -2.188  0.00  0.00     0.062 A 
ATOM      3  C2  UNL d   1      -0.048   1.112  -1.197  0.00  0.00     0.162 A 
ATOM      4  C3  UNL d   1       0.123   0.414  -0.001  0.00  0.00    -0.034 A 
ATOM      5  C4  UNL d   1       1.282  -0.340   0.187  0.00  0.00     0.162 A 
ATOM      6  C5  UNL d   1       2.255  -0.391  -0.807  0.00  0.00     0.062 A 
ATOM      7  F   UNL d   1       3.366  -1.118  -0.617  0.00  0.00    -0.097 F 
ATOM      8  F1  UNL d   1       1.479  -1.023   1.324  0.00  0.00    -0.096 F 
ATOM      9  I   UNL d   1      -1.334   0.494   1.483  0.00  0.00    -0.060 I 
ATOM     10  F2  UNL d   1      -1.151   1.846  -1.412  0.00  0.00    -0.096 F 
ATOM     11  F3  UNL d   1       0.754   1.731  -3.334  0.00  0.00    -0.097 F 
ATOM     12  F4  UNL d   1       3.015   0.254  -2.949  0.00  0.00    -0.092 F 
ENDROOT
TORSDOF 0
ENDMDL
