MODEL 1
REMARK minimizedAffinity 1.49347985
REMARK minimizedRMSD -1
REMARK  0 active torsions:
REMARK  status: ('A' for Active; 'I' for Inactive)
ROOT
ATOM      1  C   UNL d   1      -1.915   0.992   2.191  0.00  0.00     0.124 A 
ATOM      2  C1  UNL d   1      -2.263  -0.182   1.538  0.00  0.00     0.062 A 
ATOM      3  C2  UNL d   1      -1.359  -0.801   0.680  0.00  0.00     0.162 A 
ATOM      4  C3  UNL d   1      -0.097  -0.247   0.469  0.00  0.00    -0.034 A 
ATOM      5  C4  UNL d   1       0.247   0.935   1.128  0.00  0.00     0.162 A 
ATOM      6  C5  UNL d   1      -0.660   1.549   1.986  0.00  0.00     0.062 A 
ATOM      7  F   UNL d   1      -0.322   2.684   2.615  0.00  0.00    -0.097 F 
ATOM      8  F1  UNL d   1       1.452   1.494   0.949  0.00  0.00    -0.096 F 
ATOM      9  I   UNL d   1       1.258  -1.169  -0.814  0.00  0.00    -0.060 I 
ATOM     10  F2  UNL d   1      -1.723  -1.935   0.063  0.00  0.00    -0.096 F 
ATOM     11  F3  UNL d   1      -3.475  -0.722   1.734  0.00  0.00    -0.097 F 
ATOM     12  F4  UNL d   1      -2.787   1.586   3.016  0.00  0.00    -0.092 F 
ENDROOT
TORSDOF 0
ENDMDL
