MODEL 1
REMARK minimizedAffinity -4.03438377
REMARK minimizedRMSD -1
REMARK  0 active torsions:
REMARK  status: ('A' for Active; 'I' for Inactive)
ROOT
ATOM      1  C   UNL d   1       1.893  -0.608  -1.054  0.00  0.00     0.124 A 
ATOM      2  C1  UNL d   1       0.973  -1.646  -1.031  0.00  0.00     0.062 A 
ATOM      3  C2  UNL d   1      -0.209  -1.519  -0.308  0.00  0.00     0.162 A 
ATOM      4  C3  UNL d   1      -0.479  -0.347   0.400  0.00  0.00    -0.034 A 
ATOM      5  C4  UNL d   1       0.452   0.693   0.373  0.00  0.00     0.162 A 
ATOM      6  C5  UNL d   1       1.632   0.561  -0.352  0.00  0.00     0.062 A 
ATOM      7  F   UNL d   1       2.520   1.565  -0.372  0.00  0.00    -0.097 F 
ATOM      8  F1  UNL d   1       0.225   1.833   1.042  0.00  0.00    -0.096 F 
ATOM      9  I   UNL d   1      -2.245  -0.152   1.483  0.00  0.00    -0.060 I 
ATOM     10  F2  UNL d   1      -1.081  -2.538  -0.304  0.00  0.00    -0.096 F 
ATOM     11  F3  UNL d   1       1.223  -2.776  -1.708  0.00  0.00    -0.097 F 
ATOM     12  F4  UNL d   1       3.030  -0.733  -1.750  0.00  0.00    -0.092 F 
ENDROOT
TORSDOF 0
ENDMDL
