MODEL 1
REMARK minimizedAffinity -0.966699421
REMARK minimizedRMSD -1
REMARK  0 active torsions:
REMARK  status: ('A' for Active; 'I' for Inactive)
ROOT
ATOM      1  C   UNL d   1       1.409  -1.013  -1.100  0.00  0.00     0.124 A 
ATOM      2  C1  UNL d   1       0.130  -1.447  -0.781  0.00  0.00     0.062 A 
ATOM      3  C2  UNL d   1      -0.565  -0.863   0.274  0.00  0.00     0.162 A 
ATOM      4  C3  UNL d   1       0.017   0.163   1.018  0.00  0.00    -0.034 A 
ATOM      5  C4  UNL d   1       1.305   0.594   0.691  0.00  0.00     0.162 A 
ATOM      6  C5  UNL d   1       1.995   0.007  -0.364  0.00  0.00     0.062 A 
ATOM      7  F   UNL d   1       3.231   0.428  -0.671  0.00  0.00    -0.097 F 
ATOM      8  F1  UNL d   1       1.894   1.579   1.386  0.00  0.00    -0.096 F 
ATOM      9  I   UNL d   1      -1.018   1.039   2.596  0.00  0.00    -0.060 I 
ATOM     10  F2  UNL d   1      -1.800  -1.303   0.560  0.00  0.00    -0.096 F 
ATOM     11  F3  UNL d   1      -0.438  -2.433  -1.491  0.00  0.00    -0.097 F 
ATOM     12  F4  UNL d   1       2.076  -1.577  -2.115  0.00  0.00    -0.092 F 
ENDROOT
TORSDOF 0
ENDMDL
