MODEL 1
REMARK minimizedAffinity 0.855362833
REMARK minimizedRMSD -1
REMARK  0 active torsions:
REMARK  status: ('A' for Active; 'I' for Inactive)
ROOT
ATOM      1  C   UNL d   1       2.509  -0.915  -0.995  0.00  0.00     0.124 A 
ATOM      2  C1  UNL d   1       1.396  -1.729  -1.160  0.00  0.00     0.062 A 
ATOM      3  C2  UNL d   1       0.189  -1.395  -0.552  0.00  0.00     0.162 A 
ATOM      4  C3  UNL d   1       0.088  -0.242   0.225  0.00  0.00    -0.034 A 
ATOM      5  C4  UNL d   1       1.211   0.571   0.387  0.00  0.00     0.162 A 
ATOM      6  C5  UNL d   1       2.415   0.233  -0.222  0.00  0.00     0.062 A 
ATOM      7  F   UNL d   1       3.489   1.021  -0.062  0.00  0.00    -0.097 F 
ATOM      8  F1  UNL d   1       1.149   1.688   1.128  0.00  0.00    -0.096 F 
ATOM      9  I   UNL d   1      -1.715   0.261   1.136  0.00  0.00    -0.060 I 
ATOM     10  F2  UNL d   1      -0.870  -2.200  -0.728  0.00  0.00    -0.096 F 
ATOM     11  F3  UNL d   1       1.484  -2.840  -1.905  0.00  0.00    -0.097 F 
ATOM     12  F4  UNL d   1       3.669  -1.239  -1.580  0.00  0.00    -0.092 F 
ENDROOT
TORSDOF 0
ENDMDL
