MODEL 1
REMARK minimizedAffinity 3.69522834
REMARK minimizedRMSD -1
REMARK  0 active torsions:
REMARK  status: ('A' for Active; 'I' for Inactive)
ROOT
ATOM      1  C   UNL d   1       1.120  -0.965  -1.001  0.00  0.00     0.124 A 
ATOM      2  C1  UNL d   1      -0.210  -1.142  -0.646  0.00  0.00     0.062 A 
ATOM      3  C2  UNL d   1      -0.785  -0.341   0.336  0.00  0.00     0.162 A 
ATOM      4  C3  UNL d   1      -0.031   0.647   0.970  0.00  0.00    -0.034 A 
ATOM      5  C4  UNL d   1       1.307   0.818   0.608  0.00  0.00     0.162 A 
ATOM      6  C5  UNL d   1       1.877   0.015  -0.374  0.00  0.00     0.062 A 
ATOM      7  F   UNL d   1       3.162   0.188  -0.716  0.00  0.00    -0.097 F 
ATOM      8  F1  UNL d   1       2.061   1.759   1.197  0.00  0.00    -0.096 F 
ATOM      9  I   UNL d   1      -0.887   1.847   2.438  0.00  0.00    -0.060 I 
ATOM     10  F2  UNL d   1      -2.072  -0.535   0.659  0.00  0.00    -0.096 F 
ATOM     11  F3  UNL d   1      -0.943  -2.089  -1.249  0.00  0.00    -0.097 F 
ATOM     12  F4  UNL d   1       1.671  -1.738  -1.945  0.00  0.00    -0.092 F 
ENDROOT
TORSDOF 0
ENDMDL
