MODEL 1
REMARK minimizedAffinity 5.60637903
REMARK minimizedRMSD -1
REMARK  0 active torsions:
REMARK  status: ('A' for Active; 'I' for Inactive)
ROOT
ATOM      1  C   UNL d   1       1.206   1.058  -0.353  0.00  0.00     0.124 A 
ATOM      2  C1  UNL d   1       1.179   0.496   0.916  0.00  0.00     0.062 A 
ATOM      3  C2  UNL d   1      -0.032   0.117   1.488  0.00  0.00     0.162 A 
ATOM      4  C3  UNL d   1      -1.226   0.297   0.792  0.00  0.00    -0.034 A 
ATOM      5  C4  UNL d   1      -1.192   0.863  -0.484  0.00  0.00     0.162 A 
ATOM      6  C5  UNL d   1       0.021   1.240  -1.052  0.00  0.00     0.062 A 
ATOM      7  F   UNL d   1       0.044   1.783  -2.278  0.00  0.00    -0.097 F 
ATOM      8  F1  UNL d   1      -2.322   1.050  -1.182  0.00  0.00    -0.096 F 
ATOM      9  I   UNL d   1      -3.039  -0.269   1.644  0.00  0.00    -0.060 I 
ATOM     10  F2  UNL d   1      -0.027  -0.423   2.716  0.00  0.00    -0.096 F 
ATOM     11  F3  UNL d   1       2.323   0.320   1.594  0.00  0.00    -0.097 F 
ATOM     12  F4  UNL d   1       2.372   1.423  -0.901  0.00  0.00    -0.092 F 
ENDROOT
TORSDOF 0
ENDMDL
