MODEL 1
REMARK minimizedAffinity -0.867037237
REMARK minimizedRMSD -1
REMARK  0 active torsions:
REMARK  status: ('A' for Active; 'I' for Inactive)
ROOT
ATOM      1  C   UNL d   1       1.511  -0.824  -1.356  0.00  0.00     0.124 A 
ATOM      2  C1  UNL d   1       1.394   0.370  -0.657  0.00  0.00     0.062 A 
ATOM      3  C2  UNL d   1       0.499   0.475   0.403  0.00  0.00     0.162 A 
ATOM      4  C3  UNL d   1      -0.286  -0.617   0.773  0.00  0.00    -0.034 A 
ATOM      5  C4  UNL d   1      -0.163  -1.814   0.065  0.00  0.00     0.162 A 
ATOM      6  C5  UNL d   1       0.733  -1.914  -0.994  0.00  0.00     0.062 A 
ATOM      7  F   UNL d   1       0.845  -3.069  -1.668  0.00  0.00    -0.097 F 
ATOM      8  F1  UNL d   1      -0.902  -2.884   0.395  0.00  0.00    -0.096 F 
ATOM      9  I   UNL d   1      -1.625  -0.464   2.359  0.00  0.00    -0.060 I 
ATOM     10  F2  UNL d   1       0.406   1.641   1.060  0.00  0.00    -0.096 F 
ATOM     11  F3  UNL d   1       2.144   1.425  -1.006  0.00  0.00    -0.097 F 
ATOM     12  F4  UNL d   1       2.373  -0.922  -2.377  0.00  0.00    -0.092 F 
ENDROOT
TORSDOF 0
ENDMDL
