MODEL 1
REMARK minimizedAffinity -3.06711078
REMARK minimizedRMSD -1
REMARK  0 active torsions:
REMARK  status: ('A' for Active; 'I' for Inactive)
ROOT
ATOM      1  C   UNL d   1      -1.801   1.011   2.139  0.00  0.00     0.124 A 
ATOM      2  C1  UNL d   1      -0.512   1.504   2.281  0.00  0.00     0.062 A 
ATOM      3  C2  UNL d   1       0.507   1.053   1.446  0.00  0.00     0.162 A 
ATOM      4  C3  UNL d   1       0.239   0.102   0.461  0.00  0.00    -0.034 A 
ATOM      5  C4  UNL d   1      -1.060  -0.390   0.324  0.00  0.00     0.162 A 
ATOM      6  C5  UNL d   1      -2.074   0.065   1.161  0.00  0.00     0.062 A 
ATOM      7  F   UNL d   1      -3.320  -0.412   1.022  0.00  0.00    -0.097 F 
ATOM      8  F1  UNL d   1      -1.352  -1.304  -0.613  0.00  0.00    -0.096 F 
ATOM      9  I   UNL d   1       1.759  -0.576  -0.789  0.00  0.00    -0.060 I 
ATOM     10  F2  UNL d   1       1.743   1.546   1.606  0.00  0.00    -0.096 F 
ATOM     11  F3  UNL d   1      -0.245   2.418   3.226  0.00  0.00    -0.097 F 
ATOM     12  F4  UNL d   1      -2.779   1.447   2.944  0.00  0.00    -0.092 F 
ENDROOT
TORSDOF 0
ENDMDL
