MODEL 1
REMARK minimizedAffinity -2.19384956
REMARK minimizedRMSD -1
REMARK  0 active torsions:
REMARK  status: ('A' for Active; 'I' for Inactive)
ROOT
ATOM      1  C   UNL d   1       2.185  -0.323  -1.646  0.00  0.00     0.124 A 
ATOM      2  C1  UNL d   1       1.644  -1.499  -1.145  0.00  0.00     0.062 A 
ATOM      3  C2  UNL d   1       0.556  -1.455  -0.278  0.00  0.00     0.162 A 
ATOM      4  C3  UNL d   1       0.002  -0.231   0.095  0.00  0.00    -0.034 A 
ATOM      5  C4  UNL d   1       0.552   0.948  -0.412  0.00  0.00     0.162 A 
ATOM      6  C5  UNL d   1       1.639   0.899  -1.279  0.00  0.00     0.062 A 
ATOM      7  F   UNL d   1       2.161   2.036  -1.762  0.00  0.00    -0.097 F 
ATOM      8  F1  UNL d   1       0.044   2.142  -0.075  0.00  0.00    -0.096 F 
ATOM      9  I   UNL d   1      -1.624  -0.161   1.392  0.00  0.00    -0.060 I 
ATOM     10  F2  UNL d   1       0.054  -2.607   0.191  0.00  0.00    -0.096 F 
ATOM     11  F3  UNL d   1       2.170  -2.681  -1.497  0.00  0.00    -0.097 F 
ATOM     12  F4  UNL d   1       3.232  -0.368  -2.480  0.00  0.00    -0.092 F 
ENDROOT
TORSDOF 0
ENDMDL
