MODEL 1
REMARK minimizedAffinity 0.448581606
REMARK minimizedRMSD -1
REMARK  0 active torsions:
REMARK  status: ('A' for Active; 'I' for Inactive)
ROOT
ATOM      1  C   UNL d   1       0.808  -1.109  -1.072  0.00  0.00     0.124 A 
ATOM      2  C1  UNL d   1      -0.446  -1.569  -0.694  0.00  0.00     0.062 A 
ATOM      3  C2  UNL d   1      -1.176  -0.893   0.279  0.00  0.00     0.162 A 
ATOM      4  C3  UNL d   1      -0.655   0.253   0.880  0.00  0.00    -0.034 A 
ATOM      5  C4  UNL d   1       0.607   0.710   0.495  0.00  0.00     0.162 A 
ATOM      6  C5  UNL d   1       1.333   0.030  -0.477  0.00  0.00     0.062 A 
ATOM      7  F   UNL d   1       2.544   0.476  -0.841  0.00  0.00    -0.097 F 
ATOM      8  F1  UNL d   1       1.137   1.808   1.053  0.00  0.00    -0.096 F 
ATOM      9  I   UNL d   1      -1.744   1.268   2.334  0.00  0.00    -0.060 I 
ATOM     10  F2  UNL d   1      -2.385  -1.360   0.624  0.00  0.00    -0.096 F 
ATOM     11  F3  UNL d   1      -0.955  -2.670  -1.266  0.00  0.00    -0.097 F 
ATOM     12  F4  UNL d   1       1.509  -1.762  -2.007  0.00  0.00    -0.092 F 
ENDROOT
TORSDOF 0
ENDMDL
