MODEL 1
REMARK minimizedAffinity -3.11785054
REMARK minimizedRMSD -1
REMARK  0 active torsions:
REMARK  status: ('A' for Active; 'I' for Inactive)
ROOT
ATOM      1  C   UNL d   1      -0.712  -0.367   0.645  0.00  0.00     0.124 A 
ATOM      2  C1  UNL d   1       0.019   0.809   0.545  0.00  0.00     0.062 A 
ATOM      3  C2  UNL d   1       1.027   0.928  -0.407  0.00  0.00     0.162 A 
ATOM      4  C3  UNL d   1       1.310  -0.132  -1.269  0.00  0.00    -0.034 A 
ATOM      5  C4  UNL d   1       0.572  -1.312  -1.161  0.00  0.00     0.162 A 
ATOM      6  C5  UNL d   1      -0.435  -1.426  -0.208  0.00  0.00     0.062 A 
ATOM      7  F   UNL d   1      -1.139  -2.563  -0.112  0.00  0.00    -0.097 F 
ATOM      8  F1  UNL d   1       0.818  -2.351  -1.974  0.00  0.00    -0.096 F 
ATOM      9  I   UNL d   1       2.816   0.042  -2.694  0.00  0.00    -0.060 I 
ATOM     10  F2  UNL d   1       1.716   2.076  -0.481  0.00  0.00    -0.096 F 
ATOM     11  F3  UNL d   1      -0.246   1.833   1.369  0.00  0.00    -0.097 F 
ATOM     12  F4  UNL d   1      -1.680  -0.480   1.563  0.00  0.00    -0.092 F 
ENDROOT
TORSDOF 0
ENDMDL
