MODEL 1
REMARK minimizedAffinity 5.80332422
REMARK minimizedRMSD -1
REMARK  0 active torsions:
REMARK  status: ('A' for Active; 'I' for Inactive)
ROOT
ATOM      1  C   UNL d   1       0.817  -0.656  -0.926  0.00  0.00     0.124 A 
ATOM      2  C1  UNL d   1       1.436   0.342  -0.187  0.00  0.00     0.062 A 
ATOM      3  C2  UNL d   1       0.770   0.939   0.880  0.00  0.00     0.162 A 
ATOM      4  C3  UNL d   1      -0.523   0.538   1.215  0.00  0.00    -0.034 A 
ATOM      5  C4  UNL d   1      -1.140  -0.466   0.466  0.00  0.00     0.162 A 
ATOM      6  C5  UNL d   1      -0.470  -1.059  -0.599  0.00  0.00     0.062 A 
ATOM      7  F   UNL d   1      -1.070  -2.023  -1.312  0.00  0.00    -0.097 F 
ATOM      8  F1  UNL d   1      -2.383  -0.875   0.761  0.00  0.00    -0.096 F 
ATOM      9  I   UNL d   1      -1.522   1.427   2.809  0.00  0.00    -0.060 I 
ATOM     10  F2  UNL d   1       1.393   1.901   1.577  0.00  0.00    -0.096 F 
ATOM     11  F3  UNL d   1       2.679   0.734  -0.502  0.00  0.00    -0.097 F 
ATOM     12  F4  UNL d   1       1.459  -1.228  -1.953  0.00  0.00    -0.092 F 
ENDROOT
TORSDOF 0
ENDMDL
