MODEL 1
REMARK minimizedAffinity -2.79728699
REMARK minimizedRMSD -1
REMARK  0 active torsions:
REMARK  status: ('A' for Active; 'I' for Inactive)
ROOT
ATOM      1  C   UNL d   1       1.668   1.989  -1.635  0.00  0.00     0.124 A 
ATOM      2  C1  UNL d   1       0.367   1.629  -1.314  0.00  0.00     0.062 A 
ATOM      3  C2  UNL d   1       0.063   0.307  -1.003  0.00  0.00     0.162 A 
ATOM      4  C3  UNL d   1       1.062  -0.666  -1.011  0.00  0.00    -0.034 A 
ATOM      5  C4  UNL d   1       2.369  -0.297  -1.336  0.00  0.00     0.162 A 
ATOM      6  C5  UNL d   1       2.668   1.026  -1.646  0.00  0.00     0.062 A 
ATOM      7  F   UNL d   1       3.926   1.372  -1.956  0.00  0.00    -0.097 F 
ATOM      8  F1  UNL d   1       3.354  -1.207  -1.352  0.00  0.00    -0.096 F 
ATOM      9  I   UNL d   1       0.611  -2.644  -0.546  0.00  0.00    -0.060 I 
ATOM     10  F2  UNL d   1      -1.204  -0.012  -0.697  0.00  0.00    -0.096 F 
ATOM     11  F3  UNL d   1      -0.601   2.557  -1.305  0.00  0.00    -0.097 F 
ATOM     12  F4  UNL d   1       1.958   3.261  -1.935  0.00  0.00    -0.092 F 
ENDROOT
TORSDOF 0
ENDMDL
