MODEL 1
REMARK minimizedAffinity -5.03437376
REMARK minimizedRMSD -1
REMARK  2 active torsions:
REMARK  status: ('A' for Active; 'I' for Inactive)
REMARK    1  A    between atoms: C1_2  and  C2_3 
REMARK    2  A    between atoms: C2_3  and  C3_4 
ROOT
ATOM      1  C3  UNL d   1       0.304  -0.101   0.054  0.00  0.00    -0.075 A 
ATOM      2  C4  UNL d   1      -0.610   0.275   1.049  0.00  0.00     0.002 A 
ATOM      3  C5  UNL d   1      -0.399   1.429   1.805  0.00  0.00     0.002 A 
ATOM      4  C6  UNL d   1       0.731   2.213   1.583  0.00  0.00    -0.004 A 
ATOM      5  C7  UNL d   1       1.654   1.840   0.609  0.00  0.00     0.002 A 
ATOM      6  C8  UNL d   1       1.443   0.689  -0.152  0.00  0.00     0.002 A 
ENDROOT
BRANCH   1   7
ATOM      7  C2  UNL d   1       0.066  -1.332  -0.787  0.00  0.00     0.056 C 
BRANCH   7   8
ATOM      8  C1  UNL d   1      -1.402  -1.555  -1.166  0.00  0.00     0.007 C 
ATOM      9  C   UNL d   1      -1.645  -1.532  -2.669  0.00  0.00     0.009 C 
ENDBRANCH   7   8
ENDBRANCH   1   7
TORSDOF 2
ENDMDL
