MODEL 1
REMARK minimizedAffinity -5.39299631
REMARK minimizedRMSD -1
REMARK  2 active torsions:
REMARK  status: ('A' for Active; 'I' for Inactive)
REMARK    1  A    between atoms: C1_2  and  C2_3 
REMARK    2  A    between atoms: C2_3  and  C3_4 
ROOT
ATOM      1  C3  UNL d   1      -0.635  -0.057  -0.119  0.00  0.00    -0.075 A 
ATOM      2  C4  UNL d   1      -1.301   0.423   1.018  0.00  0.00     0.002 A 
ATOM      3  C5  UNL d   1      -0.754   1.458   1.776  0.00  0.00     0.002 A 
ATOM      4  C6  UNL d   1       0.468   2.020   1.414  0.00  0.00    -0.004 A 
ATOM      5  C7  UNL d   1       1.147   1.541   0.296  0.00  0.00     0.002 A 
ATOM      6  C8  UNL d   1       0.600   0.508  -0.467  0.00  0.00     0.002 A 
ENDROOT
BRANCH   1   7
ATOM      7  C2  UNL d   1      -1.236  -1.157  -0.960  0.00  0.00     0.056 C 
BRANCH   7   8
ATOM      8  C1  UNL d   1      -1.529  -0.747  -2.407  0.00  0.00     0.007 C 
ATOM      9  C   UNL d   1      -3.018  -0.677  -2.721  0.00  0.00     0.009 C 
ENDBRANCH   7   8
ENDBRANCH   1   7
TORSDOF 2
ENDMDL
