MODEL 1
REMARK minimizedAffinity -5.16711569
REMARK minimizedRMSD -1
REMARK  2 active torsions:
REMARK  status: ('A' for Active; 'I' for Inactive)
REMARK    1  A    between atoms: C1_2  and  C2_3 
REMARK    2  A    between atoms: C2_3  and  C3_4 
ROOT
ATOM      1  C3  UNL d   1       0.023   0.106  -0.058  0.00  0.00    -0.075 A 
ATOM      2  C4  UNL d   1      -0.645   0.344   1.152  0.00  0.00     0.002 A 
ATOM      3  C5  UNL d   1      -0.404   1.512   1.877  0.00  0.00     0.002 A 
ATOM      4  C6  UNL d   1       0.512   2.450   1.406  0.00  0.00    -0.004 A 
ATOM      5  C7  UNL d   1       1.193   2.217   0.214  0.00  0.00     0.002 A 
ATOM      6  C8  UNL d   1       0.951   1.051  -0.515  0.00  0.00     0.002 A 
ENDROOT
BRANCH   1   7
ATOM      7  C2  UNL d   1      -0.255  -1.142  -0.861  0.00  0.00     0.056 C 
BRANCH   7   8
ATOM      8  C1  UNL d   1      -1.641  -1.168  -1.514  0.00  0.00     0.007 C 
ATOM      9  C   UNL d   1      -1.625  -0.733  -2.974  0.00  0.00     0.009 C 
ENDBRANCH   7   8
ENDBRANCH   1   7
TORSDOF 2
ENDMDL
