MODEL 1
REMARK minimizedAffinity -2.7236588
REMARK minimizedRMSD -1
REMARK  2 active torsions:
REMARK  status: ('A' for Active; 'I' for Inactive)
REMARK    1  A    between atoms: C1_2  and  C2_3 
REMARK    2  A    between atoms: C2_3  and  C3_4 
ROOT
ATOM      1  C3  UNL d   1      -0.186   0.208  -0.041  0.00  0.00    -0.075 A 
ATOM      2  C4  UNL d   1      -0.654   0.530   1.241  0.00  0.00     0.002 A 
ATOM      3  C5  UNL d   1      -0.115   1.610   1.941  0.00  0.00     0.002 A 
ATOM      4  C6  UNL d   1       0.902   2.374   1.373  0.00  0.00    -0.004 A 
ATOM      5  C7  UNL d   1       1.386   2.053   0.107  0.00  0.00     0.002 A 
ATOM      6  C8  UNL d   1       0.846   0.976  -0.597  0.00  0.00     0.002 A 
ENDROOT
BRANCH   1   7
ATOM      7  C2  UNL d   1      -0.785  -0.942  -0.816  0.00  0.00     0.056 C 
BRANCH   7   8
ATOM      8  C1  UNL d   1      -1.253  -0.567  -2.226  0.00  0.00     0.007 C 
ATOM      9  C   UNL d   1      -2.596  -1.182  -2.596  0.00  0.00     0.009 C 
ENDBRANCH   7   8
ENDBRANCH   1   7
TORSDOF 2
ENDMDL
