MODEL 1
REMARK minimizedAffinity -4.04250383
REMARK minimizedRMSD -1
REMARK  2 active torsions:
REMARK  status: ('A' for Active; 'I' for Inactive)
REMARK    1  A    between atoms: C1_2  and  C2_3 
REMARK    2  A    between atoms: C2_3  and  C3_4 
ROOT
ATOM      1  C3  UNL d   1       0.260   0.774   1.212  0.00  0.00    -0.075 A 
ATOM      2  C4  UNL d   1       0.925  -0.006   0.255  0.00  0.00     0.002 A 
ATOM      3  C5  UNL d   1       0.381  -1.218  -0.172  0.00  0.00     0.002 A 
ATOM      4  C6  UNL d   1      -0.824  -1.670   0.360  0.00  0.00    -0.004 A 
ATOM      5  C7  UNL d   1      -1.484  -0.911   1.324  0.00  0.00     0.002 A 
ATOM      6  C8  UNL d   1      -0.946   0.304   1.749  0.00  0.00     0.002 A 
ENDROOT
BRANCH   1   7
ATOM      7  C2  UNL d   1       0.828   2.101   1.656  0.00  0.00     0.056 C 
BRANCH   7   8
ATOM      8  C1  UNL d   1       1.178   3.047   0.502  0.00  0.00     0.007 C 
ATOM      9  C   UNL d   1       0.149   3.031  -0.620  0.00  0.00     0.009 C 
ENDBRANCH   7   8
ENDBRANCH   1   7
TORSDOF 2
ENDMDL
