MODEL 1
REMARK minimizedAffinity -4.98748827
REMARK minimizedRMSD -1
REMARK  2 active torsions:
REMARK  status: ('A' for Active; 'I' for Inactive)
REMARK    1  A    between atoms: C1_2  and  C2_3 
REMARK    2  A    between atoms: C2_3  and  C3_4 
ROOT
ATOM      1  C3  UNL d   1       0.377  -0.042  -0.091  0.00  0.00    -0.075 A 
ATOM      2  C4  UNL d   1       1.371   0.812  -0.589  0.00  0.00     0.002 A 
ATOM      3  C5  UNL d   1       1.721   1.971   0.104  0.00  0.00     0.002 A 
ATOM      4  C6  UNL d   1       1.077   2.296   1.296  0.00  0.00    -0.004 A 
ATOM      5  C7  UNL d   1       0.076   1.462   1.792  0.00  0.00     0.002 A 
ATOM      6  C8  UNL d   1      -0.273   0.300   1.103  0.00  0.00     0.002 A 
ENDROOT
BRANCH   1   7
ATOM      7  C2  UNL d   1       0.014  -1.313  -0.821  0.00  0.00     0.056 C 
BRANCH   7   8
ATOM      8  C1  UNL d   1      -1.467  -1.413  -1.200  0.00  0.00     0.007 C 
ATOM      9  C   UNL d   1      -1.705  -1.375  -2.704  0.00  0.00     0.009 C 
ENDBRANCH   7   8
ENDBRANCH   1   7
TORSDOF 2
ENDMDL
