MODEL 1
REMARK minimizedAffinity -4.83072758
REMARK minimizedRMSD -1
REMARK  2 active torsions:
REMARK  status: ('A' for Active; 'I' for Inactive)
REMARK    1  A    between atoms: C1_2  and  C2_3 
REMARK    2  A    between atoms: C2_3  and  C3_4 
ROOT
ATOM      1  C3  UNL d   1      -0.029   0.174  -0.068  0.00  0.00    -0.075 A 
ATOM      2  C4  UNL d   1      -0.413   0.674   1.185  0.00  0.00     0.002 A 
ATOM      3  C5  UNL d   1       0.317   1.695   1.794  0.00  0.00     0.002 A 
ATOM      4  C6  UNL d   1       1.443   2.220   1.165  0.00  0.00    -0.004 A 
ATOM      5  C7  UNL d   1       1.843   1.720  -0.072  0.00  0.00     0.002 A 
ATOM      6  C8  UNL d   1       1.112   0.701  -0.686  0.00  0.00     0.002 A 
ENDROOT
BRANCH   1   7
ATOM      7  C2  UNL d   1      -0.833  -0.911  -0.746  0.00  0.00     0.056 C 
BRANCH   7   8
ATOM      8  C1  UNL d   1      -1.269  -0.564  -2.173  0.00  0.00     0.007 C 
ATOM      9  C   UNL d   1      -2.725  -0.909  -2.457  0.00  0.00     0.009 C 
ENDBRANCH   7   8
ENDBRANCH   1   7
TORSDOF 2
ENDMDL
