MODEL 1
REMARK minimizedAffinity -5.63213491
REMARK minimizedRMSD -1
REMARK  2 active torsions:
REMARK  status: ('A' for Active; 'I' for Inactive)
REMARK    1  A    between atoms: C1_2  and  C2_3 
REMARK    2  A    between atoms: C2_3  and  C3_4 
ROOT
ATOM      1  C3  UNL d   1       0.061   0.034   0.046  0.00  0.00    -0.075 A 
ATOM      2  C4  UNL d   1       1.344   0.474  -0.311  0.00  0.00     0.002 A 
ATOM      3  C5  UNL d   1       1.889   1.618   0.271  0.00  0.00     0.002 A 
ATOM      4  C6  UNL d   1       1.155   2.343   1.208  0.00  0.00    -0.004 A 
ATOM      5  C7  UNL d   1      -0.127   1.926   1.557  0.00  0.00     0.002 A 
ATOM      6  C8  UNL d   1      -0.673   0.778   0.980  0.00  0.00     0.002 A 
ENDROOT
BRANCH   1   7
ATOM      7  C2  UNL d   1      -0.522  -1.220  -0.559  0.00  0.00     0.056 C 
BRANCH   7   8
ATOM      8  C1  UNL d   1      -1.022  -1.046  -1.997  0.00  0.00     0.007 C 
ATOM      9  C   UNL d   1      -2.106  -2.045  -2.381  0.00  0.00     0.009 C 
ENDBRANCH   7   8
ENDBRANCH   1   7
TORSDOF 2
ENDMDL
