MODEL 1
REMARK minimizedAffinity -4.09305334
REMARK minimizedRMSD -1
REMARK  2 active torsions:
REMARK  status: ('A' for Active; 'I' for Inactive)
REMARK    1  A    between atoms: C1_2  and  C2_3 
REMARK    2  A    between atoms: C2_3  and  C3_4 
ROOT
ATOM      1  C3  UNL d   1       0.095   0.076   0.244  0.00  0.00    -0.075 A 
ATOM      2  C4  UNL d   1       1.446   0.450   0.273  0.00  0.00     0.002 A 
ATOM      3  C5  UNL d   1       1.880   1.475   1.114  0.00  0.00     0.002 A 
ATOM      4  C6  UNL d   1       0.969   2.144   1.928  0.00  0.00    -0.004 A 
ATOM      5  C7  UNL d   1      -0.379   1.792   1.896  0.00  0.00     0.002 A 
ATOM      6  C8  UNL d   1      -0.814   0.764   1.058  0.00  0.00     0.002 A 
ENDROOT
BRANCH   1   7
ATOM      7  C2  UNL d   1      -0.375  -1.052  -0.643  0.00  0.00     0.056 C 
BRANCH   7   8
ATOM      8  C1  UNL d   1      -1.127  -0.589  -1.895  0.00  0.00     0.007 C 
ATOM      9  C   UNL d   1      -1.830  -1.724  -2.627  0.00  0.00     0.009 C 
ENDBRANCH   7   8
ENDBRANCH   1   7
TORSDOF 2
ENDMDL
