MODEL 1
REMARK minimizedAffinity -5.69157219
REMARK minimizedRMSD -1
REMARK  2 active torsions:
REMARK  status: ('A' for Active; 'I' for Inactive)
REMARK    1  A    between atoms: C1_2  and  C2_3 
REMARK    2  A    between atoms: C2_3  and  C3_4 
ROOT
ATOM      1  C3  UNL d   1      -0.073  -0.179   0.018  0.00  0.00    -0.075 A 
ATOM      2  C4  UNL d   1       0.930   0.801   0.025  0.00  0.00     0.002 A 
ATOM      3  C5  UNL d   1       0.987   1.748   1.048  0.00  0.00     0.002 A 
ATOM      4  C6  UNL d   1       0.038   1.735   2.068  0.00  0.00    -0.004 A 
ATOM      5  C7  UNL d   1      -0.972   0.776   2.061  0.00  0.00     0.002 A 
ATOM      6  C8  UNL d   1      -1.029  -0.176   1.042  0.00  0.00     0.002 A 
ENDROOT
BRANCH   1   7
ATOM      7  C2  UNL d   1      -0.122  -1.226  -1.070  0.00  0.00     0.056 C 
BRANCH   7   8
ATOM      8  C1  UNL d   1      -1.532  -1.508  -1.600  0.00  0.00     0.007 C 
ATOM      9  C   UNL d   1      -1.691  -1.191  -3.081  0.00  0.00     0.009 C 
ENDBRANCH   7   8
ENDBRANCH   1   7
TORSDOF 2
ENDMDL
