MODEL 1
REMARK minimizedAffinity -0.852859437
REMARK minimizedRMSD -1
REMARK  2 active torsions:
REMARK  status: ('A' for Active; 'I' for Inactive)
REMARK    1  A    between atoms: C1_2  and  C2_3 
REMARK    2  A    between atoms: C2_3  and  C3_4 
ROOT
ATOM      1  C3  UNL d   1      -0.444  -0.270   0.191  0.00  0.00    -0.075 A 
ATOM      2  C4  UNL d   1      -1.126   0.418   1.206  0.00  0.00     0.002 A 
ATOM      3  C5  UNL d   1      -0.516   1.479   1.875  0.00  0.00     0.002 A 
ATOM      4  C6  UNL d   1       0.784   1.859   1.547  0.00  0.00    -0.004 A 
ATOM      5  C7  UNL d   1       1.476   1.172   0.552  0.00  0.00     0.002 A 
ATOM      6  C8  UNL d   1       0.867   0.113  -0.122  0.00  0.00     0.002 A 
ENDROOT
BRANCH   1   7
ATOM      7  C2  UNL d   1      -1.110  -1.400  -0.557  0.00  0.00     0.056 C 
BRANCH   7   8
ATOM      8  C1  UNL d   1      -1.833  -0.962  -1.835  0.00  0.00     0.007 C 
ATOM      9  C   UNL d   1      -3.039  -1.830  -2.170  0.00  0.00     0.009 C 
ENDBRANCH   7   8
ENDBRANCH   1   7
TORSDOF 2
ENDMDL
