MODEL 1
REMARK minimizedAffinity 0.00306712207
REMARK minimizedRMSD -1
REMARK  0 active torsions:
REMARK  status: ('A' for Active; 'I' for Inactive)
ROOT
ATOM      1  C   UNL d   1      -3.115   6.000  -5.371  0.00  0.00     0.078 C 
ATOM      2  C1  UNL d   1      -2.705   4.558  -5.326  0.00  0.00    -0.077 A 
ATOM      3  C2  UNL d   1      -1.560   4.155  -4.628  0.00  0.00    -0.001 A 
ATOM      4  C3  UNL d   1      -1.185   2.811  -4.603  0.00  0.00     0.003 A 
ATOM      5  C4  UNL d   1      -1.950   1.859  -5.275  0.00  0.00    -0.005 A 
ATOM      6  C5  UNL d   1      -3.090   2.250  -5.973  0.00  0.00     0.003 A 
ATOM      7  C6  UNL d   1      -3.466   3.594  -6.000  0.00  0.00    -0.001 A 
ENDROOT
TORSDOF 0
ENDMDL
