MODEL 1
REMARK minimizedAffinity -0.271325111
REMARK minimizedRMSD -1
REMARK  0 active torsions:
REMARK  status: ('A' for Active; 'I' for Inactive)
ROOT
ATOM      1  C   UNL d   1       2.751   1.629   1.330  0.00  0.00     0.078 C 
ATOM      2  C1  UNL d   1       2.435   0.520   0.371  0.00  0.00    -0.077 A 
ATOM      3  C2  UNL d   1       3.225   0.301  -0.764  0.00  0.00    -0.001 A 
ATOM      4  C3  UNL d   1       2.913  -0.729  -1.653  0.00  0.00     0.003 A 
ATOM      5  C4  UNL d   1       1.811  -1.548  -1.417  0.00  0.00    -0.005 A 
ATOM      6  C5  UNL d   1       1.018  -1.337  -0.291  0.00  0.00     0.003 A 
ATOM      7  C6  UNL d   1       1.328  -0.307   0.599  0.00  0.00    -0.001 A 
ENDROOT
TORSDOF 0
ENDMDL
