MODEL 1
REMARK minimizedAffinity -0.223837927
REMARK minimizedRMSD -1
REMARK  0 active torsions:
REMARK  status: ('A' for Active; 'I' for Inactive)
ROOT
ATOM      1  C   UNL d   1       2.534   2.357   1.797  0.00  0.00     0.078 C 
ATOM      2  C1  UNL d   1       1.185   1.922   1.307  0.00  0.00    -0.077 A 
ATOM      3  C2  UNL d   1       0.989   0.641   0.775  0.00  0.00    -0.001 A 
ATOM      4  C3  UNL d   1      -0.270   0.253   0.315  0.00  0.00     0.003 A 
ATOM      5  C4  UNL d   1      -1.343   1.140   0.380  0.00  0.00    -0.005 A 
ATOM      6  C5  UNL d   1      -1.157   2.417   0.906  0.00  0.00     0.003 A 
ATOM      7  C6  UNL d   1       0.101   2.807   1.367  0.00  0.00    -0.001 A 
ENDROOT
TORSDOF 0
ENDMDL
