MODEL 1
REMARK minimizedAffinity -1.50859761
REMARK minimizedRMSD -1
REMARK  0 active torsions:
REMARK  status: ('A' for Active; 'I' for Inactive)
ROOT
ATOM      1  C   UNL d   1      -1.290   0.113   0.889  0.00  0.00     0.078 C 
ATOM      2  C1  UNL d   1       0.040   0.131   0.196  0.00  0.00    -0.077 A 
ATOM      3  C2  UNL d   1       0.147  -0.171  -1.167  0.00  0.00    -0.001 A 
ATOM      4  C3  UNL d   1       1.392  -0.161  -1.797  0.00  0.00     0.003 A 
ATOM      5  C4  UNL d   1       2.541   0.150  -1.071  0.00  0.00    -0.005 A 
ATOM      6  C5  UNL d   1       2.444   0.449   0.286  0.00  0.00     0.003 A 
ATOM      7  C6  UNL d   1       1.200   0.439   0.918  0.00  0.00    -0.001 A 
ENDROOT
TORSDOF 0
ENDMDL
