MODEL 1
REMARK minimizedAffinity -2.71092367
REMARK minimizedRMSD -1
REMARK  0 active torsions:
REMARK  status: ('A' for Active; 'I' for Inactive)
ROOT
ATOM      1  C   UNL d   1       2.563   2.736   1.947  0.00  0.00     0.078 C 
ATOM      2  C1  UNL d   1       1.240   2.203   1.486  0.00  0.00    -0.077 A 
ATOM      3  C2  UNL d   1       0.082   2.988   1.556  0.00  0.00    -0.001 A 
ATOM      4  C3  UNL d   1      -1.145   2.476   1.132  0.00  0.00     0.003 A 
ATOM      5  C4  UNL d   1      -1.227   1.176   0.637  0.00  0.00    -0.005 A 
ATOM      6  C5  UNL d   1      -0.082   0.387   0.566  0.00  0.00     0.003 A 
ATOM      7  C6  UNL d   1       1.147   0.897   0.989  0.00  0.00    -0.001 A 
ENDROOT
TORSDOF 0
ENDMDL
