MODEL 1
REMARK minimizedAffinity -0.194569886
REMARK minimizedRMSD -1
REMARK  0 active torsions:
REMARK  status: ('A' for Active; 'I' for Inactive)
ROOT
ATOM      1  C   UNL d   1      -2.696   0.763   0.847  0.00  0.00     0.078 C 
ATOM      2  C1  UNL d   1      -1.261   1.176   0.984  0.00  0.00    -0.077 A 
ATOM      3  C2  UNL d   1      -0.918   2.472   1.388  0.00  0.00    -0.001 A 
ATOM      4  C3  UNL d   1       0.422   2.845   1.503  0.00  0.00     0.003 A 
ATOM      5  C4  UNL d   1       1.430   1.927   1.214  0.00  0.00    -0.005 A 
ATOM      6  C5  UNL d   1       1.099   0.636   0.810  0.00  0.00     0.003 A 
ATOM      7  C6  UNL d   1      -0.240   0.261   0.695  0.00  0.00    -0.001 A 
ENDROOT
TORSDOF 0
ENDMDL
