MODEL 1
REMARK minimizedAffinity -2.06900477
REMARK minimizedRMSD -1
REMARK  0 active torsions:
REMARK  status: ('A' for Active; 'I' for Inactive)
ROOT
ATOM      1  C   UNL d   1       1.710  -0.081   0.543  0.00  0.00     0.078 C 
ATOM      2  C1  UNL d   1       0.314   0.440   0.711  0.00  0.00    -0.077 A 
ATOM      3  C2  UNL d   1      -0.767  -0.435   0.873  0.00  0.00    -0.001 A 
ATOM      4  C3  UNL d   1      -2.063   0.064   1.018  0.00  0.00     0.003 A 
ATOM      5  C4  UNL d   1      -2.289   1.438   1.001  0.00  0.00    -0.005 A 
ATOM      6  C5  UNL d   1      -1.220   2.316   0.839  0.00  0.00     0.003 A 
ATOM      7  C6  UNL d   1       0.076   1.820   0.693  0.00  0.00    -0.001 A 
ENDROOT
TORSDOF 0
ENDMDL
