MODEL 1
REMARK minimizedAffinity -0.259052783
REMARK minimizedRMSD -1
REMARK  0 active torsions:
REMARK  status: ('A' for Active; 'I' for Inactive)
ROOT
ATOM      1  C   UNL d   1      -2.234   6.000  -4.893  0.00  0.00     0.078 C 
ATOM      2  C1  UNL d   1      -2.240   4.553  -5.287  0.00  0.00    -0.077 A 
ATOM      3  C2  UNL d   1      -3.431   3.906  -5.638  0.00  0.00    -0.001 A 
ATOM      4  C3  UNL d   1      -3.422   2.556  -5.993  0.00  0.00     0.003 A 
ATOM      5  C4  UNL d   1      -2.226   1.842  -6.000  0.00  0.00    -0.005 A 
ATOM      6  C5  UNL d   1      -1.036   2.477  -5.650  0.00  0.00     0.003 A 
ATOM      7  C6  UNL d   1      -1.042   3.826  -5.295  0.00  0.00    -0.001 A 
ENDROOT
TORSDOF 0
ENDMDL
