MODEL 1
REMARK minimizedAffinity 0.53027755
REMARK minimizedRMSD -1
REMARK  0 active torsions:
REMARK  status: ('A' for Active; 'I' for Inactive)
ROOT
ATOM      1  C   UNL d   1       2.106  -0.023   0.472  0.00  0.00     0.078 C 
ATOM      2  C1  UNL d   1       0.659   0.263   0.742  0.00  0.00    -0.077 A 
ATOM      3  C2  UNL d   1      -0.262  -0.778   0.914  0.00  0.00    -0.001 A 
ATOM      4  C3  UNL d   1      -1.608  -0.497   1.154  0.00  0.00     0.003 A 
ATOM      5  C4  UNL d   1      -2.045   0.824   1.223  0.00  0.00    -0.005 A 
ATOM      6  C5  UNL d   1      -1.137   1.866   1.051  0.00  0.00     0.003 A 
ATOM      7  C6  UNL d   1       0.209   1.587   0.811  0.00  0.00    -0.001 A 
ENDROOT
TORSDOF 0
ENDMDL
