MODEL 1
REMARK minimizedAffinity -0.157785013
REMARK minimizedRMSD -1
REMARK  0 active torsions:
REMARK  status: ('A' for Active; 'I' for Inactive)
ROOT
ATOM      1  C   UNL d   1       2.083   0.086   0.628  0.00  0.00     0.078 C 
ATOM      2  C1  UNL d   1       0.650   0.477   0.835  0.00  0.00    -0.077 A 
ATOM      3  C2  UNL d   1       0.277   1.823   0.933  0.00  0.00    -0.001 A 
ATOM      4  C3  UNL d   1      -1.059   2.172   1.136  0.00  0.00     0.003 A 
ATOM      5  C4  UNL d   1      -2.032   1.181   1.245  0.00  0.00    -0.005 A 
ATOM      6  C5  UNL d   1      -1.670  -0.161   1.151  0.00  0.00     0.003 A 
ATOM      7  C6  UNL d   1      -0.335  -0.512   0.948  0.00  0.00    -0.001 A 
ENDROOT
TORSDOF 0
ENDMDL
