MODEL 1
REMARK minimizedAffinity -2.6089685
REMARK minimizedRMSD -1
REMARK  0 active torsions:
REMARK  status: ('A' for Active; 'I' for Inactive)
ROOT
ATOM      1  C   UNL d   1      -5.602   3.230  -5.999  0.00  0.00     0.078 C 
ATOM      2  C1  UNL d   1      -4.331   3.946  -5.653  0.00  0.00    -0.077 A 
ATOM      3  C2  UNL d   1      -4.292   5.343  -5.562  0.00  0.00    -0.001 A 
ATOM      4  C3  UNL d   1      -3.100   5.997  -5.248  0.00  0.00     0.003 A 
ATOM      5  C4  UNL d   1      -1.937   5.263  -5.024  0.00  0.00    -0.005 A 
ATOM      6  C5  UNL d   1      -1.965   3.873  -5.114  0.00  0.00     0.003 A 
ATOM      7  C6  UNL d   1      -3.157   3.217  -5.428  0.00  0.00    -0.001 A 
ENDROOT
TORSDOF 0
ENDMDL
