MODEL 1
REMARK minimizedAffinity -0.470317155
REMARK minimizedRMSD -1
REMARK  0 active torsions:
REMARK  status: ('A' for Active; 'I' for Inactive)
ROOT
ATOM      1  C   UNL d   1       2.585   2.765   2.991  0.00  0.00     0.078 C 
ATOM      2  C1  UNL d   1       1.447   2.418   2.079  0.00  0.00    -0.077 A 
ATOM      3  C2  UNL d   1       0.176   2.976   2.266  0.00  0.00    -0.001 A 
ATOM      4  C3  UNL d   1      -0.877   2.636   1.415  0.00  0.00     0.003 A 
ATOM      5  C4  UNL d   1      -0.670   1.736   0.372  0.00  0.00    -0.005 A 
ATOM      6  C5  UNL d   1       0.590   1.173   0.179  0.00  0.00     0.003 A 
ATOM      7  C6  UNL d   1       1.644   1.512   1.029  0.00  0.00    -0.001 A 
ENDROOT
TORSDOF 0
ENDMDL
