MODEL 1
REMARK minimizedAffinity 2.47148967
REMARK minimizedRMSD -1
REMARK  0 active torsions:
REMARK  status: ('A' for Active; 'I' for Inactive)
ROOT
ATOM      1  C   UNL d   1      -4.037  -5.623  -0.706  0.00  0.00     0.078 C 
ATOM      2  C1  UNL d   1      -2.842  -4.848  -1.176  0.00  0.00    -0.077 A 
ATOM      3  C2  UNL d   1      -1.653  -5.499  -1.525  0.00  0.00    -0.001 A 
ATOM      4  C3  UNL d   1      -0.545  -4.764  -1.952  0.00  0.00     0.003 A 
ATOM      5  C4  UNL d   1      -0.616  -3.375  -2.032  0.00  0.00    -0.005 A 
ATOM      6  C5  UNL d   1      -1.795  -2.719  -1.684  0.00  0.00     0.003 A 
ATOM      7  C6  UNL d   1      -2.903  -3.452  -1.257  0.00  0.00    -0.001 A 
ENDROOT
TORSDOF 0
ENDMDL
