MODEL 1
REMARK minimizedAffinity 11.9250126
REMARK minimizedRMSD -1
REMARK  0 active torsions:
REMARK  status: ('A' for Active; 'I' for Inactive)
ROOT
ATOM      1  C   UNL d   1       5.818  -1.055  -2.762  0.00  0.00     0.078 C 
ATOM      2  C1  UNL d   1       4.352  -0.754  -2.680  0.00  0.00    -0.077 A 
ATOM      3  C2  UNL d   1       3.569  -1.258  -1.635  0.00  0.00    -0.001 A 
ATOM      4  C3  UNL d   1       2.203  -0.977  -1.577  0.00  0.00     0.003 A 
ATOM      5  C4  UNL d   1       1.607  -0.193  -2.562  0.00  0.00    -0.005 A 
ATOM      6  C5  UNL d   1       2.378   0.311  -3.608  0.00  0.00     0.003 A 
ATOM      7  C6  UNL d   1       3.744   0.032  -3.668  0.00  0.00    -0.001 A 
ENDROOT
TORSDOF 0
ENDMDL
