MODEL 1
REMARK minimizedAffinity 9.08219242
REMARK minimizedRMSD -1
REMARK  0 active torsions:
REMARK  status: ('A' for Active; 'I' for Inactive)
ROOT
ATOM      1  C   UNL d   1       1.904  -0.457  -2.227  0.00  0.00     0.078 C 
ATOM      2  C1  UNL d   1       1.452   0.698  -3.070  0.00  0.00    -0.077 A 
ATOM      3  C2  UNL d   1       2.304   1.274  -4.020  0.00  0.00    -0.001 A 
ATOM      4  C3  UNL d   1       1.873   2.355  -4.791  0.00  0.00     0.003 A 
ATOM      5  C4  UNL d   1       0.590   2.870  -4.619  0.00  0.00    -0.005 A 
ATOM      6  C5  UNL d   1      -0.264   2.305  -3.675  0.00  0.00     0.003 A 
ATOM      7  C6  UNL d   1       0.165   1.224  -2.903  0.00  0.00    -0.001 A 
ENDROOT
TORSDOF 0
ENDMDL
