MODEL 1
REMARK minimizedAffinity 0.978397846
REMARK minimizedRMSD -1
REMARK  0 active torsions:
REMARK  status: ('A' for Active; 'I' for Inactive)
ROOT
ATOM      1  C   UNL d   1       1.688   0.547   0.413  0.00  0.00     0.078 C 
ATOM      2  C1  UNL d   1       2.212  -0.020  -0.873  0.00  0.00    -0.077 A 
ATOM      3  C2  UNL d   1       1.929   0.593  -2.100  0.00  0.00    -0.001 A 
ATOM      4  C3  UNL d   1       2.415   0.048  -3.290  0.00  0.00     0.003 A 
ATOM      5  C4  UNL d   1       3.186  -1.112  -3.265  0.00  0.00    -0.005 A 
ATOM      6  C5  UNL d   1       3.471  -1.730  -2.049  0.00  0.00     0.003 A 
ATOM      7  C6  UNL d   1       2.986  -1.188  -0.858  0.00  0.00    -0.001 A 
ENDROOT
TORSDOF 0
ENDMDL
