MODEL 1
REMARK minimizedAffinity -0.212738067
REMARK minimizedRMSD -1
REMARK  1 active torsions:
REMARK  status: ('A' for Active; 'I' for Inactive)
REMARK    1  A    between atoms: N_2  and  C1_3 
ROOT
ATOM      1  C1  UNL d   1       1.524   0.296   0.783  0.00  0.00     0.143 A 
ATOM      2  C2  UNL d   1       0.992  -0.998   0.794  0.00  0.00    -0.057 A 
ATOM      3  C3  UNL d   1      -0.352  -1.232   0.479  0.00  0.00     0.033 A 
ATOM      4  C4  UNL d   1      -1.197  -0.170   0.175  0.00  0.00    -0.042 A 
ATOM      5  C5  UNL d   1      -0.696   1.127   0.182  0.00  0.00     0.033 A 
ATOM      6  C6  UNL d   1       0.649   1.354   0.491  0.00  0.00    -0.057 A 
ENDROOT
BRANCH   1   7
ATOM      7  N   UNL d   1       2.827   0.604   1.183  0.00  0.00    -0.732 N 
ATOM      8  C   UNL d   1       3.889  -0.370   1.051  0.00  0.00     0.284 C 
ATOM      9  H3  UNL d   1       3.098   1.551   0.928  0.00  0.00     0.395 HD
ENDBRANCH   1   7
TORSDOF 1
ENDMDL
