MODEL 1
REMARK minimizedAffinity -4.84076881
REMARK minimizedRMSD -1
REMARK  1 active torsions:
REMARK  status: ('A' for Active; 'I' for Inactive)
REMARK    1  A    between atoms: N_2  and  C1_3 
ROOT
ATOM      1  C1  UNL d   1       0.267  -0.039   0.050  0.00  0.00     0.143 A 
ATOM      2  C2  UNL d   1       0.964   1.106   0.450  0.00  0.00    -0.057 A 
ATOM      3  C3  UNL d   1       2.324   1.050   0.780  0.00  0.00     0.033 A 
ATOM      4  C4  UNL d   1       3.005  -0.163   0.743  0.00  0.00    -0.042 A 
ATOM      5  C5  UNL d   1       2.326  -1.318   0.372  0.00  0.00     0.033 A 
ATOM      6  C6  UNL d   1       0.970  -1.254   0.037  0.00  0.00    -0.057 A 
ENDROOT
BRANCH   1   7
ATOM      7  N   UNL d   1      -1.108  -0.066  -0.196  0.00  0.00    -0.732 N 
ATOM      8  C   UNL d   1      -1.615  -0.109  -1.551  0.00  0.00     0.284 C 
ATOM      9  H3  UNL d   1      -1.607  -0.669   0.454  0.00  0.00     0.395 HD
ENDBRANCH   1   7
TORSDOF 1
ENDMDL
