MODEL 1
REMARK minimizedAffinity -3.60663772
REMARK minimizedRMSD -1
REMARK  1 active torsions:
REMARK  status: ('A' for Active; 'I' for Inactive)
REMARK    1  A    between atoms: N_2  and  C1_3 
ROOT
ATOM      1  C1  UNL d   1      -2.459  -0.414  -1.159  0.00  0.00     0.143 A 
ATOM      2  C2  UNL d   1      -3.059   0.676  -1.798  0.00  0.00    -0.057 A 
ATOM      3  C3  UNL d   1      -3.726   0.525  -3.020  0.00  0.00     0.033 A 
ATOM      4  C4  UNL d   1      -3.778  -0.719  -3.641  0.00  0.00    -0.042 A 
ATOM      5  C5  UNL d   1      -3.166  -1.812  -3.036  0.00  0.00     0.033 A 
ATOM      6  C6  UNL d   1      -2.508  -1.655  -1.813  0.00  0.00    -0.057 A 
ENDROOT
BRANCH   1   7
ATOM      7  N   UNL d   1      -1.698  -0.309   0.008  0.00  0.00    -0.732 N 
ATOM      8  C   UNL d   1      -0.252  -0.333  -0.051  0.00  0.00     0.284 C 
ATOM      9  H3  UNL d   1      -2.076   0.377   0.658  0.00  0.00     0.395 HD
ENDBRANCH   1   7
TORSDOF 1
ENDMDL
