MODEL 1
REMARK minimizedAffinity -3.51190758
REMARK minimizedRMSD -1
REMARK  1 active torsions:
REMARK  status: ('A' for Active; 'I' for Inactive)
REMARK    1  A    between atoms: N_2  and  C1_3 
ROOT
ATOM      1  C1  UNL d   1      -0.147   0.081   0.475  0.00  0.00     0.143 A 
ATOM      2  C2  UNL d   1       0.291   1.405   0.579  0.00  0.00    -0.057 A 
ATOM      3  C3  UNL d   1       1.639   1.708   0.806  0.00  0.00     0.033 A 
ATOM      4  C4  UNL d   1       2.571   0.688   0.962  0.00  0.00    -0.042 A 
ATOM      5  C5  UNL d   1       2.154  -0.637   0.887  0.00  0.00     0.033 A 
ATOM      6  C6  UNL d   1       0.808  -0.933   0.654  0.00  0.00    -0.057 A 
ENDROOT
BRANCH   1   7
ATOM      7  N   UNL d   1      -1.489  -0.287   0.349  0.00  0.00    -0.732 N 
ATOM      8  C   UNL d   1      -2.193  -0.090  -0.900  0.00  0.00     0.284 C 
ATOM      9  H3  UNL d   1      -1.693  -1.173   0.806  0.00  0.00     0.395 HD
ENDBRANCH   1   7
TORSDOF 1
ENDMDL
