MODEL 1
REMARK minimizedAffinity -4.33859015
REMARK minimizedRMSD -1
REMARK  1 active torsions:
REMARK  status: ('A' for Active; 'I' for Inactive)
REMARK    1  A    between atoms: N_2  and  C1_3 
ROOT
ATOM      1  C1  UNL d   1      -0.053  -0.019   0.000  0.00  0.00     0.143 A 
ATOM      2  C2  UNL d   1       0.705   1.151  -0.120  0.00  0.00    -0.057 A 
ATOM      3  C3  UNL d   1       2.040   1.196   0.299  0.00  0.00     0.033 A 
ATOM      4  C4  UNL d   1       2.633   0.078   0.875  0.00  0.00    -0.042 A 
ATOM      5  C5  UNL d   1       1.891  -1.088   1.028  0.00  0.00     0.033 A 
ATOM      6  C6  UNL d   1       0.560  -1.129   0.601  0.00  0.00    -0.057 A 
ENDROOT
BRANCH   1   7
ATOM      7  N   UNL d   1      -1.414  -0.098  -0.307  0.00  0.00    -0.732 N 
ATOM      8  C   UNL d   1      -1.875   0.086  -1.667  0.00  0.00     0.284 C 
ATOM      9  H3  UNL d   1      -1.881  -0.852   0.191  0.00  0.00     0.395 HD
ENDBRANCH   1   7
TORSDOF 1
ENDMDL
