MODEL 1
REMARK minimizedAffinity -4.91714287
REMARK minimizedRMSD -1
REMARK  1 active torsions:
REMARK  status: ('A' for Active; 'I' for Inactive)
REMARK    1  A    between atoms: N_2  and  C1_3 
ROOT
ATOM      1  C1  UNL d   1      -0.011  -0.052   0.182  0.00  0.00     0.143 A 
ATOM      2  C2  UNL d   1       0.558   1.063   0.807  0.00  0.00    -0.057 A 
ATOM      3  C3  UNL d   1       1.886   1.048   1.249  0.00  0.00     0.033 A 
ATOM      4  C4  UNL d   1       2.662  -0.097   1.101  0.00  0.00    -0.042 A 
ATOM      5  C5  UNL d   1       2.109  -1.225   0.506  0.00  0.00     0.033 A 
ATOM      6  C6  UNL d   1       0.784  -1.202   0.060  0.00  0.00    -0.057 A 
ENDROOT
BRANCH   1   7
ATOM      7  N   UNL d   1      -1.355  -0.133  -0.191  0.00  0.00    -0.732 N 
ATOM      8  C   UNL d   1      -1.724  -0.393  -1.566  0.00  0.00     0.284 C 
ATOM      9  H3  UNL d   1      -1.919  -0.633   0.493  0.00  0.00     0.395 HD
ENDBRANCH   1   7
TORSDOF 1
ENDMDL
