MODEL 1
REMARK minimizedAffinity -4.34778166
REMARK minimizedRMSD -1
REMARK  0 active torsions:
REMARK  status: ('A' for Active; 'I' for Inactive)
ROOT
ATOM      1  O1  BZF d   1      -0.925  -0.939  -0.258  0.00  0.00    -0.204 OA
ATOM      2  C2  BZF d   1      -1.551   0.290  -0.331  0.00  0.00     0.174 A 
ATOM      3  C3  BZF d   1      -0.654   1.271  -0.555  0.00  0.00    -0.012 A 
ATOM      4  C3A BZF d   1       0.601   0.604  -0.718  0.00  0.00    -0.107 A 
ATOM      5  C4  BZF d   1       1.869   1.038  -0.980  0.00  0.00     0.055 A 
ATOM      6  C5  BZF d   1       2.885   0.136  -1.004  0.00  0.00    -0.016 A 
ATOM      7  C6  BZF d   1       2.670  -1.206  -0.767  0.00  0.00     0.022 A 
ATOM      8  C7  BZF d   1       1.428  -1.685  -0.508  0.00  0.00     0.029 A 
ATOM      9  C7A BZF d   1       0.395  -0.781  -0.516  0.00  0.00     0.058 A 
ENDROOT
TORSDOF 0
ENDMDL
