MODEL 1
REMARK minimizedAffinity 3.17880774
REMARK minimizedRMSD -1
REMARK  0 active torsions:
REMARK  status: ('A' for Active; 'I' for Inactive)
ROOT
ATOM      1  O1  BZF d   1       1.026   1.232  -1.723  0.00  0.00    -0.204 OA
ATOM      2  C2  BZF d   1       0.028   1.938  -1.078  0.00  0.00     0.174 A 
ATOM      3  C3  BZF d   1      -0.590   1.165  -0.162  0.00  0.00    -0.012 A 
ATOM      4  C3A BZF d   1       0.124  -0.075  -0.174  0.00  0.00    -0.107 A 
ATOM      5  C4  BZF d   1      -0.005  -1.239   0.530  0.00  0.00     0.055 A 
ATOM      6  C5  BZF d   1       0.805  -2.287   0.227  0.00  0.00    -0.016 A 
ATOM      7  C6  BZF d   1       1.750  -2.208  -0.775  0.00  0.00     0.022 A 
ATOM      8  C7  BZF d   1       1.919  -1.073  -1.497  0.00  0.00     0.029 A 
ATOM      9  C7A BZF d   1       1.123  -0.002  -1.171  0.00  0.00     0.058 A 
ENDROOT
TORSDOF 0
ENDMDL
