MODEL 1
REMARK minimizedAffinity -4.30218315
REMARK minimizedRMSD -1
REMARK  0 active torsions:
REMARK  status: ('A' for Active; 'I' for Inactive)
ROOT
ATOM      1  O1  BZF d   1      -1.020   0.669  -0.366  0.00  0.00    -0.204 OA
ATOM      2  C2  BZF d   1      -0.567   1.908  -0.774  0.00  0.00     0.174 A 
ATOM      3  C3  BZF d   1       0.756   1.873  -1.034  0.00  0.00    -0.012 A 
ATOM      4  C3A BZF d   1       1.136   0.504  -0.860  0.00  0.00    -0.107 A 
ATOM      5  C4  BZF d   1       2.319  -0.165  -0.991  0.00  0.00     0.055 A 
ATOM      6  C5  BZF d   1       2.369  -1.486  -0.677  0.00  0.00    -0.016 A 
ATOM      7  C6  BZF d   1       1.258  -2.167  -0.225  0.00  0.00     0.022 A 
ATOM      8  C7  BZF d   1       0.061  -1.547  -0.083  0.00  0.00     0.029 A 
ATOM      9  C7A BZF d   1      -0.000  -0.220  -0.431  0.00  0.00     0.058 A 
ENDROOT
TORSDOF 0
ENDMDL
