MODEL 1
REMARK minimizedAffinity 0.597196519
REMARK minimizedRMSD -1
REMARK  0 active torsions:
REMARK  status: ('A' for Active; 'I' for Inactive)
ROOT
ATOM      1  O1  BZF d   1       1.817   1.491  -1.491  0.00  0.00    -0.204 OA
ATOM      2  C2  BZF d   1       0.732   2.106  -0.897  0.00  0.00     0.174 A 
ATOM      3  C3  BZF d   1      -0.076   1.195  -0.317  0.00  0.00    -0.012 A 
ATOM      4  C3A BZF d   1       0.591  -0.060  -0.484  0.00  0.00    -0.107 A 
ATOM      5  C4  BZF d   1       0.294  -1.338  -0.107  0.00  0.00     0.055 A 
ATOM      6  C5  BZF d   1       1.119  -2.348  -0.489  0.00  0.00    -0.016 A 
ATOM      7  C6  BZF d   1       2.245  -2.117  -1.252  0.00  0.00     0.022 A 
ATOM      8  C7  BZF d   1       2.583  -0.865  -1.646  0.00  0.00     0.029 A 
ATOM      9  C7A BZF d   1       1.769   0.162  -1.233  0.00  0.00     0.058 A 
ENDROOT
TORSDOF 0
ENDMDL
