MODEL 1
REMARK minimizedAffinity -4.69565821
REMARK minimizedRMSD -1
REMARK  0 active torsions:
REMARK  status: ('A' for Active; 'I' for Inactive)
ROOT
ATOM      1  O1  BZF d   1       0.270   1.479   1.005  0.00  0.00    -0.204 OA
ATOM      2  C2  BZF d   1      -0.617   0.815   1.829  0.00  0.00     0.174 A 
ATOM      3  C3  BZF d   1      -0.580  -0.514   1.600  0.00  0.00    -0.012 A 
ATOM      4  C3A BZF d   1       0.458  -0.700   0.633  0.00  0.00    -0.107 A 
ATOM      5  C4  BZF d   1       0.981  -1.802   0.018  0.00  0.00     0.055 A 
ATOM      6  C5  BZF d   1       1.939  -1.635  -0.932  0.00  0.00    -0.016 A 
ATOM      7  C6  BZF d   1       2.392  -0.384  -1.294  0.00  0.00     0.022 A 
ATOM      8  C7  BZF d   1       1.906   0.738  -0.709  0.00  0.00     0.029 A 
ATOM      9  C7A BZF d   1       0.962   0.571   0.275  0.00  0.00     0.058 A 
ENDROOT
TORSDOF 0
ENDMDL
