MODEL 1
REMARK minimizedAffinity -2.85464215
REMARK minimizedRMSD -1
REMARK  0 active torsions:
REMARK  status: ('A' for Active; 'I' for Inactive)
ROOT
ATOM      1  O1  BZF d   1       2.464   0.473  -0.495  0.00  0.00    -0.204 OA
ATOM      2  C2  BZF d   1       3.020  -0.750  -0.817  0.00  0.00     0.174 A 
ATOM      3  C3  BZF d   1       2.084  -1.721  -0.803  0.00  0.00    -0.012 A 
ATOM      4  C3A BZF d   1       0.849  -1.048  -0.541  0.00  0.00    -0.107 A 
ATOM      5  C4  BZF d   1      -0.444  -1.471  -0.422  0.00  0.00     0.055 A 
ATOM      6  C5  BZF d   1      -1.406  -0.571  -0.090  0.00  0.00    -0.016 A 
ATOM      7  C6  BZF d   1      -1.111   0.757   0.136  0.00  0.00     0.022 A 
ATOM      8  C7  BZF d   1       0.156   1.225   0.025  0.00  0.00     0.029 A 
ATOM      9  C7A BZF d   1       1.126   0.325  -0.343  0.00  0.00     0.058 A 
ENDROOT
TORSDOF 0
ENDMDL
