MODEL 1
REMARK minimizedAffinity -3.46396756
REMARK minimizedRMSD -1
REMARK  0 active torsions:
REMARK  status: ('A' for Active; 'I' for Inactive)
ROOT
ATOM      1  O1  BZF d   1       2.533  -1.347  -0.856  0.00  0.00    -0.204 OA
ATOM      2  C2  BZF d   1       3.141  -0.162  -1.223  0.00  0.00     0.174 A 
ATOM      3  C3  BZF d   1       2.257   0.857  -1.200  0.00  0.00    -0.012 A 
ATOM      4  C3A BZF d   1       1.041   0.288  -0.704  0.00  0.00    -0.107 A 
ATOM      5  C4  BZF d   1      -0.196   0.802  -0.441  0.00  0.00     0.055 A 
ATOM      6  C5  BZF d   1      -1.186  -0.035  -0.034  0.00  0.00    -0.016 A 
ATOM      7  C6  BZF d   1      -0.975  -1.391   0.115  0.00  0.00     0.022 A 
ATOM      8  C7  BZF d   1       0.237  -1.946  -0.129  0.00  0.00     0.029 A 
ATOM      9  C7A BZF d   1       1.248  -1.097  -0.509  0.00  0.00     0.058 A 
ENDROOT
TORSDOF 0
ENDMDL
