MODEL 1
REMARK minimizedAffinity -4.32335567
REMARK minimizedRMSD -1
REMARK  0 active torsions:
REMARK  status: ('A' for Active; 'I' for Inactive)
ROOT
ATOM      1  O1  BZF d   1      -0.942  -0.779  -0.662  0.00  0.00    -0.204 OA
ATOM      2  C2  BZF d   1      -1.427   0.357  -0.043  0.00  0.00     0.174 A 
ATOM      3  C3  BZF d   1      -0.414   1.127   0.405  0.00  0.00    -0.012 A 
ATOM      4  C3A BZF d   1       0.780   0.474  -0.038  0.00  0.00    -0.107 A 
ATOM      5  C4  BZF d   1       2.109   0.764   0.084  0.00  0.00     0.055 A 
ATOM      6  C5  BZF d   1       3.024  -0.117  -0.399  0.00  0.00    -0.016 A 
ATOM      7  C6  BZF d   1       2.646  -1.299  -1.003  0.00  0.00     0.022 A 
ATOM      8  C7  BZF d   1       1.339  -1.627  -1.152  0.00  0.00     0.029 A 
ATOM      9  C7A BZF d   1       0.411  -0.723  -0.695  0.00  0.00     0.058 A 
ENDROOT
TORSDOF 0
ENDMDL
