MODEL 1
REMARK minimizedAffinity -5.67043638
REMARK minimizedRMSD -1
REMARK  0 active torsions:
REMARK  status: ('A' for Active; 'I' for Inactive)
ROOT
ATOM      1  O1  BZF d   1      -0.572   0.881  -0.021  0.00  0.00    -0.204 OA
ATOM      2  C2  BZF d   1      -1.399  -0.219   0.103  0.00  0.00     0.174 A 
ATOM      3  C3  BZF d   1      -0.742  -1.351  -0.223  0.00  0.00    -0.012 A 
ATOM      4  C3A BZF d   1       0.605  -0.942  -0.483  0.00  0.00    -0.107 A 
ATOM      5  C4  BZF d   1       1.738  -1.616  -0.838  0.00  0.00     0.055 A 
ATOM      6  C5  BZF d   1       2.874  -0.913  -1.087  0.00  0.00    -0.016 A 
ATOM      7  C6  BZF d   1       2.911   0.463  -0.994  0.00  0.00     0.022 A 
ATOM      8  C7  BZF d   1       1.813   1.175  -0.640  0.00  0.00     0.029 A 
ATOM      9  C7A BZF d   1       0.672   0.465  -0.357  0.00  0.00     0.058 A 
ENDROOT
TORSDOF 0
ENDMDL
