MODEL 1
REMARK minimizedAffinity -6.27769518
REMARK minimizedRMSD -1
REMARK  0 active torsions:
REMARK  status: ('A' for Active; 'I' for Inactive)
ROOT
ATOM      1  O1  BZF d   1      -0.204   0.871  -1.113  0.00  0.00    -0.204 OA
ATOM      2  C2  BZF d   1      -0.245   0.041  -0.009  0.00  0.00     0.174 A 
ATOM      3  C3  BZF d   1       0.925  -0.613   0.142  0.00  0.00    -0.012 A 
ATOM      4  C3A BZF d   1       1.780  -0.095  -0.882  0.00  0.00    -0.107 A 
ATOM      5  C4  BZF d   1       3.076  -0.341  -1.236  0.00  0.00     0.055 A 
ATOM      6  C5  BZF d   1       3.590   0.280  -2.330  0.00  0.00    -0.016 A 
ATOM      7  C6  BZF d   1       2.837   1.146  -3.095  0.00  0.00     0.022 A 
ATOM      8  C7  BZF d   1       1.549   1.426  -2.780  0.00  0.00     0.029 A 
ATOM      9  C7A BZF d   1       1.036   0.826  -1.656  0.00  0.00     0.058 A 
ENDROOT
TORSDOF 0
ENDMDL
