MODEL 1
REMARK minimizedAffinity -4.58827639
REMARK minimizedRMSD -1
REMARK  0 active torsions:
REMARK  status: ('A' for Active; 'I' for Inactive)
ROOT
ATOM      1  O1  BZF d   1       0.179   1.522  -1.487  0.00  0.00    -0.204 OA
ATOM      2  C2  BZF d   1      -1.128   1.357  -1.069  0.00  0.00     0.174 A 
ATOM      3  C3  BZF d   1      -1.310   0.130  -0.540  0.00  0.00    -0.012 A 
ATOM      4  C3A BZF d   1      -0.016  -0.480  -0.550  0.00  0.00    -0.107 A 
ATOM      5  C4  BZF d   1       0.453  -1.695  -0.138  0.00  0.00     0.055 A 
ATOM      6  C5  BZF d   1       1.757  -2.008  -0.356  0.00  0.00    -0.016 A 
ATOM      7  C6  BZF d   1       2.618  -1.134  -0.986  0.00  0.00     0.022 A 
ATOM      8  C7  BZF d   1       2.201   0.085  -1.408  0.00  0.00     0.029 A 
ATOM      9  C7A BZF d   1       0.892   0.417  -1.159  0.00  0.00     0.058 A 
ENDROOT
TORSDOF 0
ENDMDL
