MODEL 1
REMARK minimizedAffinity -5.00715923
REMARK minimizedRMSD -1
REMARK  0 active torsions:
REMARK  status: ('A' for Active; 'I' for Inactive)
ROOT
ATOM      1  O1  BZF d   1       2.810  -0.838  -1.330  0.00  0.00    -0.204 OA
ATOM      2  C2  BZF d   1       3.139   0.500  -1.436  0.00  0.00     0.174 A 
ATOM      3  C3  BZF d   1       2.078   1.278  -1.140  0.00  0.00    -0.012 A 
ATOM      4  C3A BZF d   1       1.046   0.372  -0.739  0.00  0.00    -0.107 A 
ATOM      5  C4  BZF d   1      -0.239   0.543  -0.312  0.00  0.00     0.055 A 
ATOM      6  C5  BZF d   1      -1.006  -0.553  -0.070  0.00  0.00    -0.016 A 
ATOM      7  C6  BZF d   1      -0.521  -1.832  -0.249  0.00  0.00     0.022 A 
ATOM      8  C7  BZF d   1       0.749  -2.052  -0.666  0.00  0.00     0.029 A 
ATOM      9  C7A BZF d   1       1.537  -0.947  -0.880  0.00  0.00     0.058 A 
ENDROOT
TORSDOF 0
ENDMDL
