MODEL 1
REMARK minimizedAffinity -6.15491199
REMARK minimizedRMSD -1
REMARK  0 active torsions:
REMARK  status: ('A' for Active; 'I' for Inactive)
ROOT
ATOM      1  O1  BZF d   1      -0.848   0.795  -0.434  0.00  0.00    -0.204 OA
ATOM      2  C2  BZF d   1      -1.011  -0.300   0.392  0.00  0.00     0.174 A 
ATOM      3  C3  BZF d   1       0.030  -1.149   0.272  0.00  0.00    -0.012 A 
ATOM      4  C3A BZF d   1       0.942  -0.502  -0.621  0.00  0.00    -0.107 A 
ATOM      5  C4  BZF d   1       2.168  -0.840  -1.118  0.00  0.00     0.055 A 
ATOM      6  C5  BZF d   1       2.761  -0.022  -2.027  0.00  0.00    -0.016 A 
ATOM      7  C6  BZF d   1       2.155   1.138  -2.464  0.00  0.00     0.022 A 
ATOM      8  C7  BZF d   1       0.941   1.518  -1.995  0.00  0.00     0.029 A 
ATOM      9  C7A BZF d   1       0.354   0.710  -1.052  0.00  0.00     0.058 A 
ENDROOT
TORSDOF 0
ENDMDL
