MODEL 1
REMARK minimizedAffinity -2.6681602
REMARK minimizedRMSD -1
REMARK  0 active torsions:
REMARK  status: ('A' for Active; 'I' for Inactive)
ROOT
ATOM      1  O1  BZF d   1      -1.594  -0.174   0.468  0.00  0.00    -0.204 OA
ATOM      2  C2  BZF d   1      -0.297  -0.140  -0.007  0.00  0.00     0.174 A 
ATOM      3  C3  BZF d   1       0.525   0.445   0.888  0.00  0.00    -0.012 A 
ATOM      4  C3A BZF d   1      -0.293   0.716   2.030  0.00  0.00    -0.107 A 
ATOM      5  C4  BZF d   1      -0.046   1.275   3.251  0.00  0.00     0.055 A 
ATOM      6  C5  BZF d   1      -1.079   1.462   4.113  0.00  0.00    -0.016 A 
ATOM      7  C6  BZF d   1      -2.372   1.108   3.785  0.00  0.00     0.022 A 
ATOM      8  C7  BZF d   1      -2.665   0.545   2.588  0.00  0.00     0.029 A 
ATOM      9  C7A BZF d   1      -1.618   0.324   1.727  0.00  0.00     0.058 A 
ENDROOT
TORSDOF 0
ENDMDL
