MODEL 1
REMARK minimizedAffinity -3.08092165
REMARK minimizedRMSD -1
REMARK  0 active torsions:
REMARK  status: ('A' for Active; 'I' for Inactive)
ROOT
ATOM      1  O1  BZF d   1      -1.335  -0.020  -0.116  0.00  0.00    -0.204 OA
ATOM      2  C2  BZF d   1      -1.242   1.320  -0.437  0.00  0.00     0.174 A 
ATOM      3  C3  BZF d   1       0.021   1.643  -0.783  0.00  0.00    -0.012 A 
ATOM      4  C3A BZF d   1       0.744   0.409  -0.760  0.00  0.00    -0.107 A 
ATOM      5  C4  BZF d   1       2.042   0.076  -1.027  0.00  0.00     0.055 A 
ATOM      6  C5  BZF d   1       2.446  -1.208  -0.839  0.00  0.00    -0.016 A 
ATOM      7  C6  BZF d   1       1.583  -2.182  -0.381  0.00  0.00     0.022 A 
ATOM      8  C7  BZF d   1       0.285  -1.901  -0.108  0.00  0.00     0.029 A 
ATOM      9  C7A BZF d   1      -0.135  -0.611  -0.328  0.00  0.00     0.058 A 
ENDROOT
TORSDOF 0
ENDMDL
