MODEL 1
REMARK minimizedAffinity -3.689538
REMARK minimizedRMSD -1
REMARK  0 active torsions:
REMARK  status: ('A' for Active; 'I' for Inactive)
ROOT
ATOM      1  O1  BZF d   1       0.988   1.549   0.335  0.00  0.00    -0.204 OA
ATOM      2  C2  BZF d   1      -0.336   1.411   0.705  0.00  0.00     0.174 A 
ATOM      3  C3  BZF d   1      -0.845   0.253   0.236  0.00  0.00    -0.012 A 
ATOM      4  C3A BZF d   1       0.253  -0.414  -0.392  0.00  0.00    -0.107 A 
ATOM      5  C4  BZF d   1       0.381  -1.615  -1.030  0.00  0.00     0.055 A 
ATOM      6  C5  BZF d   1       1.574  -1.938  -1.596  0.00  0.00    -0.016 A 
ATOM      7  C6  BZF d   1       2.656  -1.084  -1.548  0.00  0.00     0.022 A 
ATOM      8  C7  BZF d   1       2.578   0.116  -0.922  0.00  0.00     0.029 A 
ATOM      9  C7A BZF d   1       1.384   0.431  -0.321  0.00  0.00     0.058 A 
ENDROOT
TORSDOF 0
ENDMDL
