MODEL 1
REMARK minimizedAffinity -3.15196586
REMARK minimizedRMSD -1
REMARK  0 active torsions:
REMARK  status: ('A' for Active; 'I' for Inactive)
ROOT
ATOM      1  O1  BZF d   1       0.031   0.744   0.617  0.00  0.00    -0.204 OA
ATOM      2  C2  BZF d   1      -0.132  -0.408  -0.128  0.00  0.00     0.174 A 
ATOM      3  C3  BZF d   1      -1.180  -1.125   0.325  0.00  0.00    -0.012 A 
ATOM      4  C3A BZF d   1      -1.761  -0.329   1.362  0.00  0.00    -0.107 A 
ATOM      5  C4  BZF d   1      -2.840  -0.498   2.182  0.00  0.00     0.055 A 
ATOM      6  C5  BZF d   1      -3.094   0.433   3.139  0.00  0.00    -0.016 A 
ATOM      7  C6  BZF d   1      -2.289   1.540   3.307  0.00  0.00     0.022 A 
ATOM      8  C7  BZF d   1      -1.210   1.753   2.515  0.00  0.00     0.029 A 
ATOM      9  C7A BZF d   1      -0.970   0.831   1.525  0.00  0.00     0.058 A 
ENDROOT
TORSDOF 0
ENDMDL
