MODEL 1
REMARK minimizedAffinity -2.09980035
REMARK minimizedRMSD -1
REMARK  0 active torsions:
REMARK  status: ('A' for Active; 'I' for Inactive)
ROOT
ATOM      1  O1  BZF d   1       2.044  -0.244  -1.542  0.00  0.00    -0.204 OA
ATOM      2  C2  BZF d   1       2.212  -1.518  -1.034  0.00  0.00     0.174 A 
ATOM      3  C3  BZF d   1       1.254  -1.802  -0.128  0.00  0.00    -0.012 A 
ATOM      4  C3A BZF d   1       0.383  -0.667  -0.134  0.00  0.00    -0.107 A 
ATOM      5  C4  BZF d   1      -0.763  -0.360   0.543  0.00  0.00     0.055 A 
ATOM      6  C5  BZF d   1      -1.329   0.862   0.362  0.00  0.00    -0.016 A 
ATOM      7  C6  BZF d   1      -0.776   1.801  -0.484  0.00  0.00     0.022 A 
ATOM      8  C7  BZF d   1       0.357   1.540  -1.181  0.00  0.00     0.029 A 
ATOM      9  C7A BZF d   1       0.914   0.294  -1.025  0.00  0.00     0.058 A 
ENDROOT
TORSDOF 0
ENDMDL
