MODEL 1
REMARK minimizedAffinity 8.39041996
REMARK minimizedRMSD -1
REMARK  0 active torsions:
REMARK  status: ('A' for Active; 'I' for Inactive)
ROOT
ATOM      1  C   UNL d   1       0.929  -0.287  -0.593  0.00  0.00     0.023 A 
ATOM      2  C1  UNL d   1       1.391   0.461   0.491  0.00  0.00     0.003 A 
ATOM      3  C2  UNL d   1       1.660   1.822   0.337  0.00  0.00     0.048 A 
ATOM      4  C3  UNL d   1       1.464   2.430  -0.903  0.00  0.00     0.023 A 
ATOM      5  C4  UNL d   1       1.001   1.686  -1.989  0.00  0.00     0.048 A 
ATOM      6  C5  UNL d   1       0.734   0.325  -1.831  0.00  0.00     0.003 A 
ATOM      7  I   UNL d   1       1.864   4.456  -1.134  0.00  0.00    -0.146 I 
ENDROOT
TORSDOF 0
ENDMDL
