MODEL 1
REMARK minimizedAffinity 5.15524864
REMARK minimizedRMSD -1
REMARK  0 active torsions:
REMARK  status: ('A' for Active; 'I' for Inactive)
ROOT
ATOM      1  C   UNL d   1       0.994   0.172  -2.393  0.00  0.00     0.023 A 
ATOM      2  C1  UNL d   1       1.225   1.545  -2.310  0.00  0.00     0.003 A 
ATOM      3  C2  UNL d   1       1.415   2.149  -1.065  0.00  0.00     0.048 A 
ATOM      4  C3  UNL d   1       1.374   1.373   0.093  0.00  0.00     0.023 A 
ATOM      5  C4  UNL d   1       1.144  -0.001   0.015  0.00  0.00     0.048 A 
ATOM      6  C5  UNL d   1       0.953  -0.600  -1.232  0.00  0.00     0.003 A 
ATOM      7  I   UNL d   1       1.657   2.269   1.947  0.00  0.00    -0.146 I 
ENDROOT
TORSDOF 0
ENDMDL
