MODEL 1
REMARK minimizedAffinity 1.86978555
REMARK minimizedRMSD -1
REMARK  0 active torsions:
REMARK  status: ('A' for Active; 'I' for Inactive)
ROOT
ATOM      1  C   UNL d   1       1.650   1.402  -0.214  0.00  0.00     0.023 A 
ATOM      2  C1  UNL d   1       1.517   0.311   0.645  0.00  0.00     0.003 A 
ATOM      3  C2  UNL d   1       0.894  -0.857   0.202  0.00  0.00     0.048 A 
ATOM      4  C3  UNL d   1       0.406  -0.929  -1.102  0.00  0.00     0.023 A 
ATOM      5  C4  UNL d   1       0.536   0.160  -1.966  0.00  0.00     0.048 A 
ATOM      6  C5  UNL d   1       1.160   1.326  -1.518  0.00  0.00     0.003 A 
ATOM      7  I   UNL d   1      -0.523  -2.667  -1.763  0.00  0.00    -0.146 I 
ENDROOT
TORSDOF 0
ENDMDL
