MODEL 1
REMARK minimizedAffinity 2.86914039
REMARK minimizedRMSD -1
REMARK  0 active torsions:
REMARK  status: ('A' for Active; 'I' for Inactive)
ROOT
ATOM      1  C   UNL d   1       0.969   0.049  -2.603  0.00  0.00     0.023 A 
ATOM      2  C1  UNL d   1       0.391  -0.784  -1.645  0.00  0.00     0.003 A 
ATOM      3  C2  UNL d   1       0.457  -0.445  -0.292  0.00  0.00     0.048 A 
ATOM      4  C3  UNL d   1       1.103   0.729   0.096  0.00  0.00     0.023 A 
ATOM      5  C4  UNL d   1       1.682   1.565  -0.860  0.00  0.00     0.048 A 
ATOM      6  C5  UNL d   1       1.614   1.222  -2.211  0.00  0.00     0.003 A 
ATOM      7  I   UNL d   1       1.203   1.236   2.109  0.00  0.00    -0.146 I 
ENDROOT
TORSDOF 0
ENDMDL
