MODEL 1
REMARK minimizedAffinity 3.65658808
REMARK minimizedRMSD -1
REMARK  0 active torsions:
REMARK  status: ('A' for Active; 'I' for Inactive)
ROOT
ATOM      1  C   UNL d   1       1.158   1.800   0.532  0.00  0.00     0.023 A 
ATOM      2  C1  UNL d   1       0.648   0.504   0.452  0.00  0.00     0.003 A 
ATOM      3  C2  UNL d   1       0.786  -0.230  -0.728  0.00  0.00     0.048 A 
ATOM      4  C3  UNL d   1       1.437   0.338  -1.823  0.00  0.00     0.023 A 
ATOM      5  C4  UNL d   1       1.949   1.634  -1.747  0.00  0.00     0.048 A 
ATOM      6  C5  UNL d   1       1.808   2.364  -0.566  0.00  0.00     0.003 A 
ATOM      7  I   UNL d   1       1.644  -0.753  -3.580  0.00  0.00    -0.146 I 
ENDROOT
TORSDOF 0
ENDMDL
