MODEL 1
REMARK minimizedAffinity 6.45099545
REMARK minimizedRMSD -1
REMARK  0 active torsions:
REMARK  status: ('A' for Active; 'I' for Inactive)
ROOT
ATOM      1  C   UNL d   1       0.419   0.170  -2.450  0.00  0.00     0.023 A 
ATOM      2  C1  UNL d   1       1.170   1.339  -2.321  0.00  0.00     0.003 A 
ATOM      3  C2  UNL d   1       1.663   1.719  -1.071  0.00  0.00     0.048 A 
ATOM      4  C3  UNL d   1       1.402   0.926   0.046  0.00  0.00     0.023 A 
ATOM      5  C4  UNL d   1       0.652  -0.244  -0.078  0.00  0.00     0.048 A 
ATOM      6  C5  UNL d   1       0.160  -0.620  -1.330  0.00  0.00     0.003 A 
ATOM      7  I   UNL d   1       2.134   1.491   1.907  0.00  0.00    -0.146 I 
ENDROOT
TORSDOF 0
ENDMDL
