MODEL 1
REMARK minimizedAffinity 2.97189999
REMARK minimizedRMSD -1
REMARK  0 active torsions:
REMARK  status: ('A' for Active; 'I' for Inactive)
ROOT
ATOM      1  C   UNL d   1      -3.501   2.691   1.344  0.00  0.00     0.023 A 
ATOM      2  C1  UNL d   1      -2.408   3.088   2.114  0.00  0.00     0.003 A 
ATOM      3  C2  UNL d   1      -2.148   2.461   3.334  0.00  0.00     0.048 A 
ATOM      4  C3  UNL d   1      -2.984   1.437   3.777  0.00  0.00     0.023 A 
ATOM      5  C4  UNL d   1      -4.078   1.036   3.009  0.00  0.00     0.048 A 
ATOM      6  C5  UNL d   1      -4.335   1.666   1.790  0.00  0.00     0.003 A 
ATOM      7  I   UNL d   1      -2.598   0.502   5.593  0.00  0.00    -0.146 I 
ENDROOT
TORSDOF 0
ENDMDL
