MODEL 1
REMARK minimizedAffinity 0.0173179414
REMARK minimizedRMSD -1
REMARK  0 active torsions:
REMARK  status: ('A' for Active; 'I' for Inactive)
ROOT
ATOM      1  C   UNL d   1       1.620  -3.055  -0.191  0.00  0.00     0.023 A 
ATOM      2  C1  UNL d   1       2.787  -2.296  -0.273  0.00  0.00     0.003 A 
ATOM      3  C2  UNL d   1       2.734  -0.980  -0.739  0.00  0.00     0.048 A 
ATOM      4  C3  UNL d   1       1.511  -0.430  -1.119  0.00  0.00     0.023 A 
ATOM      5  C4  UNL d   1       0.340  -1.186  -1.038  0.00  0.00     0.048 A 
ATOM      6  C5  UNL d   1       0.398  -2.501  -0.573  0.00  0.00     0.003 A 
ATOM      7  I   UNL d   1       1.429   1.528  -1.812  0.00  0.00    -0.146 I 
ENDROOT
TORSDOF 0
ENDMDL
