MODEL 1
REMARK minimizedAffinity 6.89134264
REMARK minimizedRMSD -1
REMARK  0 active torsions:
REMARK  status: ('A' for Active; 'I' for Inactive)
ROOT
ATOM      1  C   UNL d   1      -3.190   3.044   0.587  0.00  0.00     0.023 A 
ATOM      2  C1  UNL d   1      -2.367   3.634   1.547  0.00  0.00     0.003 A 
ATOM      3  C2  UNL d   1      -2.259   3.068   2.819  0.00  0.00     0.048 A 
ATOM      4  C3  UNL d   1      -2.976   1.912   3.124  0.00  0.00     0.023 A 
ATOM      5  C4  UNL d   1      -3.800   1.318   2.167  0.00  0.00     0.048 A 
ATOM      6  C5  UNL d   1      -3.905   1.888   0.896  0.00  0.00     0.003 A 
ATOM      7  I   UNL d   1      -2.818   1.068   5.017  0.00  0.00    -0.146 I 
ENDROOT
TORSDOF 0
ENDMDL
