MODEL 1
REMARK minimizedAffinity 2.70296597
REMARK minimizedRMSD -1
REMARK  0 active torsions:
REMARK  status: ('A' for Active; 'I' for Inactive)
ROOT
ATOM      1  C   UNL d   1       0.593  -0.037  -1.183  0.00  0.00     0.023 A 
ATOM      2  C1  UNL d   1       0.040   0.145   0.084  0.00  0.00     0.003 A 
ATOM      3  C2  UNL d   1       0.713   0.911   1.038  0.00  0.00     0.048 A 
ATOM      4  C3  UNL d   1       1.939   1.493   0.718  0.00  0.00     0.023 A 
ATOM      5  C4  UNL d   1       2.497   1.314  -0.549  0.00  0.00     0.048 A 
ATOM      6  C5  UNL d   1       1.820   0.547  -1.500  0.00  0.00     0.003 A 
ATOM      7  I   UNL d   1       2.943   2.633   2.136  0.00  0.00    -0.146 I 
ENDROOT
TORSDOF 0
ENDMDL
