MODEL 1
REMARK minimizedAffinity 2.45864463
REMARK minimizedRMSD -1
REMARK  0 active torsions:
REMARK  status: ('A' for Active; 'I' for Inactive)
ROOT
ATOM      1  C   UNL d   1       1.346  -0.480  -0.511  0.00  0.00     0.023 A 
ATOM      2  C1  UNL d   1       2.681  -0.244  -0.181  0.00  0.00     0.003 A 
ATOM      3  C2  UNL d   1       3.021   0.847   0.621  0.00  0.00     0.048 A 
ATOM      4  C3  UNL d   1       2.022   1.698   1.091  0.00  0.00     0.023 A 
ATOM      5  C4  UNL d   1       0.685   1.466   0.764  0.00  0.00     0.048 A 
ATOM      6  C5  UNL d   1       0.349   0.375  -0.039  0.00  0.00     0.003 A 
ATOM      7  I   UNL d   1       2.526   3.323   2.285  0.00  0.00    -0.146 I 
ENDROOT
TORSDOF 0
ENDMDL
