MODEL 1
REMARK minimizedAffinity 2.4044838
REMARK minimizedRMSD -1
REMARK  0 active torsions:
REMARK  status: ('A' for Active; 'I' for Inactive)
ROOT
ATOM      1  C   UNL d   1       0.503   1.833  -0.400  0.00  0.00     0.023 A 
ATOM      2  C1  UNL d   1       0.266   0.846  -1.358  0.00  0.00     0.003 A 
ATOM      3  C2  UNL d   1       0.597  -0.483  -1.090  0.00  0.00     0.048 A 
ATOM      4  C3  UNL d   1       1.165  -0.820   0.139  0.00  0.00     0.023 A 
ATOM      5  C4  UNL d   1       1.403   0.163   1.101  0.00  0.00     0.048 A 
ATOM      6  C5  UNL d   1       1.071   1.491   0.828  0.00  0.00     0.003 A 
ATOM      7  I   UNL d   1       1.658  -2.799   0.541  0.00  0.00    -0.146 I 
ENDROOT
TORSDOF 0
ENDMDL
