MODEL 1
REMARK minimizedAffinity 4.27522802
REMARK minimizedRMSD -1
REMARK  0 active torsions:
REMARK  status: ('A' for Active; 'I' for Inactive)
ROOT
ATOM      1  C   UNL d   1       0.503   1.711  -0.717  0.00  0.00     0.023 A 
ATOM      2  C1  UNL d   1       0.766   1.364   0.608  0.00  0.00     0.003 A 
ATOM      3  C2  UNL d   1       1.693   0.361   0.898  0.00  0.00     0.048 A 
ATOM      4  C3  UNL d   1       2.355  -0.291  -0.142  0.00  0.00     0.023 A 
ATOM      5  C4  UNL d   1       2.096   0.054  -1.470  0.00  0.00     0.048 A 
ATOM      6  C5  UNL d   1       1.167   1.057  -1.755  0.00  0.00     0.003 A 
ATOM      7  I   UNL d   1       3.735  -1.784   0.287  0.00  0.00    -0.146 I 
ENDROOT
TORSDOF 0
ENDMDL
