MODEL 1
REMARK minimizedAffinity 3.6627562
REMARK minimizedRMSD -1
REMARK  0 active torsions:
REMARK  status: ('A' for Active; 'I' for Inactive)
ROOT
ATOM      1  C   UNL d   1       0.172   1.838  -0.200  0.00  0.00     0.023 A 
ATOM      2  C1  UNL d   1       1.042   1.854   0.890  0.00  0.00     0.003 A 
ATOM      3  C2  UNL d   1       1.977   0.830   1.054  0.00  0.00     0.048 A 
ATOM      4  C3  UNL d   1       2.037  -0.207   0.124  0.00  0.00     0.023 A 
ATOM      5  C4  UNL d   1       1.169  -0.227  -0.969  0.00  0.00     0.048 A 
ATOM      6  C5  UNL d   1       0.235   0.799  -1.128  0.00  0.00     0.003 A 
ATOM      7  I   UNL d   1       3.428  -1.732   0.365  0.00  0.00    -0.146 I 
ENDROOT
TORSDOF 0
ENDMDL
