MODEL 1
REMARK minimizedAffinity -0.548664212
REMARK minimizedRMSD -1
REMARK  0 active torsions:
REMARK  status: ('A' for Active; 'I' for Inactive)
ROOT
ATOM      1  C   UNL d   1       0.489   1.940  -0.524  0.00  0.00     0.023 A 
ATOM      2  C1  UNL d   1       1.016   1.174  -1.564  0.00  0.00     0.003 A 
ATOM      3  C2  UNL d   1       2.023   0.242  -1.306  0.00  0.00     0.048 A 
ATOM      4  C3  UNL d   1       2.497   0.079  -0.005  0.00  0.00     0.023 A 
ATOM      5  C4  UNL d   1       1.972   0.842   1.040  0.00  0.00     0.048 A 
ATOM      6  C5  UNL d   1       0.966   1.774   0.776  0.00  0.00     0.003 A 
ATOM      7  I   UNL d   1       3.996  -1.308   0.383  0.00  0.00    -0.146 I 
ENDROOT
TORSDOF 0
ENDMDL
