MODEL 1
REMARK minimizedAffinity 4.13207722
REMARK minimizedRMSD -1
REMARK  0 active torsions:
REMARK  status: ('A' for Active; 'I' for Inactive)
ROOT
ATOM      1  C   UNL d   1       1.224   1.570   0.799  0.00  0.00     0.023 A 
ATOM      2  C1  UNL d   1       1.651   0.369   1.366  0.00  0.00     0.003 A 
ATOM      3  C2  UNL d   1       1.295  -0.847   0.779  0.00  0.00     0.048 A 
ATOM      4  C3  UNL d   1       0.514  -0.855  -0.376  0.00  0.00     0.023 A 
ATOM      5  C4  UNL d   1       0.085   0.344  -0.947  0.00  0.00     0.048 A 
ATOM      6  C5  UNL d   1       0.442   1.557  -0.356  0.00  0.00     0.003 A 
ATOM      7  I   UNL d   1      -0.016  -2.664  -1.251  0.00  0.00    -0.146 I 
ENDROOT
TORSDOF 0
ENDMDL
