MODEL 1
REMARK minimizedAffinity -3.00349927
REMARK minimizedRMSD -1
REMARK  0 active torsions:
REMARK  status: ('A' for Active; 'I' for Inactive)
ROOT
ATOM      1  C   UNL d   1       1.581   2.456   0.172  0.00  0.00     0.023 A 
ATOM      2  C1  UNL d   1       0.778   1.733  -0.709  0.00  0.00     0.003 A 
ATOM      3  C2  UNL d   1      -0.001   0.674  -0.238  0.00  0.00     0.048 A 
ATOM      4  C3  UNL d   1       0.028   0.345   1.117  0.00  0.00     0.023 A 
ATOM      5  C4  UNL d   1       0.830   1.067   2.003  0.00  0.00     0.048 A 
ATOM      6  C5  UNL d   1       1.607   2.124   1.526  0.00  0.00     0.003 A 
ATOM      7  I   UNL d   1      -1.131  -1.230   1.822  0.00  0.00    -0.146 I 
ENDROOT
TORSDOF 0
ENDMDL
