MODEL 1
REMARK minimizedAffinity -0.289685696
REMARK minimizedRMSD -1
REMARK  0 active torsions:
REMARK  status: ('A' for Active; 'I' for Inactive)
ROOT
ATOM      1  C   UNL d   1      -2.676  -1.514  -3.484  0.00  0.00     0.023 A 
ATOM      2  C1  UNL d   1      -1.560  -0.773  -3.874  0.00  0.00     0.003 A 
ATOM      3  C2  UNL d   1      -0.688  -0.263  -2.910  0.00  0.00     0.048 A 
ATOM      4  C3  UNL d   1      -0.937  -0.498  -1.559  0.00  0.00     0.023 A 
ATOM      5  C4  UNL d   1      -2.052  -1.239  -1.164  0.00  0.00     0.048 A 
ATOM      6  C5  UNL d   1      -2.922  -1.746  -2.131  0.00  0.00     0.003 A 
ATOM      7  I   UNL d   1       0.360   0.260  -0.122  0.00  0.00    -0.146 I 
ENDROOT
TORSDOF 0
ENDMDL
