MODEL 1
REMARK minimizedAffinity -1.90010262
REMARK minimizedRMSD -1
REMARK  0 active torsions:
REMARK  status: ('A' for Active; 'I' for Inactive)
ROOT
ATOM      1  C   UNL d   1       0.363   1.971   1.918  0.00  0.00     0.023 A 
ATOM      2  C1  UNL d   1      -0.795   1.221   2.125  0.00  0.00     0.003 A 
ATOM      3  C2  UNL d   1      -1.194   0.275   1.178  0.00  0.00     0.048 A 
ATOM      4  C3  UNL d   1      -0.430   0.084   0.028  0.00  0.00     0.023 A 
ATOM      5  C4  UNL d   1       0.730   0.832  -0.183  0.00  0.00     0.048 A 
ATOM      6  C5  UNL d   1       1.124   1.777   0.766  0.00  0.00     0.003 A 
ATOM      7  I   UNL d   1      -1.021  -1.323  -1.383  0.00  0.00    -0.146 I 
ENDROOT
TORSDOF 0
ENDMDL
