MODEL 1
REMARK minimizedAffinity -4.16803789
REMARK minimizedRMSD -1
REMARK  0 active torsions:
REMARK  status: ('A' for Active; 'I' for Inactive)
ROOT
ATOM      1  C   UNL d   1       0.476  -1.765  -0.833  0.00  0.00     0.023 A 
ATOM      2  C1  UNL d   1      -0.576  -1.250  -0.075  0.00  0.00     0.003 A 
ATOM      3  C2  UNL d   1      -0.431  -0.029   0.586  0.00  0.00     0.048 A 
ATOM      4  C3  UNL d   1       0.769   0.674   0.483  0.00  0.00     0.023 A 
ATOM      5  C4  UNL d   1       1.824   0.164  -0.276  0.00  0.00     0.048 A 
ATOM      6  C5  UNL d   1       1.675  -1.058  -0.933  0.00  0.00     0.003 A 
ATOM      7  I   UNL d   1       0.988   2.493   1.464  0.00  0.00    -0.146 I 
ENDROOT
TORSDOF 0
ENDMDL
