MODEL 1
REMARK minimizedAffinity -1.99005318
REMARK minimizedRMSD -1
REMARK  0 active torsions:
REMARK  status: ('A' for Active; 'I' for Inactive)
ROOT
ATOM      1  C   UNL d   1       0.693   1.506   1.288  0.00  0.00     0.023 A 
ATOM      2  C1  UNL d   1      -0.193   0.442   1.452  0.00  0.00     0.003 A 
ATOM      3  C2  UNL d   1      -0.827  -0.119   0.340  0.00  0.00     0.048 A 
ATOM      4  C3  UNL d   1      -0.568   0.390  -0.932  0.00  0.00     0.023 A 
ATOM      5  C4  UNL d   1       0.318   1.455  -1.101  0.00  0.00     0.048 A 
ATOM      6  C5  UNL d   1       0.948   2.012   0.014  0.00  0.00     0.003 A 
ATOM      7  I   UNL d   1      -1.509  -0.442  -2.588  0.00  0.00    -0.146 I 
ENDROOT
TORSDOF 0
ENDMDL
