MODEL 1
REMARK minimizedAffinity -4.7076478
REMARK minimizedRMSD -1
REMARK  0 active torsions:
REMARK  status: ('A' for Active; 'I' for Inactive)
ROOT
ATOM      1  C   UNL d   1       1.191   2.176   1.495  0.00  0.00     0.023 A 
ATOM      2  C1  UNL d   1      -0.006   1.555   1.852  0.00  0.00     0.003 A 
ATOM      3  C2  UNL d   1      -0.536   0.544   1.047  0.00  0.00     0.048 A 
ATOM      4  C3  UNL d   1       0.136   0.159  -0.113  0.00  0.00     0.023 A 
ATOM      5  C4  UNL d   1       1.334   0.778  -0.473  0.00  0.00     0.048 A 
ATOM      6  C5  UNL d   1       1.860   1.789   0.334  0.00  0.00     0.003 A 
ATOM      7  I   UNL d   1      -0.651  -1.345  -1.312  0.00  0.00    -0.146 I 
ENDROOT
TORSDOF 0
ENDMDL
