MODEL 1
REMARK minimizedAffinity -2.8360033
REMARK minimizedRMSD -1
REMARK  0 active torsions:
REMARK  status: ('A' for Active; 'I' for Inactive)
ROOT
ATOM      1  C   UNL d   1      -1.748   5.177  -3.607  0.00  0.00     0.023 A 
ATOM      2  C1  UNL d   1      -1.729   5.764  -4.872  0.00  0.00     0.003 A 
ATOM      3  C2  UNL d   1      -2.926   6.000  -5.552  0.00  0.00     0.048 A 
ATOM      4  C3  UNL d   1      -4.138   5.647  -4.960  0.00  0.00     0.023 A 
ATOM      5  C4  UNL d   1      -4.162   5.061  -3.693  0.00  0.00     0.048 A 
ATOM      6  C5  UNL d   1      -2.963   4.827  -3.018  0.00  0.00     0.003 A 
ATOM      7  I   UNL d   1      -5.921   5.998  -5.969  0.00  0.00    -0.146 I 
ENDROOT
TORSDOF 0
ENDMDL
