MODEL 1
REMARK minimizedAffinity -3.09640813
REMARK minimizedRMSD -1
REMARK  0 active torsions:
REMARK  status: ('A' for Active; 'I' for Inactive)
ROOT
ATOM      1  C   UNL d   1       0.190   2.776   1.392  0.00  0.00     0.023 A 
ATOM      2  C1  UNL d   1       1.144   2.945   0.389  0.00  0.00     0.003 A 
ATOM      3  C2  UNL d   1       1.688   1.830  -0.254  0.00  0.00     0.048 A 
ATOM      4  C3  UNL d   1       1.271   0.550   0.112  0.00  0.00     0.023 A 
ATOM      5  C4  UNL d   1       0.316   0.377   1.115  0.00  0.00     0.048 A 
ATOM      6  C5  UNL d   1      -0.224   1.495   1.755  0.00  0.00     0.003 A 
ATOM      7  I   UNL d   1       2.079  -1.110  -0.843  0.00  0.00    -0.146 I 
ENDROOT
TORSDOF 0
ENDMDL
