MODEL 1
REMARK minimizedAffinity -2.81161046
REMARK minimizedRMSD -1
REMARK  0 active torsions:
REMARK  status: ('A' for Active; 'I' for Inactive)
ROOT
ATOM      1  C   UNL d   1       1.096   1.701   2.155  0.00  0.00     0.023 A 
ATOM      2  C1  UNL d   1      -0.135   1.167   2.537  0.00  0.00     0.003 A 
ATOM      3  C2  UNL d   1      -0.854   0.362   1.650  0.00  0.00     0.048 A 
ATOM      4  C3  UNL d   1      -0.336   0.095   0.384  0.00  0.00     0.023 A 
ATOM      5  C4  UNL d   1       0.896   0.626  -0.002  0.00  0.00     0.048 A 
ATOM      6  C5  UNL d   1       1.611   1.430   0.887  0.00  0.00     0.003 A 
ATOM      7  I   UNL d   1      -1.404  -1.102  -0.937  0.00  0.00    -0.146 I 
ENDROOT
TORSDOF 0
ENDMDL
