MODEL 1
REMARK minimizedAffinity -3.89812398
REMARK minimizedRMSD -1
REMARK  0 active torsions:
REMARK  status: ('A' for Active; 'I' for Inactive)
ROOT
ATOM      1  C   UNL d   1       3.186   1.598   0.980  0.00  0.00     0.023 A 
ATOM      2  C1  UNL d   1       1.889   1.871   1.415  0.00  0.00     0.003 A 
ATOM      3  C2  UNL d   1       0.833   1.045   1.025  0.00  0.00     0.048 A 
ATOM      4  C3  UNL d   1       1.081  -0.053   0.202  0.00  0.00     0.023 A 
ATOM      5  C4  UNL d   1       2.377  -0.331  -0.234  0.00  0.00     0.048 A 
ATOM      6  C5  UNL d   1       3.430   0.498   0.157  0.00  0.00     0.003 A 
ATOM      7  I   UNL d   1      -0.490  -1.284  -0.379  0.00  0.00    -0.146 I 
ENDROOT
TORSDOF 0
ENDMDL
