MODEL 1
REMARK minimizedAffinity -3.99324369
REMARK minimizedRMSD -1
REMARK  0 active torsions:
REMARK  status: ('A' for Active; 'I' for Inactive)
ROOT
ATOM      1  C   UNL d   1       1.130   2.401   2.197  0.00  0.00     0.023 A 
ATOM      2  C1  UNL d   1       1.468   2.357   0.845  0.00  0.00     0.003 A 
ATOM      3  C2  UNL d   1       0.971   1.336   0.032  0.00  0.00     0.048 A 
ATOM      4  C3  UNL d   1       0.135   0.363   0.578  0.00  0.00     0.023 A 
ATOM      5  C4  UNL d   1      -0.207   0.403   1.931  0.00  0.00     0.048 A 
ATOM      6  C5  UNL d   1       0.294   1.425   2.740  0.00  0.00     0.003 A 
ATOM      7  I   UNL d   1      -0.607  -1.157  -0.629  0.00  0.00    -0.146 I 
ENDROOT
TORSDOF 0
ENDMDL
