MODEL 1
REMARK minimizedAffinity -0.956787109
REMARK minimizedRMSD -1
REMARK  0 active torsions:
REMARK  status: ('A' for Active; 'I' for Inactive)
ROOT
ATOM      1  C   UNL d   1       2.111   1.851   1.851  0.00  0.00     0.023 A 
ATOM      2  C1  UNL d   1       0.742   1.626   1.998  0.00  0.00     0.003 A 
ATOM      3  C2  UNL d   1       0.102   0.668   1.208  0.00  0.00     0.048 A 
ATOM      4  C3  UNL d   1       0.838  -0.062   0.275  0.00  0.00     0.023 A 
ATOM      5  C4  UNL d   1       2.208   0.159   0.126  0.00  0.00     0.048 A 
ATOM      6  C5  UNL d   1       2.843   1.119   0.917  0.00  0.00     0.003 A 
ATOM      7  I   UNL d   1      -0.112  -1.489  -0.900  0.00  0.00    -0.146 I 
ENDROOT
TORSDOF 0
ENDMDL
