MODEL 1
REMARK minimizedAffinity -2.87413836
REMARK minimizedRMSD -1
REMARK  0 active torsions:
REMARK  status: ('A' for Active; 'I' for Inactive)
ROOT
ATOM      1  C   UNL d   1      -1.656  -1.051  -3.208  0.00  0.00     0.023 A 
ATOM      2  C1  UNL d   1      -2.980  -1.215  -3.616  0.00  0.00     0.003 A 
ATOM      3  C2  UNL d   1      -3.899  -1.842  -2.772  0.00  0.00     0.048 A 
ATOM      4  C3  UNL d   1      -3.489  -2.301  -1.521  0.00  0.00     0.023 A 
ATOM      5  C4  UNL d   1      -2.165  -2.138  -1.108  0.00  0.00     0.048 A 
ATOM      6  C5  UNL d   1      -1.249  -1.512  -1.955  0.00  0.00     0.003 A 
ATOM      7  I   UNL d   1      -4.855  -3.234  -0.264  0.00  0.00    -0.146 I 
ENDROOT
TORSDOF 0
ENDMDL
