MODEL 1
REMARK minimizedAffinity -4.09738159
REMARK minimizedRMSD -1
REMARK  0 active torsions:
REMARK  status: ('A' for Active; 'I' for Inactive)
ROOT
ATOM      1  C   UNL d   1       1.238   2.532   1.604  0.00  0.00     0.023 A 
ATOM      2  C1  UNL d   1       1.815   2.141   0.396  0.00  0.00     0.003 A 
ATOM      3  C2  UNL d   1       1.263   1.087  -0.335  0.00  0.00     0.048 A 
ATOM      4  C3  UNL d   1       0.131   0.430   0.147  0.00  0.00     0.023 A 
ATOM      5  C4  UNL d   1      -0.451   0.818   1.355  0.00  0.00     0.048 A 
ATOM      6  C5  UNL d   1       0.106   1.872   2.083  0.00  0.00     0.003 A 
ATOM      7  I   UNL d   1      -0.693  -1.138  -0.939  0.00  0.00    -0.146 I 
ENDROOT
TORSDOF 0
ENDMDL
