MODEL 1
REMARK minimizedAffinity -1.95840728
REMARK minimizedRMSD -1
REMARK  0 active torsions:
REMARK  status: ('A' for Active; 'I' for Inactive)
ROOT
ATOM      1  C   UNL d   1      -0.912   1.315   1.978  0.00  0.00     0.023 A 
ATOM      2  C1  UNL d   1       0.048   2.132   1.381  0.00  0.00     0.003 A 
ATOM      3  C2  UNL d   1       1.055   1.569   0.594  0.00  0.00     0.048 A 
ATOM      4  C3  UNL d   1       1.094   0.187   0.407  0.00  0.00     0.023 A 
ATOM      5  C4  UNL d   1       0.135  -0.634   1.001  0.00  0.00     0.048 A 
ATOM      6  C5  UNL d   1      -0.869  -0.066   1.788  0.00  0.00     0.003 A 
ATOM      7  I   UNL d   1       2.591  -0.654  -0.764  0.00  0.00    -0.146 I 
ENDROOT
TORSDOF 0
ENDMDL
