MODEL 1
REMARK minimizedAffinity -2.9687345
REMARK minimizedRMSD -1
REMARK  0 active torsions:
REMARK  status: ('A' for Active; 'I' for Inactive)
ROOT
ATOM      1  C   UNL d   1      -0.034  -1.442  -0.444  0.00  0.00     0.023 A 
ATOM      2  C1  UNL d   1       1.145  -0.836  -0.878  0.00  0.00     0.003 A 
ATOM      3  C2  UNL d   1       1.580   0.352  -0.289  0.00  0.00     0.048 A 
ATOM      4  C3  UNL d   1       0.831   0.930   0.736  0.00  0.00     0.023 A 
ATOM      5  C4  UNL d   1      -0.349   0.327   1.175  0.00  0.00     0.048 A 
ATOM      6  C5  UNL d   1      -0.780  -0.860   0.582  0.00  0.00     0.003 A 
ATOM      7  I   UNL d   1       1.476   2.699   1.616  0.00  0.00    -0.146 I 
ENDROOT
TORSDOF 0
ENDMDL
