MODEL 1
REMARK minimizedAffinity 4.56770468
REMARK minimizedRMSD -1
REMARK  1 active torsions:
REMARK  status: ('A' for Active; 'I' for Inactive)
REMARK    1  A    between atoms: C1_2  and  C2_3 
ROOT
ATOM      1  C2  UNL d   1      -4.496  -3.668  -4.203  0.00  0.00    -0.076 A 
ATOM      2  C3  UNL d   1      -5.115  -3.548  -5.460  0.00  0.00     0.004 A 
ATOM      3  C4  UNL d   1      -5.856  -4.599  -5.998  0.00  0.00    -0.003 A 
ATOM      4  C5  UNL d   1      -5.990  -5.787  -5.288  0.00  0.00     0.000 A 
ATOM      5  C6  UNL d   1      -5.397  -5.918  -4.033  0.00  0.00     0.000 A 
ATOM      6  C7  UNL d   1      -4.661  -4.862  -3.469  0.00  0.00    -0.073 A 
ATOM      7  C8  UNL d   1      -4.038  -5.060  -2.114  0.00  0.00     0.078 C 
ENDROOT
BRANCH   1   8
ATOM      8  C1  UNL d   1      -3.683  -2.505  -3.682  0.00  0.00     0.053 C 
ATOM      9  C   UNL d   1      -3.297  -1.525  -4.780  0.00  0.00     0.018 C 
ENDBRANCH   1   8
TORSDOF 1
ENDMDL
