MODEL 1
REMARK minimizedAffinity 8.67569351
REMARK minimizedRMSD -1
REMARK  1 active torsions:
REMARK  status: ('A' for Active; 'I' for Inactive)
REMARK    1  A    between atoms: C1_2  and  C2_3 
ROOT
ATOM      1  C2  UNL d   1       0.589  -0.984   0.675  0.00  0.00    -0.076 A 
ATOM      2  C3  UNL d   1       1.203  -0.169  -0.293  0.00  0.00     0.004 A 
ATOM      3  C4  UNL d   1       2.056  -0.712  -1.252  0.00  0.00    -0.003 A 
ATOM      4  C5  UNL d   1       2.309  -2.079  -1.259  0.00  0.00     0.000 A 
ATOM      5  C6  UNL d   1       1.696  -2.905  -0.318  0.00  0.00     0.000 A 
ATOM      6  C7  UNL d   1       0.820  -2.376   0.646  0.00  0.00    -0.073 A 
ATOM      7  C8  UNL d   1       0.190  -3.312   1.641  0.00  0.00     0.078 C 
ENDROOT
BRANCH   1   8
ATOM      8  C1  UNL d   1      -0.305  -0.335   1.707  0.00  0.00     0.053 C 
ATOM      9  C   UNL d   1      -1.573   0.244   1.098  0.00  0.00     0.018 C 
ENDBRANCH   1   8
TORSDOF 1
ENDMDL
