MODEL 1
REMARK minimizedAffinity 5.06741619
REMARK minimizedRMSD -1
REMARK  1 active torsions:
REMARK  status: ('A' for Active; 'I' for Inactive)
REMARK    1  A    between atoms: C1_2  and  C2_3 
ROOT
ATOM      1  C2  UNL d   1      -4.880  -4.976  -3.399  0.00  0.00    -0.076 A 
ATOM      2  C3  UNL d   1      -5.436  -6.000  -4.186  0.00  0.00     0.004 A 
ATOM      3  C4  UNL d   1      -5.975  -5.726  -5.442  0.00  0.00    -0.003 A 
ATOM      4  C5  UNL d   1      -5.966  -4.425  -5.932  0.00  0.00     0.000 A 
ATOM      5  C6  UNL d   1      -5.402  -3.400  -5.172  0.00  0.00     0.000 A 
ATOM      6  C7  UNL d   1      -4.840  -3.662  -3.911  0.00  0.00    -0.073 A 
ATOM      7  C8  UNL d   1      -4.251  -2.518  -3.132  0.00  0.00     0.078 C 
ENDROOT
BRANCH   1   8
ATOM      8  C1  UNL d   1      -4.334  -5.328  -2.033  0.00  0.00     0.053 C 
ATOM      9  C   UNL d   1      -2.951  -5.955  -2.102  0.00  0.00     0.018 C 
ENDBRANCH   1   8
TORSDOF 1
ENDMDL
