MODEL 1
REMARK minimizedAffinity 8.1528368
REMARK minimizedRMSD -1
REMARK  1 active torsions:
REMARK  status: ('A' for Active; 'I' for Inactive)
REMARK    1  A    between atoms: C1_2  and  C2_3 
ROOT
ATOM      1  C2  UNL d   1      -4.513  -3.676  -4.244  0.00  0.00    -0.076 A 
ATOM      2  C3  UNL d   1      -5.184  -3.553  -5.474  0.00  0.00     0.004 A 
ATOM      3  C4  UNL d   1      -5.921  -4.614  -5.997  0.00  0.00    -0.003 A 
ATOM      4  C5  UNL d   1      -6.000  -5.814  -5.300  0.00  0.00     0.000 A 
ATOM      5  C6  UNL d   1      -5.355  -5.947  -4.070  0.00  0.00     0.000 A 
ATOM      6  C7  UNL d   1      -4.622  -4.882  -3.520  0.00  0.00    -0.073 A 
ATOM      7  C8  UNL d   1      -3.942  -5.083  -2.194  0.00  0.00     0.078 C 
ENDROOT
BRANCH   1   8
ATOM      8  C1  UNL d   1      -3.707  -2.500  -3.739  0.00  0.00     0.053 C 
ATOM      9  C   UNL d   1      -2.559  -2.139  -4.669  0.00  0.00     0.018 C 
ENDBRANCH   1   8
TORSDOF 1
ENDMDL
