MODEL 1
REMARK minimizedAffinity 18.4889469
REMARK minimizedRMSD -1
REMARK  1 active torsions:
REMARK  status: ('A' for Active; 'I' for Inactive)
REMARK    1  A    between atoms: C1_2  and  C2_3 
ROOT
ATOM      1  C2  UNL d   1      -4.290  -3.898  -4.006  0.00  0.00    -0.076 A 
ATOM      2  C3  UNL d   1      -3.116  -3.346  -3.466  0.00  0.00     0.004 A 
ATOM      3  C4  UNL d   1      -2.385  -2.388  -4.167  0.00  0.00    -0.003 A 
ATOM      4  C5  UNL d   1      -2.817  -1.967  -5.419  0.00  0.00     0.000 A 
ATOM      5  C6  UNL d   1      -3.989  -2.491  -5.963  0.00  0.00     0.000 A 
ATOM      6  C7  UNL d   1      -4.747  -3.445  -5.262  0.00  0.00    -0.073 A 
ATOM      7  C8  UNL d   1      -6.000  -3.981  -5.899  0.00  0.00     0.078 C 
ENDROOT
BRANCH   1   8
ATOM      8  C1  UNL d   1      -5.027  -4.953  -3.211  0.00  0.00     0.053 C 
ATOM      9  C   UNL d   1      -5.807  -5.911  -4.098  0.00  0.00     0.018 C 
ENDBRANCH   1   8
TORSDOF 1
ENDMDL
