MODEL 1
REMARK minimizedAffinity 2.76978207
REMARK minimizedRMSD -1
REMARK  1 active torsions:
REMARK  status: ('A' for Active; 'I' for Inactive)
REMARK    1  A    between atoms: C1_2  and  C2_3 
ROOT
ATOM      1  C2  UNL d   1      -4.588  -4.854  -3.469  0.00  0.00    -0.076 A 
ATOM      2  C3  UNL d   1      -5.396  -5.945  -3.836  0.00  0.00     0.004 A 
ATOM      3  C4  UNL d   1      -6.000  -6.000  -5.090  0.00  0.00    -0.003 A 
ATOM      4  C5  UNL d   1      -5.805  -4.966  -6.000  0.00  0.00     0.000 A 
ATOM      5  C6  UNL d   1      -4.992  -3.886  -5.660  0.00  0.00     0.000 A 
ATOM      6  C7  UNL d   1      -4.362  -3.822  -4.405  0.00  0.00    -0.073 A 
ATOM      7  C8  UNL d   1      -3.501  -2.630  -4.089  0.00  0.00     0.078 C 
ENDROOT
BRANCH   1   8
ATOM      8  C1  UNL d   1      -3.981  -4.836  -2.084  0.00  0.00     0.053 C 
ATOM      9  C   UNL d   1      -2.636  -5.545  -2.028  0.00  0.00     0.018 C 
ENDBRANCH   1   8
TORSDOF 1
ENDMDL
