MODEL 1
REMARK minimizedAffinity 3.88793302
REMARK minimizedRMSD -1
REMARK  1 active torsions:
REMARK  status: ('A' for Active; 'I' for Inactive)
REMARK    1  A    between atoms: C1_2  and  C2_3 
ROOT
ATOM      1  C2  UNL d   1      -4.272  -3.824  -4.085  0.00  0.00    -0.076 A 
ATOM      2  C3  UNL d   1      -3.785  -4.321  -2.863  0.00  0.00     0.004 A 
ATOM      3  C4  UNL d   1      -4.401  -5.399  -2.231  0.00  0.00    -0.003 A 
ATOM      4  C5  UNL d   1      -5.514  -5.999  -2.810  0.00  0.00     0.000 A 
ATOM      5  C6  UNL d   1      -6.000  -5.531  -4.030  0.00  0.00     0.000 A 
ATOM      6  C7  UNL d   1      -5.381  -4.455  -4.689  0.00  0.00    -0.073 A 
ATOM      7  C8  UNL d   1      -5.951  -3.986  -6.000  0.00  0.00     0.078 C 
ENDROOT
BRANCH   1   8
ATOM      8  C1  UNL d   1      -3.580  -2.634  -4.711  0.00  0.00     0.053 C 
ATOM      9  C   UNL d   1      -2.200  -2.387  -4.121  0.00  0.00     0.018 C 
ENDBRANCH   1   8
TORSDOF 1
ENDMDL
