MODEL 1
REMARK minimizedAffinity 8.73176479
REMARK minimizedRMSD -1
REMARK  1 active torsions:
REMARK  status: ('A' for Active; 'I' for Inactive)
REMARK    1  A    between atoms: C1_2  and  C2_3 
ROOT
ATOM      1  C2  UNL d   1      -3.752   1.026   2.798  0.00  0.00    -0.076 A 
ATOM      2  C3  UNL d   1      -4.711   1.913   3.316  0.00  0.00     0.004 A 
ATOM      3  C4  UNL d   1      -4.328   3.088   3.960  0.00  0.00    -0.003 A 
ATOM      4  C5  UNL d   1      -2.979   3.396   4.096  0.00  0.00     0.000 A 
ATOM      5  C6  UNL d   1      -2.014   2.536   3.572  0.00  0.00     0.000 A 
ATOM      6  C7  UNL d   1      -2.384   1.355   2.906  0.00  0.00    -0.073 A 
ATOM      7  C8  UNL d   1      -1.301   0.462   2.366  0.00  0.00     0.078 C 
ENDROOT
BRANCH   1   8
ATOM      8  C1  UNL d   1      -4.226  -0.247   2.133  0.00  0.00     0.053 C 
ATOM      9  C   UNL d   1      -5.657  -0.602   2.508  0.00  0.00     0.018 C 
ENDBRANCH   1   8
TORSDOF 1
ENDMDL
