MODEL 1
REMARK minimizedAffinity 19.1700611
REMARK minimizedRMSD -1
REMARK  1 active torsions:
REMARK  status: ('A' for Active; 'I' for Inactive)
REMARK    1  A    between atoms: C1_2  and  C2_3 
ROOT
ATOM      1  C2  UNL d   1      -2.834  -0.428   3.171  0.00  0.00    -0.076 A 
ATOM      2  C3  UNL d   1      -2.376  -1.218   4.240  0.00  0.00     0.004 A 
ATOM      3  C4  UNL d   1      -1.045  -1.628   4.310  0.00  0.00    -0.003 A 
ATOM      4  C5  UNL d   1      -0.151  -1.252   3.313  0.00  0.00     0.000 A 
ATOM      5  C6  UNL d   1      -0.584  -0.453   2.256  0.00  0.00     0.000 A 
ATOM      6  C7  UNL d   1      -1.919  -0.019   2.178  0.00  0.00    -0.073 A 
ATOM      7  C8  UNL d   1      -2.333   0.836   1.012  0.00  0.00     0.078 C 
ENDROOT
BRANCH   1   8
ATOM      8  C1  UNL d   1      -4.294  -0.037   3.134  0.00  0.00     0.053 C 
ATOM      9  C   UNL d   1      -5.220  -1.244   3.089  0.00  0.00     0.018 C 
ENDBRANCH   1   8
TORSDOF 1
ENDMDL
