MODEL 1
REMARK minimizedAffinity 12.1490545
REMARK minimizedRMSD -1
REMARK  1 active torsions:
REMARK  status: ('A' for Active; 'I' for Inactive)
REMARK    1  A    between atoms: C1_2  and  C2_3 
ROOT
ATOM      1  C2  UNL d   1      -5.269  -3.805  -3.642  0.00  0.00    -0.076 A 
ATOM      2  C3  UNL d   1      -5.999  -4.941  -3.251  0.00  0.00     0.004 A 
ATOM      3  C4  UNL d   1      -5.380  -5.999  -2.589  0.00  0.00    -0.003 A 
ATOM      4  C5  UNL d   1      -4.020  -5.939  -2.305  0.00  0.00     0.000 A 
ATOM      5  C6  UNL d   1      -3.284  -4.812  -2.669  0.00  0.00     0.000 A 
ATOM      6  C7  UNL d   1      -3.896  -3.730  -3.323  0.00  0.00    -0.073 A 
ATOM      7  C8  UNL d   1      -3.052  -2.542  -3.699  0.00  0.00     0.078 C 
ENDROOT
BRANCH   1   8
ATOM      8  C1  UNL d   1      -5.988  -2.700  -4.382  0.00  0.00     0.053 C 
ATOM      9  C   UNL d   1      -6.000  -2.918  -5.887  0.00  0.00     0.018 C 
ENDBRANCH   1   8
TORSDOF 1
ENDMDL
