MODEL 1
REMARK minimizedAffinity 3.63812447
REMARK minimizedRMSD -1
REMARK  1 active torsions:
REMARK  status: ('A' for Active; 'I' for Inactive)
REMARK    1  A    between atoms: C1_2  and  C2_3 
ROOT
ATOM      1  C2  UNL d   1      -4.839  -4.717  -4.119  0.00  0.00    -0.076 A 
ATOM      2  C3  UNL d   1      -4.484  -3.486  -3.540  0.00  0.00     0.004 A 
ATOM      3  C4  UNL d   1      -4.818  -2.281  -4.156  0.00  0.00    -0.003 A 
ATOM      4  C5  UNL d   1      -5.514  -2.288  -5.360  0.00  0.00     0.000 A 
ATOM      5  C6  UNL d   1      -5.890  -3.499  -5.939  0.00  0.00     0.000 A 
ATOM      6  C7  UNL d   1      -5.575  -4.723  -5.323  0.00  0.00    -0.073 A 
ATOM      7  C8  UNL d   1      -6.000  -6.000  -5.995  0.00  0.00     0.078 C 
ENDROOT
BRANCH   1   8
ATOM      8  C1  UNL d   1      -4.426  -5.992  -3.419  0.00  0.00     0.053 C 
ATOM      9  C   UNL d   1      -4.102  -5.772  -1.949  0.00  0.00     0.018 C 
ENDBRANCH   1   8
TORSDOF 1
ENDMDL
