MODEL 1
REMARK minimizedAffinity 5.45506668
REMARK minimizedRMSD -1
REMARK  1 active torsions:
REMARK  status: ('A' for Active; 'I' for Inactive)
REMARK    1  A    between atoms: C1_2  and  C2_3 
ROOT
ATOM      1  C2  UNL d   1       2.766  -2.625  -1.581  0.00  0.00    -0.076 A 
ATOM      2  C3  UNL d   1       2.308  -3.792  -2.217  0.00  0.00     0.004 A 
ATOM      3  C4  UNL d   1       1.307  -3.736  -3.185  0.00  0.00    -0.003 A 
ATOM      4  C5  UNL d   1       0.748  -2.511  -3.534  0.00  0.00     0.000 A 
ATOM      5  C6  UNL d   1       1.203  -1.341  -2.927  0.00  0.00     0.000 A 
ATOM      6  C7  UNL d   1       2.223  -1.378  -1.960  0.00  0.00    -0.073 A 
ATOM      7  C8  UNL d   1       2.671  -0.087  -1.333  0.00  0.00     0.078 C 
ENDROOT
BRANCH   1   8
ATOM      8  C1  UNL d   1       3.835  -2.750  -0.519  0.00  0.00     0.053 C 
ATOM      9  C   UNL d   1       4.999  -3.621  -0.964  0.00  0.00     0.018 C 
ENDBRANCH   1   8
TORSDOF 1
ENDMDL
