MODEL 1
REMARK minimizedAffinity 1.93552327
REMARK minimizedRMSD -1
REMARK  1 active torsions:
REMARK  status: ('A' for Active; 'I' for Inactive)
REMARK    1  A    between atoms: C1_2  and  C2_3 
ROOT
ATOM      1  C2  UNL d   1      -3.542  -4.168  -3.510  0.00  0.00    -0.076 A 
ATOM      2  C3  UNL d   1      -4.760  -3.617  -3.946  0.00  0.00     0.004 A 
ATOM      3  C4  UNL d   1      -5.974  -4.232  -3.644  0.00  0.00    -0.003 A 
ATOM      4  C5  UNL d   1      -5.990  -5.407  -2.901  0.00  0.00     0.000 A 
ATOM      5  C6  UNL d   1      -4.792  -5.958  -2.446  0.00  0.00     0.000 A 
ATOM      6  C7  UNL d   1      -3.561  -5.342  -2.728  0.00  0.00    -0.073 A 
ATOM      7  C8  UNL d   1      -2.299  -5.983  -2.217  0.00  0.00     0.078 C 
ENDROOT
BRANCH   1   8
ATOM      8  C1  UNL d   1      -2.255  -3.472  -3.891  0.00  0.00     0.053 C 
ATOM      9  C   UNL d   1      -2.239  -2.009  -3.475  0.00  0.00     0.018 C 
ENDBRANCH   1   8
TORSDOF 1
ENDMDL
