MODEL 1
REMARK minimizedAffinity 7.40030861
REMARK minimizedRMSD -1
REMARK  0 active torsions:
REMARK  status: ('A' for Active; 'I' for Inactive)
ROOT
ATOM      1  O1  BZF d   1       4.570  -5.031  -0.924  0.00  0.00    -0.204 OA
ATOM      2  C2  BZF d   1       3.831  -4.629   0.171  0.00  0.00     0.174 A 
ATOM      3  C3  BZF d   1       2.822  -3.816  -0.204  0.00  0.00    -0.012 A 
ATOM      4  C3A BZF d   1       2.883  -3.777  -1.633  0.00  0.00    -0.107 A 
ATOM      5  C4  BZF d   1       2.133  -3.151  -2.588  0.00  0.00     0.055 A 
ATOM      6  C5  BZF d   1       2.501  -3.259  -3.892  0.00  0.00    -0.016 A 
ATOM      7  C6  BZF d   1       3.613  -3.979  -4.276  0.00  0.00     0.022 A 
ATOM      8  C7  BZF d   1       4.384  -4.621  -3.365  0.00  0.00     0.029 A 
ATOM      9  C7A BZF d   1       3.997  -4.542  -2.050  0.00  0.00     0.058 A 
ENDROOT
TORSDOF 0
ENDMDL
