MODEL 1
REMARK minimizedAffinity 0.401295036
REMARK minimizedRMSD -1
REMARK  0 active torsions:
REMARK  status: ('A' for Active; 'I' for Inactive)
ROOT
ATOM      1  O1  BZF d   1       5.006  -4.996  -0.910  0.00  0.00    -0.204 OA
ATOM      2  C2  BZF d   1       4.215  -4.542   0.128  0.00  0.00     0.174 A 
ATOM      3  C3  BZF d   1       3.138  -3.882  -0.344  0.00  0.00    -0.012 A 
ATOM      4  C3A BZF d   1       3.215  -4.006  -1.767  0.00  0.00    -0.107 A 
ATOM      5  C4  BZF d   1       2.421  -3.574  -2.791  0.00  0.00     0.055 A 
ATOM      6  C5  BZF d   1       2.816  -3.799  -4.072  0.00  0.00    -0.016 A 
ATOM      7  C6  BZF d   1       3.998  -4.447  -4.365  0.00  0.00     0.022 A 
ATOM      8  C7  BZF d   1       4.815  -4.898  -3.383  0.00  0.00     0.029 A 
ATOM      9  C7A BZF d   1       4.403  -4.702  -2.087  0.00  0.00     0.058 A 
ENDROOT
TORSDOF 0
ENDMDL
