MODEL 1
REMARK minimizedAffinity 4.74792862
REMARK minimizedRMSD -1
REMARK  0 active torsions:
REMARK  status: ('A' for Active; 'I' for Inactive)
ROOT
ATOM      1  O1  BZF d   1       3.098  -4.239   0.070  0.00  0.00    -0.204 OA
ATOM      2  C2  BZF d   1       4.146  -5.134   0.167  0.00  0.00     0.174 A 
ATOM      3  C3  BZF d   1       4.598  -5.475  -1.057  0.00  0.00    -0.012 A 
ATOM      4  C3A BZF d   1       3.843  -4.678  -1.973  0.00  0.00    -0.107 A 
ATOM      5  C4  BZF d   1       3.844  -4.555  -3.334  0.00  0.00     0.055 A 
ATOM      6  C5  BZF d   1       2.930  -3.741  -3.924  0.00  0.00    -0.016 A 
ATOM      7  C6  BZF d   1       1.998  -3.041  -3.187  0.00  0.00     0.022 A 
ATOM      8  C7  BZF d   1       1.961  -3.126  -1.835  0.00  0.00     0.029 A 
ATOM      9  C7A BZF d   1       2.904  -3.923  -1.233  0.00  0.00     0.058 A 
ENDROOT
TORSDOF 0
ENDMDL
