MODEL 1
REMARK minimizedAffinity 1.0793153
REMARK minimizedRMSD -1
REMARK  0 active torsions:
REMARK  status: ('A' for Active; 'I' for Inactive)
ROOT
ATOM      1  O1  BZF d   1       2.631  -2.814  -0.282  0.00  0.00    -0.204 OA
ATOM      2  C2  BZF d   1       1.878  -1.704  -0.614  0.00  0.00     0.174 A 
ATOM      3  C3  BZF d   1       1.890  -1.499  -1.947  0.00  0.00    -0.012 A 
ATOM      4  C3A BZF d   1       2.625  -2.600  -2.490  0.00  0.00    -0.107 A 
ATOM      5  C4  BZF d   1       2.965  -2.965  -3.762  0.00  0.00     0.055 A 
ATOM      6  C5  BZF d   1       3.752  -4.058  -3.947  0.00  0.00    -0.016 A 
ATOM      7  C6  BZF d   1       4.220  -4.803  -2.885  0.00  0.00     0.022 A 
ATOM      8  C7  BZF d   1       3.905  -4.483  -1.606  0.00  0.00     0.029 A 
ATOM      9  C7A BZF d   1       3.083  -3.399  -1.418  0.00  0.00     0.058 A 
ENDROOT
TORSDOF 0
ENDMDL
