MODEL 1
REMARK minimizedAffinity 10.7391529
REMARK minimizedRMSD -1
REMARK  0 active torsions:
REMARK  status: ('A' for Active; 'I' for Inactive)
ROOT
ATOM      1  O1  BZF d   1       5.011  -3.929  -0.758  0.00  0.00    -0.204 OA
ATOM      2  C2  BZF d   1       4.596  -4.350   0.491  0.00  0.00     0.174 A 
ATOM      3  C3  BZF d   1       3.399  -4.967   0.414  0.00  0.00    -0.012 A 
ATOM      4  C3A BZF d   1       3.087  -5.011  -0.981  0.00  0.00    -0.107 A 
ATOM      5  C4  BZF d   1       2.035  -5.514  -1.693  0.00  0.00     0.055 A 
ATOM      6  C5  BZF d   1       1.999  -5.329  -3.038  0.00  0.00    -0.016 A 
ATOM      7  C6  BZF d   1       2.993  -4.641  -3.703  0.00  0.00     0.022 A 
ATOM      8  C7  BZF d   1       4.058  -4.127  -3.041  0.00  0.00     0.029 A 
ATOM      9  C7A BZF d   1       4.114  -4.342  -1.686  0.00  0.00     0.058 A 
ENDROOT
TORSDOF 0
ENDMDL
