MODEL 1
REMARK minimizedAffinity 7.24733686
REMARK minimizedRMSD -1
REMARK  0 active torsions:
REMARK  status: ('A' for Active; 'I' for Inactive)
ROOT
ATOM      1  O1  BZF d   1       5.440  -5.216  -1.431  0.00  0.00    -0.204 OA
ATOM      2  C2  BZF d   1       4.913  -5.034  -0.166  0.00  0.00     0.174 A 
ATOM      3  C3  BZF d   1       3.665  -4.527  -0.237  0.00  0.00    -0.012 A 
ATOM      4  C3A BZF d   1       3.360  -4.470  -1.633  0.00  0.00    -0.107 A 
ATOM      5  C4  BZF d   1       2.261  -4.072  -2.339  0.00  0.00     0.055 A 
ATOM      6  C5  BZF d   1       2.312  -4.072  -3.697  0.00  0.00    -0.016 A 
ATOM      7  C6  BZF d   1       3.445  -4.460  -4.381  0.00  0.00     0.022 A 
ATOM      8  C7  BZF d   1       4.558  -4.868  -3.725  0.00  0.00     0.029 A 
ATOM      9  C7A BZF d   1       4.499  -4.900  -2.353  0.00  0.00     0.058 A 
ENDROOT
TORSDOF 0
ENDMDL
