MODEL 1
REMARK minimizedAffinity 7.99532843
REMARK minimizedRMSD -1
REMARK  0 active torsions:
REMARK  status: ('A' for Active; 'I' for Inactive)
ROOT
ATOM      1  O1  BZF d   1       4.710  -5.237  -0.830  0.00  0.00    -0.204 OA
ATOM      2  C2  BZF d   1       4.101  -4.676   0.276  0.00  0.00     0.174 A 
ATOM      3  C3  BZF d   1       3.017  -3.961  -0.086  0.00  0.00    -0.012 A 
ATOM      4  C3A BZF d   1       2.891  -4.157  -1.498  0.00  0.00    -0.107 A 
ATOM      5  C4  BZF d   1       1.997  -3.716  -2.431  0.00  0.00     0.055 A 
ATOM      6  C5  BZF d   1       2.197  -4.029  -3.738  0.00  0.00    -0.016 A 
ATOM      7  C6  BZF d   1       3.282  -4.777  -4.147  0.00  0.00     0.022 A 
ATOM      8  C7  BZF d   1       4.193  -5.242  -3.258  0.00  0.00     0.029 A 
ATOM      9  C7A BZF d   1       3.975  -4.954  -1.932  0.00  0.00     0.058 A 
ENDROOT
TORSDOF 0
ENDMDL
