MODEL 1
REMARK minimizedAffinity 14.1390066
REMARK minimizedRMSD -1
REMARK  0 active torsions:
REMARK  status: ('A' for Active; 'I' for Inactive)
ROOT
ATOM      1  O1  BZF d   1      -3.755  -2.103   2.370  0.00  0.00    -0.204 OA
ATOM      2  C2  BZF d   1      -4.935  -1.505   1.972  0.00  0.00     0.174 A 
ATOM      3  C3  BZF d   1      -5.997  -2.125   2.526  0.00  0.00    -0.012 A 
ATOM      4  C3A BZF d   1      -5.442  -3.118   3.393  0.00  0.00    -0.107 A 
ATOM      5  C4  BZF d   1      -5.992  -4.045   4.232  0.00  0.00     0.055 A 
ATOM      6  C5  BZF d   1      -5.175  -4.914   4.882  0.00  0.00    -0.016 A 
ATOM      7  C6  BZF d   1      -3.806  -4.889   4.714  0.00  0.00     0.022 A 
ATOM      8  C7  BZF d   1      -3.214  -3.984   3.896  0.00  0.00     0.029 A 
ATOM      9  C7A BZF d   1      -4.035  -3.083   3.263  0.00  0.00     0.058 A 
ENDROOT
TORSDOF 0
ENDMDL
