MODEL 1
REMARK minimizedAffinity -0.116871871
REMARK minimizedRMSD -1
REMARK  0 active torsions:
REMARK  status: ('A' for Active; 'I' for Inactive)
ROOT
ATOM      1  O1  BZF d   1       4.786  -4.285  -1.006  0.00  0.00    -0.204 OA
ATOM      2  C2  BZF d   1       3.931  -3.982   0.036  0.00  0.00     0.174 A 
ATOM      3  C3  BZF d   1       2.797  -3.416  -0.425  0.00  0.00    -0.012 A 
ATOM      4  C3A BZF d   1       2.914  -3.446  -1.851  0.00  0.00    -0.107 A 
ATOM      5  C4  BZF d   1       2.097  -3.043  -2.868  0.00  0.00     0.055 A 
ATOM      6  C5  BZF d   1       2.539  -3.146  -4.149  0.00  0.00    -0.016 A 
ATOM      7  C6  BZF d   1       3.790  -3.643  -4.449  0.00  0.00     0.022 A 
ATOM      8  C7  BZF d   1       4.634  -4.061  -3.473  0.00  0.00     0.029 A 
ATOM      9  C7A BZF d   1       4.178  -3.988  -2.180  0.00  0.00     0.058 A 
ENDROOT
TORSDOF 0
ENDMDL
