MODEL 1
REMARK minimizedAffinity 4.58315706
REMARK minimizedRMSD -1
REMARK  0 active torsions:
REMARK  status: ('A' for Active; 'I' for Inactive)
ROOT
ATOM      1  O1  BZF d   1      -3.827  -4.717   4.881  0.00  0.00    -0.204 OA
ATOM      2  C2  BZF d   1      -4.161  -6.000   4.493  0.00  0.00     0.174 A 
ATOM      3  C3  BZF d   1      -5.064  -5.977   3.491  0.00  0.00    -0.012 A 
ATOM      4  C3A BZF d   1      -5.240  -4.592   3.175  0.00  0.00    -0.107 A 
ATOM      5  C4  BZF d   1      -6.000  -3.928   2.255  0.00  0.00     0.055 A 
ATOM      6  C5  BZF d   1      -6.000  -2.570   2.255  0.00  0.00    -0.016 A 
ATOM      7  C6  BZF d   1      -5.258  -1.844   3.163  0.00  0.00     0.022 A 
ATOM      8  C7  BZF d   1      -4.485  -2.458   4.092  0.00  0.00     0.029 A 
ATOM      9  C7A BZF d   1      -4.457  -3.831   4.073  0.00  0.00     0.058 A 
ENDROOT
TORSDOF 0
ENDMDL
