MODEL 1
REMARK minimizedAffinity 6.76967621
REMARK minimizedRMSD -1
REMARK  0 active torsions:
REMARK  status: ('A' for Active; 'I' for Inactive)
ROOT
ATOM      1  O1  BZF d   1       3.699  -3.863   0.165  0.00  0.00    -0.204 OA
ATOM      2  C2  BZF d   1       4.734  -4.772   0.284  0.00  0.00     0.174 A 
ATOM      3  C3  BZF d   1       4.917  -5.442  -0.872  0.00  0.00    -0.012 A 
ATOM      4  C3A BZF d   1       3.996  -4.856  -1.797  0.00  0.00    -0.107 A 
ATOM      5  C4  BZF d   1       3.715  -5.084  -3.114  0.00  0.00     0.055 A 
ATOM      6  C5  BZF d   1       2.708  -4.388  -3.705  0.00  0.00    -0.016 A 
ATOM      7  C6  BZF d   1       1.959  -3.463  -3.008  0.00  0.00     0.022 A 
ATOM      8  C7  BZF d   1       2.203  -3.199  -1.701  0.00  0.00     0.029 A 
ATOM      9  C7A BZF d   1       3.242  -3.877  -1.110  0.00  0.00     0.058 A 
ENDROOT
TORSDOF 0
ENDMDL
