MODEL 1
REMARK minimizedAffinity 1.28527176
REMARK minimizedRMSD -1
REMARK  0 active torsions:
REMARK  status: ('A' for Active; 'I' for Inactive)
ROOT
ATOM      1  O1  BZF d   1       2.039  -3.652  -2.484  0.00  0.00    -0.204 OA
ATOM      2  C2  BZF d   1       2.330  -4.477  -3.553  0.00  0.00     0.174 A 
ATOM      3  C3  BZF d   1       3.494  -5.127  -3.352  0.00  0.00    -0.012 A 
ATOM      4  C3A BZF d   1       3.915  -4.750  -2.038  0.00  0.00    -0.107 A 
ATOM      5  C4  BZF d   1       4.991  -5.081  -1.265  0.00  0.00     0.055 A 
ATOM      6  C5  BZF d   1       5.145  -4.481  -0.055  0.00  0.00    -0.016 A 
ATOM      7  C6  BZF d   1       4.245  -3.545   0.410  0.00  0.00     0.022 A 
ATOM      8  C7  BZF d   1       3.159  -3.188  -0.318  0.00  0.00     0.029 A 
ATOM      9  C7A BZF d   1       2.984  -3.816  -1.527  0.00  0.00     0.058 A 
ENDROOT
TORSDOF 0
ENDMDL
