MODEL 1
REMARK minimizedAffinity 2.60672212
REMARK minimizedRMSD -1
REMARK  0 active torsions:
REMARK  status: ('A' for Active; 'I' for Inactive)
ROOT
ATOM      1  O1  BZF d   1       4.112  -5.950  -0.647  0.00  0.00    -0.204 OA
ATOM      2  C2  BZF d   1       4.642  -4.995   0.199  0.00  0.00     0.174 A 
ATOM      3  C3  BZF d   1       4.279  -3.756  -0.190  0.00  0.00    -0.012 A 
ATOM      4  C3A BZF d   1       3.395  -3.954  -1.297  0.00  0.00    -0.107 A 
ATOM      5  C4  BZF d   1       2.693  -3.102  -2.102  0.00  0.00     0.055 A 
ATOM      6  C5  BZF d   1       1.980  -3.611  -3.140  0.00  0.00    -0.016 A 
ATOM      7  C6  BZF d   1       1.950  -4.965  -3.406  0.00  0.00     0.022 A 
ATOM      8  C7  BZF d   1       2.626  -5.849  -2.633  0.00  0.00     0.029 A 
ATOM      9  C7A BZF d   1       3.321  -5.341  -1.563  0.00  0.00     0.058 A 
ENDROOT
TORSDOF 0
ENDMDL
