MODEL 1
REMARK minimizedAffinity -1.69176161
REMARK minimizedRMSD -1
REMARK  0 active torsions:
REMARK  status: ('A' for Active; 'I' for Inactive)
ROOT
ATOM      1  O1  BZF d   1       4.790  -4.681  -1.039  0.00  0.00    -0.204 OA
ATOM      2  C2  BZF d   1       4.240  -4.443   0.206  0.00  0.00     0.174 A 
ATOM      3  C3  BZF d   1       3.070  -3.781   0.094  0.00  0.00    -0.012 A 
ATOM      4  C3A BZF d   1       2.831  -3.675  -1.313  0.00  0.00    -0.107 A 
ATOM      5  C4  BZF d   1       1.821  -3.134  -2.055  0.00  0.00     0.055 A 
ATOM      6  C5  BZF d   1       1.926  -3.130  -3.410  0.00  0.00    -0.016 A 
ATOM      7  C6  BZF d   1       3.028  -3.654  -4.054  0.00  0.00     0.022 A 
ATOM      8  C7  BZF d   1       4.053  -4.206  -3.361  0.00  0.00     0.029 A 
ATOM      9  C7A BZF d   1       3.935  -4.241  -1.993  0.00  0.00     0.058 A 
ENDROOT
TORSDOF 0
ENDMDL
