MODEL 1
REMARK minimizedAffinity 7.54684973
REMARK minimizedRMSD -1
REMARK  0 active torsions:
REMARK  status: ('A' for Active; 'I' for Inactive)
ROOT
ATOM      1  O1  BZF d   1       4.863  -5.123  -1.153  0.00  0.00    -0.204 OA
ATOM      2  C2  BZF d   1       4.153  -4.943   0.019  0.00  0.00     0.174 A 
ATOM      3  C3  BZF d   1       2.903  -4.509  -0.241  0.00  0.00    -0.012 A 
ATOM      4  C3A BZF d   1       2.797  -4.500  -1.668  0.00  0.00    -0.107 A 
ATOM      5  C4  BZF d   1       1.789  -4.179  -2.532  0.00  0.00     0.055 A 
ATOM      6  C5  BZF d   1       2.032  -4.207  -3.869  0.00  0.00    -0.016 A 
ATOM      7  C6  BZF d   1       3.269  -4.545  -4.375  0.00  0.00     0.022 A 
ATOM      8  C7  BZF d   1       4.298  -4.876  -3.557  0.00  0.00     0.029 A 
ATOM      9  C7A BZF d   1       4.047  -4.881  -2.207  0.00  0.00     0.058 A 
ENDROOT
TORSDOF 0
ENDMDL
