MODEL 1
REMARK minimizedAffinity 19.1227455
REMARK minimizedRMSD -1
REMARK  0 active torsions:
REMARK  status: ('A' for Active; 'I' for Inactive)
ROOT
ATOM      1  O1  BZF d   1       2.463   2.656  -1.590  0.00  0.00    -0.204 OA
ATOM      2  C2  BZF d   1       2.619   1.655  -0.650  0.00  0.00     0.174 A 
ATOM      3  C3  BZF d   1       2.178   2.061   0.558  0.00  0.00    -0.012 A 
ATOM      4  C3A BZF d   1       1.632   3.365   0.341  0.00  0.00    -0.107 A 
ATOM      5  C4  BZF d   1       1.028   4.278   1.158  0.00  0.00     0.055 A 
ATOM      6  C5  BZF d   1       0.676   5.488   0.649  0.00  0.00    -0.016 A 
ATOM      7  C6  BZF d   1       0.918   5.821  -0.668  0.00  0.00     0.022 A 
ATOM      8  C7  BZF d   1       1.510   4.946  -1.517  0.00  0.00     0.029 A 
ATOM      9  C7A BZF d   1       1.837   3.711  -1.015  0.00  0.00     0.058 A 
ENDROOT
TORSDOF 0
ENDMDL
