MODEL 1
REMARK minimizedAffinity 9.22231293
REMARK minimizedRMSD -1
REMARK  0 active torsions:
REMARK  status: ('A' for Active; 'I' for Inactive)
ROOT
ATOM      1  O1  BZF d   1       1.980   2.555  -1.710  0.00  0.00    -0.204 OA
ATOM      2  C2  BZF d   1       2.291   1.539  -0.827  0.00  0.00     0.174 A 
ATOM      3  C3  BZF d   1       2.131   1.948   0.448  0.00  0.00    -0.012 A 
ATOM      4  C3A BZF d   1       1.604   3.275   0.355  0.00  0.00    -0.107 A 
ATOM      5  C4  BZF d   1       1.222   4.201   1.283  0.00  0.00     0.055 A 
ATOM      6  C5  BZF d   1       0.819   5.429   0.864  0.00  0.00    -0.016 A 
ATOM      7  C6  BZF d   1       0.790   5.767  -0.474  0.00  0.00     0.022 A 
ATOM      8  C7  BZF d   1       1.155   4.880  -1.432  0.00  0.00     0.029 A 
ATOM      9  C7A BZF d   1       1.531   3.627  -1.013  0.00  0.00     0.058 A 
ENDROOT
TORSDOF 0
ENDMDL
