MODEL 1
REMARK minimizedAffinity 18.7623692
REMARK minimizedRMSD -1
REMARK  0 active torsions:
REMARK  status: ('A' for Active; 'I' for Inactive)
ROOT
ATOM      1  O1  BZF d   1      -4.352  -4.159  -4.446  0.00  0.00    -0.204 OA
ATOM      2  C2  BZF d   1      -4.191  -3.642  -5.717  0.00  0.00     0.174 A 
ATOM      3  C3  BZF d   1      -2.884  -3.467  -5.999  0.00  0.00    -0.012 A 
ATOM      4  C3A BZF d   1      -2.181  -3.987  -4.867  0.00  0.00    -0.107 A 
ATOM      5  C4  BZF d   1      -0.856  -4.110  -4.559  0.00  0.00     0.055 A 
ATOM      6  C5  BZF d   1      -0.503  -4.594  -3.340  0.00  0.00    -0.016 A 
ATOM      7  C6  BZF d   1      -1.447  -4.960  -2.403  0.00  0.00     0.022 A 
ATOM      8  C7  BZF d   1      -2.774  -4.861  -2.664  0.00  0.00     0.029 A 
ATOM      9  C7A BZF d   1      -3.133  -4.403  -3.908  0.00  0.00     0.058 A 
ENDROOT
TORSDOF 0
ENDMDL
