MODEL 1
REMARK minimizedAffinity -0.891773343
REMARK minimizedRMSD -1
REMARK  2 active torsions:
REMARK  status: ('A' for Active; 'I' for Inactive)
REMARK    1  A    between atoms: C1_2  and  C2_3 
REMARK    2  A    between atoms: C2_3  and  C3_4 
ROOT
ATOM      1  C3  UNL d   1      -2.703  -0.861  -0.434  0.00  0.00    -0.075 A 
ATOM      2  C4  UNL d   1      -3.135   0.467  -0.305  0.00  0.00     0.002 A 
ATOM      3  C5  UNL d   1      -2.223   1.484  -0.019  0.00  0.00     0.002 A 
ATOM      4  C6  UNL d   1      -0.873   1.185   0.152  0.00  0.00    -0.004 A 
ATOM      5  C7  UNL d   1      -0.436  -0.134   0.042  0.00  0.00     0.002 A 
ATOM      6  C8  UNL d   1      -1.345  -1.152  -0.248  0.00  0.00     0.002 A 
ENDROOT
BRANCH   1   7
ATOM      7  C2  UNL d   1      -3.681  -1.961  -0.773  0.00  0.00     0.056 C 
BRANCH   7   8
ATOM      8  C1  UNL d   1      -4.849  -1.508  -1.654  0.00  0.00     0.007 C 
ATOM      9  C   UNL d   1      -5.564  -2.662  -2.344  0.00  0.00     0.009 C 
ENDBRANCH   7   8
ENDBRANCH   1   7
TORSDOF 2
ENDMDL
