MODEL 1
REMARK minimizedAffinity -4.82874632
REMARK minimizedRMSD -1
REMARK  2 active torsions:
REMARK  status: ('A' for Active; 'I' for Inactive)
REMARK    1  A    between atoms: C1_2  and  C2_3 
REMARK    2  A    between atoms: C2_3  and  C3_4 
ROOT
ATOM      1  C3  UNL d   1       0.225  -0.059   0.017  0.00  0.00    -0.075 A 
ATOM      2  C4  UNL d   1      -1.176  -0.036  -0.038  0.00  0.00     0.002 A 
ATOM      3  C5  UNL d   1      -1.916   0.564   0.981  0.00  0.00     0.002 A 
ATOM      4  C6  UNL d   1      -1.266   1.140   2.071  0.00  0.00    -0.004 A 
ATOM      5  C7  UNL d   1       0.125   1.108   2.144  0.00  0.00     0.002 A 
ATOM      6  C8  UNL d   1       0.868   0.512   1.123  0.00  0.00     0.002 A 
ENDROOT
BRANCH   1   7
ATOM      7  C2  UNL d   1       1.032  -0.682  -1.098  0.00  0.00     0.056 C 
BRANCH   7   8
ATOM      8  C1  UNL d   1       0.516  -0.349  -2.502  0.00  0.00     0.007 C 
ATOM      9  C   UNL d   1       1.551   0.355  -3.370  0.00  0.00     0.009 C 
ENDBRANCH   7   8
ENDBRANCH   1   7
TORSDOF 2
ENDMDL
