MODEL 1
REMARK minimizedAffinity -5.13602304
REMARK minimizedRMSD -1
REMARK  2 active torsions:
REMARK  status: ('A' for Active; 'I' for Inactive)
REMARK    1  A    between atoms: C1_2  and  C2_3 
REMARK    2  A    between atoms: C2_3  and  C3_4 
ROOT
ATOM      1  C3  UNL d   1       0.610  -0.431  -1.010  0.00  0.00    -0.075 A 
ATOM      2  C4  UNL d   1      -0.567  -0.008  -0.377  0.00  0.00     0.002 A 
ATOM      3  C5  UNL d   1      -0.556   0.356   0.970  0.00  0.00     0.002 A 
ATOM      4  C6  UNL d   1       0.628   0.292   1.702  0.00  0.00    -0.004 A 
ATOM      5  C7  UNL d   1       1.800  -0.143   1.087  0.00  0.00     0.002 A 
ATOM      6  C8  UNL d   1       1.793  -0.503  -0.261  0.00  0.00     0.002 A 
ENDROOT
BRANCH   1   7
ATOM      7  C2  UNL d   1       0.611  -0.798  -2.475  0.00  0.00     0.056 C 
BRANCH   7   8
ATOM      8  C1  UNL d   1       1.127   0.313  -3.396  0.00  0.00     0.007 C 
ATOM      9  C   UNL d   1       0.115   0.734  -4.453  0.00  0.00     0.009 C 
ENDBRANCH   7   8
ENDBRANCH   1   7
TORSDOF 2
ENDMDL
