MODEL 1
REMARK minimizedAffinity -5.21608591
REMARK minimizedRMSD -1
REMARK  2 active torsions:
REMARK  status: ('A' for Active; 'I' for Inactive)
REMARK    1  A    between atoms: C1_2  and  C2_3 
REMARK    2  A    between atoms: C2_3  and  C3_4 
ROOT
ATOM      1  C3  UNL d   1      -0.342  -0.242  -1.302  0.00  0.00    -0.075 A 
ATOM      2  C4  UNL d   1      -1.613   0.339  -1.184  0.00  0.00     0.002 A 
ATOM      3  C5  UNL d   1      -2.072   0.791   0.054  0.00  0.00     0.002 A 
ATOM      4  C6  UNL d   1      -1.274   0.659   1.187  0.00  0.00    -0.004 A 
ATOM      5  C7  UNL d   1      -0.016   0.068   1.084  0.00  0.00     0.002 A 
ATOM      6  C8  UNL d   1       0.448  -0.381  -0.154  0.00  0.00     0.002 A 
ENDROOT
BRANCH   1   7
ATOM      7  C2  UNL d   1       0.173  -0.706  -2.644  0.00  0.00     0.056 C 
BRANCH   7   8
ATOM      8  C1  UNL d   1       1.203   0.236  -3.277  0.00  0.00     0.007 C 
ATOM      9  C   UNL d   1       0.667   0.984  -4.490  0.00  0.00     0.009 C 
ENDBRANCH   7   8
ENDBRANCH   1   7
TORSDOF 2
ENDMDL
