MODEL 1
REMARK minimizedAffinity -2.94618559
REMARK minimizedRMSD -1
REMARK  2 active torsions:
REMARK  status: ('A' for Active; 'I' for Inactive)
REMARK    1  A    between atoms: C1_2  and  C2_3 
REMARK    2  A    between atoms: C2_3  and  C3_4 
ROOT
ATOM      1  C3  UNL d   1      -0.565   0.337  -1.405  0.00  0.00    -0.075 A 
ATOM      2  C4  UNL d   1       0.340  -0.673  -1.048  0.00  0.00     0.002 A 
ATOM      3  C5  UNL d   1       1.400  -1.006  -1.892  0.00  0.00     0.002 A 
ATOM      4  C6  UNL d   1       1.562  -0.342  -3.106  0.00  0.00    -0.004 A 
ATOM      5  C7  UNL d   1       0.660   0.652  -3.479  0.00  0.00     0.002 A 
ATOM      6  C8  UNL d   1      -0.399   0.990  -2.634  0.00  0.00     0.002 A 
ENDROOT
BRANCH   1   7
ATOM      7  C2  UNL d   1      -1.696   0.723  -0.483  0.00  0.00     0.056 C 
BRANCH   7   8
ATOM      8  C1  UNL d   1      -2.147  -0.402   0.455  0.00  0.00     0.007 C 
ATOM      9  C   UNL d   1      -2.356   0.060   1.891  0.00  0.00     0.009 C 
ENDBRANCH   7   8
ENDBRANCH   1   7
TORSDOF 2
ENDMDL
