MODEL 1
REMARK minimizedAffinity -2.91351557
REMARK minimizedRMSD -1
REMARK  0 active torsions:
REMARK  status: ('A' for Active; 'I' for Inactive)
ROOT
ATOM      1  C   UNL d   1       5.999  -4.766   2.001  0.00  0.00     0.077 C 
ATOM      2  C1  UNL d   1       5.605  -4.374   3.394  0.00  0.00    -0.074 A 
ATOM      3  C2  UNL d   1       4.900  -5.258   4.217  0.00  0.00    -0.005 A 
ATOM      4  C3  UNL d   1       4.549  -4.883   5.514  0.00  0.00     0.006 A 
ATOM      5  C4  UNL d   1       4.899  -3.622   6.000  0.00  0.00    -0.005 A 
ATOM      6  C5  UNL d   1       5.606  -2.726   5.192  0.00  0.00    -0.074 A 
ATOM      7  C6  UNL d   1       5.999  -1.372   5.702  0.00  0.00     0.077 C 
ATOM      8  C7  UNL d   1       5.961  -3.113   3.892  0.00  0.00    -0.001 A 
ENDROOT
TORSDOF 0
ENDMDL
