MODEL 1
REMARK minimizedAffinity -2.60079575
REMARK minimizedRMSD -1
REMARK  0 active torsions:
REMARK  status: ('A' for Active; 'I' for Inactive)
ROOT
ATOM      1  C   UNL d   1       5.978  -5.215   5.999  0.00  0.00     0.077 C 
ATOM      2  C1  UNL d   1       5.972  -4.121   4.974  0.00  0.00    -0.074 A 
ATOM      3  C2  UNL d   1       5.978  -2.776   5.357  0.00  0.00    -0.005 A 
ATOM      4  C3  UNL d   1       5.983  -1.770   4.392  0.00  0.00     0.006 A 
ATOM      5  C4  UNL d   1       5.982  -2.097   3.035  0.00  0.00    -0.005 A 
ATOM      6  C5  UNL d   1       5.977  -3.436   2.633  0.00  0.00    -0.074 A 
ATOM      7  C6  UNL d   1       5.986  -3.805   1.179  0.00  0.00     0.077 C 
ATOM      8  C7  UNL d   1       5.979  -4.442   3.609  0.00  0.00    -0.001 A 
ENDROOT
TORSDOF 0
ENDMDL
