MODEL 1
REMARK minimizedAffinity -1.96103394
REMARK minimizedRMSD -1
REMARK  0 active torsions:
REMARK  status: ('A' for Active; 'I' for Inactive)
ROOT
ATOM      1  C   UNL d   1       6.000  -2.402   6.000  0.00  0.00     0.077 C 
ATOM      2  C1  UNL d   1       5.238  -2.954   4.832  0.00  0.00    -0.074 A 
ATOM      3  C2  UNL d   1       3.840  -2.991   4.838  0.00  0.00    -0.005 A 
ATOM      4  C3  UNL d   1       3.145  -3.499   3.741  0.00  0.00     0.006 A 
ATOM      5  C4  UNL d   1       3.839  -3.975   2.628  0.00  0.00    -0.005 A 
ATOM      6  C5  UNL d   1       5.237  -3.945   2.603  0.00  0.00    -0.074 A 
ATOM      7  C6  UNL d   1       5.998  -4.442   1.410  0.00  0.00     0.077 C 
ATOM      8  C7  UNL d   1       5.928  -3.426   3.707  0.00  0.00    -0.001 A 
ENDROOT
TORSDOF 0
ENDMDL
