MODEL 1
REMARK minimizedAffinity -2.97425151
REMARK minimizedRMSD -1
REMARK  0 active torsions:
REMARK  status: ('A' for Active; 'I' for Inactive)
ROOT
ATOM      1  C   UNL d   1       5.942  -4.004   1.649  0.00  0.00     0.077 C 
ATOM      2  C1  UNL d   1       5.712  -3.860   3.124  0.00  0.00    -0.074 A 
ATOM      3  C2  UNL d   1       5.997  -2.659   3.782  0.00  0.00    -0.005 A 
ATOM      4  C3  UNL d   1       5.769  -2.537   5.152  0.00  0.00     0.006 A 
ATOM      5  C4  UNL d   1       5.255  -3.612   5.878  0.00  0.00    -0.005 A 
ATOM      6  C5  UNL d   1       4.963  -4.821   5.237  0.00  0.00    -0.074 A 
ATOM      7  C6  UNL d   1       4.401  -5.983   5.999  0.00  0.00     0.077 C 
ATOM      8  C7  UNL d   1       5.188  -4.933   3.858  0.00  0.00    -0.001 A 
ENDROOT
TORSDOF 0
ENDMDL
