MODEL 1
REMARK minimizedAffinity -3.05197406
REMARK minimizedRMSD -1
REMARK  0 active torsions:
REMARK  status: ('A' for Active; 'I' for Inactive)
ROOT
ATOM      1  C   UNL d   1       6.000  -3.866   1.318  0.00  0.00     0.077 C 
ATOM      2  C1  UNL d   1       5.657  -3.803   2.777  0.00  0.00    -0.074 A 
ATOM      3  C2  UNL d   1       6.000  -2.688   3.548  0.00  0.00    -0.005 A 
ATOM      4  C3  UNL d   1       5.666  -2.640   4.901  0.00  0.00     0.006 A 
ATOM      5  C4  UNL d   1       4.987  -3.704   5.496  0.00  0.00    -0.005 A 
ATOM      6  C5  UNL d   1       4.634  -4.826   4.740  0.00  0.00    -0.074 A 
ATOM      7  C6  UNL d   1       3.896  -5.974   5.362  0.00  0.00     0.077 C 
ATOM      8  C7  UNL d   1       4.967  -4.865   3.379  0.00  0.00    -0.001 A 
ENDROOT
TORSDOF 0
ENDMDL
