MODEL 1
REMARK minimizedAffinity -1.35359514
REMARK minimizedRMSD -1
REMARK  0 active torsions:
REMARK  status: ('A' for Active; 'I' for Inactive)
ROOT
ATOM      1  C   UNL d   1       5.995  -4.434  -1.532  0.00  0.00     0.077 C 
ATOM      2  C1  UNL d   1       5.789  -4.603  -3.008  0.00  0.00    -0.074 A 
ATOM      3  C2  UNL d   1       5.928  -5.856  -3.615  0.00  0.00    -0.005 A 
ATOM      4  C3  UNL d   1       5.725  -5.999  -4.987  0.00  0.00     0.006 A 
ATOM      5  C4  UNL d   1       5.381  -4.893  -5.766  0.00  0.00    -0.005 A 
ATOM      6  C5  UNL d   1       5.236  -3.633  -5.177  0.00  0.00    -0.074 A 
ATOM      7  C6  UNL d   1       4.857  -2.436  -5.997  0.00  0.00     0.077 C 
ATOM      8  C7  UNL d   1       5.436  -3.498  -3.796  0.00  0.00    -0.001 A 
ENDROOT
TORSDOF 0
ENDMDL
