MODEL 1
REMARK minimizedAffinity 3.09296775
REMARK minimizedRMSD -1
REMARK  0 active torsions:
REMARK  status: ('A' for Active; 'I' for Inactive)
ROOT
ATOM      1  C   UNL d   1       1.699  -4.559   5.993  0.00  0.00     0.077 C 
ATOM      2  C1  UNL d   1       3.199  -4.532   5.974  0.00  0.00    -0.074 A 
ATOM      3  C2  UNL d   1       3.939  -5.718   5.965  0.00  0.00    -0.005 A 
ATOM      4  C3  UNL d   1       5.333  -5.676   5.938  0.00  0.00     0.006 A 
ATOM      5  C4  UNL d   1       6.000  -4.450   5.920  0.00  0.00    -0.005 A 
ATOM      6  C5  UNL d   1       5.276  -3.254   5.928  0.00  0.00    -0.074 A 
ATOM      7  C6  UNL d   1       5.976  -1.928   5.899  0.00  0.00     0.077 C 
ATOM      8  C7  UNL d   1       3.875  -3.304   5.948  0.00  0.00    -0.001 A 
ENDROOT
TORSDOF 0
ENDMDL
