MODEL 1
REMARK minimizedAffinity -2.96269965
REMARK minimizedRMSD -1
REMARK  0 active torsions:
REMARK  status: ('A' for Active; 'I' for Inactive)
ROOT
ATOM      1  C   UNL d   1       5.998  -3.913   1.378  0.00  0.00     0.077 C 
ATOM      2  C1  UNL d   1       5.977  -3.729   2.866  0.00  0.00    -0.074 A 
ATOM      3  C2  UNL d   1       5.919  -2.451   3.432  0.00  0.00    -0.005 A 
ATOM      4  C3  UNL d   1       5.890  -2.296   4.818  0.00  0.00     0.006 A 
ATOM      5  C4  UNL d   1       5.918  -3.416   5.651  0.00  0.00    -0.005 A 
ATOM      6  C5  UNL d   1       5.976  -4.701   5.103  0.00  0.00    -0.074 A 
ATOM      7  C6  UNL d   1       5.997  -5.915   5.984  0.00  0.00     0.077 C 
ATOM      8  C7  UNL d   1       5.997  -4.849   3.710  0.00  0.00    -0.001 A 
ENDROOT
TORSDOF 0
ENDMDL
