MODEL 1
REMARK minimizedAffinity -2.65704775
REMARK minimizedRMSD -1
REMARK  0 active torsions:
REMARK  status: ('A' for Active; 'I' for Inactive)
ROOT
ATOM      1  C   UNL d   1       5.993  -4.652   1.958  0.00  0.00     0.077 C 
ATOM      2  C1  UNL d   1       5.585  -4.331   3.365  0.00  0.00    -0.074 A 
ATOM      3  C2  UNL d   1       4.849  -5.245   4.127  0.00  0.00    -0.005 A 
ATOM      4  C3  UNL d   1       4.484  -4.936   5.437  0.00  0.00     0.006 A 
ATOM      5  C4  UNL d   1       4.851  -3.712   5.998  0.00  0.00    -0.005 A 
ATOM      6  C5  UNL d   1       5.588  -2.786   5.252  0.00  0.00    -0.074 A 
ATOM      7  C6  UNL d   1       5.999  -1.470   5.844  0.00  0.00     0.077 C 
ATOM      8  C7  UNL d   1       5.956  -3.107   3.939  0.00  0.00    -0.001 A 
ENDROOT
TORSDOF 0
ENDMDL
