MODEL 1
REMARK minimizedAffinity -3.41077447
REMARK minimizedRMSD -1
REMARK  0 active torsions:
REMARK  status: ('A' for Active; 'I' for Inactive)
ROOT
ATOM      1  C   UNL d   1       4.723  -4.632   5.990  0.00  0.00     0.077 C 
ATOM      2  C1  UNL d   1       5.155  -3.996   4.702  0.00  0.00    -0.074 A 
ATOM      3  C2  UNL d   1       5.375  -2.617   4.619  0.00  0.00    -0.005 A 
ATOM      4  C3  UNL d   1       5.785  -2.042   3.416  0.00  0.00     0.006 A 
ATOM      5  C4  UNL d   1       5.979  -2.837   2.287  0.00  0.00    -0.005 A 
ATOM      6  C5  UNL d   1       5.765  -4.218   2.350  0.00  0.00    -0.074 A 
ATOM      7  C6  UNL d   1       5.978  -5.088   1.148  0.00  0.00     0.077 C 
ATOM      8  C7  UNL d   1       5.360  -4.790   3.564  0.00  0.00    -0.001 A 
ENDROOT
TORSDOF 0
ENDMDL
