MODEL 1
REMARK minimizedAffinity -1.52803707
REMARK minimizedRMSD -1
REMARK  0 active torsions:
REMARK  status: ('A' for Active; 'I' for Inactive)
ROOT
ATOM      1  C   UNL d   1       5.962  -3.257  -1.046  0.00  0.00     0.077 C 
ATOM      2  C1  UNL d   1       5.853  -3.919  -2.388  0.00  0.00    -0.074 A 
ATOM      3  C2  UNL d   1       6.000  -5.303  -2.520  0.00  0.00    -0.005 A 
ATOM      4  C3  UNL d   1       5.887  -5.906  -3.773  0.00  0.00     0.006 A 
ATOM      5  C4  UNL d   1       5.627  -5.132  -4.904  0.00  0.00    -0.005 A 
ATOM      6  C5  UNL d   1       5.477  -3.746  -4.791  0.00  0.00    -0.074 A 
ATOM      7  C6  UNL d   1       5.187  -2.901  -5.996  0.00  0.00     0.077 C 
ATOM      8  C7  UNL d   1       5.584  -3.149  -3.528  0.00  0.00    -0.001 A 
ENDROOT
TORSDOF 0
ENDMDL
