MODEL 1
REMARK minimizedAffinity -2.62572241
REMARK minimizedRMSD -1
REMARK  0 active torsions:
REMARK  status: ('A' for Active; 'I' for Inactive)
ROOT
ATOM      1  C   UNL d   1       6.000  -3.411   1.749  0.00  0.00     0.077 C 
ATOM      2  C1  UNL d   1       5.776  -3.423   3.232  0.00  0.00    -0.074 A 
ATOM      3  C2  UNL d   1       5.881  -2.249   3.984  0.00  0.00    -0.005 A 
ATOM      4  C3  UNL d   1       5.661  -2.273   5.362  0.00  0.00     0.006 A 
ATOM      5  C4  UNL d   1       5.335  -3.471   5.999  0.00  0.00    -0.005 A 
ATOM      6  C5  UNL d   1       5.225  -4.655   5.264  0.00  0.00    -0.074 A 
ATOM      7  C6  UNL d   1       4.865  -5.948   5.932  0.00  0.00     0.077 C 
ATOM      8  C7  UNL d   1       5.440  -4.621   3.879  0.00  0.00    -0.001 A 
ENDROOT
TORSDOF 0
ENDMDL
