MODEL 1
REMARK minimizedAffinity -3.21386886
REMARK minimizedRMSD -1
REMARK  0 active torsions:
REMARK  status: ('A' for Active; 'I' for Inactive)
ROOT
ATOM      1  C   UNL d   1       4.387  -5.528   5.999  0.00  0.00     0.077 C 
ATOM      2  C1  UNL d   1       4.938  -4.463   5.098  0.00  0.00    -0.074 A 
ATOM      3  C2  UNL d   1       5.210  -3.180   5.584  0.00  0.00    -0.005 A 
ATOM      4  C3  UNL d   1       5.732  -2.203   4.736  0.00  0.00     0.006 A 
ATOM      5  C4  UNL d   1       5.986  -2.498   3.397  0.00  0.00    -0.005 A 
ATOM      6  C5  UNL d   1       5.721  -3.775   2.893  0.00  0.00    -0.074 A 
ATOM      7  C6  UNL d   1       5.998  -4.112   1.458  0.00  0.00     0.077 C 
ATOM      8  C7  UNL d   1       5.204  -4.754   3.752  0.00  0.00    -0.001 A 
ENDROOT
TORSDOF 0
ENDMDL
