MODEL 1
REMARK minimizedAffinity -3.91153407
REMARK minimizedRMSD -1
REMARK  0 active torsions:
REMARK  status: ('A' for Active; 'I' for Inactive)
ROOT
ATOM      1  C   UNL d   1       5.614  -5.145   1.037  0.00  0.00     0.077 C 
ATOM      2  C1  UNL d   1       5.635  -4.343   2.305  0.00  0.00    -0.074 A 
ATOM      3  C2  UNL d   1       5.995  -2.992   2.295  0.00  0.00    -0.005 A 
ATOM      4  C3  UNL d   1       6.000  -2.257   3.480  0.00  0.00     0.006 A 
ATOM      5  C4  UNL d   1       5.646  -2.865   4.686  0.00  0.00    -0.005 A 
ATOM      6  C5  UNL d   1       5.282  -4.215   4.715  0.00  0.00    -0.074 A 
ATOM      7  C6  UNL d   1       4.889  -4.881   6.000  0.00  0.00     0.077 C 
ATOM      8  C7  UNL d   1       5.272  -4.945   3.518  0.00  0.00    -0.001 A 
ENDROOT
TORSDOF 0
ENDMDL
