MODEL 1
REMARK minimizedAffinity -0.841426015
REMARK minimizedRMSD -1
REMARK  0 active torsions:
REMARK  status: ('A' for Active; 'I' for Inactive)
ROOT
ATOM      1  C   UNL d   1       5.998  -5.676  -5.633  0.00  0.00     0.077 C 
ATOM      2  C1  UNL d   1       5.238  -4.986  -4.540  0.00  0.00    -0.074 A 
ATOM      3  C2  UNL d   1       3.843  -4.894  -4.582  0.00  0.00    -0.005 A 
ATOM      4  C3  UNL d   1       3.149  -4.257  -3.553  0.00  0.00     0.006 A 
ATOM      5  C4  UNL d   1       3.841  -3.708  -2.473  0.00  0.00    -0.005 A 
ATOM      6  C5  UNL d   1       5.236  -3.792  -2.413  0.00  0.00    -0.074 A 
ATOM      7  C6  UNL d   1       5.995  -3.215  -1.255  0.00  0.00     0.077 C 
ATOM      8  C7  UNL d   1       5.926  -4.439  -3.448  0.00  0.00    -0.001 A 
ENDROOT
TORSDOF 0
ENDMDL
