MODEL 1
REMARK minimizedAffinity -1.41055846
REMARK minimizedRMSD -1
REMARK  0 active torsions:
REMARK  status: ('A' for Active; 'I' for Inactive)
ROOT
ATOM      1  C   UNL d   1       5.989  -3.787  -2.844  0.00  0.00     0.077 C 
ATOM      2  C1  UNL d   1       5.999  -3.211  -1.459  0.00  0.00    -0.074 A 
ATOM      3  C2  UNL d   1       6.000  -1.827  -1.256  0.00  0.00    -0.005 A 
ATOM      4  C3  UNL d   1       6.000  -1.306   0.038  0.00  0.00     0.006 A 
ATOM      5  C4  UNL d   1       5.999  -2.162   1.140  0.00  0.00    -0.005 A 
ATOM      6  C5  UNL d   1       5.998  -3.549   0.957  0.00  0.00    -0.074 A 
ATOM      7  C6  UNL d   1       5.988  -4.483   2.130  0.00  0.00     0.077 C 
ATOM      8  C7  UNL d   1       5.991  -4.064  -0.347  0.00  0.00    -0.001 A 
ENDROOT
TORSDOF 0
ENDMDL
