MODEL 1
REMARK minimizedAffinity -3.90604591
REMARK minimizedRMSD -1
REMARK  0 active torsions:
REMARK  status: ('A' for Active; 'I' for Inactive)
ROOT
ATOM      1  C   UNL d   1       5.997  -3.102  -0.589  0.00  0.00     0.077 C 
ATOM      2  C1  UNL d   1       5.990  -3.634   0.813  0.00  0.00    -0.074 A 
ATOM      3  C2  UNL d   1       5.995  -5.011   1.059  0.00  0.00    -0.005 A 
ATOM      4  C3  UNL d   1       5.998  -5.491   2.369  0.00  0.00     0.006 A 
ATOM      5  C4  UNL d   1       5.996  -4.600   3.444  0.00  0.00    -0.005 A 
ATOM      6  C5  UNL d   1       5.992  -3.221   3.216  0.00  0.00    -0.074 A 
ATOM      7  C6  UNL d   1       6.000  -2.250   4.360  0.00  0.00     0.077 C 
ATOM      8  C7  UNL d   1       5.996  -2.746   1.898  0.00  0.00    -0.001 A 
ENDROOT
TORSDOF 0
ENDMDL
