MODEL 1
REMARK minimizedAffinity -1.68416655
REMARK minimizedRMSD -1
REMARK  0 active torsions:
REMARK  status: ('A' for Active; 'I' for Inactive)
ROOT
ATOM      1  C2' OXE d   1       3.231   0.317   0.461  0.00  0.00     0.078 C 
ATOM      2  C1' OXE d   1       5.615   0.630  -0.987  0.00  0.00     0.078 C 
ATOM      3  C1  OXE d   1       4.317   0.929  -1.696  0.00  0.00    -0.078 A 
ATOM      4  C2  OXE d   1       3.153   0.728  -0.994  0.00  0.00    -0.078 A 
ATOM      5  C3  OXE d   1       1.931   1.040  -1.582  0.00  0.00     0.003 A 
ATOM      6  C4  OXE d   1       1.867   1.410  -2.931  0.00  0.00    -0.002 A 
ATOM      7  C5  OXE d   1       3.039   1.582  -3.676  0.00  0.00    -0.002 A 
ATOM      8  C6  OXE d   1       4.271   1.387  -3.062  0.00  0.00     0.003 A 
ENDROOT
TORSDOF 0
ENDMDL
