MODEL 1
REMARK minimizedAffinity -3.7534821
REMARK minimizedRMSD -1
REMARK  0 active torsions:
REMARK  status: ('A' for Active; 'I' for Inactive)
ROOT
ATOM      1  C2' OXE d   1       5.999   1.182   2.238  0.00  0.00     0.078 C 
ATOM      2  C1' OXE d   1       3.296   0.429   2.182  0.00  0.00     0.078 C 
ATOM      3  C1  OXE d   1       3.962   0.755   0.869  0.00  0.00    -0.078 A 
ATOM      4  C2  OXE d   1       5.272   1.168   0.911  0.00  0.00    -0.078 A 
ATOM      5  C3  OXE d   1       5.951   1.428  -0.276  0.00  0.00     0.003 A 
ATOM      6  C4  OXE d   1       5.269   1.422  -1.499  0.00  0.00    -0.002 A 
ATOM      7  C5  OXE d   1       3.923   1.043  -1.559  0.00  0.00    -0.002 A 
ATOM      8  C6  OXE d   1       3.269   0.666  -0.392  0.00  0.00     0.003 A 
ENDROOT
TORSDOF 0
ENDMDL
