MODEL 1
REMARK minimizedAffinity 0.90615648
REMARK minimizedRMSD -1
REMARK  0 active torsions:
REMARK  status: ('A' for Active; 'I' for Inactive)
ROOT
ATOM      1  C2' OXE d   1       3.871   1.720  -2.443  0.00  0.00     0.078 C 
ATOM      2  C1' OXE d   1       1.501   2.018  -0.970  0.00  0.00     0.078 C 
ATOM      3  C1  OXE d   1       2.635   1.256  -0.331  0.00  0.00    -0.078 A 
ATOM      4  C2  OXE d   1       3.774   1.075  -1.078  0.00  0.00    -0.078 A 
ATOM      5  C3  OXE d   1       4.871   0.427  -0.516  0.00  0.00     0.003 A 
ATOM      6  C4  OXE d   1       4.770  -0.175   0.744  0.00  0.00    -0.002 A 
ATOM      7  C5  OXE d   1       3.604  -0.037   1.505  0.00  0.00    -0.002 A 
ATOM      8  C6  OXE d   1       2.545   0.710   1.001  0.00  0.00     0.003 A 
ENDROOT
TORSDOF 0
ENDMDL
