MODEL 1
REMARK minimizedAffinity 11.5695868
REMARK minimizedRMSD -1
REMARK  0 active torsions:
REMARK  status: ('A' for Active; 'I' for Inactive)
ROOT
ATOM      1  C2' OXE d   1      -5.909  -4.161  -2.724  0.00  0.00     0.078 C 
ATOM      2  C1' OXE d   1      -4.374  -5.548  -0.827  0.00  0.00     0.078 C 
ATOM      3  C1  OXE d   1      -3.707  -4.432  -1.592  0.00  0.00    -0.078 A 
ATOM      4  C2  OXE d   1      -4.452  -3.790  -2.551  0.00  0.00    -0.078 A 
ATOM      5  C3  OXE d   1      -3.901  -2.717  -3.247  0.00  0.00     0.003 A 
ATOM      6  C4  OXE d   1      -2.550  -2.387  -3.088  0.00  0.00    -0.002 A 
ATOM      7  C5  OXE d   1      -1.762  -3.055  -2.145  0.00  0.00    -0.002 A 
ATOM      8  C6  OXE d   1      -2.336  -4.050  -1.360  0.00  0.00     0.003 A 
ENDROOT
TORSDOF 0
ENDMDL
