MODEL 1
REMARK minimizedAffinity 3.70722961
REMARK minimizedRMSD -1
REMARK  0 active torsions:
REMARK  status: ('A' for Active; 'I' for Inactive)
ROOT
ATOM      1  C2' OXE d   1       2.824   0.079   1.891  0.00  0.00     0.078 C 
ATOM      2  C1' OXE d   1       5.086  -0.666   0.405  0.00  0.00     0.078 C 
ATOM      3  C1  OXE d   1       4.094   0.266  -0.244  0.00  0.00    -0.078 A 
ATOM      4  C2  OXE d   1       2.966   0.588   0.473  0.00  0.00    -0.078 A 
ATOM      5  C3  OXE d   1       2.045   1.487  -0.057  0.00  0.00     0.003 A 
ATOM      6  C4  OXE d   1       2.179   1.945  -1.374  0.00  0.00    -0.002 A 
ATOM      7  C5  OXE d   1       3.300   1.598  -2.135  0.00  0.00    -0.002 A 
ATOM      8  C6  OXE d   1       4.285   0.795  -1.571  0.00  0.00     0.003 A 
ENDROOT
TORSDOF 0
ENDMDL
