MODEL 1
REMARK minimizedAffinity 1.3461715
REMARK minimizedRMSD -1
REMARK  0 active torsions:
REMARK  status: ('A' for Active; 'I' for Inactive)
ROOT
ATOM      1  C2' OXE d   1       2.473   1.996  -0.059  0.00  0.00     0.078 C 
ATOM      2  C1' OXE d   1       4.483   3.733   0.846  0.00  0.00     0.078 C 
ATOM      3  C1  OXE d   1       4.694   2.252   1.038  0.00  0.00    -0.078 A 
ATOM      4  C2  OXE d   1       3.685   1.412   0.634  0.00  0.00    -0.078 A 
ATOM      5  C3  OXE d   1       3.852   0.034   0.739  0.00  0.00     0.003 A 
ATOM      6  C4  OXE d   1       4.971  -0.497   1.391  0.00  0.00    -0.002 A 
ATOM      7  C5  OXE d   1       5.993   0.343   1.845  0.00  0.00    -0.002 A 
ATOM      8  C6  OXE d   1       5.890   1.715   1.639  0.00  0.00     0.003 A 
ENDROOT
TORSDOF 0
ENDMDL
