MODEL 1
REMARK minimizedAffinity 5.37951756
REMARK minimizedRMSD -1
REMARK  0 active torsions:
REMARK  status: ('A' for Active; 'I' for Inactive)
ROOT
ATOM      1  C2' OXE d   1       5.431  -0.753   0.587  0.00  0.00     0.078 C 
ATOM      2  C1' OXE d   1       4.231   1.126  -1.118  0.00  0.00     0.078 C 
ATOM      3  C1  OXE d   1       3.428   0.629   0.058  0.00  0.00    -0.078 A 
ATOM      4  C2  OXE d   1       4.006  -0.325   0.860  0.00  0.00    -0.078 A 
ATOM      5  C3  OXE d   1       3.329  -0.778   1.990  0.00  0.00     0.003 A 
ATOM      6  C4  OXE d   1       2.007  -0.384   2.229  0.00  0.00    -0.002 A 
ATOM      7  C5  OXE d   1       1.385   0.557   1.402  0.00  0.00    -0.002 A 
ATOM      8  C6  OXE d   1       2.095   1.104   0.338  0.00  0.00     0.003 A 
ENDROOT
TORSDOF 0
ENDMDL
