MODEL 1
REMARK minimizedAffinity 9.82425308
REMARK minimizedRMSD -1
REMARK  0 active torsions:
REMARK  status: ('A' for Active; 'I' for Inactive)
ROOT
ATOM      1  C2' OXE d   1      -1.215  -3.363  -6.000  0.00  0.00     0.078 C 
ATOM      2  C1' OXE d   1      -0.797  -5.562  -4.305  0.00  0.00     0.078 C 
ATOM      3  C1  OXE d   1      -1.397  -4.315  -3.705  0.00  0.00    -0.078 A 
ATOM      4  C2  OXE d   1      -1.555  -3.228  -4.531  0.00  0.00    -0.078 A 
ATOM      5  C3  OXE d   1      -2.154  -2.071  -4.042  0.00  0.00     0.003 A 
ATOM      6  C4  OXE d   1      -2.456  -1.951  -2.680  0.00  0.00    -0.002 A 
ATOM      7  C5  OXE d   1      -2.267  -3.032  -1.813  0.00  0.00    -0.002 A 
ATOM      8  C6  OXE d   1      -1.779  -4.233  -2.317  0.00  0.00     0.003 A 
ENDROOT
TORSDOF 0
ENDMDL
