MODEL 1
REMARK minimizedAffinity 3.05662251
REMARK minimizedRMSD -1
REMARK  0 active torsions:
REMARK  status: ('A' for Active; 'I' for Inactive)
ROOT
ATOM      1  C2' OXE d   1       1.751   2.545  -2.398  0.00  0.00     0.078 C 
ATOM      2  C1' OXE d   1       4.246   1.468  -3.102  0.00  0.00     0.078 C 
ATOM      3  C1  OXE d   1       3.667   1.086  -1.763  0.00  0.00    -0.078 A 
ATOM      4  C2  OXE d   1       2.468   1.654  -1.407  0.00  0.00    -0.078 A 
ATOM      5  C3  OXE d   1       1.864   1.294  -0.206  0.00  0.00     0.003 A 
ATOM      6  C4  OXE d   1       2.539   0.477   0.710  0.00  0.00    -0.002 A 
ATOM      7  C5  OXE d   1       3.779  -0.081   0.384  0.00  0.00    -0.002 A 
ATOM      8  C6  OXE d   1       4.336   0.178  -0.864  0.00  0.00     0.003 A 
ENDROOT
TORSDOF 0
ENDMDL
