MODEL 1
REMARK minimizedAffinity 14.7658787
REMARK minimizedRMSD -1
REMARK  0 active torsions:
REMARK  status: ('A' for Active; 'I' for Inactive)
ROOT
ATOM      1  C2' OXE d   1      -0.680  -2.590  -5.991  0.00  0.00     0.078 C 
ATOM      2  C1' OXE d   1      -0.030  -4.748  -4.317  0.00  0.00     0.078 C 
ATOM      3  C1  OXE d   1       1.087  -3.831  -4.748  0.00  0.00    -0.078 A 
ATOM      4  C2  OXE d   1       0.768  -2.805  -5.605  0.00  0.00    -0.078 A 
ATOM      5  C3  OXE d   1       1.751  -1.898  -5.991  0.00  0.00     0.003 A 
ATOM      6  C4  OXE d   1       3.089  -2.110  -5.638  0.00  0.00    -0.002 A 
ATOM      7  C5  OXE d   1       3.442  -3.171  -4.798  0.00  0.00    -0.002 A 
ATOM      8  C6  OXE d   1       2.449  -4.014  -4.311  0.00  0.00     0.003 A 
ENDROOT
TORSDOF 0
ENDMDL
