MODEL 1
REMARK minimizedAffinity 17.1391869
REMARK minimizedRMSD -1
REMARK  0 active torsions:
REMARK  status: ('A' for Active; 'I' for Inactive)
ROOT
ATOM      1  C2' OXE d   1       1.231   3.126   1.151  0.00  0.00     0.078 C 
ATOM      2  C1' OXE d   1       0.957   0.708   2.550  0.00  0.00     0.078 C 
ATOM      3  C1  OXE d   1       2.094   0.826   1.566  0.00  0.00    -0.078 A 
ATOM      4  C2  OXE d   1       2.193   1.996   0.852  0.00  0.00    -0.078 A 
ATOM      5  C3  OXE d   1       3.255   2.178  -0.029  0.00  0.00     0.003 A 
ATOM      6  C4  OXE d   1       4.134   1.124  -0.307  0.00  0.00    -0.002 A 
ATOM      7  C5  OXE d   1       4.027  -0.090   0.380  0.00  0.00    -0.002 A 
ATOM      8  C6  OXE d   1       3.041  -0.240   1.349  0.00  0.00     0.003 A 
ENDROOT
TORSDOF 0
ENDMDL
