MODEL 1
REMARK minimizedAffinity 2.39637828
REMARK minimizedRMSD -1
REMARK  0 active torsions:
REMARK  status: ('A' for Active; 'I' for Inactive)
ROOT
ATOM      1  C2' OXE d   1      -0.626  -2.606   0.731  0.00  0.00     0.078 C 
ATOM      2  C1' OXE d   1      -1.264  -5.310   1.133  0.00  0.00     0.078 C 
ATOM      3  C1  OXE d   1      -1.920  -4.597  -0.023  0.00  0.00    -0.078 A 
ATOM      4  C2  OXE d   1      -1.638  -3.262  -0.184  0.00  0.00    -0.078 A 
ATOM      5  C3  OXE d   1      -2.173  -2.570  -1.267  0.00  0.00     0.003 A 
ATOM      6  C4  OXE d   1      -3.116  -3.180  -2.102  0.00  0.00    -0.002 A 
ATOM      7  C5  OXE d   1      -3.447  -4.529  -1.932  0.00  0.00    -0.002 A 
ATOM      8  C6  OXE d   1      -2.828  -5.261  -0.926  0.00  0.00     0.003 A 
ENDROOT
TORSDOF 0
ENDMDL
