MODEL 1
REMARK minimizedAffinity 3.9928503
REMARK minimizedRMSD -1
REMARK  0 active torsions:
REMARK  status: ('A' for Active; 'I' for Inactive)
ROOT
ATOM      1  C2' OXE d   1       4.968   0.432  -3.742  0.00  0.00     0.078 C 
ATOM      2  C1' OXE d   1       2.993   1.142  -1.877  0.00  0.00     0.078 C 
ATOM      3  C1  OXE d   1       2.766   1.519  -3.319  0.00  0.00    -0.078 A 
ATOM      4  C2  OXE d   1       3.759   1.209  -4.218  0.00  0.00    -0.078 A 
ATOM      5  C3  OXE d   1       3.576   1.485  -5.570  0.00  0.00     0.003 A 
ATOM      6  C4  OXE d   1       2.460   2.213  -6.000  0.00  0.00    -0.002 A 
ATOM      7  C5  OXE d   1       1.456   2.573  -5.095  0.00  0.00    -0.002 A 
ATOM      8  C6  OXE d   1       1.573   2.197  -3.762  0.00  0.00     0.003 A 
ENDROOT
TORSDOF 0
ENDMDL
