MODEL 1
REMARK minimizedAffinity 10.7168388
REMARK minimizedRMSD -1
REMARK  0 active torsions:
REMARK  status: ('A' for Active; 'I' for Inactive)
ROOT
ATOM      1  C2' OXE d   1      -2.229  -2.201  -3.804  0.00  0.00     0.078 C 
ATOM      2  C1' OXE d   1      -4.049  -3.987  -2.630  0.00  0.00     0.078 C 
ATOM      3  C1  OXE d   1      -2.984  -3.386  -1.747  0.00  0.00    -0.078 A 
ATOM      4  C2  OXE d   1      -2.069  -2.550  -2.340  0.00  0.00    -0.078 A 
ATOM      5  C3  OXE d   1      -1.100  -1.926  -1.560  0.00  0.00     0.003 A 
ATOM      6  C4  OXE d   1      -0.953  -2.261  -0.209  0.00  0.00    -0.002 A 
ATOM      7  C5  OXE d   1      -1.850  -3.141   0.406  0.00  0.00    -0.002 A 
ATOM      8  C6  OXE d   1      -2.895  -3.679  -0.338  0.00  0.00     0.003 A 
ENDROOT
TORSDOF 0
ENDMDL
