MODEL 1
REMARK minimizedAffinity 12.1171598
REMARK minimizedRMSD -1
REMARK  0 active torsions:
REMARK  status: ('A' for Active; 'I' for Inactive)
ROOT
ATOM      1  C2' OXE d   1       1.743   1.202  -0.369  0.00  0.00     0.078 C 
ATOM      2  C1' OXE d   1       3.596   1.805  -2.390  0.00  0.00     0.078 C 
ATOM      3  C1  OXE d   1       4.034   0.871  -1.290  0.00  0.00    -0.078 A 
ATOM      4  C2  OXE d   1       3.136   0.618  -0.281  0.00  0.00    -0.078 A 
ATOM      5  C3  OXE d   1       3.470  -0.280   0.729  0.00  0.00     0.003 A 
ATOM      6  C4  OXE d   1       4.765  -0.808   0.809  0.00  0.00    -0.002 A 
ATOM      7  C5  OXE d   1       5.707  -0.532  -0.187  0.00  0.00    -0.002 A 
ATOM      8  C6  OXE d   1       5.345   0.270  -1.264  0.00  0.00     0.003 A 
ENDROOT
TORSDOF 0
ENDMDL
