MODEL 1
REMARK minimizedAffinity -4.46541023
REMARK minimizedRMSD -1
REMARK  0 active torsions:
REMARK  status: ('A' for Active; 'I' for Inactive)
ROOT
ATOM      1  C   UNL d   1      -2.233  -0.532   1.220  0.00  0.00     0.077 C 
ATOM      2  C1  UNL d   1      -0.741  -0.596   1.362  0.00  0.00    -0.074 A 
ATOM      3  C2  UNL d   1      -0.151  -1.192   2.482  0.00  0.00    -0.005 A 
ATOM      4  C3  UNL d   1       1.238  -1.253   2.596  0.00  0.00     0.006 A 
ATOM      5  C4  UNL d   1       2.049  -0.720   1.593  0.00  0.00    -0.005 A 
ATOM      6  C5  UNL d   1       1.477  -0.121   0.466  0.00  0.00    -0.074 A 
ATOM      7  C6  UNL d   1       2.335   0.447  -0.625  0.00  0.00     0.077 C 
ATOM      8  C7  UNL d   1       0.081  -0.070   0.356  0.00  0.00    -0.001 A 
ENDROOT
TORSDOF 0
ENDMDL
