MODEL 1
REMARK minimizedAffinity -6.00924492
REMARK minimizedRMSD -1
REMARK  0 active torsions:
REMARK  status: ('A' for Active; 'I' for Inactive)
ROOT
ATOM      1  C   UNL d   1      -0.678  -0.112  -0.768  0.00  0.00     0.077 C 
ATOM      2  C1  UNL d   1       0.447  -0.729   0.008  0.00  0.00    -0.074 A 
ATOM      3  C2  UNL d   1       1.462  -1.440  -0.641  0.00  0.00    -0.005 A 
ATOM      4  C3  UNL d   1       2.508  -2.000   0.092  0.00  0.00     0.006 A 
ATOM      5  C4  UNL d   1       2.549  -1.856   1.479  0.00  0.00    -0.005 A 
ATOM      6  C5  UNL d   1       1.544  -1.148   2.145  0.00  0.00    -0.074 A 
ATOM      7  C6  UNL d   1       1.579  -0.976   3.635  0.00  0.00     0.077 C 
ATOM      8  C7  UNL d   1       0.500  -0.582   1.401  0.00  0.00    -0.001 A 
ENDROOT
TORSDOF 0
ENDMDL
