MODEL 1
REMARK minimizedAffinity -4.79112148
REMARK minimizedRMSD -1
REMARK  0 active torsions:
REMARK  status: ('A' for Active; 'I' for Inactive)
ROOT
ATOM      1  C   UNL d   1       2.992  -2.194   0.385  0.00  0.00     0.077 C 
ATOM      2  C1  UNL d   1       1.788  -1.353   0.689  0.00  0.00    -0.074 A 
ATOM      3  C2  UNL d   1       1.248  -1.310   1.978  0.00  0.00    -0.005 A 
ATOM      4  C3  UNL d   1       0.134  -0.515   2.248  0.00  0.00     0.006 A 
ATOM      5  C4  UNL d   1      -0.450   0.244   1.234  0.00  0.00    -0.005 A 
ATOM      6  C5  UNL d   1       0.077   0.215  -0.061  0.00  0.00    -0.074 A 
ATOM      7  C6  UNL d   1      -0.533   1.032  -1.161  0.00  0.00     0.077 C 
ATOM      8  C7  UNL d   1       1.201  -0.581  -0.323  0.00  0.00    -0.001 A 
ENDROOT
TORSDOF 0
ENDMDL
