MODEL 1
REMARK minimizedAffinity -3.64208484
REMARK minimizedRMSD -1
REMARK  0 active torsions:
REMARK  status: ('A' for Active; 'I' for Inactive)
ROOT
ATOM      1  C   UNL d   1      -1.320   0.882  -1.370  0.00  0.00     0.077 C 
ATOM      2  C1  UNL d   1      -0.168   0.093  -0.822  0.00  0.00    -0.074 A 
ATOM      3  C2  UNL d   1       0.665  -0.645  -1.668  0.00  0.00    -0.005 A 
ATOM      4  C3  UNL d   1       1.738  -1.366  -1.144  0.00  0.00     0.006 A 
ATOM      5  C4  UNL d   1       1.988  -1.357   0.228  0.00  0.00    -0.005 A 
ATOM      6  C5  UNL d   1       1.166  -0.623   1.090  0.00  0.00    -0.074 A 
ATOM      7  C6  UNL d   1       1.427  -0.594   2.567  0.00  0.00     0.077 C 
ATOM      8  C7  UNL d   1       0.094   0.105   0.556  0.00  0.00    -0.001 A 
ENDROOT
TORSDOF 0
ENDMDL
