MODEL 1
REMARK minimizedAffinity 1.4573977
REMARK minimizedRMSD -1
REMARK  0 active torsions:
REMARK  status: ('A' for Active; 'I' for Inactive)
ROOT
ATOM      1  C   UNL d   1      -1.365   0.686   1.171  0.00  0.00     0.077 C 
ATOM      2  C1  UNL d   1      -0.248  -0.315   1.166  0.00  0.00    -0.074 A 
ATOM      3  C2  UNL d   1       0.031  -1.086   2.299  0.00  0.00    -0.005 A 
ATOM      4  C3  UNL d   1       1.066  -2.020   2.276  0.00  0.00     0.006 A 
ATOM      5  C4  UNL d   1       1.831  -2.193   1.122  0.00  0.00    -0.005 A 
ATOM      6  C5  UNL d   1       1.566  -1.433  -0.021  0.00  0.00    -0.074 A 
ATOM      7  C6  UNL d   1       2.372  -1.613  -1.273  0.00  0.00     0.077 C 
ATOM      8  C7  UNL d   1       0.519  -0.501   0.007  0.00  0.00    -0.001 A 
ENDROOT
TORSDOF 0
ENDMDL
