MODEL 1
REMARK minimizedAffinity -2.57588172
REMARK minimizedRMSD -1
REMARK  0 active torsions:
REMARK  status: ('A' for Active; 'I' for Inactive)
ROOT
ATOM      1  C   UNL d   1      -0.787   0.573  -1.458  0.00  0.00     0.077 C 
ATOM      2  C1  UNL d   1       0.133  -0.213  -0.572  0.00  0.00    -0.074 A 
ATOM      3  C2  UNL d   1       1.213  -0.923  -1.106  0.00  0.00    -0.005 A 
ATOM      4  C3  UNL d   1       2.065  -1.642  -0.268  0.00  0.00     0.006 A 
ATOM      5  C4  UNL d   1       1.847  -1.658   1.110  0.00  0.00    -0.005 A 
ATOM      6  C5  UNL d   1       0.773  -0.952   1.662  0.00  0.00    -0.074 A 
ATOM      7  C6  UNL d   1       0.531  -0.950   3.142  0.00  0.00     0.077 C 
ATOM      8  C7  UNL d   1      -0.075  -0.227   0.814  0.00  0.00    -0.001 A 
ENDROOT
TORSDOF 0
ENDMDL
