MODEL 1
REMARK minimizedAffinity -1.76554871
REMARK minimizedRMSD -1
REMARK  0 active torsions:
REMARK  status: ('A' for Active; 'I' for Inactive)
ROOT
ATOM      1  C   UNL d   1      -0.206   0.493  -1.202  0.00  0.00     0.077 C 
ATOM      2  C1  UNL d   1      -0.773   1.489  -2.170  0.00  0.00    -0.074 A 
ATOM      3  C2  UNL d   1      -0.145   1.739  -3.395  0.00  0.00    -0.005 A 
ATOM      4  C3  UNL d   1      -0.689   2.661  -4.289  0.00  0.00     0.006 A 
ATOM      5  C4  UNL d   1      -1.864   3.342  -3.968  0.00  0.00    -0.005 A 
ATOM      6  C5  UNL d   1      -2.506   3.104  -2.748  0.00  0.00    -0.074 A 
ATOM      7  C6  UNL d   1      -3.775   3.820  -2.392  0.00  0.00     0.077 C 
ATOM      8  C7  UNL d   1      -1.957   2.171  -1.858  0.00  0.00    -0.001 A 
ENDROOT
TORSDOF 0
ENDMDL
