MODEL 1
REMARK minimizedAffinity -5.06076765
REMARK minimizedRMSD -1
REMARK  0 active torsions:
REMARK  status: ('A' for Active; 'I' for Inactive)
ROOT
ATOM      1  C   UNL d   1       1.198  -1.811  -2.004  0.00  0.00     0.077 C 
ATOM      2  C1  UNL d   1       0.625  -1.312  -0.711  0.00  0.00    -0.074 A 
ATOM      3  C2  UNL d   1      -0.752  -1.120  -0.560  0.00  0.00    -0.005 A 
ATOM      4  C3  UNL d   1      -1.271  -0.665   0.652  0.00  0.00     0.006 A 
ATOM      5  C4  UNL d   1      -0.419  -0.397   1.724  0.00  0.00    -0.005 A 
ATOM      6  C5  UNL d   1       0.961  -0.583   1.593  0.00  0.00    -0.074 A 
ATOM      7  C6  UNL d   1       1.890  -0.309   2.738  0.00  0.00     0.077 C 
ATOM      8  C7  UNL d   1       1.474  -1.048   0.374  0.00  0.00    -0.001 A 
ENDROOT
TORSDOF 0
ENDMDL
