MODEL 1
REMARK minimizedAffinity 1.96297038
REMARK minimizedRMSD -1
REMARK  0 active torsions:
REMARK  status: ('A' for Active; 'I' for Inactive)
ROOT
ATOM      1  C   UNL d   1       4.795   5.998   2.454  0.00  0.00     0.172 C 
ATOM      2  N   UNL d   1       4.800   5.931   3.896  0.00  0.00    -0.070 N 
ATOM      3  C1  UNL d   1       5.911   5.792   4.685  0.00  0.00    -0.004 A 
ATOM      4  C2  UNL d   1       5.495   5.770   5.999  0.00  0.00    -0.047 A 
ATOM      5  C3  UNL d   1       4.086   5.899   6.000  0.00  0.00    -0.047 A 
ATOM      6  C4  UNL d   1       3.682   5.997   4.685  0.00  0.00    -0.004 A 
ENDROOT
TORSDOF 0
ENDMDL
