MODEL 1
REMARK minimizedAffinity 0.985224843
REMARK minimizedRMSD -1
REMARK  0 active torsions:
REMARK  status: ('A' for Active; 'I' for Inactive)
ROOT
ATOM      1  C   UNL d   1      -3.722  -1.490  -3.071  0.00  0.00     0.172 C 
ATOM      2  N   UNL d   1      -3.293  -2.475  -2.106  0.00  0.00    -0.070 N 
ATOM      3  C1  UNL d   1      -2.111  -3.165  -2.141  0.00  0.00    -0.004 A 
ATOM      4  C2  UNL d   1      -2.080  -4.005  -1.049  0.00  0.00    -0.047 A 
ATOM      5  C3  UNL d   1      -3.286  -3.814  -0.333  0.00  0.00    -0.047 A 
ATOM      6  C4  UNL d   1      -4.019  -2.861  -1.010  0.00  0.00    -0.004 A 
ENDROOT
TORSDOF 0
ENDMDL
