MODEL 1
REMARK minimizedAffinity 4.19064856
REMARK minimizedRMSD -1
REMARK  0 active torsions:
REMARK  status: ('A' for Active; 'I' for Inactive)
ROOT
ATOM      1  C   UNL d   1       1.894  -1.411   0.370  0.00  0.00     0.172 C 
ATOM      2  N   UNL d   1       2.283  -0.199   1.053  0.00  0.00    -0.070 N 
ATOM      3  C1  UNL d   1       1.434   0.663   1.694  0.00  0.00    -0.004 A 
ATOM      4  C2  UNL d   1       2.191   1.690   2.214  0.00  0.00    -0.047 A 
ATOM      5  C3  UNL d   1       3.541   1.437   1.874  0.00  0.00    -0.047 A 
ATOM      6  C4  UNL d   1       3.569   0.261   1.155  0.00  0.00    -0.004 A 
ENDROOT
TORSDOF 0
ENDMDL
