MODEL 1
REMARK minimizedAffinity 1.74594235
REMARK minimizedRMSD -1
REMARK  0 active torsions:
REMARK  status: ('A' for Active; 'I' for Inactive)
ROOT
ATOM      1  C   UNL d   1      -2.545  -1.121   3.369  0.00  0.00     0.172 C 
ATOM      2  N   UNL d   1      -3.921  -1.561   3.365  0.00  0.00    -0.070 N 
ATOM      3  C1  UNL d   1      -4.564  -2.177   4.404  0.00  0.00    -0.004 A 
ATOM      4  C2  UNL d   1      -5.858  -2.435   4.006  0.00  0.00    -0.047 A 
ATOM      5  C3  UNL d   1      -5.997  -1.957   2.681  0.00  0.00    -0.047 A 
ATOM      6  C4  UNL d   1      -4.782  -1.421   2.309  0.00  0.00    -0.004 A 
ENDROOT
TORSDOF 0
ENDMDL
