MODEL 1
REMARK minimizedAffinity -0.251652956
REMARK minimizedRMSD -1
REMARK  0 active torsions:
REMARK  status: ('A' for Active; 'I' for Inactive)
ROOT
ATOM      1  C   UNL d   1       1.709  -3.017  -1.363  0.00  0.00     0.172 C 
ATOM      2  N   UNL d   1       0.616  -2.849  -0.434  0.00  0.00    -0.070 N 
ATOM      3  C1  UNL d   1       0.731  -2.772   0.928  0.00  0.00    -0.004 A 
ATOM      4  C2  UNL d   1      -0.534  -2.612   1.450  0.00  0.00    -0.047 A 
ATOM      5  C3  UNL d   1      -1.441  -2.593   0.364  0.00  0.00    -0.047 A 
ATOM      6  C4  UNL d   1      -0.702  -2.742  -0.791  0.00  0.00    -0.004 A 
ENDROOT
TORSDOF 0
ENDMDL
