MODEL 1
REMARK minimizedAffinity 3.16521883
REMARK minimizedRMSD -1
REMARK  0 active torsions:
REMARK  status: ('A' for Active; 'I' for Inactive)
ROOT
ATOM      1  C   UNL d   1      -1.470  -5.845   2.693  0.00  0.00     0.172 C 
ATOM      2  N   UNL d   1      -2.108  -4.987   1.722  0.00  0.00    -0.070 N 
ATOM      3  C1  UNL d   1      -3.094  -5.364   0.850  0.00  0.00    -0.004 A 
ATOM      4  C2  UNL d   1      -3.434  -4.262   0.095  0.00  0.00    -0.047 A 
ATOM      5  C3  UNL d   1      -2.623  -3.186   0.528  0.00  0.00    -0.047 A 
ATOM      6  C4  UNL d   1      -1.812  -3.663   1.536  0.00  0.00    -0.004 A 
ENDROOT
TORSDOF 0
ENDMDL
