MODEL 1
REMARK minimizedAffinity -1.66133606
REMARK minimizedRMSD -1
REMARK  0 active torsions:
REMARK  status: ('A' for Active; 'I' for Inactive)
ROOT
ATOM      1  C   UNL d   1       1.730   0.577   1.035  0.00  0.00     0.172 C 
ATOM      2  N   UNL d   1       1.270  -0.740   0.662  0.00  0.00    -0.070 N 
ATOM      3  C1  UNL d   1       2.062  -1.769   0.228  0.00  0.00    -0.004 A 
ATOM      4  C2  UNL d   1       1.247  -2.852  -0.023  0.00  0.00    -0.047 A 
ATOM      5  C3  UNL d   1      -0.081  -2.460   0.270  0.00  0.00    -0.047 A 
ATOM      6  C4  UNL d   1      -0.037  -1.148   0.692  0.00  0.00    -0.004 A 
ENDROOT
TORSDOF 0
ENDMDL
