MODEL 1
REMARK minimizedAffinity -0.331735075
REMARK minimizedRMSD -1
REMARK  0 active torsions:
REMARK  status: ('A' for Active; 'I' for Inactive)
ROOT
ATOM      1  C   UNL d   1       4.151   5.999   2.412  0.00  0.00     0.172 C 
ATOM      2  N   UNL d   1       4.625   5.990   3.776  0.00  0.00    -0.070 N 
ATOM      3  C1  UNL d   1       3.837   6.000   4.896  0.00  0.00    -0.004 A 
ATOM      4  C2  UNL d   1       4.666   5.986   5.996  0.00  0.00    -0.047 A 
ATOM      5  C3  UNL d   1       5.999   5.968   5.522  0.00  0.00    -0.047 A 
ATOM      6  C4  UNL d   1       5.945   5.971   4.144  0.00  0.00    -0.004 A 
ENDROOT
TORSDOF 0
ENDMDL
