MODEL 1
REMARK minimizedAffinity 1.65427947
REMARK minimizedRMSD -1
REMARK  0 active torsions:
REMARK  status: ('A' for Active; 'I' for Inactive)
ROOT
ATOM      1  C   UNL d   1       3.683   5.997   2.349  0.00  0.00     0.172 C 
ATOM      2  N   UNL d   1       3.988   5.997   3.761  0.00  0.00    -0.070 N 
ATOM      3  C1  UNL d   1       5.244   5.999   4.306  0.00  0.00    -0.004 A 
ATOM      4  C2  UNL d   1       5.108   5.999   5.678  0.00  0.00    -0.047 A 
ATOM      5  C3  UNL d   1       3.723   5.995   5.967  0.00  0.00    -0.047 A 
ATOM      6  C4  UNL d   1       3.052   5.993   4.762  0.00  0.00    -0.004 A 
ENDROOT
TORSDOF 0
ENDMDL
