MODEL 1
REMARK minimizedAffinity 1.91907847
REMARK minimizedRMSD -1
REMARK  0 active torsions:
REMARK  status: ('A' for Active; 'I' for Inactive)
ROOT
ATOM      1  C   UNL d   1       1.248   1.865  -4.855  0.00  0.00     0.172 C 
ATOM      2  N   UNL d   1      -0.083   2.352  -5.134  0.00  0.00    -0.070 N 
ATOM      3  C1  UNL d   1      -1.241   1.869  -4.584  0.00  0.00    -0.004 A 
ATOM      4  C2  UNL d   1      -2.290   2.597  -5.104  0.00  0.00    -0.047 A 
ATOM      5  C3  UNL d   1      -1.743   3.549  -5.997  0.00  0.00    -0.047 A 
ATOM      6  C4  UNL d   1      -0.376   3.375  -5.996  0.00  0.00    -0.004 A 
ENDROOT
TORSDOF 0
ENDMDL
