MODEL 1
REMARK minimizedAffinity 1.53256547
REMARK minimizedRMSD -1
REMARK  0 active torsions:
REMARK  status: ('A' for Active; 'I' for Inactive)
ROOT
ATOM      1  C   UNL d   1       1.925   1.561  -4.526  0.00  0.00     0.172 C 
ATOM      2  N   UNL d   1       0.739   2.353  -4.748  0.00  0.00    -0.070 N 
ATOM      3  C1  UNL d   1      -0.150   2.747  -3.784  0.00  0.00    -0.004 A 
ATOM      4  C2  UNL d   1      -1.140   3.484  -4.397  0.00  0.00    -0.047 A 
ATOM      5  C3  UNL d   1      -0.836   3.534  -5.779  0.00  0.00    -0.047 A 
ATOM      6  C4  UNL d   1       0.332   2.826  -5.968  0.00  0.00    -0.004 A 
ENDROOT
TORSDOF 0
ENDMDL
