MODEL 1
REMARK minimizedAffinity -1.39053297
REMARK minimizedRMSD -1
REMARK  0 active torsions:
REMARK  status: ('A' for Active; 'I' for Inactive)
ROOT
ATOM      1  C   UNL d   1       2.366  -0.249   0.606  0.00  0.00     0.172 C 
ATOM      2  N   UNL d   1       2.219  -1.666   0.372  0.00  0.00    -0.070 N 
ATOM      3  C1  UNL d   1       1.522  -2.538   1.166  0.00  0.00    -0.004 A 
ATOM      4  C2  UNL d   1       1.621  -3.792   0.603  0.00  0.00    -0.047 A 
ATOM      5  C3  UNL d   1       2.404  -3.670  -0.569  0.00  0.00    -0.047 A 
ATOM      6  C4  UNL d   1       2.761  -2.344  -0.688  0.00  0.00    -0.004 A 
ENDROOT
TORSDOF 0
ENDMDL
