MODEL 1
REMARK minimizedAffinity -0.124622241
REMARK minimizedRMSD -1
REMARK  0 active torsions:
REMARK  status: ('A' for Active; 'I' for Inactive)
ROOT
ATOM      1  C   UNL d   1       1.494   2.336  -4.834  0.00  0.00     0.172 C 
ATOM      2  N   UNL d   1       0.074   2.581  -4.915  0.00  0.00    -0.070 N 
ATOM      3  C1  UNL d   1      -0.587   3.092  -6.000  0.00  0.00    -0.004 A 
ATOM      4  C2  UNL d   1      -1.926   3.172  -5.680  0.00  0.00    -0.047 A 
ATOM      5  C3  UNL d   1      -2.074   2.693  -4.357  0.00  0.00    -0.047 A 
ATOM      6  C4  UNL d   1      -0.821   2.333  -3.907  0.00  0.00    -0.004 A 
ENDROOT
TORSDOF 0
ENDMDL
