MODEL 1
REMARK minimizedAffinity -3.07683325
REMARK minimizedRMSD -1
REMARK  0 active torsions:
REMARK  status: ('A' for Active; 'I' for Inactive)
ROOT
ATOM      1  C   UNL d   1      -4.749   1.511   0.934  0.00  0.00     0.172 C 
ATOM      2  N   UNL d   1      -3.344   1.415   0.614  0.00  0.00    -0.070 N 
ATOM      3  C1  UNL d   1      -2.391   0.800   1.381  0.00  0.00    -0.004 A 
ATOM      4  C2  UNL d   1      -1.181   0.926   0.733  0.00  0.00    -0.047 A 
ATOM      5  C3  UNL d   1      -1.416   1.641  -0.466  0.00  0.00    -0.047 A 
ATOM      6  C4  UNL d   1      -2.763   1.932  -0.514  0.00  0.00    -0.004 A 
ENDROOT
TORSDOF 0
ENDMDL
