MODEL 1
REMARK minimizedAffinity 0.260147691
REMARK minimizedRMSD -1
REMARK  0 active torsions:
REMARK  status: ('A' for Active; 'I' for Inactive)
ROOT
ATOM      1  C   UNL d   1       4.895   6.000   4.148  0.00  0.00     0.172 C 
ATOM      2  N   UNL d   1       4.598   5.991   2.735  0.00  0.00    -0.070 N 
ATOM      3  C1  UNL d   1       5.522   5.975   1.725  0.00  0.00    -0.004 A 
ATOM      4  C2  UNL d   1       4.838   5.971   0.528  0.00  0.00    -0.047 A 
ATOM      5  C3  UNL d   1       3.456   5.987   0.830  0.00  0.00    -0.047 A 
ATOM      6  C4  UNL d   1       3.335   5.999   2.203  0.00  0.00    -0.004 A 
ENDROOT
TORSDOF 0
ENDMDL
