MODEL 1
REMARK minimizedAffinity 0.461313128
REMARK minimizedRMSD -1
REMARK  0 active torsions:
REMARK  status: ('A' for Active; 'I' for Inactive)
ROOT
ATOM      1  C   UNL d   1      -1.033  -2.333   1.208  0.00  0.00     0.172 C 
ATOM      2  N   UNL d   1      -1.105  -3.234   0.082  0.00  0.00    -0.070 N 
ATOM      3  C1  UNL d   1      -1.817  -4.403   0.039  0.00  0.00    -0.004 A 
ATOM      4  C2  UNL d   1      -1.628  -4.967  -1.204  0.00  0.00    -0.047 A 
ATOM      5  C3  UNL d   1      -0.772  -4.108  -1.933  0.00  0.00    -0.047 A 
ATOM      6  C4  UNL d   1      -0.463  -3.043  -1.113  0.00  0.00    -0.004 A 
ENDROOT
TORSDOF 0
ENDMDL
