MODEL 1
REMARK minimizedAffinity -3.19356942
REMARK minimizedRMSD -1
REMARK  0 active torsions:
REMARK  status: ('A' for Active; 'I' for Inactive)
ROOT
ATOM      1  C   UNL d   1       1.977  -3.699  -1.114  0.00  0.00     0.172 C 
ATOM      2  N   UNL d   1       0.679  -3.309  -0.617  0.00  0.00    -0.070 N 
ATOM      3  C1  UNL d   1       0.428  -2.750   0.608  0.00  0.00    -0.004 A 
ATOM      4  C2  UNL d   1      -0.929  -2.525   0.699  0.00  0.00    -0.047 A 
ATOM      5  C3  UNL d   1      -1.514  -2.965  -0.512  0.00  0.00    -0.047 A 
ATOM      6  C4  UNL d   1      -0.496  -3.446  -1.309  0.00  0.00    -0.004 A 
ENDROOT
TORSDOF 0
ENDMDL
