MODEL 1
REMARK minimizedAffinity -0.515864611
REMARK minimizedRMSD -1
REMARK  0 active torsions:
REMARK  status: ('A' for Active; 'I' for Inactive)
ROOT
ATOM      1  C   UNL d   1      -0.671   4.861  -5.989  0.00  0.00     0.172 C 
ATOM      2  N   UNL d   1      -2.013   4.328  -5.993  0.00  0.00    -0.070 N 
ATOM      3  C1  UNL d   1      -2.345   3.000  -5.992  0.00  0.00    -0.004 A 
ATOM      4  C2  UNL d   1      -3.720   2.908  -5.996  0.00  0.00    -0.047 A 
ATOM      5  C3  UNL d   1      -4.232   4.228  -6.000  0.00  0.00    -0.047 A 
ATOM      6  C4  UNL d   1      -3.154   5.087  -5.998  0.00  0.00    -0.004 A 
ENDROOT
TORSDOF 0
ENDMDL
