MODEL 1
REMARK minimizedAffinity -4.171278
REMARK minimizedRMSD -1
REMARK  0 active torsions:
REMARK  status: ('A' for Active; 'I' for Inactive)
ROOT
ATOM      1  C   UNL d   1      -3.112  -0.635  -0.496  0.00  0.00     0.020 A 
ATOM      2  C1  UNL d   1      -2.712  -0.597   0.839  0.00  0.00     0.020 A 
ATOM      3  C2  UNL d   1      -1.379  -0.331   1.161  0.00  0.00     0.034 A 
ATOM      4  C3  UNL d   1      -0.442  -0.102   0.146  0.00  0.00     0.017 A 
ATOM      5  C4  UNL d   1      -0.845  -0.141  -1.193  0.00  0.00     0.017 A 
ATOM      6  C5  UNL d   1      -2.181  -0.407  -1.510  0.00  0.00     0.034 A 
ATOM      7 Cl   UNL d   1       0.253   0.132  -2.500  0.00  0.00    -0.070 Cl
ATOM      8 Cl1  UNL d   1       1.189   0.222   0.617  0.00  0.00    -0.070 Cl
ENDROOT
TORSDOF 0
ENDMDL
