MODEL 1
REMARK minimizedAffinity -3.45343924
REMARK minimizedRMSD -1
REMARK  0 active torsions:
REMARK  status: ('A' for Active; 'I' for Inactive)
ROOT
ATOM      1  C   UNL d   1      -2.946  -1.123  -0.411  0.00  0.00     0.020 A 
ATOM      2  C1  UNL d   1      -2.636  -0.759   0.899  0.00  0.00     0.020 A 
ATOM      3  C2  UNL d   1      -1.423  -0.125   1.178  0.00  0.00     0.034 A 
ATOM      4  C3  UNL d   1      -0.517   0.147   0.147  0.00  0.00     0.017 A 
ATOM      5  C4  UNL d   1      -0.829  -0.219  -1.167  0.00  0.00     0.017 A 
ATOM      6  C5  UNL d   1      -2.045  -0.854  -1.441  0.00  0.00     0.034 A 
ATOM      7 Cl   UNL d   1       0.239   0.082  -2.492  0.00  0.00    -0.070 Cl
ATOM      8 Cl1  UNL d   1       0.964   0.934   0.565  0.00  0.00    -0.070 Cl
ENDROOT
TORSDOF 0
ENDMDL
