MODEL 1
REMARK minimizedAffinity -3.87571311
REMARK minimizedRMSD -1
REMARK  0 active torsions:
REMARK  status: ('A' for Active; 'I' for Inactive)
ROOT
ATOM      1  C   UNL d   1      -1.934  -0.713   1.492  0.00  0.00     0.020 A 
ATOM      2  C1  UNL d   1      -2.609  -0.838   0.279  0.00  0.00     0.020 A 
ATOM      3  C2  UNL d   1      -1.979  -0.468  -0.911  0.00  0.00     0.034 A 
ATOM      4  C3  UNL d   1      -0.671   0.029  -0.891  0.00  0.00     0.017 A 
ATOM      5  C4  UNL d   1       0.005   0.154   0.328  0.00  0.00     0.017 A 
ATOM      6  C5  UNL d   1      -0.630  -0.218   1.517  0.00  0.00     0.034 A 
ATOM      7 Cl   UNL d   1       1.621   0.759   0.434  0.00  0.00    -0.070 Cl
ATOM      8 Cl1  UNL d   1       0.046   0.467  -2.400  0.00  0.00    -0.070 Cl
ENDROOT
TORSDOF 0
ENDMDL
