MODEL 1
REMARK minimizedAffinity -4.19138098
REMARK minimizedRMSD -1
REMARK  0 active torsions:
REMARK  status: ('A' for Active; 'I' for Inactive)
ROOT
ATOM      1  C   UNL d   1      -0.077   0.833  -1.301  0.00  0.00     0.020 A 
ATOM      2  C1  UNL d   1       0.856   0.543  -0.306  0.00  0.00     0.020 A 
ATOM      3  C2  UNL d   1       0.476  -0.204   0.811  0.00  0.00     0.034 A 
ATOM      4  C3  UNL d   1      -0.839  -0.664   0.935  0.00  0.00     0.017 A 
ATOM      5  C4  UNL d   1      -1.775  -0.373  -0.064  0.00  0.00     0.017 A 
ATOM      6  C5  UNL d   1      -1.390   0.376  -1.180  0.00  0.00     0.034 A 
ATOM      7 Cl   UNL d   1      -3.417  -0.907   0.020  0.00  0.00    -0.070 Cl
ATOM      8 Cl1  UNL d   1      -1.239  -1.583   2.343  0.00  0.00    -0.070 Cl
ENDROOT
TORSDOF 0
ENDMDL
