MODEL 1
REMARK minimizedAffinity -2.70220613
REMARK minimizedRMSD -1
REMARK  0 active torsions:
REMARK  status: ('A' for Active; 'I' for Inactive)
ROOT
ATOM      1  C   UNL d   1      -3.180  -0.763  -0.975  0.00  0.00     0.020 A 
ATOM      2  C1  UNL d   1      -2.642  -0.757   0.311  0.00  0.00     0.020 A 
ATOM      3  C2  UNL d   1      -1.313  -0.375   0.510  0.00  0.00     0.034 A 
ATOM      4  C3  UNL d   1      -0.519   0.002  -0.579  0.00  0.00     0.017 A 
ATOM      5  C4  UNL d   1      -1.060  -0.005  -1.870  0.00  0.00     0.017 A 
ATOM      6  C5  UNL d   1      -2.391  -0.388  -2.063  0.00  0.00     0.034 A 
ATOM      7 Cl   UNL d   1      -0.142   0.447  -3.262  0.00  0.00    -0.070 Cl
ATOM      8 Cl1  UNL d   1       1.116   0.462  -0.259  0.00  0.00    -0.070 Cl
ENDROOT
TORSDOF 0
ENDMDL
