MODEL 1
REMARK minimizedAffinity -5.25890398
REMARK minimizedRMSD -1
REMARK  0 active torsions:
REMARK  status: ('A' for Active; 'I' for Inactive)
ROOT
ATOM      1  C   UNL d   1      -2.635  -1.216   0.409  0.00  0.00     0.020 A 
ATOM      2  C1  UNL d   1      -3.257  -1.053  -0.828  0.00  0.00     0.020 A 
ATOM      3  C2  UNL d   1      -2.615  -0.339  -1.843  0.00  0.00     0.034 A 
ATOM      4  C3  UNL d   1      -1.348   0.213  -1.622  0.00  0.00     0.017 A 
ATOM      5  C4  UNL d   1      -0.725   0.048  -0.380  0.00  0.00     0.017 A 
ATOM      6  C5  UNL d   1      -1.371  -0.667   0.633  0.00  0.00     0.034 A 
ATOM      7 Cl   UNL d   1       0.838   0.700  -0.033  0.00  0.00    -0.070 Cl
ATOM      8 Cl1  UNL d   1      -0.614   1.083  -2.922  0.00  0.00    -0.070 Cl
ENDROOT
TORSDOF 0
ENDMDL
