MODEL 1
REMARK minimizedAffinity 1.80613565
REMARK minimizedRMSD -1
REMARK  0 active torsions:
REMARK  status: ('A' for Active; 'I' for Inactive)
ROOT
ATOM      1  C   UNL d   1       0.800   0.440  -0.586  0.00  0.00     0.020 A 
ATOM      2  C1  UNL d   1       1.533  -0.192   0.418  0.00  0.00     0.020 A 
ATOM      3  C2  UNL d   1       0.912  -1.120   1.257  0.00  0.00     0.034 A 
ATOM      4  C3  UNL d   1      -0.446  -1.419   1.093  0.00  0.00     0.017 A 
ATOM      5  C4  UNL d   1      -1.180  -0.785   0.085  0.00  0.00     0.017 A 
ATOM      6  C5  UNL d   1      -0.554   0.144  -0.752  0.00  0.00     0.034 A 
ATOM      7 Cl   UNL d   1      -2.859  -1.102  -0.179  0.00  0.00    -0.070 Cl
ATOM      8 Cl1  UNL d   1      -1.148  -2.577   2.166  0.00  0.00    -0.070 Cl
ENDROOT
TORSDOF 0
ENDMDL
