MODEL 1
REMARK minimizedAffinity 3.55373931
REMARK minimizedRMSD -1
REMARK  0 active torsions:
REMARK  status: ('A' for Active; 'I' for Inactive)
ROOT
ATOM      1  C   UNL d   1       0.349   0.152  -1.154  0.00  0.00     0.020 A 
ATOM      2  C1  UNL d   1      -0.200   0.228   0.126  0.00  0.00     0.020 A 
ATOM      3  C2  UNL d   1      -1.420  -0.395   0.400  0.00  0.00     0.034 A 
ATOM      4  C3  UNL d   1      -2.095  -1.095  -0.606  0.00  0.00     0.017 A 
ATOM      5  C4  UNL d   1      -1.543  -1.170  -1.890  0.00  0.00     0.017 A 
ATOM      6  C5  UNL d   1      -0.322  -0.545  -2.160  0.00  0.00     0.034 A 
ATOM      7 Cl   UNL d   1      -2.317  -2.016  -3.184  0.00  0.00    -0.070 Cl
ATOM      8 Cl1  UNL d   1      -3.599  -1.840  -0.196  0.00  0.00    -0.070 Cl
ENDROOT
TORSDOF 0
ENDMDL
