MODEL 1
REMARK minimizedAffinity -3.58100367
REMARK minimizedRMSD -1
REMARK  0 active torsions:
REMARK  status: ('A' for Active; 'I' for Inactive)
ROOT
ATOM      1  C   UNL d   1       1.724   3.657   0.177  0.00  0.00     0.020 A 
ATOM      2  C1  UNL d   1       3.031   3.173   0.214  0.00  0.00     0.020 A 
ATOM      3  C2  UNL d   1       3.265   1.798   0.288  0.00  0.00     0.034 A 
ATOM      4  C3  UNL d   1       2.190   0.902   0.325  0.00  0.00     0.017 A 
ATOM      5  C4  UNL d   1       0.878   1.389   0.287  0.00  0.00     0.017 A 
ATOM      6  C5  UNL d   1       0.650   2.766   0.213  0.00  0.00     0.034 A 
ATOM      7 Cl   UNL d   1      -0.499   0.346   0.329  0.00  0.00    -0.070 Cl
ATOM      8 Cl1  UNL d   1       2.552  -0.785   0.416  0.00  0.00    -0.070 Cl
ENDROOT
TORSDOF 0
ENDMDL
