MODEL 1
REMARK minimizedAffinity 1.92419994
REMARK minimizedRMSD -1
REMARK  0 active torsions:
REMARK  status: ('A' for Active; 'I' for Inactive)
ROOT
ATOM      1  C   UNL d   1       0.447  -1.167   2.433  0.00  0.00     0.020 A 
ATOM      2  C1  UNL d   1      -0.703  -1.471   1.706  0.00  0.00     0.020 A 
ATOM      3  C2  UNL d   1      -0.845  -1.005   0.397  0.00  0.00     0.034 A 
ATOM      4  C3  UNL d   1       0.165  -0.233  -0.189  0.00  0.00     0.017 A 
ATOM      5  C4  UNL d   1       1.319   0.071   0.542  0.00  0.00     0.017 A 
ATOM      6  C5  UNL d   1       1.456  -0.398   1.852  0.00  0.00     0.034 A 
ATOM      7 Cl   UNL d   1       2.608   1.018  -0.113  0.00  0.00    -0.070 Cl
ATOM      8 Cl1  UNL d   1      -0.077   0.309  -1.811  0.00  0.00    -0.070 Cl
ENDROOT
TORSDOF 0
ENDMDL
