MODEL 1
REMARK minimizedAffinity -1.57304943
REMARK minimizedRMSD -1
REMARK  0 active torsions:
REMARK  status: ('A' for Active; 'I' for Inactive)
ROOT
ATOM      1  C   UNL d   1       0.565  -0.871   1.396  0.00  0.00     0.020 A 
ATOM      2  C1  UNL d   1       1.488  -0.255   0.551  0.00  0.00     0.020 A 
ATOM      3  C2  UNL d   1       1.154  -0.001  -0.781  0.00  0.00     0.034 A 
ATOM      4  C3  UNL d   1      -0.106  -0.362  -1.272  0.00  0.00     0.017 A 
ATOM      5  C4  UNL d   1      -1.032  -0.980  -0.423  0.00  0.00     0.017 A 
ATOM      6  C5  UNL d   1      -0.692  -1.232   0.910  0.00  0.00     0.034 A 
ATOM      7 Cl   UNL d   1      -2.606  -1.455  -0.956  0.00  0.00    -0.070 Cl
ATOM      8 Cl1  UNL d   1      -0.452  -0.018  -2.929  0.00  0.00    -0.070 Cl
ENDROOT
TORSDOF 0
ENDMDL
