MODEL 1
REMARK minimizedAffinity -2.2980268
REMARK minimizedRMSD -1
REMARK  0 active torsions:
REMARK  status: ('A' for Active; 'I' for Inactive)
ROOT
ATOM      1  C   UNL d   1       0.851  -1.677   1.176  0.00  0.00     0.020 A 
ATOM      2  C1  UNL d   1      -0.473  -1.240   1.140  0.00  0.00     0.020 A 
ATOM      3  C2  UNL d   1      -0.768   0.058   0.718  0.00  0.00     0.034 A 
ATOM      4  C3  UNL d   1       0.262   0.924   0.332  0.00  0.00     0.017 A 
ATOM      5  C4  UNL d   1       1.590   0.484   0.368  0.00  0.00     0.017 A 
ATOM      6  C5  UNL d   1       1.880  -0.817   0.791  0.00  0.00     0.034 A 
ATOM      7 Cl   UNL d   1       2.914   1.494  -0.094  0.00  0.00    -0.070 Cl
ATOM      8 Cl1  UNL d   1      -0.176   2.515  -0.179  0.00  0.00    -0.070 Cl
ENDROOT
TORSDOF 0
ENDMDL
