MODEL 1
REMARK minimizedAffinity -5.75944948
REMARK minimizedRMSD -1
REMARK  0 active torsions:
REMARK  status: ('A' for Active; 'I' for Inactive)
ROOT
ATOM      1  C   UNL d   1      -3.061  -1.245  -0.733  0.00  0.00     0.020 A 
ATOM      2  C1  UNL d   1      -2.547  -1.189   0.562  0.00  0.00     0.020 A 
ATOM      3  C2  UNL d   1      -1.305  -0.592   0.794  0.00  0.00     0.034 A 
ATOM      4  C3  UNL d   1      -0.575  -0.050  -0.269  0.00  0.00     0.017 A 
ATOM      5  C4  UNL d   1      -1.092  -0.107  -1.568  0.00  0.00     0.017 A 
ATOM      6  C5  UNL d   1      -2.336  -0.705  -1.795  0.00  0.00     0.034 A 
ATOM      7 Cl   UNL d   1      -0.249   0.541  -2.931  0.00  0.00    -0.070 Cl
ATOM      8 Cl1  UNL d   1       0.953   0.672   0.092  0.00  0.00    -0.070 Cl
ENDROOT
TORSDOF 0
ENDMDL
