MODEL 1
REMARK minimizedAffinity -1.66244793
REMARK minimizedRMSD -1
REMARK  0 active torsions:
REMARK  status: ('A' for Active; 'I' for Inactive)
ROOT
ATOM      1  C   UNL d   1       1.629  -0.373   0.430  0.00  0.00     0.020 A 
ATOM      2  C1  UNL d   1       0.899   0.422  -0.451  0.00  0.00     0.020 A 
ATOM      3  C2  UNL d   1      -0.489   0.515  -0.322  0.00  0.00     0.034 A 
ATOM      4  C3  UNL d   1      -1.150  -0.189   0.692  0.00  0.00     0.017 A 
ATOM      5  C4  UNL d   1      -0.415  -0.987   1.576  0.00  0.00     0.017 A 
ATOM      6  C5  UNL d   1       0.974  -1.076   1.442  0.00  0.00     0.034 A 
ATOM      7 Cl   UNL d   1      -1.160  -1.885   2.852  0.00  0.00    -0.070 Cl
ATOM      8 Cl1  UNL d   1      -2.867  -0.028   0.793  0.00  0.00    -0.070 Cl
ENDROOT
TORSDOF 0
ENDMDL
