MODEL 1
REMARK minimizedAffinity -4.44702816
REMARK minimizedRMSD -1
REMARK  0 active torsions:
REMARK  status: ('A' for Active; 'I' for Inactive)
ROOT
ATOM      1  C   UNL d   1       0.781  -1.335   1.852  0.00  0.00     0.020 A 
ATOM      2  C1  UNL d   1       1.696  -0.610   1.089  0.00  0.00     0.020 A 
ATOM      3  C2  UNL d   1       1.255   0.137  -0.005  0.00  0.00     0.034 A 
ATOM      4  C3  UNL d   1      -0.104   0.161  -0.339  0.00  0.00     0.017 A 
ATOM      5  C4  UNL d   1      -1.021  -0.567   0.427  0.00  0.00     0.017 A 
ATOM      6  C5  UNL d   1      -0.574  -1.314   1.522  0.00  0.00     0.034 A 
ATOM      7 Cl   UNL d   1      -2.713  -0.587   0.076  0.00  0.00    -0.070 Cl
ATOM      8 Cl1  UNL d   1      -0.579   1.107  -1.705  0.00  0.00    -0.070 Cl
ENDROOT
TORSDOF 0
ENDMDL
