MODEL 1
REMARK minimizedAffinity -2.67542911
REMARK minimizedRMSD -1
REMARK  0 active torsions:
REMARK  status: ('A' for Active; 'I' for Inactive)
ROOT
ATOM      1  C   UNL d   1       0.025   0.734  -1.251  0.00  0.00     0.020 A 
ATOM      2  C1  UNL d   1      -0.459   0.771   0.056  0.00  0.00     0.020 A 
ATOM      3  C2  UNL d   1      -1.624   0.076   0.389  0.00  0.00     0.034 A 
ATOM      4  C3  UNL d   1      -2.308  -0.659  -0.585  0.00  0.00     0.017 A 
ATOM      5  C4  UNL d   1      -1.821  -0.696  -1.897  0.00  0.00     0.017 A 
ATOM      6  C5  UNL d   1      -0.654   0.002  -2.225  0.00  0.00     0.034 A 
ATOM      7 Cl   UNL d   1      -2.610  -1.582  -3.154  0.00  0.00    -0.070 Cl
ATOM      8 Cl1  UNL d   1      -3.741  -1.495  -0.103  0.00  0.00    -0.070 Cl
ENDROOT
TORSDOF 0
ENDMDL
