MODEL 1
REMARK minimizedAffinity -1.54795718
REMARK minimizedRMSD -1
REMARK  0 active torsions:
REMARK  status: ('A' for Active; 'I' for Inactive)
ROOT
ATOM      1  C   UNL d   1       2.761   2.878   1.609  0.00  0.00     0.020 A 
ATOM      2  C1  UNL d   1       1.708   3.513   0.951  0.00  0.00     0.020 A 
ATOM      3  C2  UNL d   1       0.715   2.755   0.328  0.00  0.00     0.034 A 
ATOM      4  C3  UNL d   1       0.773   1.357   0.362  0.00  0.00     0.017 A 
ATOM      5  C4  UNL d   1       1.829   0.720   1.023  0.00  0.00     0.017 A 
ATOM      6  C5  UNL d   1       2.821   1.485   1.645  0.00  0.00     0.034 A 
ATOM      7 Cl   UNL d   1       1.968  -1.001   1.107  0.00  0.00    -0.070 Cl
ATOM      8 Cl1  UNL d   1      -0.490   0.482  -0.430  0.00  0.00    -0.070 Cl
ENDROOT
TORSDOF 0
ENDMDL
