MODEL 1
REMARK minimizedAffinity -3.07064223
REMARK minimizedRMSD -1
REMARK  0 active torsions:
REMARK  status: ('A' for Active; 'I' for Inactive)
ROOT
ATOM      1  C   UNL d   1      -3.257  -1.796  -1.233  0.00  0.00     0.020 A 
ATOM      2  C1  UNL d   1      -2.512  -0.722  -1.718  0.00  0.00     0.020 A 
ATOM      3  C2  UNL d   1      -1.445  -0.218  -0.971  0.00  0.00     0.034 A 
ATOM      4  C3  UNL d   1      -1.119  -0.789   0.265  0.00  0.00     0.017 A 
ATOM      5  C4  UNL d   1      -1.867  -1.868   0.750  0.00  0.00     0.017 A 
ATOM      6  C5  UNL d   1      -2.935  -2.368  -0.002  0.00  0.00     0.034 A 
ATOM      7 Cl   UNL d   1      -1.526  -2.625   2.266  0.00  0.00    -0.070 Cl
ATOM      8 Cl1  UNL d   1       0.213  -0.116   1.134  0.00  0.00    -0.070 Cl
ENDROOT
TORSDOF 0
ENDMDL
