MODEL 1
REMARK minimizedAffinity 0.405238986
REMARK minimizedRMSD -1
REMARK  0 active torsions:
REMARK  status: ('A' for Active; 'I' for Inactive)
ROOT
ATOM      1  C   UNL d   1       2.779  -4.131  -0.000  0.00  0.00     0.172 C 
ATOM      2  N   UNL d   1       4.051  -4.816   0.007  0.00  0.00    -0.070 N 
ATOM      3  C1  UNL d   1       4.601  -5.490  -1.050  0.00  0.00    -0.004 A 
ATOM      4  C2  UNL d   1       5.814  -5.999  -0.641  0.00  0.00    -0.047 A 
ATOM      5  C3  UNL d   1       5.999  -5.618   0.709  0.00  0.00    -0.047 A 
ATOM      6  C4  UNL d   1       4.893  -4.887   1.085  0.00  0.00    -0.004 A 
ENDROOT
TORSDOF 0
ENDMDL
