MODEL 1
REMARK minimizedAffinity -3.62970901
REMARK minimizedRMSD -1
REMARK  0 active torsions:
REMARK  status: ('A' for Active; 'I' for Inactive)
ROOT
ATOM      1  C   UNL d   1       4.634   4.392  -5.990  0.00  0.00     0.172 C 
ATOM      2  N   UNL d   1       4.640   2.999  -5.608  0.00  0.00    -0.070 N 
ATOM      3  C1  UNL d   1       3.694   2.072  -5.955  0.00  0.00    -0.004 A 
ATOM      4  C2  UNL d   1       4.060   0.867  -5.396  0.00  0.00    -0.047 A 
ATOM      5  C3  UNL d   1       5.267   1.077  -4.688  0.00  0.00    -0.047 A 
ATOM      6  C4  UNL d   1       5.604   2.406  -4.836  0.00  0.00    -0.004 A 
ENDROOT
TORSDOF 0
ENDMDL
