MODEL 1
REMARK minimizedAffinity 5.61808157
REMARK minimizedRMSD -1
REMARK  0 active torsions:
REMARK  status: ('A' for Active; 'I' for Inactive)
ROOT
ATOM      1  C   UNL d   1       2.820  -4.053   0.843  0.00  0.00     0.172 C 
ATOM      2  N   UNL d   1       2.086  -2.826   1.043  0.00  0.00    -0.070 N 
ATOM      3  C1  UNL d   1       1.298  -2.533   2.124  0.00  0.00    -0.004 A 
ATOM      4  C2  UNL d   1       0.777  -1.272   1.937  0.00  0.00    -0.047 A 
ATOM      5  C3  UNL d   1       1.267  -0.789   0.700  0.00  0.00    -0.047 A 
ATOM      6  C4  UNL d   1       2.075  -1.772   0.168  0.00  0.00    -0.004 A 
ENDROOT
TORSDOF 0
ENDMDL
