MODEL 1
REMARK minimizedAffinity -2.82901382
REMARK minimizedRMSD -1
REMARK  0 active torsions:
REMARK  status: ('A' for Active; 'I' for Inactive)
ROOT
ATOM      1  C   UNL d   1       0.287   1.810   0.066  0.00  0.00     0.078 C 
ATOM      2  C1  UNL d   1      -0.076   0.356   0.019  0.00  0.00    -0.077 A 
ATOM      3  C2  UNL d   1      -0.591  -0.296   1.146  0.00  0.00    -0.001 A 
ATOM      4  C3  UNL d   1      -0.915  -1.653   1.090  0.00  0.00     0.003 A 
ATOM      5  C4  UNL d   1      -0.727  -2.369  -0.090  0.00  0.00    -0.005 A 
ATOM      6  C5  UNL d   1      -0.213  -1.729  -1.216  0.00  0.00     0.003 A 
ATOM      7  C6  UNL d   1       0.112  -0.373  -1.162  0.00  0.00    -0.001 A 
ENDROOT
TORSDOF 0
ENDMDL
