MODEL 1
REMARK minimizedAffinity -4.02938509
REMARK minimizedRMSD -1
REMARK  0 active torsions:
REMARK  status: ('A' for Active; 'I' for Inactive)
ROOT
ATOM      1  C   UNL d   1      -1.108  -2.602   0.336  0.00  0.00     0.078 C 
ATOM      2  C1  UNL d   1      -0.585  -1.207   0.160  0.00  0.00    -0.077 A 
ATOM      3  C2  UNL d   1      -0.526  -0.614  -1.107  0.00  0.00    -0.001 A 
ATOM      4  C3  UNL d   1      -0.028   0.681  -1.257  0.00  0.00     0.003 A 
ATOM      5  C4  UNL d   1       0.416   1.393  -0.145  0.00  0.00    -0.005 A 
ATOM      6  C5  UNL d   1       0.363   0.810   1.119  0.00  0.00     0.003 A 
ATOM      7  C6  UNL d   1      -0.134  -0.485   1.272  0.00  0.00    -0.001 A 
ENDROOT
TORSDOF 0
ENDMDL
