MODEL 1
REMARK minimizedAffinity -4.89909029
REMARK minimizedRMSD -1
REMARK  0 active torsions:
REMARK  status: ('A' for Active; 'I' for Inactive)
ROOT
ATOM      1  C   UNL d   1      -1.791  -0.385   3.358  0.00  0.00     0.078 C 
ATOM      2  C1  UNL d   1      -1.203  -0.736   2.023  0.00  0.00    -0.077 A 
ATOM      3  C2  UNL d   1      -0.566   0.233   1.239  0.00  0.00    -0.001 A 
ATOM      4  C3  UNL d   1      -0.032  -0.105  -0.005  0.00  0.00     0.003 A 
ATOM      5  C4  UNL d   1      -0.131  -1.413  -0.477  0.00  0.00    -0.005 A 
ATOM      6  C5  UNL d   1      -0.765  -2.383   0.295  0.00  0.00     0.003 A 
ATOM      7  C6  UNL d   1      -1.300  -2.047   1.540  0.00  0.00    -0.001 A 
ENDROOT
TORSDOF 0
ENDMDL
