MODEL 1
REMARK minimizedAffinity -2.698879
REMARK minimizedRMSD -1
REMARK  0 active torsions:
REMARK  status: ('A' for Active; 'I' for Inactive)
ROOT
ATOM      1  C   UNL d   1      -1.510   5.368   2.362  0.00  0.00     0.078 C 
ATOM      2  C1  UNL d   1      -0.441   4.511   1.754  0.00  0.00    -0.077 A 
ATOM      3  C2  UNL d   1       0.878   4.562   2.222  0.00  0.00    -0.001 A 
ATOM      4  C3  UNL d   1       1.865   3.765   1.640  0.00  0.00     0.003 A 
ATOM      5  C4  UNL d   1       1.544   2.912   0.586  0.00  0.00    -0.005 A 
ATOM      6  C5  UNL d   1       0.235   2.855   0.112  0.00  0.00     0.003 A 
ATOM      7  C6  UNL d   1      -0.753   3.652   0.693  0.00  0.00    -0.001 A 
ENDROOT
TORSDOF 0
ENDMDL
