MODEL 1
REMARK minimizedAffinity -4.42977333
REMARK minimizedRMSD -1
REMARK  0 active torsions:
REMARK  status: ('A' for Active; 'I' for Inactive)
ROOT
ATOM      1  C   UNL d   1       0.021   1.399   0.153  0.00  0.00     0.078 C 
ATOM      2  C1  UNL d   1      -0.112  -0.072   0.409  0.00  0.00    -0.077 A 
ATOM      3  C2  UNL d   1      -1.247  -0.595   1.040  0.00  0.00    -0.001 A 
ATOM      4  C3  UNL d   1      -1.353  -1.966   1.280  0.00  0.00     0.003 A 
ATOM      5  C4  UNL d   1      -0.326  -2.825   0.894  0.00  0.00    -0.005 A 
ATOM      6  C5  UNL d   1       0.809  -2.314   0.268  0.00  0.00     0.003 A 
ATOM      7  C6  UNL d   1       0.916  -0.943   0.027  0.00  0.00    -0.001 A 
ENDROOT
TORSDOF 0
ENDMDL
