MODEL 1
REMARK minimizedAffinity -4.83606052
REMARK minimizedRMSD -1
REMARK  0 active torsions:
REMARK  status: ('A' for Active; 'I' for Inactive)
ROOT
ATOM      1  C   UNL d   1       0.443   0.026   0.790  0.00  0.00     0.078 C 
ATOM      2  C1  UNL d   1       0.283  -1.251   0.021  0.00  0.00    -0.077 A 
ATOM      3  C2  UNL d   1       0.161  -2.480   0.681  0.00  0.00    -0.001 A 
ATOM      4  C3  UNL d   1       0.022  -3.662  -0.049  0.00  0.00     0.003 A 
ATOM      5  C4  UNL d   1       0.005  -3.627  -1.442  0.00  0.00    -0.005 A 
ATOM      6  C5  UNL d   1       0.127  -2.409  -2.107  0.00  0.00     0.003 A 
ATOM      7  C6  UNL d   1       0.266  -1.226  -1.379  0.00  0.00    -0.001 A 
ENDROOT
TORSDOF 0
ENDMDL
