MODEL 1
REMARK minimizedAffinity -2.17336321
REMARK minimizedRMSD -1
REMARK  0 active torsions:
REMARK  status: ('A' for Active; 'I' for Inactive)
ROOT
ATOM      1  C   UNL d   1       0.635   2.880   0.121  0.00  0.00     0.078 C 
ATOM      2  C1  UNL d   1       0.269   1.428   0.194  0.00  0.00    -0.077 A 
ATOM      3  C2  UNL d   1      -0.958   1.020   0.732  0.00  0.00    -0.001 A 
ATOM      4  C3  UNL d   1      -1.281  -0.336   0.803  0.00  0.00     0.003 A 
ATOM      5  C4  UNL d   1      -0.382  -1.295   0.339  0.00  0.00    -0.005 A 
ATOM      6  C5  UNL d   1       0.842  -0.898  -0.195  0.00  0.00     0.003 A 
ATOM      7  C6  UNL d   1       1.167   0.457  -0.267  0.00  0.00    -0.001 A 
ENDROOT
TORSDOF 0
ENDMDL
