MODEL 1
REMARK minimizedAffinity -5.21047068
REMARK minimizedRMSD -1
REMARK  0 active torsions:
REMARK  status: ('A' for Active; 'I' for Inactive)
ROOT
ATOM      1  C   UNL d   1      -1.682   0.709   1.189  0.00  0.00     0.078 C 
ATOM      2  C1  UNL d   1      -0.870  -0.459   0.715  0.00  0.00    -0.077 A 
ATOM      3  C2  UNL d   1      -1.308  -1.773   0.922  0.00  0.00    -0.001 A 
ATOM      4  C3  UNL d   1      -0.537  -2.851   0.485  0.00  0.00     0.003 A 
ATOM      5  C4  UNL d   1       0.678  -2.626  -0.161  0.00  0.00    -0.005 A 
ATOM      6  C5  UNL d   1       1.122  -1.322  -0.370  0.00  0.00     0.003 A 
ATOM      7  C6  UNL d   1       0.352  -0.243   0.067  0.00  0.00    -0.001 A 
ENDROOT
TORSDOF 0
ENDMDL
