MODEL 1
REMARK minimizedAffinity -2.95669484
REMARK minimizedRMSD -1
REMARK  0 active torsions:
REMARK  status: ('A' for Active; 'I' for Inactive)
ROOT
ATOM      1  C   UNL d   1      -0.019  -3.235   0.620  0.00  0.00     0.078 C 
ATOM      2  C1  UNL d   1      -0.046  -1.737   0.559  0.00  0.00    -0.077 A 
ATOM      3  C2  UNL d   1      -0.939  -0.999   1.346  0.00  0.00    -0.001 A 
ATOM      4  C3  UNL d   1      -0.960   0.394   1.271  0.00  0.00     0.003 A 
ATOM      5  C4  UNL d   1      -0.091   1.062   0.411  0.00  0.00    -0.005 A 
ATOM      6  C5  UNL d   1       0.800   0.337  -0.377  0.00  0.00     0.003 A 
ATOM      7  C6  UNL d   1       0.822  -1.057  -0.304  0.00  0.00    -0.001 A 
ENDROOT
TORSDOF 0
ENDMDL
