MODEL 1
REMARK minimizedAffinity -5.22480106
REMARK minimizedRMSD -1
REMARK  0 active torsions:
REMARK  status: ('A' for Active; 'I' for Inactive)
ROOT
ATOM      1  C   UNL d   1       0.086   0.598   0.099  0.00  0.00     0.078 C 
ATOM      2  C1  UNL d   1      -0.083  -0.884  -0.050  0.00  0.00    -0.077 A 
ATOM      3  C2  UNL d   1      -0.461  -1.680   1.039  0.00  0.00    -0.001 A 
ATOM      4  C3  UNL d   1      -0.605  -3.060   0.888  0.00  0.00     0.003 A 
ATOM      5  C4  UNL d   1      -0.373  -3.657  -0.350  0.00  0.00    -0.005 A 
ATOM      6  C5  UNL d   1       0.006  -2.873  -1.438  0.00  0.00     0.003 A 
ATOM      7  C6  UNL d   1       0.150  -1.493  -1.289  0.00  0.00    -0.001 A 
ENDROOT
TORSDOF 0
ENDMDL
