MODEL 1
REMARK minimizedAffinity -4.92088413
REMARK minimizedRMSD -1
REMARK  0 active torsions:
REMARK  status: ('A' for Active; 'I' for Inactive)
ROOT
ATOM      1  C   UNL d   1      -0.217   0.201   1.199  0.00  0.00     0.078 C 
ATOM      2  C1  UNL d   1      -0.255  -1.052   0.375  0.00  0.00    -0.077 A 
ATOM      3  C2  UNL d   1      -0.906  -2.201   0.841  0.00  0.00    -0.001 A 
ATOM      4  C3  UNL d   1      -0.925  -3.363   0.068  0.00  0.00     0.003 A 
ATOM      5  C4  UNL d   1      -0.296  -3.387  -1.175  0.00  0.00    -0.005 A 
ATOM      6  C5  UNL d   1       0.356  -2.249  -1.646  0.00  0.00     0.003 A 
ATOM      7  C6  UNL d   1       0.376  -1.086  -0.874  0.00  0.00    -0.001 A 
ENDROOT
TORSDOF 0
ENDMDL
