MODEL 1
REMARK minimizedAffinity -4.61821222
REMARK minimizedRMSD -1
REMARK  0 active torsions:
REMARK  status: ('A' for Active; 'I' for Inactive)
ROOT
ATOM      1  C   UNL d   1       0.325  -2.920  -2.784  0.00  0.00     0.078 C 
ATOM      2  C1  UNL d   1       0.094  -2.264  -1.456  0.00  0.00    -0.077 A 
ATOM      3  C2  UNL d   1      -0.417  -2.990  -0.372  0.00  0.00    -0.001 A 
ATOM      4  C3  UNL d   1      -0.636  -2.365   0.856  0.00  0.00     0.003 A 
ATOM      5  C4  UNL d   1      -0.349  -1.010   1.012  0.00  0.00    -0.005 A 
ATOM      6  C5  UNL d   1       0.157  -0.279  -0.061  0.00  0.00     0.003 A 
ATOM      7  C6  UNL d   1       0.377  -0.903  -1.290  0.00  0.00    -0.001 A 
ENDROOT
TORSDOF 0
ENDMDL
