MODEL 1
REMARK minimizedAffinity -5.35483789
REMARK minimizedRMSD -1
REMARK  0 active torsions:
REMARK  status: ('A' for Active; 'I' for Inactive)
ROOT
ATOM      1  C   UNL d   1       0.029  -0.005   0.959  0.00  0.00     0.078 C 
ATOM      2  C1  UNL d   1       0.016  -1.137  -0.025  0.00  0.00    -0.077 A 
ATOM      3  C2  UNL d   1      -0.294  -2.441   0.380  0.00  0.00    -0.001 A 
ATOM      4  C3  UNL d   1      -0.293  -3.486  -0.545  0.00  0.00     0.003 A 
ATOM      5  C4  UNL d   1       0.018  -3.239  -1.880  0.00  0.00    -0.005 A 
ATOM      6  C5  UNL d   1       0.331  -1.945  -2.292  0.00  0.00     0.003 A 
ATOM      7  C6  UNL d   1       0.330  -0.898  -1.369  0.00  0.00    -0.001 A 
ENDROOT
TORSDOF 0
ENDMDL
