MODEL 1
REMARK minimizedAffinity -3.37510324
REMARK minimizedRMSD -1
REMARK  0 active torsions:
REMARK  status: ('A' for Active; 'I' for Inactive)
ROOT
ATOM      1  C   UNL d   1      -0.200   1.005  -0.292  0.00  0.00     0.078 C 
ATOM      2  C1  UNL d   1      -0.401  -0.449  -0.599  0.00  0.00    -0.077 A 
ATOM      3  C2  UNL d   1      -0.138  -0.959  -1.876  0.00  0.00    -0.001 A 
ATOM      4  C3  UNL d   1      -0.339  -2.313  -2.149  0.00  0.00     0.003 A 
ATOM      5  C4  UNL d   1      -0.803  -3.168  -1.151  0.00  0.00    -0.005 A 
ATOM      6  C5  UNL d   1      -1.069  -2.668   0.122  0.00  0.00     0.003 A 
ATOM      7  C6  UNL d   1      -0.869  -1.314   0.397  0.00  0.00    -0.001 A 
ENDROOT
TORSDOF 0
ENDMDL
