MODEL 1
REMARK minimizedAffinity -3.78748608
REMARK minimizedRMSD -1
REMARK  0 active torsions:
REMARK  status: ('A' for Active; 'I' for Inactive)
ROOT
ATOM      1  C   UNL d   1       1.813   3.396   0.363  0.00  0.00     0.078 C 
ATOM      2  C1  UNL d   1       1.087   2.084   0.362  0.00  0.00    -0.077 A 
ATOM      3  C2  UNL d   1       1.205   1.193   1.436  0.00  0.00    -0.001 A 
ATOM      4  C3  UNL d   1       0.531  -0.029   1.417  0.00  0.00     0.003 A 
ATOM      5  C4  UNL d   1      -0.266  -0.372   0.326  0.00  0.00    -0.005 A 
ATOM      6  C5  UNL d   1      -0.388   0.508  -0.748  0.00  0.00     0.003 A 
ATOM      7  C6  UNL d   1       0.285   1.730  -0.731  0.00  0.00    -0.001 A 
ENDROOT
TORSDOF 0
ENDMDL
