MODEL 1
REMARK minimizedAffinity -4.0117054
REMARK minimizedRMSD -1
REMARK  0 active torsions:
REMARK  status: ('A' for Active; 'I' for Inactive)
ROOT
ATOM      1  C1  BNZ d   1      -0.404   2.196   0.890  0.00  0.00     0.000 A 
ATOM      2  C2  BNZ d   1      -1.129   2.405   2.033  0.00  0.00     0.000 A 
ATOM      3  C3  BNZ d   1      -1.947   1.430   2.530  0.00  0.00     0.000 A 
ATOM      4  C4  BNZ d   1      -2.071   0.264   1.863  0.00  0.00     0.000 A 
ATOM      5  C5  BNZ d   1      -1.354   0.042   0.704  0.00  0.00     0.000 A 
ATOM      6  C6  BNZ d   1      -0.501   1.011   0.228  0.00  0.00     0.000 A 
ENDROOT
TORSDOF 0
ENDMDL
