MODEL 1
REMARK minimizedAffinity -4.44342041
REMARK minimizedRMSD -1
REMARK  0 active torsions:
REMARK  status: ('A' for Active; 'I' for Inactive)
ROOT
ATOM      1  C1  BNZ d   1      -0.595   0.819   0.178  0.00  0.00     0.000 A 
ATOM      2  C2  BNZ d   1      -1.427   0.040   0.936  0.00  0.00     0.000 A 
ATOM      3  C3  BNZ d   1      -1.929   0.499   2.122  0.00  0.00     0.000 A 
ATOM      4  C4  BNZ d   1      -1.567   1.720   2.566  0.00  0.00     0.000 A 
ATOM      5  C5  BNZ d   1      -0.722   2.514   1.817  0.00  0.00     0.000 A 
ATOM      6  C6  BNZ d   1      -0.250   2.064   0.606  0.00  0.00     0.000 A 
ENDROOT
TORSDOF 0
ENDMDL
