MODEL 1
REMARK minimizedAffinity -2.08683991
REMARK minimizedRMSD -1
REMARK  0 active torsions:
REMARK  status: ('A' for Active; 'I' for Inactive)
ROOT
ATOM      1  C1  BNZ d   1      -0.975   0.198   0.585  0.00  0.00     0.000 A 
ATOM      2  C2  BNZ d   1      -0.182   1.163   0.025  0.00  0.00     0.000 A 
ATOM      3  C3  BNZ d   1      -0.024   2.379   0.630  0.00  0.00     0.000 A 
ATOM      4  C4  BNZ d   1      -0.691   2.641   1.773  0.00  0.00     0.000 A 
ATOM      5  C5  BNZ d   1      -1.502   1.682   2.346  0.00  0.00     0.000 A 
ATOM      6  C6  BNZ d   1      -1.627   0.446   1.754  0.00  0.00     0.000 A 
ENDROOT
TORSDOF 0
ENDMDL
