MODEL 1
REMARK minimizedAffinity -3.5924716
REMARK minimizedRMSD -1
REMARK  0 active torsions:
REMARK  status: ('A' for Active; 'I' for Inactive)
ROOT
ATOM      1  C1  BNZ d   1       2.379  -0.708  -2.147  0.00  0.00     0.000 A 
ATOM      2  C2  BNZ d   1       2.397   0.348  -3.019  0.00  0.00     0.000 A 
ATOM      3  C3  BNZ d   1       1.650   1.467  -2.778  0.00  0.00     0.000 A 
ATOM      4  C4  BNZ d   1       0.857   1.513  -1.688  0.00  0.00     0.000 A 
ATOM      5  C5  BNZ d   1       0.821   0.453  -0.804  0.00  0.00     0.000 A 
ATOM      6  C6  BNZ d   1       1.604  -0.656  -1.030  0.00  0.00     0.000 A 
ENDROOT
TORSDOF 0
ENDMDL
