MODEL 1
REMARK minimizedAffinity -1.58773577
REMARK minimizedRMSD -1
REMARK  0 active torsions:
REMARK  status: ('A' for Active; 'I' for Inactive)
ROOT
ATOM      1  C1  BNZ d   1       1.765  -2.212  -0.931  0.00  0.00     0.000 A 
ATOM      2  C2  BNZ d   1       0.812  -2.308   0.048  0.00  0.00     0.000 A 
ATOM      3  C3  BNZ d   1      -0.119  -1.322   0.218  0.00  0.00     0.000 A 
ATOM      4  C4  BNZ d   1      -0.072  -0.224  -0.564  0.00  0.00     0.000 A 
ATOM      5  C5  BNZ d   1       0.888  -0.108  -1.550  0.00  0.00     0.000 A 
ATOM      6  C6  BNZ d   1       1.800  -1.120  -1.743  0.00  0.00     0.000 A 
ENDROOT
TORSDOF 0
ENDMDL
