MODEL 1
REMARK minimizedAffinity -4.00792027
REMARK minimizedRMSD -1
REMARK  0 active torsions:
REMARK  status: ('A' for Active; 'I' for Inactive)
ROOT
ATOM      1  C1  BNZ d   1       0.756   1.654  -1.161  0.00  0.00     0.000 A 
ATOM      2  C2  BNZ d   1       1.566   0.591  -1.461  0.00  0.00     0.000 A 
ATOM      3  C3  BNZ d   1       1.317  -0.647  -0.939  0.00  0.00     0.000 A 
ATOM      4  C4  BNZ d   1       0.285  -0.813  -0.088  0.00  0.00     0.000 A 
ATOM      5  C5  BNZ d   1      -0.535   0.251   0.232  0.00  0.00     0.000 A 
ATOM      6  C6  BNZ d   1      -0.305   1.488  -0.325  0.00  0.00     0.000 A 
ENDROOT
TORSDOF 0
ENDMDL
