MODEL 1
REMARK minimizedAffinity -3.2177856
REMARK minimizedRMSD -1
REMARK  0 active torsions:
REMARK  status: ('A' for Active; 'I' for Inactive)
ROOT
ATOM      1  C1  BNZ d   1      -0.014  -0.582   0.226  0.00  0.00     0.000 A 
ATOM      2  C2  BNZ d   1       0.733  -1.726   0.128  0.00  0.00     0.000 A 
ATOM      3  C3  BNZ d   1       1.588  -1.916  -0.922  0.00  0.00     0.000 A 
ATOM      4  C4  BNZ d   1       1.666  -0.981  -1.891  0.00  0.00     0.000 A 
ATOM      5  C5  BNZ d   1       0.912   0.173  -1.811  0.00  0.00     0.000 A 
ATOM      6  C6  BNZ d   1       0.081   0.378  -0.734  0.00  0.00     0.000 A 
ENDROOT
TORSDOF 0
ENDMDL
