MODEL 1
REMARK minimizedAffinity -4.35382509
REMARK minimizedRMSD -1
REMARK  0 active torsions:
REMARK  status: ('A' for Active; 'I' for Inactive)
ROOT
ATOM      1  C1  BNZ d   1       0.390  -2.074  -0.214  0.00  0.00     0.000 A 
ATOM      2  C2  BNZ d   1      -0.337  -0.972   0.148  0.00  0.00     0.000 A 
ATOM      3  C3  BNZ d   1      -0.037   0.262  -0.357  0.00  0.00     0.000 A 
ATOM      4  C4  BNZ d   1       1.014   0.399  -1.191  0.00  0.00     0.000 A 
ATOM      5  C5  BNZ d   1       1.763  -0.701  -1.558  0.00  0.00     0.000 A 
ATOM      6  C6  BNZ d   1       1.434  -1.948  -1.079  0.00  0.00     0.000 A 
ENDROOT
TORSDOF 0
ENDMDL
