MODEL 1
REMARK minimizedAffinity -2.96180916
REMARK minimizedRMSD -1
REMARK  0 active torsions:
REMARK  status: ('A' for Active; 'I' for Inactive)
ROOT
ATOM      1  C1  BNZ d   1       6.000   1.175   5.993  0.00  0.00     0.000 A 
ATOM      2  C2  BNZ d   1       6.000   2.370   5.324  0.00  0.00     0.000 A 
ATOM      3  C3  BNZ d   1       5.249   2.538   4.194  0.00  0.00     0.000 A 
ATOM      4  C4  BNZ d   1       4.532   1.502   3.714  0.00  0.00     0.000 A 
ATOM      5  C5  BNZ d   1       4.529   0.289   4.372  0.00  0.00     0.000 A 
ATOM      6  C6  BNZ d   1       5.255   0.134   5.531  0.00  0.00     0.000 A 
ENDROOT
TORSDOF 0
ENDMDL
