MODEL 1
REMARK minimizedAffinity -4.63156605
REMARK minimizedRMSD -1
REMARK  0 active torsions:
REMARK  status: ('A' for Active; 'I' for Inactive)
ROOT
ATOM      1  C1  BNZ d   1      -2.060   0.386   1.978  0.00  0.00     0.000 A 
ATOM      2  C2  BNZ d   1      -1.410   0.106   0.806  0.00  0.00     0.000 A 
ATOM      3  C3  BNZ d   1      -0.620   1.044   0.202  0.00  0.00     0.000 A 
ATOM      4  C4  BNZ d   1      -0.514   2.272   0.748  0.00  0.00     0.000 A 
ATOM      5  C5  BNZ d   1      -1.171   2.574   1.924  0.00  0.00     0.000 A 
ATOM      6  C6  BNZ d   1      -1.934   1.614   2.550  0.00  0.00     0.000 A 
ENDROOT
TORSDOF 0
ENDMDL
