MODEL 1
REMARK minimizedAffinity -1.45167589
REMARK minimizedRMSD -1
REMARK  0 active torsions:
REMARK  status: ('A' for Active; 'I' for Inactive)
ROOT
ATOM      1  C1  BNZ d   1      -0.227  -1.556  -0.356  0.00  0.00     0.000 A 
ATOM      2  C2  BNZ d   1      -0.952  -0.411  -0.160  0.00  0.00     0.000 A 
ATOM      3  C3  BNZ d   1      -0.361   0.818  -0.256  0.00  0.00     0.000 A 
ATOM      4  C4  BNZ d   1       0.962   0.899  -0.508  0.00  0.00     0.000 A 
ATOM      5  C5  BNZ d   1       1.708  -0.247  -0.699  0.00  0.00     0.000 A 
ATOM      6  C6  BNZ d   1       1.101  -1.480  -0.640  0.00  0.00     0.000 A 
ENDROOT
TORSDOF 0
ENDMDL
