MODEL 1
REMARK minimizedAffinity -3.28165483
REMARK minimizedRMSD -1
REMARK  0 active torsions:
REMARK  status: ('A' for Active; 'I' for Inactive)
ROOT
ATOM      1  C1  BNZ d   1       0.123   0.419   0.911  0.00  0.00     0.000 A 
ATOM      2  C2  BNZ d   1       0.552   0.763  -0.343  0.00  0.00     0.000 A 
ATOM      3  C3  BNZ d   1      -0.243   1.497  -1.178  0.00  0.00     0.000 A 
ATOM      4  C4  BNZ d   1      -1.480   1.851  -0.775  0.00  0.00     0.000 A 
ATOM      5  C5  BNZ d   1      -1.931   1.503   0.483  0.00  0.00     0.000 A 
ATOM      6  C6  BNZ d   1      -1.113   0.798   1.336  0.00  0.00     0.000 A 
ENDROOT
TORSDOF 0
ENDMDL
