MODEL 1
REMARK minimizedAffinity -1.85279453
REMARK minimizedRMSD -1
REMARK  0 active torsions:
REMARK  status: ('A' for Active; 'I' for Inactive)
ROOT
ATOM      1  C1  BNZ d   1      -0.530  -1.445   0.376  0.00  0.00     0.000 A 
ATOM      2  C2  BNZ d   1      -0.006  -2.616  -0.102  0.00  0.00     0.000 A 
ATOM      3  C3  BNZ d   1       1.054  -2.608  -0.966  0.00  0.00     0.000 A 
ATOM      4  C4  BNZ d   1       1.561  -1.429  -1.382  0.00  0.00     0.000 A 
ATOM      5  C5  BNZ d   1       1.037  -0.240  -0.917  0.00  0.00     0.000 A 
ATOM      6  C6  BNZ d   1      -0.004  -0.252  -0.017  0.00  0.00     0.000 A 
ENDROOT
TORSDOF 0
ENDMDL
