MODEL 1
REMARK minimizedAffinity -1.83690631
REMARK minimizedRMSD -1
REMARK  0 active torsions:
REMARK  status: ('A' for Active; 'I' for Inactive)
ROOT
ATOM      1  C1  BNZ d   1      -0.231   0.947   0.329  0.00  0.00     0.000 A 
ATOM      2  C2  BNZ d   1      -0.034   1.885   1.307  0.00  0.00     0.000 A 
ATOM      3  C3  BNZ d   1      -0.599   1.736   2.543  0.00  0.00     0.000 A 
ATOM      4  C4  BNZ d   1      -1.391   0.672   2.786  0.00  0.00     0.000 A 
ATOM      5  C5  BNZ d   1      -1.606  -0.278   1.807  0.00  0.00     0.000 A 
ATOM      6  C6  BNZ d   1      -1.005  -0.144   0.577  0.00  0.00     0.000 A 
ENDROOT
TORSDOF 0
ENDMDL
