MODEL 1
REMARK minimizedAffinity -4.35083961
REMARK minimizedRMSD -1
REMARK  0 active torsions:
REMARK  status: ('A' for Active; 'I' for Inactive)
ROOT
ATOM      1  C1  BNZ d   1       0.309  -1.604  -0.075  0.00  0.00     0.000 A 
ATOM      2  C2  BNZ d   1      -0.364  -0.495   0.363  0.00  0.00     0.000 A 
ATOM      3  C3  BNZ d   1       0.232   0.735   0.355  0.00  0.00     0.000 A 
ATOM      4  C4  BNZ d   1       1.513   0.848  -0.054  0.00  0.00     0.000 A 
ATOM      5  C5  BNZ d   1       2.208  -0.262  -0.490  0.00  0.00     0.000 A 
ATOM      6  C6  BNZ d   1       1.592  -1.492  -0.517  0.00  0.00     0.000 A 
ENDROOT
TORSDOF 0
ENDMDL
