MODEL 1
REMARK minimizedAffinity -1.61919296
REMARK minimizedRMSD -1
REMARK  1 active torsions:
REMARK  status: ('A' for Active; 'I' for Inactive)
REMARK    1  A    between atoms: C1_2  and  C2_3 
ROOT
ATOM      1  C2  UNL d   1       2.615   2.027  -0.793  0.00  0.00    -0.077 A 
ATOM      2  C3  UNL d   1       3.952   2.374  -1.032  0.00  0.00     0.002 A 
ATOM      3  C4  UNL d   1       4.923   2.161  -0.051  0.00  0.00     0.002 A 
ATOM      4  C5  UNL d   1       4.567   1.598   1.173  0.00  0.00    -0.004 A 
ATOM      5  C6  UNL d   1       3.240   1.252   1.421  0.00  0.00     0.002 A 
ATOM      6  C7  UNL d   1       2.268   1.464   0.442  0.00  0.00     0.002 A 
ENDROOT
BRANCH   1   7
ATOM      7  C1  UNL d   1       1.575   2.210  -1.867  0.00  0.00     0.055 C 
ATOM      8  C   UNL d   1       1.171   0.876  -2.479  0.00  0.00     0.019 C 
ENDBRANCH   1   7
TORSDOF 1
ENDMDL
