MODEL 1
REMARK minimizedAffinity -2.83779526
REMARK minimizedRMSD -1
REMARK  1 active torsions:
REMARK  status: ('A' for Active; 'I' for Inactive)
REMARK    1  A    between atoms: C1_2  and  C2_3 
ROOT
ATOM      1  C2  UNL d   1       1.085   1.585  -0.783  0.00  0.00    -0.077 A 
ATOM      2  C3  UNL d   1       1.096   2.899  -1.270  0.00  0.00     0.002 A 
ATOM      3  C4  UNL d   1       1.247   3.976  -0.394  0.00  0.00     0.002 A 
ATOM      4  C5  UNL d   1       1.393   3.749   0.972  0.00  0.00    -0.004 A 
ATOM      5  C6  UNL d   1       1.382   2.445   1.467  0.00  0.00     0.002 A 
ATOM      6  C7  UNL d   1       1.230   1.368   0.593  0.00  0.00     0.002 A 
ENDROOT
BRANCH   1   7
ATOM      7  C1  UNL d   1       0.971   0.420  -1.732  0.00  0.00     0.055 C 
ATOM      8  C   UNL d   1       1.216  -0.901  -1.018  0.00  0.00     0.019 C 
ENDBRANCH   1   7
TORSDOF 1
ENDMDL
