MODEL 1
REMARK minimizedAffinity 1.53132463
REMARK minimizedRMSD -1
REMARK  1 active torsions:
REMARK  status: ('A' for Active; 'I' for Inactive)
REMARK    1  A    between atoms: C1_2  and  C2_3 
ROOT
ATOM      1  C2  UNL d   1       1.192   2.440  -0.884  0.00  0.00    -0.077 A 
ATOM      2  C3  UNL d   1       1.186   3.640  -1.609  0.00  0.00     0.002 A 
ATOM      3  C4  UNL d   1       1.318   4.864  -0.950  0.00  0.00     0.002 A 
ATOM      4  C5  UNL d   1       1.462   4.899   0.435  0.00  0.00    -0.004 A 
ATOM      5  C6  UNL d   1       1.467   3.711   1.165  0.00  0.00     0.002 A 
ATOM      6  C7  UNL d   1       1.334   2.487   0.508  0.00  0.00     0.002 A 
ENDROOT
BRANCH   1   7
ATOM      7  C1  UNL d   1       1.099   1.117  -1.598  0.00  0.00     0.055 C 
ATOM      8  C   UNL d   1       1.844   0.026  -0.842  0.00  0.00     0.019 C 
ENDBRANCH   1   7
TORSDOF 1
ENDMDL
