MODEL 1
REMARK minimizedAffinity -1.15845954
REMARK minimizedRMSD -1
REMARK  1 active torsions:
REMARK  status: ('A' for Active; 'I' for Inactive)
REMARK    1  A    between atoms: C1_2  and  C2_3 
ROOT
ATOM      1  C2  UNL d   1       1.562  -0.477  -1.118  0.00  0.00    -0.077 A 
ATOM      2  C3  UNL d   1       1.260   0.349  -0.027  0.00  0.00     0.002 A 
ATOM      3  C4  UNL d   1       1.104   1.726  -0.204  0.00  0.00     0.002 A 
ATOM      4  C5  UNL d   1       1.244   2.286  -1.472  0.00  0.00    -0.004 A 
ATOM      5  C6  UNL d   1       1.546   1.473  -2.564  0.00  0.00     0.002 A 
ATOM      6  C7  UNL d   1       1.703   0.098  -2.388  0.00  0.00     0.002 A 
ENDROOT
BRANCH   1   7
ATOM      7  C1  UNL d   1       1.681  -1.968  -0.937  0.00  0.00     0.055 C 
ATOM      8  C   UNL d   1       0.318  -2.642  -0.987  0.00  0.00     0.019 C 
ENDBRANCH   1   7
TORSDOF 1
ENDMDL
