MODEL 1
REMARK minimizedAffinity 3.38611555
REMARK minimizedRMSD -1
REMARK  1 active torsions:
REMARK  status: ('A' for Active; 'I' for Inactive)
REMARK    1  A    between atoms: C1_2  and  C2_3 
ROOT
ATOM      1  C2  UNL d   1       1.120   2.408  -0.914  0.00  0.00    -0.077 A 
ATOM      2  C3  UNL d   1       1.380   2.375   0.464  0.00  0.00     0.002 A 
ATOM      3  C4  UNL d   1       1.705   1.171   1.092  0.00  0.00     0.002 A 
ATOM      4  C5  UNL d   1       1.778  -0.007   0.351  0.00  0.00    -0.004 A 
ATOM      5  C6  UNL d   1       1.519   0.016  -1.019  0.00  0.00     0.002 A 
ATOM      6  C7  UNL d   1       1.193   1.218  -1.649  0.00  0.00     0.002 A 
ENDROOT
BRANCH   1   7
ATOM      7  C1  UNL d   1       0.818   3.713  -1.602  0.00  0.00     0.055 C 
ATOM      8  C   UNL d   1       1.431   4.888  -0.855  0.00  0.00     0.019 C 
ENDBRANCH   1   7
TORSDOF 1
ENDMDL
