MODEL 1
REMARK minimizedAffinity -0.852383554
REMARK minimizedRMSD -1
REMARK  1 active torsions:
REMARK  status: ('A' for Active; 'I' for Inactive)
REMARK    1  A    between atoms: C1_2  and  C2_3 
ROOT
ATOM      1  C2  UNL d   1       1.246   0.799  -1.309  0.00  0.00    -0.077 A 
ATOM      2  C3  UNL d   1       1.541   1.006   0.046  0.00  0.00     0.002 A 
ATOM      3  C4  UNL d   1       1.455   2.285   0.600  0.00  0.00     0.002 A 
ATOM      4  C5  UNL d   1       1.072   3.365  -0.192  0.00  0.00    -0.004 A 
ATOM      5  C6  UNL d   1       0.778   3.170  -1.541  0.00  0.00     0.002 A 
ATOM      6  C7  UNL d   1       0.864   1.893  -2.097  0.00  0.00     0.002 A 
ENDROOT
BRANCH   1   7
ATOM      7  C1  UNL d   1       1.289  -0.587  -1.897  0.00  0.00     0.055 C 
ATOM      8  C   UNL d   1       1.257  -1.651  -0.809  0.00  0.00     0.019 C 
ENDBRANCH   1   7
TORSDOF 1
ENDMDL
