MODEL 1
REMARK minimizedAffinity 0.638677478
REMARK minimizedRMSD -1
REMARK  1 active torsions:
REMARK  status: ('A' for Active; 'I' for Inactive)
REMARK    1  A    between atoms: C1_2  and  C2_3 
ROOT
ATOM      1  C2  UNL d   1      -2.250   2.378   3.380  0.00  0.00    -0.077 A 
ATOM      2  C3  UNL d   1      -2.255   1.505   4.477  0.00  0.00     0.002 A 
ATOM      3  C4  UNL d   1      -2.087   1.997   5.772  0.00  0.00     0.002 A 
ATOM      4  C5  UNL d   1      -1.917   3.364   5.983  0.00  0.00    -0.004 A 
ATOM      5  C6  UNL d   1      -1.909   4.240   4.899  0.00  0.00     0.002 A 
ATOM      6  C7  UNL d   1      -2.075   3.750   3.603  0.00  0.00     0.002 A 
ENDROOT
BRANCH   1   7
ATOM      7  C1  UNL d   1      -2.480   1.855   1.986  0.00  0.00     0.055 C 
ATOM      8  C   UNL d   1      -3.707   2.493   1.351  0.00  0.00     0.019 C 
ENDBRANCH   1   7
TORSDOF 1
ENDMDL
