MODEL 1
REMARK minimizedAffinity 4.24219847
REMARK minimizedRMSD -1
REMARK  1 active torsions:
REMARK  status: ('A' for Active; 'I' for Inactive)
REMARK    1  A    between atoms: C1_2  and  C2_3 
ROOT
ATOM      1  C2  UNL d   1       1.383   1.807  -0.929  0.00  0.00    -0.077 A 
ATOM      2  C3  UNL d   1       0.858   1.291  -2.122  0.00  0.00     0.002 A 
ATOM      3  C4  UNL d   1       1.028  -0.057  -2.443  0.00  0.00     0.002 A 
ATOM      4  C5  UNL d   1       1.719  -0.900  -1.575  0.00  0.00    -0.004 A 
ATOM      5  C6  UNL d   1       2.247  -0.395  -0.387  0.00  0.00     0.002 A 
ATOM      6  C7  UNL d   1       2.079   0.952  -0.065  0.00  0.00     0.002 A 
ENDROOT
BRANCH   1   7
ATOM      7  C1  UNL d   1       1.158   3.250  -0.558  0.00  0.00     0.055 C 
ATOM      8  C   UNL d   1       1.078   3.427   0.951  0.00  0.00     0.019 C 
ENDBRANCH   1   7
TORSDOF 1
ENDMDL
