MODEL 1
REMARK minimizedAffinity -0.603458524
REMARK minimizedRMSD -1
REMARK  1 active torsions:
REMARK  status: ('A' for Active; 'I' for Inactive)
REMARK    1  A    between atoms: C1_2  and  C2_3 
ROOT
ATOM      1  C2  UNL d   1       1.178   1.386  -0.417  0.00  0.00    -0.077 A 
ATOM      2  C3  UNL d   1       1.291   1.444  -1.813  0.00  0.00     0.002 A 
ATOM      3  C4  UNL d   1       1.300   2.676  -2.470  0.00  0.00     0.002 A 
ATOM      4  C5  UNL d   1       1.202   3.858  -1.740  0.00  0.00    -0.004 A 
ATOM      5  C6  UNL d   1       1.087   3.811  -0.351  0.00  0.00     0.002 A 
ATOM      6  C7  UNL d   1       1.076   2.580   0.308  0.00  0.00     0.002 A 
ENDROOT
BRANCH   1   7
ATOM      7  C1  UNL d   1       1.217   0.060   0.298  0.00  0.00     0.055 C 
ATOM      8  C   UNL d   1       0.604  -1.044  -0.550  0.00  0.00     0.019 C 
ENDBRANCH   1   7
TORSDOF 1
ENDMDL
