MODEL 1
REMARK minimizedAffinity -3.68382955
REMARK minimizedRMSD -1
REMARK  1 active torsions:
REMARK  status: ('A' for Active; 'I' for Inactive)
REMARK    1  A    between atoms: C1_2  and  C2_3 
ROOT
ATOM      1  C2  UNL d   1       1.344   0.813  -0.458  0.00  0.00    -0.077 A 
ATOM      2  C3  UNL d   1       1.343   1.220  -1.800  0.00  0.00     0.002 A 
ATOM      3  C4  UNL d   1       0.998   2.529  -2.140  0.00  0.00     0.002 A 
ATOM      4  C5  UNL d   1       0.655   3.442  -1.145  0.00  0.00    -0.004 A 
ATOM      5  C6  UNL d   1       0.650   3.046   0.192  0.00  0.00     0.002 A 
ATOM      6  C7  UNL d   1       0.994   1.738   0.534  0.00  0.00     0.002 A 
ENDROOT
BRANCH   1   7
ATOM      7  C1  UNL d   1       1.764  -0.585  -0.085  0.00  0.00     0.055 C 
ATOM      8  C   UNL d   1       3.234  -0.635   0.307  0.00  0.00     0.019 C 
ENDBRANCH   1   7
TORSDOF 1
ENDMDL
