MODEL 1
REMARK minimizedAffinity -1.00384772
REMARK minimizedRMSD -1
REMARK  1 active torsions:
REMARK  status: ('A' for Active; 'I' for Inactive)
REMARK    1  A    between atoms: C1_2  and  C2_3 
ROOT
ATOM      1  C2  UNL d   1       1.031   2.303   0.344  0.00  0.00    -0.077 A 
ATOM      2  C3  UNL d   1       1.065   1.203   1.213  0.00  0.00     0.002 A 
ATOM      3  C4  UNL d   1       1.078  -0.098   0.706  0.00  0.00     0.002 A 
ATOM      4  C5  UNL d   1       1.060  -0.311  -0.671  0.00  0.00    -0.004 A 
ATOM      5  C6  UNL d   1       1.024   0.776  -1.543  0.00  0.00     0.002 A 
ATOM      6  C7  UNL d   1       1.010   2.077  -1.038  0.00  0.00     0.002 A 
ENDROOT
BRANCH   1   7
ATOM      7  C1  UNL d   1       1.067   3.707   0.888  0.00  0.00     0.055 C 
ATOM      8  C   UNL d   1       1.350   4.720  -0.212  0.00  0.00     0.019 C 
ENDBRANCH   1   7
TORSDOF 1
ENDMDL
