MODEL 1
REMARK minimizedAffinity 5.95679569
REMARK minimizedRMSD -1
REMARK  1 active torsions:
REMARK  status: ('A' for Active; 'I' for Inactive)
REMARK    1  A    between atoms: C1_2  and  C2_3 
ROOT
ATOM      1  C2  UNL d   1       1.003   2.189  -1.642  0.00  0.00    -0.077 A 
ATOM      2  C3  UNL d   1       1.792   1.894  -0.522  0.00  0.00     0.002 A 
ATOM      3  C4  UNL d   1       2.041   0.568  -0.163  0.00  0.00     0.002 A 
ATOM      4  C5  UNL d   1       1.509  -0.473  -0.921  0.00  0.00    -0.004 A 
ATOM      5  C6  UNL d   1       0.721  -0.189  -2.036  0.00  0.00     0.002 A 
ATOM      6  C7  UNL d   1       0.470   1.136  -2.396  0.00  0.00     0.002 A 
ENDROOT
BRANCH   1   7
ATOM      7  C1  UNL d   1       0.774   3.619  -2.059  0.00  0.00     0.055 C 
ATOM      8  C   UNL d   1       1.558   4.584  -1.182  0.00  0.00     0.019 C 
ENDBRANCH   1   7
TORSDOF 1
ENDMDL
