MODEL 1
REMARK minimizedAffinity 1.35051692
REMARK minimizedRMSD -1
REMARK  1 active torsions:
REMARK  status: ('A' for Active; 'I' for Inactive)
REMARK    1  A    between atoms: C1_2  and  C2_3 
ROOT
ATOM      1  C2  UNL d   1       0.732   1.643  -1.371  0.00  0.00    -0.077 A 
ATOM      2  C3  UNL d   1       1.046   2.000  -0.052  0.00  0.00     0.002 A 
ATOM      3  C4  UNL d   1       1.441   1.026   0.868  0.00  0.00     0.002 A 
ATOM      4  C5  UNL d   1       1.529  -0.309   0.478  0.00  0.00    -0.004 A 
ATOM      5  C6  UNL d   1       1.217  -0.674  -0.831  0.00  0.00     0.002 A 
ATOM      6  C7  UNL d   1       0.821   0.298  -1.752  0.00  0.00     0.002 A 
ENDROOT
BRANCH   1   7
ATOM      7  C1  UNL d   1       0.354   2.698  -2.378  0.00  0.00     0.055 C 
ATOM      8  C   UNL d   1       0.882   4.066  -1.971  0.00  0.00     0.019 C 
ENDBRANCH   1   7
TORSDOF 1
ENDMDL
