MODEL 1
REMARK minimizedAffinity 1.05246544
REMARK minimizedRMSD -1
REMARK  1 active torsions:
REMARK  status: ('A' for Active; 'I' for Inactive)
REMARK    1  A    between atoms: C1_2  and  C2_3 
ROOT
ATOM      1  C2  UNL d   1       0.691   1.632  -1.043  0.00  0.00    -0.077 A 
ATOM      2  C3  UNL d   1       1.113   1.915   0.264  0.00  0.00     0.002 A 
ATOM      3  C4  UNL d   1       1.661   0.909   1.062  0.00  0.00     0.002 A 
ATOM      4  C5  UNL d   1       1.796  -0.385   0.561  0.00  0.00    -0.004 A 
ATOM      5  C6  UNL d   1       1.377  -0.676  -0.736  0.00  0.00     0.002 A 
ATOM      6  C7  UNL d   1       0.828   0.328  -1.535  0.00  0.00     0.002 A 
ENDROOT
BRANCH   1   7
ATOM      7  C1  UNL d   1       0.146   2.727  -1.922  0.00  0.00     0.055 C 
ATOM      8  C   UNL d   1       1.054   3.948  -1.915  0.00  0.00     0.019 C 
ENDBRANCH   1   7
TORSDOF 1
ENDMDL
