MODEL 1
REMARK minimizedAffinity 5.02429247
REMARK minimizedRMSD -1
REMARK  1 active torsions:
REMARK  status: ('A' for Active; 'I' for Inactive)
REMARK    1  A    between atoms: C1_2  and  C2_3 
ROOT
ATOM      1  C2  UNL d   1       1.633  -1.862   0.144  0.00  0.00    -0.077 A 
ATOM      2  C3  UNL d   1       0.462  -2.216  -0.540  0.00  0.00     0.002 A 
ATOM      3  C4  UNL d   1       0.057  -1.497  -1.666  0.00  0.00     0.002 A 
ATOM      4  C5  UNL d   1       0.819  -0.422  -2.120  0.00  0.00    -0.004 A 
ATOM      5  C6  UNL d   1       1.984  -0.061  -1.446  0.00  0.00     0.002 A 
ATOM      6  C7  UNL d   1       2.390  -0.778  -0.319  0.00  0.00     0.002 A 
ENDROOT
BRANCH   1   7
ATOM      7  C1  UNL d   1       2.098  -2.667   1.329  0.00  0.00     0.055 C 
ATOM      8  C   UNL d   1       1.563  -4.090   1.276  0.00  0.00     0.019 C 
ENDBRANCH   1   7
TORSDOF 1
ENDMDL
