MODEL 1
REMARK minimizedAffinity 3.30028415
REMARK minimizedRMSD -1
REMARK  1 active torsions:
REMARK  status: ('A' for Active; 'I' for Inactive)
REMARK    1  A    between atoms: C1_2  and  C2_3 
ROOT
ATOM      1  C2  UNL d   1       0.170  -1.410  -2.843  0.00  0.00    -0.077 A 
ATOM      2  C3  UNL d   1       1.487  -1.054  -2.520  0.00  0.00     0.002 A 
ATOM      3  C4  UNL d   1       1.839  -0.776  -1.198  0.00  0.00     0.002 A 
ATOM      4  C5  UNL d   1       0.881  -0.855  -0.189  0.00  0.00    -0.004 A 
ATOM      5  C6  UNL d   1      -0.431  -1.206  -0.501  0.00  0.00     0.002 A 
ATOM      6  C7  UNL d   1      -0.785  -1.483  -1.822  0.00  0.00     0.002 A 
ENDROOT
BRANCH   1   7
ATOM      7  C1  UNL d   1      -0.200  -1.758  -4.261  0.00  0.00     0.055 C 
ATOM      8  C   UNL d   1       0.046  -0.587  -5.201  0.00  0.00     0.019 C 
ENDBRANCH   1   7
TORSDOF 1
ENDMDL
