MODEL 1
REMARK minimizedAffinity 4.1050415
REMARK minimizedRMSD -1
REMARK  1 active torsions:
REMARK  status: ('A' for Active; 'I' for Inactive)
REMARK    1  A    between atoms: C1_2  and  C2_3 
ROOT
ATOM      1  C2  UNL d   1       1.186  -3.241   0.633  0.00  0.00    -0.077 A 
ATOM      2  C3  UNL d   1       2.124  -2.696   1.520  0.00  0.00     0.002 A 
ATOM      3  C4  UNL d   1       2.860  -1.565   1.163  0.00  0.00     0.002 A 
ATOM      4  C5  UNL d   1       2.661  -0.966  -0.080  0.00  0.00    -0.004 A 
ATOM      5  C6  UNL d   1       1.732  -1.502  -0.970  0.00  0.00     0.002 A 
ATOM      6  C7  UNL d   1       0.996  -2.634  -0.615  0.00  0.00     0.002 A 
ENDROOT
BRANCH   1   7
ATOM      7  C1  UNL d   1       0.356  -4.433   1.036  0.00  0.00     0.055 C 
ATOM      8  C   UNL d   1       1.234  -5.613   1.425  0.00  0.00     0.019 C 
ENDBRANCH   1   7
TORSDOF 1
ENDMDL
