MODEL 1
REMARK minimizedAffinity -1.3496238
REMARK minimizedRMSD -1
REMARK  1 active torsions:
REMARK  status: ('A' for Active; 'I' for Inactive)
REMARK    1  A    between atoms: C1_2  and  C2_3 
ROOT
ATOM      1  C2  UNL d   1       0.250  -2.745   0.373  0.00  0.00    -0.077 A 
ATOM      2  C3  UNL d   1       1.539  -2.447   0.838  0.00  0.00     0.002 A 
ATOM      3  C4  UNL d   1       2.217  -1.320   0.368  0.00  0.00     0.002 A 
ATOM      4  C5  UNL d   1       1.612  -0.481  -0.565  0.00  0.00    -0.004 A 
ATOM      5  C6  UNL d   1       0.332  -0.769  -1.036  0.00  0.00     0.002 A 
ATOM      6  C7  UNL d   1      -0.347  -1.895  -0.568  0.00  0.00     0.002 A 
ENDROOT
BRANCH   1   7
ATOM      7  C1  UNL d   1      -0.502  -3.932   0.915  0.00  0.00     0.055 C 
ATOM      8  C   UNL d   1       0.445  -5.060   1.296  0.00  0.00     0.019 C 
ENDBRANCH   1   7
TORSDOF 1
ENDMDL
