MODEL 1
REMARK minimizedAffinity 7.76788235
REMARK minimizedRMSD -1
REMARK  1 active torsions:
REMARK  status: ('A' for Active; 'I' for Inactive)
REMARK    1  A    between atoms: C1_2  and  C2_3 
ROOT
ATOM      1  C2  UNL d   1      -3.345   1.189   3.903  0.00  0.00    -0.077 A 
ATOM      2  C3  UNL d   1      -2.313   0.259   4.091  0.00  0.00     0.002 A 
ATOM      3  C4  UNL d   1      -2.440  -1.044   3.605  0.00  0.00     0.002 A 
ATOM      4  C5  UNL d   1      -3.594  -1.427   2.926  0.00  0.00    -0.004 A 
ATOM      5  C6  UNL d   1      -4.627  -0.510   2.735  0.00  0.00     0.002 A 
ATOM      6  C7  UNL d   1      -4.503   0.792   3.221  0.00  0.00     0.002 A 
ENDROOT
BRANCH   1   7
ATOM      7  C1  UNL d   1      -3.190   2.609   4.382  0.00  0.00     0.055 C 
ATOM      8  C   UNL d   1      -3.083   3.579   3.215  0.00  0.00     0.019 C 
ENDBRANCH   1   7
TORSDOF 1
ENDMDL
