MODEL 1
REMARK minimizedAffinity 3.09125805
REMARK minimizedRMSD -1
REMARK  1 active torsions:
REMARK  status: ('A' for Active; 'I' for Inactive)
REMARK    1  A    between atoms: C1_2  and  C2_3 
ROOT
ATOM      1  C2  UNL d   1       0.570  -1.713   0.028  0.00  0.00    -0.077 A 
ATOM      2  C3  UNL d   1       1.156  -1.944  -1.224  0.00  0.00     0.002 A 
ATOM      3  C4  UNL d   1       2.429  -1.448  -1.510  0.00  0.00     0.002 A 
ATOM      4  C5  UNL d   1       3.129  -0.722  -0.548  0.00  0.00    -0.004 A 
ATOM      5  C6  UNL d   1       2.554  -0.486   0.700  0.00  0.00     0.002 A 
ATOM      6  C7  UNL d   1       1.280  -0.979   0.987  0.00  0.00     0.002 A 
ENDROOT
BRANCH   1   7
ATOM      7  C1  UNL d   1      -0.783  -2.288   0.356  0.00  0.00     0.055 C 
ATOM      8  C   UNL d   1      -0.663  -3.496   1.274  0.00  0.00     0.019 C 
ENDBRANCH   1   7
TORSDOF 1
ENDMDL
