MODEL 1
REMARK minimizedAffinity 2.01111245
REMARK minimizedRMSD -1
REMARK  1 active torsions:
REMARK  status: ('A' for Active; 'I' for Inactive)
REMARK    1  A    between atoms: C1_2  and  C2_3 
ROOT
ATOM      1  C2  UNL d   1       1.328  -1.747  -0.031  0.00  0.00    -0.077 A 
ATOM      2  C3  UNL d   1       0.044  -2.270  -0.239  0.00  0.00     0.002 A 
ATOM      3  C4  UNL d   1      -0.915  -1.531  -0.934  0.00  0.00     0.002 A 
ATOM      4  C5  UNL d   1      -0.600  -0.268  -1.430  0.00  0.00    -0.004 A 
ATOM      5  C6  UNL d   1       0.673   0.262  -1.226  0.00  0.00     0.002 A 
ATOM      6  C7  UNL d   1       1.633  -0.474  -0.530  0.00  0.00     0.002 A 
ENDROOT
BRANCH   1   7
ATOM      7  C1  UNL d   1       2.379  -2.562   0.676  0.00  0.00     0.055 C 
ATOM      8  C   UNL d   1       1.952  -4.016   0.815  0.00  0.00     0.019 C 
ENDBRANCH   1   7
TORSDOF 1
ENDMDL
