MODEL 1
REMARK minimizedAffinity -0.442377001
REMARK minimizedRMSD -1
REMARK  1 active torsions:
REMARK  status: ('A' for Active; 'I' for Inactive)
REMARK    1  A    between atoms: C1_2  and  C2_3 
ROOT
ATOM      1  C2  UNL d   1       0.336  -3.901   0.681  0.00  0.00    -0.077 A 
ATOM      2  C3  UNL d   1       1.545  -3.317   1.085  0.00  0.00     0.002 A 
ATOM      3  C4  UNL d   1       1.810  -1.976   0.804  0.00  0.00     0.002 A 
ATOM      4  C5  UNL d   1       0.870  -1.206   0.122  0.00  0.00    -0.004 A 
ATOM      5  C6  UNL d   1      -0.334  -1.778  -0.286  0.00  0.00     0.002 A 
ATOM      6  C7  UNL d   1      -0.600  -3.119  -0.007  0.00  0.00     0.002 A 
ENDROOT
BRANCH   1   7
ATOM      7  C1  UNL d   1       0.028  -5.334   1.026  0.00  0.00     0.055 C 
ATOM      8  C   UNL d   1       1.197  -5.996   1.741  0.00  0.00     0.019 C 
ENDBRANCH   1   7
TORSDOF 1
ENDMDL
