MODEL 1
REMARK minimizedAffinity 0.38357991
REMARK minimizedRMSD -1
REMARK  1 active torsions:
REMARK  status: ('A' for Active; 'I' for Inactive)
REMARK    1  A    between atoms: C1_2  and  C2_3 
ROOT
ATOM      1  C2  UNL d   1       1.540   1.183  -3.706  0.00  0.00    -0.077 A 
ATOM      2  C3  UNL d   1       0.757   2.094  -2.984  0.00  0.00     0.002 A 
ATOM      3  C4  UNL d   1       0.291   1.770  -1.709  0.00  0.00     0.002 A 
ATOM      4  C5  UNL d   1       0.606   0.536  -1.143  0.00  0.00    -0.004 A 
ATOM      5  C6  UNL d   1       1.382  -0.378  -1.854  0.00  0.00     0.002 A 
ATOM      6  C7  UNL d   1       1.848  -0.056  -3.129  0.00  0.00     0.002 A 
ENDROOT
BRANCH   1   7
ATOM      7  C1  UNL d   1       2.085   1.550  -5.062  0.00  0.00     0.055 C 
ATOM      8  C   UNL d   1       3.607   1.528  -5.071  0.00  0.00     0.019 C 
ENDBRANCH   1   7
TORSDOF 1
ENDMDL
