MODEL 1
REMARK minimizedAffinity -2.70146155
REMARK minimizedRMSD -1
REMARK  1 active torsions:
REMARK  status: ('A' for Active; 'I' for Inactive)
REMARK    1  A    between atoms: C1_2  and  C2_3 
ROOT
ATOM      1  C2  UNL d   1      -4.169   3.211   4.635  0.00  0.00    -0.077 A 
ATOM      2  C3  UNL d   1      -4.696   3.719   5.831  0.00  0.00     0.002 A 
ATOM      3  C4  UNL d   1      -4.871   5.094   5.998  0.00  0.00     0.002 A 
ATOM      4  C5  UNL d   1      -4.527   5.971   4.973  0.00  0.00    -0.004 A 
ATOM      5  C6  UNL d   1      -4.001   5.477   3.780  0.00  0.00     0.002 A 
ATOM      6  C7  UNL d   1      -3.824   4.103   3.611  0.00  0.00     0.002 A 
ENDROOT
BRANCH   1   7
ATOM      7  C1  UNL d   1      -4.025   1.725   4.434  0.00  0.00     0.055 C 
ATOM      8  C   UNL d   1      -3.835   1.003   5.760  0.00  0.00     0.019 C 
ENDBRANCH   1   7
TORSDOF 1
ENDMDL
