MODEL 1
REMARK minimizedAffinity 0.249389052
REMARK minimizedRMSD -1
REMARK  1 active torsions:
REMARK  status: ('A' for Active; 'I' for Inactive)
REMARK    1  A    between atoms: C1_2  and  C2_3 
ROOT
ATOM      1  C2  UNL d   1       3.615   3.224  -4.983  0.00  0.00    -0.077 A 
ATOM      2  C3  UNL d   1       3.603   1.962  -5.592  0.00  0.00     0.002 A 
ATOM      3  C4  UNL d   1       4.780   1.217  -5.697  0.00  0.00     0.002 A 
ATOM      4  C5  UNL d   1       5.975   1.725  -5.192  0.00  0.00    -0.004 A 
ATOM      5  C6  UNL d   1       5.997   2.981  -4.587  0.00  0.00     0.002 A 
ATOM      6  C7  UNL d   1       4.823   3.727  -4.482  0.00  0.00     0.002 A 
ENDROOT
BRANCH   1   7
ATOM      7  C1  UNL d   1       2.338   4.008  -4.825  0.00  0.00     0.055 C 
ATOM      8  C   UNL d   1       2.224   5.100  -5.878  0.00  0.00     0.019 C 
ENDBRANCH   1   7
TORSDOF 1
ENDMDL
