MODEL 1
REMARK minimizedAffinity -3.21782446
REMARK minimizedRMSD -1
REMARK  1 active torsions:
REMARK  status: ('A' for Active; 'I' for Inactive)
REMARK    1  A    between atoms: C1_2  and  C2_3 
ROOT
ATOM      1  C2  UNL d   1      -4.017   3.374   5.252  0.00  0.00    -0.077 A 
ATOM      2  C3  UNL d   1      -4.934   4.127   6.000  0.00  0.00     0.002 A 
ATOM      3  C4  UNL d   1      -5.246   5.435   5.624  0.00  0.00     0.002 A 
ATOM      4  C5  UNL d   1      -4.650   6.000   4.499  0.00  0.00    -0.004 A 
ATOM      5  C6  UNL d   1      -3.735   5.260   3.750  0.00  0.00     0.002 A 
ATOM      6  C7  UNL d   1      -3.421   3.953   4.124  0.00  0.00     0.002 A 
ENDROOT
BRANCH   1   7
ATOM      7  C1  UNL d   1      -3.716   1.946   5.627  0.00  0.00     0.055 C 
ATOM      8  C   UNL d   1      -4.879   1.027   5.282  0.00  0.00     0.019 C 
ENDBRANCH   1   7
TORSDOF 1
ENDMDL
