MODEL 1
REMARK minimizedAffinity 0.708697259
REMARK minimizedRMSD -1
REMARK  1 active torsions:
REMARK  status: ('A' for Active; 'I' for Inactive)
REMARK    1  A    between atoms: C1_2  and  C2_3 
ROOT
ATOM      1  C2  UNL d   1       3.282   1.903  -5.434  0.00  0.00    -0.077 A 
ATOM      2  C3  UNL d   1       3.674   3.234  -5.231  0.00  0.00     0.002 A 
ATOM      3  C4  UNL d   1       5.027   3.574  -5.197  0.00  0.00     0.002 A 
ATOM      4  C5  UNL d   1       5.999   2.591  -5.370  0.00  0.00    -0.004 A 
ATOM      5  C6  UNL d   1       5.620   1.265  -5.571  0.00  0.00     0.002 A 
ATOM      6  C7  UNL d   1       4.267   0.922  -5.603  0.00  0.00     0.002 A 
ENDROOT
BRANCH   1   7
ATOM      7  C1  UNL d   1       1.822   1.542  -5.519  0.00  0.00     0.055 C 
ATOM      8  C   UNL d   1       1.255   1.201  -4.149  0.00  0.00     0.019 C 
ENDBRANCH   1   7
TORSDOF 1
ENDMDL
