MODEL 1
REMARK minimizedAffinity 4.1985383
REMARK minimizedRMSD -1
REMARK  1 active torsions:
REMARK  status: ('A' for Active; 'I' for Inactive)
REMARK    1  A    between atoms: C1_2  and  C2_3 
ROOT
ATOM      1  C2  UNL d   1       0.898   0.373  -2.090  0.00  0.00    -0.077 A 
ATOM      2  C3  UNL d   1       1.581   0.974  -3.157  0.00  0.00     0.002 A 
ATOM      3  C4  UNL d   1       1.994   0.211  -4.251  0.00  0.00     0.002 A 
ATOM      4  C5  UNL d   1       1.725  -1.156  -4.290  0.00  0.00    -0.004 A 
ATOM      5  C6  UNL d   1       1.048  -1.763  -3.233  0.00  0.00     0.002 A 
ATOM      6  C7  UNL d   1       0.636  -1.002  -2.139  0.00  0.00     0.002 A 
ENDROOT
BRANCH   1   7
ATOM      7  C1  UNL d   1       0.409   1.203  -0.932  0.00  0.00     0.055 C 
ATOM      8  C   UNL d   1       1.529   2.051  -0.346  0.00  0.00     0.019 C 
ENDBRANCH   1   7
TORSDOF 1
ENDMDL
