MODEL 1
REMARK minimizedAffinity 1.03068089
REMARK minimizedRMSD -1
REMARK  1 active torsions:
REMARK  status: ('A' for Active; 'I' for Inactive)
REMARK    1  A    between atoms: C1_2  and  C2_3 
ROOT
ATOM      1  C2  UNL d   1      -1.451  -4.887  -1.565  0.00  0.00    -0.081 A 
ATOM      2  C3  UNL d   1      -2.482  -5.792  -1.845  0.00  0.00     0.006 A 
ATOM      3  C4  UNL d   1      -3.818  -5.409  -1.707  0.00  0.00     0.002 A 
ATOM      4  C5  UNL d   1      -4.146  -4.113  -1.295  0.00  0.00    -0.080 A 
ATOM      5  C6  UNL d   1      -5.576  -3.679  -1.172  0.00  0.00     0.076 C 
ATOM      6  C7  UNL d   1      -3.116  -3.214  -0.998  0.00  0.00     0.002 A 
ATOM      7  C8  UNL d   1      -1.780  -3.597  -1.135  0.00  0.00     0.006 A 
ENDROOT
BRANCH   1   8
ATOM      8  C1  UNL d   1      -0.010  -5.278  -1.775  0.00  0.00     0.054 C 
ATOM      9  C   UNL d   1       0.179  -6.000  -3.101  0.00  0.00     0.018 C 
ENDBRANCH   1   8
TORSDOF 1
ENDMDL
