MODEL 1
REMARK minimizedAffinity 4.58954525
REMARK minimizedRMSD -1
REMARK  1 active torsions:
REMARK  status: ('A' for Active; 'I' for Inactive)
REMARK    1  A    between atoms: C1_2  and  C2_3 
ROOT
ATOM      1  C2  UNL d   1      -3.520   0.812   0.598  0.00  0.00    -0.081 A 
ATOM      2  C3  UNL d   1      -2.620  -0.094   1.170  0.00  0.00     0.006 A 
ATOM      3  C4  UNL d   1      -1.242   0.099   1.042  0.00  0.00     0.002 A 
ATOM      4  C5  UNL d   1      -0.743   1.206   0.346  0.00  0.00    -0.080 A 
ATOM      5  C6  UNL d   1       0.734   1.441   0.227  0.00  0.00     0.076 C 
ATOM      6  C7  UNL d   1      -1.643   2.102  -0.241  0.00  0.00     0.002 A 
ATOM      7  C8  UNL d   1      -3.020   1.908  -0.113  0.00  0.00     0.006 A 
ENDROOT
BRANCH   1   8
ATOM      8  C1  UNL d   1      -5.006   0.641   0.790  0.00  0.00     0.054 C 
ATOM      9  C   UNL d   1      -5.767   1.881   0.344  0.00  0.00     0.018 C 
ENDBRANCH   1   8
TORSDOF 1
ENDMDL
