MODEL 1
REMARK minimizedAffinity 11.0908718
REMARK minimizedRMSD -1
REMARK  1 active torsions:
REMARK  status: ('A' for Active; 'I' for Inactive)
REMARK    1  A    between atoms: C1_2  and  C2_3 
ROOT
ATOM      1  C2  UNL d   1       3.755   2.170   0.989  0.00  0.00    -0.081 A 
ATOM      2  C3  UNL d   1       2.944   1.161   0.455  0.00  0.00     0.006 A 
ATOM      3  C4  UNL d   1       1.646   0.969   0.934  0.00  0.00     0.002 A 
ATOM      4  C5  UNL d   1       1.134   1.786   1.947  0.00  0.00    -0.080 A 
ATOM      5  C6  UNL d   1      -0.268   1.610   2.449  0.00  0.00     0.076 C 
ATOM      6  C7  UNL d   1       1.951   2.783   2.493  0.00  0.00     0.002 A 
ATOM      7  C8  UNL d   1       3.249   2.975   2.015  0.00  0.00     0.006 A 
ENDROOT
BRANCH   1   8
ATOM      8  C1  UNL d   1       5.132   2.422   0.431  0.00  0.00     0.054 C 
ATOM      9  C   UNL d   1       5.723   3.714   0.976  0.00  0.00     0.018 C 
ENDBRANCH   1   8
TORSDOF 1
ENDMDL
