MODEL 1
REMARK minimizedAffinity 3.95656967
REMARK minimizedRMSD -1
REMARK  1 active torsions:
REMARK  status: ('A' for Active; 'I' for Inactive)
REMARK    1  A    between atoms: C1_2  and  C2_3 
ROOT
ATOM      1  C2  UNL d   1       0.532   1.680   1.072  0.00  0.00    -0.081 A 
ATOM      2  C3  UNL d   1       0.120   2.766   0.288  0.00  0.00     0.006 A 
ATOM      3  C4  UNL d   1      -1.165   2.797  -0.258  0.00  0.00     0.002 A 
ATOM      4  C5  UNL d   1      -2.062   1.749  -0.025  0.00  0.00    -0.080 A 
ATOM      5  C6  UNL d   1      -3.454   1.784  -0.581  0.00  0.00     0.076 C 
ATOM      6  C7  UNL d   1      -1.645   0.656   0.743  0.00  0.00     0.002 A 
ATOM      7  C8  UNL d   1      -0.360   0.624   1.289  0.00  0.00     0.006 A 
ENDROOT
BRANCH   1   8
ATOM      8  C1  UNL d   1       1.894   1.674   1.716  0.00  0.00     0.054 C 
ATOM      9  C   UNL d   1       2.823   0.678   1.037  0.00  0.00     0.018 C 
ENDBRANCH   1   8
TORSDOF 1
ENDMDL
