MODEL 1
REMARK minimizedAffinity 3.37894082
REMARK minimizedRMSD -1
REMARK  1 active torsions:
REMARK  status: ('A' for Active; 'I' for Inactive)
REMARK    1  A    between atoms: C1_2  and  C2_3 
ROOT
ATOM      1  C2  UNL d   1       4.497   5.971   3.760  0.00  0.00    -0.081 A 
ATOM      2  C3  UNL d   1       3.340   5.929   2.973  0.00  0.00     0.006 A 
ATOM      3  C4  UNL d   1       3.432   5.903   1.579  0.00  0.00     0.002 A 
ATOM      4  C5  UNL d   1       4.682   5.911   0.951  0.00  0.00    -0.080 A 
ATOM      5  C6  UNL d   1       4.796   5.853  -0.544  0.00  0.00     0.076 C 
ATOM      6  C7  UNL d   1       5.838   5.971   1.737  0.00  0.00     0.002 A 
ATOM      7  C8  UNL d   1       5.746   5.998   3.130  0.00  0.00     0.006 A 
ENDROOT
BRANCH   1   8
ATOM      8  C1  UNL d   1       4.402   5.934   5.264  0.00  0.00     0.054 C 
ATOM      9  C   UNL d   1       5.780   6.000   5.907  0.00  0.00     0.018 C 
ENDBRANCH   1   8
TORSDOF 1
ENDMDL
