MODEL 1
REMARK minimizedAffinity 6.64923
REMARK minimizedRMSD -1
REMARK  1 active torsions:
REMARK  status: ('A' for Active; 'I' for Inactive)
REMARK    1  A    between atoms: C1_2  and  C2_3 
ROOT
ATOM      1  C2  UNL d   1       1.032   1.263   0.806  0.00  0.00    -0.081 A 
ATOM      2  C3  UNL d   1      -0.356   1.092   0.872  0.00  0.00     0.006 A 
ATOM      3  C4  UNL d   1      -1.094   1.683   1.900  0.00  0.00     0.002 A 
ATOM      4  C5  UNL d   1      -0.459   2.461   2.874  0.00  0.00    -0.080 A 
ATOM      5  C6  UNL d   1      -1.243   3.125   3.965  0.00  0.00     0.076 C 
ATOM      6  C7  UNL d   1       0.930   2.617   2.818  0.00  0.00     0.002 A 
ATOM      7  C8  UNL d   1       1.669   2.026   1.791  0.00  0.00     0.006 A 
ENDROOT
BRANCH   1   8
ATOM      8  C1  UNL d   1       1.823   0.681  -0.338  0.00  0.00     0.054 C 
ATOM      9  C   UNL d   1       1.898   1.650  -1.509  0.00  0.00     0.018 C 
ENDBRANCH   1   8
TORSDOF 1
ENDMDL
