MODEL 1
REMARK minimizedAffinity 5.59677172
REMARK minimizedRMSD -1
REMARK  1 active torsions:
REMARK  status: ('A' for Active; 'I' for Inactive)
REMARK    1  A    between atoms: C1_2  and  C2_3 
ROOT
ATOM      1  C2  UNL d   1       1.526   1.103   0.041  0.00  0.00    -0.081 A 
ATOM      2  C3  UNL d   1       0.142   0.896   0.099  0.00  0.00     0.006 A 
ATOM      3  C4  UNL d   1      -0.597   1.355   1.192  0.00  0.00     0.002 A 
ATOM      4  C5  UNL d   1       0.033   2.036   2.240  0.00  0.00    -0.080 A 
ATOM      5  C6  UNL d   1      -0.754   2.561   3.404  0.00  0.00     0.076 C 
ATOM      6  C7  UNL d   1       1.418   2.228   2.190  0.00  0.00     0.002 A 
ATOM      7  C8  UNL d   1       2.158   1.768   1.098  0.00  0.00     0.006 A 
ENDROOT
BRANCH   1   8
ATOM      8  C1  UNL d   1       2.316   0.666  -1.166  0.00  0.00     0.054 C 
ATOM      9  C   UNL d   1       2.023   1.551  -2.369  0.00  0.00     0.018 C 
ENDBRANCH   1   8
TORSDOF 1
ENDMDL
