MODEL 1
REMARK minimizedAffinity 3.39627147
REMARK minimizedRMSD -1
REMARK  1 active torsions:
REMARK  status: ('A' for Active; 'I' for Inactive)
REMARK    1  A    between atoms: C1_2  and  C2_3 
ROOT
ATOM      1  C2  UNL d   1       1.503   1.016   0.348  0.00  0.00    -0.081 A 
ATOM      2  C3  UNL d   1       0.117   0.821   0.376  0.00  0.00     0.006 A 
ATOM      3  C4  UNL d   1      -0.666   1.438   1.355  0.00  0.00     0.002 A 
ATOM      4  C5  UNL d   1      -0.077   2.266   2.317  0.00  0.00    -0.080 A 
ATOM      5  C6  UNL d   1      -0.909   2.958   3.355  0.00  0.00     0.076 C 
ATOM      6  C7  UNL d   1       1.310   2.448   2.299  0.00  0.00     0.002 A 
ATOM      7  C8  UNL d   1       2.093   1.831   1.321  0.00  0.00     0.006 A 
ENDROOT
BRANCH   1   8
ATOM      8  C1  UNL d   1       2.341   0.405  -0.745  0.00  0.00     0.054 C 
ATOM      9  C   UNL d   1       2.196   1.174  -2.050  0.00  0.00     0.018 C 
ENDBRANCH   1   8
TORSDOF 1
ENDMDL
