MODEL 1
REMARK minimizedAffinity 7.71639633
REMARK minimizedRMSD -1
REMARK  1 active torsions:
REMARK  status: ('A' for Active; 'I' for Inactive)
REMARK    1  A    between atoms: C1_2  and  C2_3 
ROOT
ATOM      1  C2  UNL d   1       1.334   1.237   0.440  0.00  0.00    -0.081 A 
ATOM      2  C3  UNL d   1      -0.040   0.967   0.428  0.00  0.00     0.006 A 
ATOM      3  C4  UNL d   1      -0.903   1.649   1.289  0.00  0.00     0.002 A 
ATOM      4  C5  UNL d   1      -0.409   2.617   2.170  0.00  0.00    -0.080 A 
ATOM      5  C6  UNL d   1      -1.329   3.378   3.078  0.00  0.00     0.076 C 
ATOM      6  C7  UNL d   1       0.966   2.875   2.193  0.00  0.00     0.002 A 
ATOM      7  C8  UNL d   1       1.829   2.193   1.333  0.00  0.00     0.006 A 
ENDROOT
BRANCH   1   8
ATOM      8  C1  UNL d   1       2.258   0.550  -0.533  0.00  0.00     0.054 C 
ATOM      9  C   UNL d   1       2.294   1.277  -1.870  0.00  0.00     0.018 C 
ENDBRANCH   1   8
TORSDOF 1
ENDMDL
