MODEL 1
REMARK minimizedAffinity 2.15471172
REMARK minimizedRMSD -1
REMARK  1 active torsions:
REMARK  status: ('A' for Active; 'I' for Inactive)
REMARK    1  A    between atoms: C1_2  and  C2_3 
ROOT
ATOM      1  C2  UNL d   1      -3.807   2.376  -4.386  0.00  0.00    -0.081 A 
ATOM      2  C3  UNL d   1      -3.495   1.153  -3.781  0.00  0.00     0.006 A 
ATOM      3  C4  UNL d   1      -4.022   0.828  -2.528  0.00  0.00     0.002 A 
ATOM      4  C5  UNL d   1      -4.875   1.716  -1.865  0.00  0.00    -0.080 A 
ATOM      5  C6  UNL d   1      -5.471   1.366  -0.534  0.00  0.00     0.076 C 
ATOM      6  C7  UNL d   1      -5.173   2.946  -2.461  0.00  0.00     0.002 A 
ATOM      7  C8  UNL d   1      -4.646   3.272  -3.713  0.00  0.00     0.006 A 
ENDROOT
BRANCH   1   8
ATOM      8  C1  UNL d   1      -3.293   2.702  -5.765  0.00  0.00     0.054 C 
ATOM      9  C   UNL d   1      -3.255   4.206  -6.000  0.00  0.00     0.018 C 
ENDBRANCH   1   8
TORSDOF 1
ENDMDL
