MODEL 1
REMARK minimizedAffinity 5.60623264
REMARK minimizedRMSD -1
REMARK  1 active torsions:
REMARK  status: ('A' for Active; 'I' for Inactive)
REMARK    1  A    between atoms: C1_2  and  C2_3 
ROOT
ATOM      1  C2  UNL d   1       1.703   0.997   0.539  0.00  0.00    -0.081 A 
ATOM      2  C3  UNL d   1       0.319   0.801   0.444  0.00  0.00     0.006 A 
ATOM      3  C4  UNL d   1      -0.553   1.503   1.279  0.00  0.00     0.002 A 
ATOM      4  C5  UNL d   1      -0.059   2.416   2.217  0.00  0.00    -0.080 A 
ATOM      5  C6  UNL d   1      -0.987   3.197   3.099  0.00  0.00     0.076 C 
ATOM      6  C7  UNL d   1       1.324   2.598   2.323  0.00  0.00     0.002 A 
ATOM      7  C8  UNL d   1       2.197   1.897   1.489  0.00  0.00     0.006 A 
ENDROOT
BRANCH   1   8
ATOM      8  C1  UNL d   1       2.643   0.290  -0.405  0.00  0.00     0.054 C 
ATOM      9  C   UNL d   1       2.432   0.747  -1.841  0.00  0.00     0.018 C 
ENDBRANCH   1   8
TORSDOF 1
ENDMDL
