MODEL 1
REMARK minimizedAffinity 5.48810101
REMARK minimizedRMSD -1
REMARK  1 active torsions:
REMARK  status: ('A' for Active; 'I' for Inactive)
REMARK    1  A    between atoms: C1_2  and  C2_3 
ROOT
ATOM      1  C2  UNL d   1       1.669   1.229   0.703  0.00  0.00    -0.081 A 
ATOM      2  C3  UNL d   1       2.153   2.165   1.625  0.00  0.00     0.006 A 
ATOM      3  C4  UNL d   1       1.284   2.785   2.527  0.00  0.00     0.002 A 
ATOM      4  C5  UNL d   1      -0.080   2.473   2.527  0.00  0.00    -0.080 A 
ATOM      5  C6  UNL d   1      -1.018   3.108   3.510  0.00  0.00     0.076 C 
ATOM      6  C7  UNL d   1      -0.566   1.551   1.594  0.00  0.00     0.002 A 
ATOM      7  C8  UNL d   1       0.302   0.932   0.691  0.00  0.00     0.006 A 
ENDROOT
BRANCH   1   8
ATOM      8  C1  UNL d   1       2.613   0.512  -0.228  0.00  0.00     0.054 C 
ATOM      9  C   UNL d   1       2.223   0.724  -1.684  0.00  0.00     0.018 C 
ENDBRANCH   1   8
TORSDOF 1
ENDMDL
