MODEL 1
REMARK minimizedAffinity 2.9911747
REMARK minimizedRMSD -1
REMARK  0 active torsions:
REMARK  status: ('A' for Active; 'I' for Inactive)
ROOT
ATOM      1  C   UNL d   1      -1.880  -1.489  -3.742  0.00  0.00     0.172 C 
ATOM      2  N   UNL d   1      -0.628  -1.212  -4.407  0.00  0.00    -0.070 N 
ATOM      3  C1  UNL d   1       0.495  -0.700  -3.814  0.00  0.00    -0.004 A 
ATOM      4  C2  UNL d   1       1.468  -0.586  -4.783  0.00  0.00    -0.047 A 
ATOM      5  C3  UNL d   1       0.911  -1.045  -6.000  0.00  0.00    -0.047 A 
ATOM      6  C4  UNL d   1      -0.388  -1.427  -5.739  0.00  0.00    -0.004 A 
ENDROOT
TORSDOF 0
ENDMDL
