MODEL 1
REMARK minimizedAffinity 5.58527613
REMARK minimizedRMSD -1
REMARK  0 active torsions:
REMARK  status: ('A' for Active; 'I' for Inactive)
ROOT
ATOM      1  C   UNL d   1       0.971  -0.056   2.506  0.00  0.00     0.172 C 
ATOM      2  N   UNL d   1       1.566   1.064   1.817  0.00  0.00    -0.070 N 
ATOM      3  C1  UNL d   1       2.859   1.492   1.956  0.00  0.00    -0.004 A 
ATOM      4  C2  UNL d   1       3.034   2.583   1.132  0.00  0.00    -0.047 A 
ATOM      5  C3  UNL d   1       1.803   2.819   0.476  0.00  0.00    -0.047 A 
ATOM      6  C4  UNL d   1       0.911   1.865   0.918  0.00  0.00    -0.004 A 
ENDROOT
TORSDOF 0
ENDMDL
