MODEL 1
REMARK minimizedAffinity 5.6234026
REMARK minimizedRMSD -1
REMARK  0 active torsions:
REMARK  status: ('A' for Active; 'I' for Inactive)
ROOT
ATOM      1  C   UNL d   1       2.913   0.857   3.811  0.00  0.00     0.172 C 
ATOM      2  N   UNL d   1       1.611   0.295   3.538  0.00  0.00    -0.070 N 
ATOM      3  C1  UNL d   1       0.475   1.008   3.263  0.00  0.00    -0.004 A 
ATOM      4  C2  UNL d   1      -0.550   0.109   3.062  0.00  0.00    -0.047 A 
ATOM      5  C3  UNL d   1      -0.011  -1.190   3.225  0.00  0.00    -0.047 A 
ATOM      6  C4  UNL d   1       1.328  -1.045   3.519  0.00  0.00    -0.004 A 
ENDROOT
TORSDOF 0
ENDMDL
