MODEL 1
REMARK minimizedAffinity 3.62900758
REMARK minimizedRMSD -1
REMARK  0 active torsions:
REMARK  status: ('A' for Active; 'I' for Inactive)
ROOT
ATOM      1  C   UNL d   1       0.273  -2.984  -5.999  0.00  0.00     0.172 C 
ATOM      2  N   UNL d   1       1.113  -1.869  -5.628  0.00  0.00    -0.070 N 
ATOM      3  C1  UNL d   1       2.477  -1.825  -5.743  0.00  0.00    -0.004 A 
ATOM      4  C2  UNL d   1       2.899  -0.595  -5.285  0.00  0.00    -0.047 A 
ATOM      5  C3  UNL d   1       1.749   0.124  -4.880  0.00  0.00    -0.047 A 
ATOM      6  C4  UNL d   1       0.657  -0.689  -5.103  0.00  0.00    -0.004 A 
ENDROOT
TORSDOF 0
ENDMDL
