MODEL 1
REMARK minimizedAffinity 6.46964884
REMARK minimizedRMSD -1
REMARK  0 active torsions:
REMARK  status: ('A' for Active; 'I' for Inactive)
ROOT
ATOM      1  C   UNL d   1       5.916   0.777   4.143  0.00  0.00     0.172 C 
ATOM      2  N   UNL d   1       5.251   1.994   3.741  0.00  0.00    -0.070 N 
ATOM      3  C1  UNL d   1       4.819   2.287   2.475  0.00  0.00    -0.004 A 
ATOM      4  C2  UNL d   1       4.239   3.537   2.506  0.00  0.00    -0.047 A 
ATOM      5  C3  UNL d   1       4.327   4.012   3.836  0.00  0.00    -0.047 A 
ATOM      6  C4  UNL d   1       4.958   3.037   4.579  0.00  0.00    -0.004 A 
ENDROOT
TORSDOF 0
ENDMDL
