MODEL 1
REMARK minimizedAffinity 6.84459305
REMARK minimizedRMSD -1
REMARK  1 active torsions:
REMARK  status: ('A' for Active; 'I' for Inactive)
REMARK    1  A    between atoms: C1_2  and  C2_3 
ROOT
ATOM      1  C2  UNL d   1       3.271   3.692  -4.551  0.00  0.00    -0.076 A 
ATOM      2  C3  UNL d   1       4.184   4.442  -5.313  0.00  0.00     0.004 A 
ATOM      3  C4  UNL d   1       3.777   5.585  -5.998  0.00  0.00    -0.003 A 
ATOM      4  C5  UNL d   1       2.451   5.999  -5.931  0.00  0.00     0.000 A 
ATOM      5  C6  UNL d   1       1.536   5.278  -5.165  0.00  0.00     0.000 A 
ATOM      6  C7  UNL d   1       1.933   4.132  -4.456  0.00  0.00    -0.073 A 
ATOM      7  C8  UNL d   1       0.903   3.389  -3.650  0.00  0.00     0.078 C 
ENDROOT
BRANCH   1   8
ATOM      8  C1  UNL d   1       3.763   2.446  -3.851  0.00  0.00     0.053 C 
ATOM      9  C   UNL d   1       4.067   1.314  -4.822  0.00  0.00     0.018 C 
ENDBRANCH   1   8
TORSDOF 1
ENDMDL
