MODEL 1
REMARK minimizedAffinity 8.60151005
REMARK minimizedRMSD -1
REMARK  1 active torsions:
REMARK  status: ('A' for Active; 'I' for Inactive)
REMARK    1  A    between atoms: C1_2  and  C2_3 
ROOT
ATOM      1  C2  UNL d   1      -5.175   2.298   5.254  0.00  0.00    -0.076 A 
ATOM      2  C3  UNL d   1      -5.604   1.184   5.995  0.00  0.00     0.004 A 
ATOM      3  C4  UNL d   1      -5.997   0.007   5.359  0.00  0.00    -0.003 A 
ATOM      4  C5  UNL d   1      -5.968  -0.074   3.971  0.00  0.00     0.000 A 
ATOM      5  C6  UNL d   1      -5.529   1.016   3.221  0.00  0.00     0.000 A 
ATOM      6  C7  UNL d   1      -5.113   2.204   3.847  0.00  0.00    -0.073 A 
ATOM      7  C8  UNL d   1      -4.655   3.350   2.988  0.00  0.00     0.078 C 
ENDROOT
BRANCH   1   8
ATOM      8  C1  UNL d   1      -4.786   3.556   5.997  0.00  0.00     0.053 C 
ATOM      9  C   UNL d   1      -5.852   4.638   5.909  0.00  0.00     0.018 C 
ENDBRANCH   1   8
TORSDOF 1
ENDMDL
