MODEL 1
REMARK minimizedAffinity 15.0315714
REMARK minimizedRMSD -1
REMARK  1 active torsions:
REMARK  status: ('A' for Active; 'I' for Inactive)
REMARK    1  A    between atoms: C1_2  and  C2_3 
ROOT
ATOM      1  C2  UNL d   1       2.113   0.631   2.284  0.00  0.00    -0.076 A 
ATOM      2  C3  UNL d   1       1.635   1.019   1.021  0.00  0.00     0.004 A 
ATOM      3  C4  UNL d   1       2.352   0.728  -0.138  0.00  0.00    -0.003 A 
ATOM      4  C5  UNL d   1       3.559   0.043  -0.053  0.00  0.00     0.000 A 
ATOM      5  C6  UNL d   1       4.040  -0.365   1.191  0.00  0.00     0.000 A 
ATOM      6  C7  UNL d   1       3.321  -0.094   2.368  0.00  0.00    -0.073 A 
ATOM      7  C8  UNL d   1       3.889  -0.553   3.683  0.00  0.00     0.078 C 
ENDROOT
BRANCH   1   8
ATOM      8  C1  UNL d   1       1.305   0.998   3.509  0.00  0.00     0.053 C 
ATOM      9  C   UNL d   1       0.576  -0.196   4.105  0.00  0.00     0.018 C 
ENDBRANCH   1   8
TORSDOF 1
ENDMDL
