MODEL 1
REMARK minimizedAffinity 13.5244226
REMARK minimizedRMSD -1
REMARK  1 active torsions:
REMARK  status: ('A' for Active; 'I' for Inactive)
REMARK    1  A    between atoms: C1_2  and  C2_3 
ROOT
ATOM      1  C2  UNL d   1       3.504   5.239  -4.779  0.00  0.00    -0.076 A 
ATOM      2  C3  UNL d   1       2.780   5.996  -5.717  0.00  0.00     0.004 A 
ATOM      3  C4  UNL d   1       1.447   5.705  -6.000  0.00  0.00    -0.003 A 
ATOM      4  C5  UNL d   1       0.815   4.651  -5.349  0.00  0.00     0.000 A 
ATOM      5  C6  UNL d   1       1.512   3.900  -4.403  0.00  0.00     0.000 A 
ATOM      6  C7  UNL d   1       2.852   4.191  -4.094  0.00  0.00    -0.073 A 
ATOM      7  C8  UNL d   1       3.557   3.345  -3.070  0.00  0.00     0.078 C 
ENDROOT
BRANCH   1   8
ATOM      8  C1  UNL d   1       4.955   5.585  -4.534  0.00  0.00     0.053 C 
ATOM      9  C   UNL d   1       5.696   5.931  -5.816  0.00  0.00     0.018 C 
ENDBRANCH   1   8
TORSDOF 1
ENDMDL
