MODEL 1
REMARK minimizedAffinity 3.59546304
REMARK minimizedRMSD -1
REMARK  1 active torsions:
REMARK  status: ('A' for Active; 'I' for Inactive)
REMARK    1  A    between atoms: C1_2  and  C2_3 
ROOT
ATOM      1  C2  UNL d   1      -5.567   1.084   4.796  0.00  0.00    -0.076 A 
ATOM      2  C3  UNL d   1      -5.143   0.402   3.642  0.00  0.00     0.004 A 
ATOM      3  C4  UNL d   1      -4.757   1.099   2.498  0.00  0.00    -0.003 A 
ATOM      4  C5  UNL d   1      -4.789   2.489   2.489  0.00  0.00     0.000 A 
ATOM      5  C6  UNL d   1      -5.190   3.182   3.631  0.00  0.00     0.000 A 
ATOM      6  C7  UNL d   1      -5.567   2.495   4.798  0.00  0.00    -0.073 A 
ATOM      7  C8  UNL d   1      -5.997   3.293   5.998  0.00  0.00     0.078 C 
ENDROOT
BRANCH   1   8
ATOM      8  C1  UNL d   1      -6.000   0.275   5.997  0.00  0.00     0.053 C 
ATOM      9  C   UNL d   1      -5.999  -1.221   5.723  0.00  0.00     0.018 C 
ENDBRANCH   1   8
TORSDOF 1
ENDMDL
