MODEL 1
REMARK minimizedAffinity 21.5110683
REMARK minimizedRMSD -1
REMARK  1 active torsions:
REMARK  status: ('A' for Active; 'I' for Inactive)
REMARK    1  A    between atoms: C1_2  and  C2_3 
ROOT
ATOM      1  C2  UNL d   1      -4.355   0.821   3.985  0.00  0.00    -0.076 A 
ATOM      2  C3  UNL d   1      -3.559   1.825   3.408  0.00  0.00     0.004 A 
ATOM      3  C4  UNL d   1      -3.248   2.988   4.111  0.00  0.00    -0.003 A 
ATOM      4  C5  UNL d   1      -3.727   3.164   5.405  0.00  0.00     0.000 A 
ATOM      5  C6  UNL d   1      -4.504   2.171   6.000  0.00  0.00     0.000 A 
ATOM      6  C7  UNL d   1      -4.814   0.986   5.310  0.00  0.00    -0.073 A 
ATOM      7  C8  UNL d   1      -5.660  -0.049   5.998  0.00  0.00     0.078 C 
ENDROOT
BRANCH   1   8
ATOM      8  C1  UNL d   1      -4.683  -0.405   3.164  0.00  0.00     0.053 C 
ATOM      9  C   UNL d   1      -3.591  -0.743   2.161  0.00  0.00     0.018 C 
ENDBRANCH   1   8
TORSDOF 1
ENDMDL
