MODEL 1
REMARK minimizedAffinity 20.1670647
REMARK minimizedRMSD -1
REMARK  1 active torsions:
REMARK  status: ('A' for Active; 'I' for Inactive)
REMARK    1  A    between atoms: C1_2  and  C2_3 
ROOT
ATOM      1  C2  UNL d   1      -3.955  -3.738  -2.944  0.00  0.00    -0.076 A 
ATOM      2  C3  UNL d   1      -3.596  -4.880  -2.208  0.00  0.00     0.004 A 
ATOM      3  C4  UNL d   1      -4.429  -5.997  -2.165  0.00  0.00    -0.003 A 
ATOM      4  C5  UNL d   1      -5.635  -5.989  -2.859  0.00  0.00     0.000 A 
ATOM      5  C6  UNL d   1      -5.998  -4.871  -3.608  0.00  0.00     0.000 A 
ATOM      6  C7  UNL d   1      -5.162  -3.743  -3.675  0.00  0.00    -0.073 A 
ATOM      7  C8  UNL d   1      -5.607  -2.562  -4.494  0.00  0.00     0.078 C 
ENDROOT
BRANCH   1   8
ATOM      8  C1  UNL d   1      -3.024  -2.546  -2.931  0.00  0.00     0.053 C 
ATOM      9  C   UNL d   1      -2.504  -2.227  -1.538  0.00  0.00     0.018 C 
ENDBRANCH   1   8
TORSDOF 1
ENDMDL
