MODEL 1
REMARK minimizedAffinity 20.2526779
REMARK minimizedRMSD -1
REMARK  1 active torsions:
REMARK  status: ('A' for Active; 'I' for Inactive)
REMARK    1  A    between atoms: C1_2  and  C2_3 
ROOT
ATOM      1  C2  UNL d   1       1.776   2.927   1.332  0.00  0.00    -0.076 A 
ATOM      2  C3  UNL d   1       1.449   2.185   2.480  0.00  0.00     0.004 A 
ATOM      3  C4  UNL d   1       1.472   0.791   2.464  0.00  0.00    -0.003 A 
ATOM      4  C5  UNL d   1       1.824   0.117   1.300  0.00  0.00     0.000 A 
ATOM      5  C6  UNL d   1       2.169   0.837   0.157  0.00  0.00     0.000 A 
ATOM      6  C7  UNL d   1       2.166   2.242   0.160  0.00  0.00    -0.073 A 
ATOM      7  C8  UNL d   1       2.541   2.968  -1.103  0.00  0.00     0.078 C 
ENDROOT
BRANCH   1   8
ATOM      8  C1  UNL d   1       1.707   4.436   1.400  0.00  0.00     0.053 C 
ATOM      9  C   UNL d   1       3.073   5.073   1.605  0.00  0.00     0.018 C 
ENDBRANCH   1   8
TORSDOF 1
ENDMDL
