MODEL 1
REMARK minimizedAffinity 25.2823582
REMARK minimizedRMSD -1
REMARK  1 active torsions:
REMARK  status: ('A' for Active; 'I' for Inactive)
REMARK    1  A    between atoms: C1_2  and  C2_3 
ROOT
ATOM      1  C2  UNL d   1       1.680   1.306   2.382  0.00  0.00    -0.076 A 
ATOM      2  C3  UNL d   1       2.875   0.570   2.312  0.00  0.00     0.004 A 
ATOM      3  C4  UNL d   1       3.284  -0.238   3.372  0.00  0.00    -0.003 A 
ATOM      4  C5  UNL d   1       2.503  -0.322   4.520  0.00  0.00     0.000 A 
ATOM      5  C6  UNL d   1       1.305   0.387   4.600  0.00  0.00     0.000 A 
ATOM      6  C7  UNL d   1       0.871   1.193   3.533  0.00  0.00    -0.073 A 
ATOM      7  C8  UNL d   1      -0.426   1.941   3.675  0.00  0.00     0.078 C 
ENDROOT
BRANCH   1   8
ATOM      8  C1  UNL d   1       1.301   2.186   1.212  0.00  0.00     0.053 C 
ATOM      9  C   UNL d   1       1.726   3.633   1.410  0.00  0.00     0.018 C 
ENDBRANCH   1   8
TORSDOF 1
ENDMDL
