MODEL 1
REMARK minimizedAffinity 16.7660236
REMARK minimizedRMSD -1
REMARK  1 active torsions:
REMARK  status: ('A' for Active; 'I' for Inactive)
REMARK    1  A    between atoms: C1_2  and  C2_3 
ROOT
ATOM      1  C2  UNL d   1       0.699   3.181  -1.298  0.00  0.00    -0.076 A 
ATOM      2  C3  UNL d   1       0.739   2.654   0.005  0.00  0.00     0.004 A 
ATOM      3  C4  UNL d   1       1.951   2.312   0.603  0.00  0.00    -0.003 A 
ATOM      4  C5  UNL d   1       3.142   2.492  -0.092  0.00  0.00     0.000 A 
ATOM      5  C6  UNL d   1       3.122   3.029  -1.378  0.00  0.00     0.000 A 
ATOM      6  C7  UNL d   1       1.910   3.394  -1.990  0.00  0.00    -0.073 A 
ATOM      7  C8  UNL d   1       1.946   3.963  -3.381  0.00  0.00     0.078 C 
ENDROOT
BRANCH   1   8
ATOM      8  C1  UNL d   1      -0.647   3.508  -1.905  0.00  0.00     0.053 C 
ATOM      9  C   UNL d   1      -1.432   4.512  -1.075  0.00  0.00     0.018 C 
ENDBRANCH   1   8
TORSDOF 1
ENDMDL
