MODEL 1
REMARK minimizedAffinity 24.4662933
REMARK minimizedRMSD -1
REMARK  1 active torsions:
REMARK  status: ('A' for Active; 'I' for Inactive)
REMARK    1  A    between atoms: C1_2  and  C2_3 
ROOT
ATOM      1  C2  UNL d   1      -5.137  -3.673  -3.285  0.00  0.00    -0.076 A 
ATOM      2  C3  UNL d   1      -5.928  -4.779  -2.927  0.00  0.00     0.004 A 
ATOM      3  C4  UNL d   1      -5.374  -5.874  -2.267  0.00  0.00    -0.003 A 
ATOM      4  C5  UNL d   1      -4.019  -5.881  -1.954  0.00  0.00     0.000 A 
ATOM      5  C6  UNL d   1      -3.223  -4.786  -2.287  0.00  0.00     0.000 A 
ATOM      6  C7  UNL d   1      -3.770  -3.666  -2.938  0.00  0.00    -0.073 A 
ATOM      7  C8  UNL d   1      -2.864  -2.515  -3.278  0.00  0.00     0.078 C 
ENDROOT
BRANCH   1   8
ATOM      8  C1  UNL d   1      -5.789  -2.526  -4.024  0.00  0.00     0.053 C 
ATOM      9  C   UNL d   1      -5.784  -2.726  -5.532  0.00  0.00     0.018 C 
ENDBRANCH   1   8
TORSDOF 1
ENDMDL
