MODEL 1
REMARK minimizedAffinity 18.0725918
REMARK minimizedRMSD -1
REMARK  1 active torsions:
REMARK  status: ('A' for Active; 'I' for Inactive)
REMARK    1  A    between atoms: C1_2  and  C2_3 
ROOT
ATOM      1  C2  UNL d   1      -3.312  -5.157  -2.771  0.00  0.00    -0.076 A 
ATOM      2  C3  UNL d   1      -2.246  -5.999  -3.135  0.00  0.00     0.004 A 
ATOM      3  C4  UNL d   1      -1.141  -5.501  -3.822  0.00  0.00    -0.003 A 
ATOM      4  C5  UNL d   1      -1.083  -4.152  -4.157  0.00  0.00     0.000 A 
ATOM      5  C6  UNL d   1      -2.122  -3.299  -3.789  0.00  0.00     0.000 A 
ATOM      6  C7  UNL d   1      -3.237  -3.782  -3.081  0.00  0.00    -0.073 A 
ATOM      7  C8  UNL d   1      -4.332  -2.818  -2.715  0.00  0.00     0.078 C 
ENDROOT
BRANCH   1   8
ATOM      8  C1  UNL d   1      -4.497  -5.758  -2.051  0.00  0.00     0.053 C 
ATOM      9  C   UNL d   1      -5.687  -5.982  -2.971  0.00  0.00     0.018 C 
ENDBRANCH   1   8
TORSDOF 1
ENDMDL
