MODEL 1
REMARK minimizedAffinity 18.6424084
REMARK minimizedRMSD -1
REMARK  1 active torsions:
REMARK  status: ('A' for Active; 'I' for Inactive)
REMARK    1  A    between atoms: C1_2  and  C2_3 
ROOT
ATOM      1  C2  UNL d   1      -3.719  -4.034  -2.664  0.00  0.00    -0.076 A 
ATOM      2  C3  UNL d   1      -3.446  -5.058  -1.741  0.00  0.00     0.004 A 
ATOM      3  C4  UNL d   1      -4.418  -6.000  -1.407  0.00  0.00    -0.003 A 
ATOM      4  C5  UNL d   1      -5.678  -5.934  -1.991  0.00  0.00     0.000 A 
ATOM      5  C6  UNL d   1      -5.960  -4.935  -2.923  0.00  0.00     0.000 A 
ATOM      6  C7  UNL d   1      -4.987  -3.987  -3.283  0.00  0.00    -0.073 A 
ATOM      7  C8  UNL d   1      -5.348  -2.928  -4.289  0.00  0.00     0.078 C 
ENDROOT
BRANCH   1   8
ATOM      8  C1  UNL d   1      -2.635  -3.024  -2.967  0.00  0.00     0.053 C 
ATOM      9  C   UNL d   1      -2.120  -2.329  -1.716  0.00  0.00     0.018 C 
ENDBRANCH   1   8
TORSDOF 1
ENDMDL
