MODEL 1
REMARK minimizedAffinity 19.080019
REMARK minimizedRMSD -1
REMARK  1 active torsions:
REMARK  status: ('A' for Active; 'I' for Inactive)
REMARK    1  A    between atoms: C1_2  and  C2_3 
ROOT
ATOM      1  C2  UNL d   1      -4.022  -3.499  -2.668  0.00  0.00    -0.076 A 
ATOM      2  C3  UNL d   1      -3.528  -4.504  -1.819  0.00  0.00     0.004 A 
ATOM      3  C4  UNL d   1      -4.263  -5.664  -1.578  0.00  0.00    -0.003 A 
ATOM      4  C5  UNL d   1      -5.503  -5.837  -2.183  0.00  0.00     0.000 A 
ATOM      5  C6  UNL d   1      -6.000  -4.858  -3.042  0.00  0.00     0.000 A 
ATOM      6  C7  UNL d   1      -5.265  -3.690  -3.309  0.00  0.00    -0.073 A 
ATOM      7  C8  UNL d   1      -5.851  -2.664  -4.239  0.00  0.00     0.078 C 
ENDROOT
BRANCH   1   8
ATOM      8  C1  UNL d   1      -3.193  -2.250  -2.871  0.00  0.00     0.053 C 
ATOM      9  C   UNL d   1      -2.456  -1.829  -1.609  0.00  0.00     0.018 C 
ENDBRANCH   1   8
TORSDOF 1
ENDMDL
