MODEL 1
REMARK minimizedAffinity -4.91502619
REMARK minimizedRMSD -1
REMARK  3 active torsions:
REMARK  status: ('A' for Active; 'I' for Inactive)
REMARK    1  A    between atoms: C3'_2  and  C2'_3 
REMARK    2  A    between atoms: C2'_3  and  C1'_4 
REMARK    3  A    between atoms: C1'_4  and  C1_5 
ROOT
ATOM      1  C1  N4B d   1       0.268  -0.061   0.002  0.00  0.00    -0.075 A 
ATOM      2  C2  N4B d   1       0.009  -0.817   1.167  0.00  0.00     0.002 A 
ATOM      3  C3  N4B d   1      -0.889  -0.357   2.098  0.00  0.00     0.002 A 
ATOM      4  C4  N4B d   1      -1.525   0.858   1.896  0.00  0.00    -0.004 A 
ATOM      5  C5  N4B d   1      -1.290   1.570   0.756  0.00  0.00     0.002 A 
ATOM      6  C6  N4B d   1      -0.392   1.118  -0.190  0.00  0.00     0.002 A 
ENDROOT
BRANCH   1   7
ATOM      7  C1' N4B d   1       1.306  -0.481  -1.002  0.00  0.00     0.057 C 
BRANCH   7   8
ATOM      8  C2' N4B d   1       1.351  -2.005  -1.069  0.00  0.00     0.009 C 
BRANCH   8   9
ATOM      9  C3' N4B d   1       0.436  -2.554  -2.150  0.00  0.00     0.004 C 
ATOM     10  C4' N4B d   1      -0.210  -3.850  -1.761  0.00  0.00     0.003 C 
ENDBRANCH   8   9
ENDBRANCH   7   8
ENDBRANCH   1   7
TORSDOF 3
ENDMDL
