MODEL 1
REMARK minimizedAffinity -6.00476122
REMARK minimizedRMSD -1
REMARK  3 active torsions:
REMARK  status: ('A' for Active; 'I' for Inactive)
REMARK    1  A    between atoms: C3'_2  and  C2'_3 
REMARK    2  A    between atoms: C2'_3  and  C1'_4 
REMARK    3  A    between atoms: C1'_4  and  C1_5 
ROOT
ATOM      1  C1  N4B d   1      -0.538  -0.184   0.410  0.00  0.00    -0.075 A 
ATOM      2  C2  N4B d   1      -1.041   0.783  -0.488  0.00  0.00     0.002 A 
ATOM      3  C3  N4B d   1      -1.434   2.014  -0.022  0.00  0.00     0.002 A 
ATOM      4  C4  N4B d   1      -1.350   2.293   1.334  0.00  0.00    -0.004 A 
ATOM      5  C5  N4B d   1      -0.839   1.363   2.191  0.00  0.00     0.002 A 
ATOM      6  C6  N4B d   1      -0.437   0.123   1.736  0.00  0.00     0.002 A 
ENDROOT
BRANCH   1   7
ATOM      7  C1' N4B d   1      -0.177  -1.573  -0.039  0.00  0.00     0.057 C 
BRANCH   7   8
ATOM      8  C2' N4B d   1       0.612  -1.488  -1.343  0.00  0.00     0.009 C 
BRANCH   8   9
ATOM      9  C3' N4B d   1      -0.020  -2.321  -2.445  0.00  0.00     0.004 C 
ATOM     10  C4' N4B d   1      -0.444  -3.680  -1.975  0.00  0.00     0.003 C 
ENDBRANCH   8   9
ENDBRANCH   7   8
ENDBRANCH   1   7
TORSDOF 3
ENDMDL
