MODEL 1
REMARK minimizedAffinity -4.58163691
REMARK minimizedRMSD -1
REMARK  3 active torsions:
REMARK  status: ('A' for Active; 'I' for Inactive)
REMARK    1  A    between atoms: C3'_2  and  C2'_3 
REMARK    2  A    between atoms: C2'_3  and  C1'_4 
REMARK    3  A    between atoms: C1'_4  and  C1_5 
ROOT
ATOM      1  C1  N4B d   1      -0.587   0.621   0.889  0.00  0.00    -0.075 A 
ATOM      2  C2  N4B d   1      -1.599   0.677   1.873  0.00  0.00     0.002 A 
ATOM      3  C3  N4B d   1      -2.343   1.820   2.029  0.00  0.00     0.002 A 
ATOM      4  C4  N4B d   1      -2.081   2.923   1.230  0.00  0.00    -0.004 A 
ATOM      5  C5  N4B d   1      -1.120   2.853   0.264  0.00  0.00     0.002 A 
ATOM      6  C6  N4B d   1      -0.367   1.708   0.093  0.00  0.00     0.002 A 
ENDROOT
BRANCH   1   7
ATOM      7  C1' N4B d   1       0.309  -0.577   0.738  0.00  0.00     0.057 C 
BRANCH   7   8
ATOM      8  C2' N4B d   1       0.443  -0.919  -0.743  0.00  0.00     0.009 C 
BRANCH   8   9
ATOM      9  C3' N4B d   1       1.075  -2.284  -0.956  0.00  0.00     0.004 C 
ATOM     10  C4' N4B d   1       0.505  -3.010  -2.138  0.00  0.00     0.003 C 
ENDBRANCH   8   9
ENDBRANCH   7   8
ENDBRANCH   1   7
TORSDOF 3
ENDMDL
