MODEL 1
REMARK minimizedAffinity -5.67913532
REMARK minimizedRMSD -1
REMARK  3 active torsions:
REMARK  status: ('A' for Active; 'I' for Inactive)
REMARK    1  A    between atoms: C3'_2  and  C2'_3 
REMARK    2  A    between atoms: C2'_3  and  C1'_4 
REMARK    3  A    between atoms: C1'_4  and  C1_5 
ROOT
ATOM      1  C1  N4B d   1       0.136  -0.590  -0.695  0.00  0.00    -0.075 A 
ATOM      2  C2  N4B d   1       1.325  -1.350  -0.772  0.00  0.00     0.002 A 
ATOM      3  C3  N4B d   1       1.395  -2.432  -1.615  0.00  0.00     0.002 A 
ATOM      4  C4  N4B d   1       0.288  -2.783  -2.373  0.00  0.00    -0.004 A 
ATOM      5  C5  N4B d   1      -0.847  -2.030  -2.312  0.00  0.00     0.002 A 
ATOM      6  C6  N4B d   1      -0.931  -0.937  -1.473  0.00  0.00     0.002 A 
ENDROOT
BRANCH   1   7
ATOM      7  C1' N4B d   1      -0.017   0.549   0.275  0.00  0.00     0.057 C 
BRANCH   7   8
ATOM      8  C2' N4B d   1      -0.170  -0.011   1.685  0.00  0.00     0.009 C 
BRANCH   8   9
ATOM      9  C3' N4B d   1      -1.365   0.586   2.408  0.00  0.00     0.004 C 
ATOM     10  C4' N4B d   1      -2.609   0.587   1.570  0.00  0.00     0.003 C 
ENDBRANCH   8   9
ENDBRANCH   7   8
ENDBRANCH   1   7
TORSDOF 3
ENDMDL
