MODEL 1
REMARK minimizedAffinity -4.54251242
REMARK minimizedRMSD -1
REMARK  3 active torsions:
REMARK  status: ('A' for Active; 'I' for Inactive)
REMARK    1  A    between atoms: C3'_2  and  C2'_3 
REMARK    2  A    between atoms: C2'_3  and  C1'_4 
REMARK    3  A    between atoms: C1'_4  and  C1_5 
ROOT
ATOM      1  C1  N4B d   1      -0.740   1.299   0.022  0.00  0.00    -0.075 A 
ATOM      2  C2  N4B d   1      -1.664   1.611   1.043  0.00  0.00     0.002 A 
ATOM      3  C3  N4B d   1      -1.862   2.918   1.414  0.00  0.00     0.002 A 
ATOM      4  C4  N4B d   1      -1.137   3.924   0.794  0.00  0.00    -0.004 A 
ATOM      5  C5  N4B d   1      -0.265   3.617  -0.210  0.00  0.00     0.002 A 
ATOM      6  C6  N4B d   1      -0.059   2.308  -0.595  0.00  0.00     0.002 A 
ENDROOT
BRANCH   1   7
ATOM      7  C1' N4B d   1      -0.426  -0.122  -0.359  0.00  0.00     0.057 C 
BRANCH   7   8
ATOM      8  C2' N4B d   1       1.006  -0.197  -0.881  0.00  0.00     0.009 C 
BRANCH   8   9
ATOM      9  C3' N4B d   1       1.484  -1.632  -1.025  0.00  0.00     0.004 C 
ATOM     10  C4' N4B d   1       1.033  -2.268  -2.306  0.00  0.00     0.003 C 
ENDBRANCH   8   9
ENDBRANCH   7   8
ENDBRANCH   1   7
TORSDOF 3
ENDMDL
