MODEL 1
REMARK minimizedAffinity -5.26382399
REMARK minimizedRMSD -1
REMARK  3 active torsions:
REMARK  status: ('A' for Active; 'I' for Inactive)
REMARK    1  A    between atoms: C3'_2  and  C2'_3 
REMARK    2  A    between atoms: C2'_3  and  C1'_4 
REMARK    3  A    between atoms: C1'_4  and  C1_5 
ROOT
ATOM      1  C1  N4B d   1      -0.889   0.492   0.585  0.00  0.00    -0.075 A 
ATOM      2  C2  N4B d   1      -0.157   0.261  -0.601  0.00  0.00     0.002 A 
ATOM      3  C3  N4B d   1       0.919  -0.592  -0.588  0.00  0.00     0.002 A 
ATOM      4  C4  N4B d   1       1.292  -1.208   0.597  0.00  0.00    -0.004 A 
ATOM      5  C5  N4B d   1       0.564  -1.000   1.732  0.00  0.00     0.002 A 
ATOM      6  C6  N4B d   1      -0.522  -0.148   1.733  0.00  0.00     0.002 A 
ENDROOT
BRANCH   1   7
ATOM      7  C1' N4B d   1      -2.020   1.482   0.640  0.00  0.00     0.057 C 
BRANCH   7   8
ATOM      8  C2' N4B d   1      -1.595   2.682   1.480  0.00  0.00     0.009 C 
BRANCH   8   9
ATOM      9  C3' N4B d   1      -1.272   3.892   0.620  0.00  0.00     0.004 C 
ATOM     10  C4' N4B d   1       0.012   3.739  -0.139  0.00  0.00     0.003 C 
ENDBRANCH   8   9
ENDBRANCH   7   8
ENDBRANCH   1   7
TORSDOF 3
ENDMDL
