MODEL 1
REMARK minimizedAffinity -2.41660595
REMARK minimizedRMSD -1
REMARK  3 active torsions:
REMARK  status: ('A' for Active; 'I' for Inactive)
REMARK    1  A    between atoms: C3'_2  and  C2'_3 
REMARK    2  A    between atoms: C2'_3  and  C1'_4 
REMARK    3  A    between atoms: C1'_4  and  C1_5 
ROOT
ATOM      1  C1  N4B d   1       0.859  -0.548  -0.373  0.00  0.00    -0.075 A 
ATOM      2  C2  N4B d   1      -0.077   0.506  -0.471  0.00  0.00     0.002 A 
ATOM      3  C3  N4B d   1      -0.826   0.863   0.624  0.00  0.00     0.002 A 
ATOM      4  C4  N4B d   1      -0.670   0.172   1.816  0.00  0.00    -0.004 A 
ATOM      5  C5  N4B d   1       0.254  -0.828   1.909  0.00  0.00     0.002 A 
ATOM      6  C6  N4B d   1       1.016  -1.194   0.818  0.00  0.00     0.002 A 
ENDROOT
BRANCH   1   7
ATOM      7  C1' N4B d   1       1.639  -1.030  -1.565  0.00  0.00     0.057 C 
BRANCH   7   8
ATOM      8  C2' N4B d   1       1.669  -2.556  -1.559  0.00  0.00     0.009 C 
BRANCH   8   9
ATOM      9  C3' N4B d   1       0.776  -3.146  -2.637  0.00  0.00     0.004 C 
ATOM     10  C4' N4B d   1      -0.118  -4.233  -2.120  0.00  0.00     0.003 C 
ENDBRANCH   8   9
ENDBRANCH   7   8
ENDBRANCH   1   7
TORSDOF 3
ENDMDL
