MODEL 1
REMARK minimizedAffinity -5.57722807
REMARK minimizedRMSD -1
REMARK  3 active torsions:
REMARK  status: ('A' for Active; 'I' for Inactive)
REMARK    1  A    between atoms: C3'_2  and  C2'_3 
REMARK    2  A    between atoms: C2'_3  and  C1'_4 
REMARK    3  A    between atoms: C1'_4  and  C1_5 
ROOT
ATOM      1  C1  N4B d   1      -0.945   1.345   0.305  0.00  0.00    -0.075 A 
ATOM      2  C2  N4B d   1      -1.845   2.010   1.168  0.00  0.00     0.002 A 
ATOM      3  C3  N4B d   1      -1.882   3.382   1.196  0.00  0.00     0.002 A 
ATOM      4  C4  N4B d   1      -1.019   4.108   0.388  0.00  0.00    -0.004 A 
ATOM      5  C5  N4B d   1      -0.171   3.458  -0.461  0.00  0.00     0.002 A 
ATOM      6  C6  N4B d   1      -0.126   2.079  -0.502  0.00  0.00     0.002 A 
ENDROOT
BRANCH   1   7
ATOM      7  C1' N4B d   1      -0.809  -0.153   0.302  0.00  0.00     0.057 C 
BRANCH   7   8
ATOM      8  C2' N4B d   1       0.499  -0.538   0.987  0.00  0.00     0.009 C 
BRANCH   8   9
ATOM      9  C3' N4B d   1       0.424  -0.365   2.494  0.00  0.00     0.004 C 
ATOM     10  C4' N4B d   1       1.184  -1.422   3.239  0.00  0.00     0.003 C 
ENDBRANCH   8   9
ENDBRANCH   7   8
ENDBRANCH   1   7
TORSDOF 3
ENDMDL
