MODEL 1
REMARK minimizedAffinity -6.02949429
REMARK minimizedRMSD -1
REMARK  3 active torsions:
REMARK  status: ('A' for Active; 'I' for Inactive)
REMARK    1  A    between atoms: C3'_2  and  C2'_3 
REMARK    2  A    between atoms: C2'_3  and  C1'_4 
REMARK    3  A    between atoms: C1'_4  and  C1_5 
ROOT
ATOM      1  C1  N4B d   1      -0.326   0.687   0.319  0.00  0.00    -0.075 A 
ATOM      2  C2  N4B d   1      -1.162   1.079   1.388  0.00  0.00     0.002 A 
ATOM      3  C3  N4B d   1      -1.563   2.387   1.502  0.00  0.00     0.002 A 
ATOM      4  C4  N4B d   1      -1.127   3.321   0.574  0.00  0.00    -0.004 A 
ATOM      5  C5  N4B d   1      -0.340   2.930  -0.470  0.00  0.00     0.002 A 
ATOM      6  C6  N4B d   1       0.067   1.617  -0.599  0.00  0.00     0.002 A 
ENDROOT
BRANCH   1   7
ATOM      7  C1' N4B d   1       0.209  -0.715   0.201  0.00  0.00     0.057 C 
BRANCH   7   8
ATOM      8  C2' N4B d   1       1.130  -0.799  -1.012  0.00  0.00     0.009 C 
BRANCH   8   9
ATOM      9  C3' N4B d   1       1.224  -2.214  -1.556  0.00  0.00     0.004 C 
ATOM     10  C4' N4B d   1       0.501  -2.385  -2.859  0.00  0.00     0.003 C 
ENDBRANCH   8   9
ENDBRANCH   7   8
ENDBRANCH   1   7
TORSDOF 3
ENDMDL
