MODEL 1
REMARK minimizedAffinity -6.60021019
REMARK minimizedRMSD -1
REMARK  3 active torsions:
REMARK  status: ('A' for Active; 'I' for Inactive)
REMARK    1  A    between atoms: C3'_2  and  C2'_3 
REMARK    2  A    between atoms: C2'_3  and  C1'_4 
REMARK    3  A    between atoms: C1'_4  and  C1_5 
ROOT
ATOM      1  C1  N4B d   1      -0.662   0.580   0.573  0.00  0.00    -0.075 A 
ATOM      2  C2  N4B d   1      -1.561   0.918   1.607  0.00  0.00     0.002 A 
ATOM      3  C3  N4B d   1      -2.087   2.185   1.673  0.00  0.00     0.002 A 
ATOM      4  C4  N4B d   1      -1.714   3.132   0.731  0.00  0.00    -0.004 A 
ATOM      5  C5  N4B d   1      -0.864   2.790  -0.280  0.00  0.00     0.002 A 
ATOM      6  C6  N4B d   1      -0.332   1.519  -0.361  0.00  0.00     0.002 A 
ENDROOT
BRANCH   1   7
ATOM      7  C1' N4B d   1       0.005  -0.767   0.509  0.00  0.00     0.057 C 
BRANCH   7   8
ATOM      8  C2' N4B d   1       0.685  -0.926  -0.848  0.00  0.00     0.009 C 
BRANCH   8   9
ATOM      9  C3' N4B d   1       0.770  -2.382  -1.274  0.00  0.00     0.004 C 
ATOM     10  C4' N4B d   1       0.336  -2.597  -2.693  0.00  0.00     0.003 C 
ENDBRANCH   8   9
ENDBRANCH   7   8
ENDBRANCH   1   7
TORSDOF 3
ENDMDL
