MODEL 1
REMARK minimizedAffinity 8.16841412
REMARK minimizedRMSD -1
REMARK  1 active torsions:
REMARK  status: ('A' for Active; 'I' for Inactive)
REMARK    1  A    between atoms: C1_2  and  C2_3 
ROOT
ATOM      1  C2  UNL d   1       0.322   5.139  -2.494  0.00  0.00    -0.073 A 
ATOM      2  C3  UNL d   1       0.906   4.093  -3.218  0.00  0.00    -0.002 A 
ATOM      3  C4  UNL d   1       1.891   3.296  -2.633  0.00  0.00     0.004 A 
ATOM      4  C5  UNL d   1       2.296   3.531  -1.319  0.00  0.00    -0.004 A 
ATOM      5  C6  UNL d   1       1.715   4.564  -0.576  0.00  0.00    -0.075 A 
ATOM      6  C7  UNL d   1       2.142   4.831   0.838  0.00  0.00     0.076 C 
ATOM      7  C8  UNL d   1       0.729   5.362  -1.171  0.00  0.00     0.001 A 
ENDROOT
BRANCH   1   8
ATOM      8  C1  UNL d   1      -0.747   5.998  -3.119  0.00  0.00     0.053 C 
ATOM      9  C   UNL d   1      -0.662   5.999  -4.637  0.00  0.00     0.018 C 
ENDBRANCH   1   8
TORSDOF 1
ENDMDL
