MODEL 1
REMARK minimizedAffinity 4.2863431
REMARK minimizedRMSD -1
REMARK  1 active torsions:
REMARK  status: ('A' for Active; 'I' for Inactive)
REMARK    1  A    between atoms: C1_2  and  C2_3 
ROOT
ATOM      1  C2  UNL d   1      -0.598   4.926  -4.791  0.00  0.00    -0.073 A 
ATOM      2  C3  UNL d   1       0.149   5.155  -5.952  0.00  0.00    -0.002 A 
ATOM      3  C4  UNL d   1       1.501   4.813  -6.000  0.00  0.00     0.004 A 
ATOM      4  C5  UNL d   1       2.117   4.233  -4.892  0.00  0.00    -0.004 A 
ATOM      5  C6  UNL d   1       1.385   3.984  -3.726  0.00  0.00    -0.075 A 
ATOM      6  C7  UNL d   1       2.034   3.362  -2.525  0.00  0.00     0.076 C 
ATOM      7  C8  UNL d   1       0.028   4.333  -3.685  0.00  0.00     0.001 A 
ENDROOT
BRANCH   1   8
ATOM      8  C1  UNL d   1      -2.060   5.287  -4.737  0.00  0.00     0.053 C 
ATOM      9  C   UNL d   1      -2.518   5.999  -6.000  0.00  0.00     0.018 C 
ENDBRANCH   1   8
TORSDOF 1
ENDMDL
