MODEL 1
REMARK minimizedAffinity 9.82928085
REMARK minimizedRMSD -1
REMARK  1 active torsions:
REMARK  status: ('A' for Active; 'I' for Inactive)
REMARK    1  A    between atoms: C1_2  and  C2_3 
ROOT
ATOM      1  C2  UNL d   1       1.125   4.541  -3.667  0.00  0.00    -0.073 A 
ATOM      2  C3  UNL d   1       1.470   4.478  -5.022  0.00  0.00    -0.002 A 
ATOM      3  C4  UNL d   1       0.565   4.892  -6.000  0.00  0.00     0.004 A 
ATOM      4  C5  UNL d   1      -0.690   5.379  -5.634  0.00  0.00    -0.004 A 
ATOM      5  C6  UNL d   1      -1.049   5.462  -4.285  0.00  0.00    -0.075 A 
ATOM      6  C7  UNL d   1      -2.395   5.981  -3.875  0.00  0.00     0.076 C 
ATOM      7  C8  UNL d   1      -0.135   5.041  -3.309  0.00  0.00     0.001 A 
ENDROOT
BRANCH   1   8
ATOM      8  C1  UNL d   1       2.101   4.101  -2.607  0.00  0.00     0.053 C 
ATOM      9  C   UNL d   1       3.292   3.364  -3.199  0.00  0.00     0.018 C 
ENDBRANCH   1   8
TORSDOF 1
ENDMDL
