MODEL 1
REMARK minimizedAffinity 5.50060844
REMARK minimizedRMSD -1
REMARK  1 active torsions:
REMARK  status: ('A' for Active; 'I' for Inactive)
REMARK    1  A    between atoms: C1_2  and  C2_3 
ROOT
ATOM      1  C2  UNL d   1      -0.295  -2.592   1.302  0.00  0.00    -0.073 A 
ATOM      2  C3  UNL d   1       0.977  -2.677   1.880  0.00  0.00    -0.002 A 
ATOM      3  C4  UNL d   1       1.305  -1.886   2.983  0.00  0.00     0.004 A 
ATOM      4  C5  UNL d   1       0.364  -1.009   3.522  0.00  0.00    -0.004 A 
ATOM      5  C6  UNL d   1      -0.916  -0.918   2.966  0.00  0.00    -0.075 A 
ATOM      6  C7  UNL d   1      -1.939   0.022   3.533  0.00  0.00     0.076 C 
ATOM      7  C8  UNL d   1      -1.237  -1.713   1.857  0.00  0.00     0.001 A 
ENDROOT
BRANCH   1   8
ATOM      8  C1  UNL d   1      -0.656  -3.448   0.116  0.00  0.00     0.053 C 
ATOM      9  C   UNL d   1      -2.160  -3.529  -0.092  0.00  0.00     0.018 C 
ENDBRANCH   1   8
TORSDOF 1
ENDMDL
