MODEL 1
REMARK minimizedAffinity 10.1638107
REMARK minimizedRMSD -1
REMARK  1 active torsions:
REMARK  status: ('A' for Active; 'I' for Inactive)
REMARK    1  A    between atoms: C1_2  and  C2_3 
ROOT
ATOM      1  C2  UNL d   1      -2.966   5.209  -3.681  0.00  0.00    -0.073 A 
ATOM      2  C3  UNL d   1      -3.662   5.622  -4.822  0.00  0.00    -0.002 A 
ATOM      3  C4  UNL d   1      -2.968   5.999  -5.973  0.00  0.00     0.004 A 
ATOM      4  C5  UNL d   1      -1.574   5.960  -5.997  0.00  0.00    -0.004 A 
ATOM      5  C6  UNL d   1      -0.861   5.540  -4.870  0.00  0.00    -0.075 A 
ATOM      6  C7  UNL d   1       0.639   5.495  -4.878  0.00  0.00     0.076 C 
ATOM      7  C8  UNL d   1      -1.565   5.166  -3.717  0.00  0.00     0.001 A 
ENDROOT
BRANCH   1   8
ATOM      8  C1  UNL d   1      -3.710   4.796  -2.438  0.00  0.00     0.053 C 
ATOM      9  C   UNL d   1      -2.928   5.112  -1.173  0.00  0.00     0.018 C 
ENDBRANCH   1   8
TORSDOF 1
ENDMDL
