MODEL 1
REMARK minimizedAffinity 11.9097614
REMARK minimizedRMSD -1
REMARK  1 active torsions:
REMARK  status: ('A' for Active; 'I' for Inactive)
REMARK    1  A    between atoms: C1_2  and  C2_3 
ROOT
ATOM      1  C2  UNL d   1       1.013   4.778  -3.450  0.00  0.00    -0.073 A 
ATOM      2  C3  UNL d   1       1.244   3.429  -3.742  0.00  0.00    -0.002 A 
ATOM      3  C4  UNL d   1       1.809   2.587  -2.783  0.00  0.00     0.004 A 
ATOM      4  C5  UNL d   1       2.142   3.083  -1.522  0.00  0.00    -0.004 A 
ATOM      5  C6  UNL d   1       1.907   4.425  -1.207  0.00  0.00    -0.075 A 
ATOM      6  C7  UNL d   1       2.261   4.975   0.143  0.00  0.00     0.076 C 
ATOM      7  C8  UNL d   1       1.342   5.265  -2.177  0.00  0.00     0.001 A 
ENDROOT
BRANCH   1   8
ATOM      8  C1  UNL d   1       0.396   5.689  -4.480  0.00  0.00     0.053 C 
ATOM      9  C   UNL d   1       1.142   5.639  -5.804  0.00  0.00     0.018 C 
ENDBRANCH   1   8
TORSDOF 1
ENDMDL
