MODEL 1
REMARK minimizedAffinity 1.3106575
REMARK minimizedRMSD -1
REMARK  1 active torsions:
REMARK  status: ('A' for Active; 'I' for Inactive)
REMARK    1  A    between atoms: C1_2  and  C2_3 
ROOT
ATOM      1  C2  UNL d   1      -2.992   5.182  -5.032  0.00  0.00    -0.073 A 
ATOM      2  C3  UNL d   1      -3.903   5.618  -6.000  0.00  0.00    -0.002 A 
ATOM      3  C4  UNL d   1      -5.197   5.990  -5.633  0.00  0.00     0.004 A 
ATOM      4  C5  UNL d   1      -5.590   5.936  -4.296  0.00  0.00    -0.004 A 
ATOM      5  C6  UNL d   1      -4.690   5.514  -3.312  0.00  0.00    -0.075 A 
ATOM      6  C7  UNL d   1      -5.099   5.448  -1.870  0.00  0.00     0.076 C 
ATOM      7  C8  UNL d   1      -3.393   5.139  -3.689  0.00  0.00     0.001 A 
ENDROOT
BRANCH   1   8
ATOM      8  C1  UNL d   1      -1.591   4.785  -5.422  0.00  0.00     0.053 C 
ATOM      9  C   UNL d   1      -0.594   5.908  -5.184  0.00  0.00     0.018 C 
ENDBRANCH   1   8
TORSDOF 1
ENDMDL
