MODEL 1
REMARK minimizedAffinity 16.1463337
REMARK minimizedRMSD -1
REMARK  1 active torsions:
REMARK  status: ('A' for Active; 'I' for Inactive)
REMARK    1  A    between atoms: C1_2  and  C2_3 
ROOT
ATOM      1  C2  UNL d   1      -0.722  -1.416   3.381  0.00  0.00    -0.073 A 
ATOM      2  C3  UNL d   1       0.157  -2.143   4.191  0.00  0.00    -0.002 A 
ATOM      3  C4  UNL d   1       0.704  -3.344   3.736  0.00  0.00     0.004 A 
ATOM      4  C5  UNL d   1       0.384  -3.825   2.467  0.00  0.00    -0.004 A 
ATOM      5  C6  UNL d   1      -0.484  -3.107   1.638  0.00  0.00    -0.075 A 
ATOM      6  C7  UNL d   1      -0.840  -3.612   0.271  0.00  0.00     0.076 C 
ATOM      7  C8  UNL d   1      -1.031  -1.903   2.103  0.00  0.00     0.001 A 
ENDROOT
BRANCH   1   8
ATOM      8  C1  UNL d   1      -1.310  -0.115   3.865  0.00  0.00     0.053 C 
ATOM      9  C   UNL d   1      -1.752  -0.195   5.317  0.00  0.00     0.018 C 
ENDBRANCH   1   8
TORSDOF 1
ENDMDL
