MODEL 1
REMARK minimizedAffinity 3.25736189
REMARK minimizedRMSD -1
REMARK  1 active torsions:
REMARK  status: ('A' for Active; 'I' for Inactive)
REMARK    1  A    between atoms: C1_2  and  C2_3 
ROOT
ATOM      1  C2  UNL d   1      -2.350  -0.559   1.015  0.00  0.00    -0.073 A 
ATOM      2  C3  UNL d   1      -2.996   0.435   1.760  0.00  0.00    -0.002 A 
ATOM      3  C4  UNL d   1      -3.997   1.213   1.177  0.00  0.00     0.004 A 
ATOM      4  C5  UNL d   1      -4.367   1.001  -0.151  0.00  0.00    -0.004 A 
ATOM      5  C6  UNL d   1      -3.741   0.006  -0.908  0.00  0.00    -0.075 A 
ATOM      6  C7  UNL d   1      -4.126  -0.233  -2.338  0.00  0.00     0.076 C 
ATOM      7  C8  UNL d   1      -2.735  -0.770  -0.316  0.00  0.00     0.001 A 
ENDROOT
BRANCH   1   8
ATOM      8  C1  UNL d   1      -1.272  -1.406   1.642  0.00  0.00     0.053 C 
ATOM      9  C   UNL d   1      -1.046  -2.699   0.875  0.00  0.00     0.018 C 
ENDBRANCH   1   8
TORSDOF 1
ENDMDL
