MODEL 1
REMARK minimizedAffinity 11.3971319
REMARK minimizedRMSD -1
REMARK  1 active torsions:
REMARK  status: ('A' for Active; 'I' for Inactive)
REMARK    1  A    between atoms: C1_2  and  C2_3 
ROOT
ATOM      1  C2  UNL d   1      -1.986   5.904  -4.798  0.00  0.00    -0.073 A 
ATOM      2  C3  UNL d   1      -1.258   5.809  -5.989  0.00  0.00    -0.002 A 
ATOM      3  C4  UNL d   1       0.137   5.774  -5.962  0.00  0.00     0.004 A 
ATOM      4  C5  UNL d   1       0.817   5.825  -4.746  0.00  0.00    -0.004 A 
ATOM      5  C6  UNL d   1       0.107   5.908  -3.544  0.00  0.00    -0.075 A 
ATOM      6  C7  UNL d   1       0.824   5.966  -2.227  0.00  0.00     0.076 C 
ATOM      7  C8  UNL d   1      -1.293   5.946  -3.579  0.00  0.00     0.001 A 
ENDROOT
BRANCH   1   8
ATOM      8  C1  UNL d   1      -3.492   5.936  -4.821  0.00  0.00     0.053 C 
ATOM      9  C   UNL d   1      -4.087   5.800  -3.429  0.00  0.00     0.018 C 
ENDBRANCH   1   8
TORSDOF 1
ENDMDL
