MODEL 1
REMARK minimizedAffinity 12.1683321
REMARK minimizedRMSD -1
REMARK  1 active torsions:
REMARK  status: ('A' for Active; 'I' for Inactive)
REMARK    1  A    between atoms: C1_2  and  C2_3 
ROOT
ATOM      1  C2  UNL d   1      -1.410  -0.934   1.389  0.00  0.00    -0.073 A 
ATOM      2  C3  UNL d   1      -1.848  -0.090   2.416  0.00  0.00    -0.002 A 
ATOM      3  C4  UNL d   1      -2.882   0.819   2.188  0.00  0.00     0.004 A 
ATOM      4  C5  UNL d   1      -3.492   0.890   0.936  0.00  0.00    -0.004 A 
ATOM      5  C6  UNL d   1      -3.077   0.046  -0.099  0.00  0.00    -0.075 A 
ATOM      6  C7  UNL d   1      -3.721   0.111  -1.453  0.00  0.00     0.076 C 
ATOM      7  C8  UNL d   1      -2.036  -0.862   0.136  0.00  0.00     0.001 A 
ENDROOT
BRANCH   1   8
ATOM      8  C1  UNL d   1      -0.298  -1.921   1.632  0.00  0.00     0.053 C 
ATOM      9  C   UNL d   1       0.821  -1.325   2.471  0.00  0.00     0.018 C 
ENDBRANCH   1   8
TORSDOF 1
ENDMDL
