MODEL 1
REMARK minimizedAffinity 4.44979286
REMARK minimizedRMSD -1
REMARK  1 active torsions:
REMARK  status: ('A' for Active; 'I' for Inactive)
REMARK    1  A    between atoms: C1_2  and  C2_3 
ROOT
ATOM      1  C2  UNL d   1      -1.882  -4.112  -4.194  0.00  0.00    -0.073 A 
ATOM      2  C3  UNL d   1      -1.017  -4.945  -4.912  0.00  0.00    -0.002 A 
ATOM      3  C4  UNL d   1      -1.526  -5.887  -5.808  0.00  0.00     0.004 A 
ATOM      4  C5  UNL d   1      -2.903  -6.000  -5.999  0.00  0.00    -0.004 A 
ATOM      5  C6  UNL d   1      -3.783  -5.169  -5.300  0.00  0.00    -0.075 A 
ATOM      6  C7  UNL d   1      -5.267  -5.279  -5.492  0.00  0.00     0.076 C 
ATOM      7  C8  UNL d   1      -3.264  -4.228  -4.400  0.00  0.00     0.001 A 
ENDROOT
BRANCH   1   8
ATOM      8  C1  UNL d   1      -1.336  -3.090  -3.231  0.00  0.00     0.053 C 
ATOM      9  C   UNL d   1      -2.270  -1.901  -3.072  0.00  0.00     0.018 C 
ENDBRANCH   1   8
TORSDOF 1
ENDMDL
