MODEL 1
REMARK minimizedAffinity 10.5387211
REMARK minimizedRMSD -1
REMARK  1 active torsions:
REMARK  status: ('A' for Active; 'I' for Inactive)
REMARK    1  A    between atoms: C1_2  and  C2_3 
ROOT
ATOM      1  C2  UNL d   1      -2.208  -1.531   0.879  0.00  0.00    -0.073 A 
ATOM      2  C3  UNL d   1      -1.533  -0.919   1.942  0.00  0.00    -0.002 A 
ATOM      3  C4  UNL d   1      -1.782   0.416   2.260  0.00  0.00     0.004 A 
ATOM      4  C5  UNL d   1      -2.712   1.151   1.524  0.00  0.00    -0.004 A 
ATOM      5  C6  UNL d   1      -3.405   0.554   0.466  0.00  0.00    -0.075 A 
ATOM      6  C7  UNL d   1      -4.407   1.332  -0.336  0.00  0.00     0.076 C 
ATOM      7  C8  UNL d   1      -3.147  -0.787   0.152  0.00  0.00     0.001 A 
ENDROOT
BRANCH   1   8
ATOM      8  C1  UNL d   1      -1.947  -2.975   0.536  0.00  0.00     0.053 C 
ATOM      9  C   UNL d   1      -0.460  -3.275   0.426  0.00  0.00     0.018 C 
ENDBRANCH   1   8
TORSDOF 1
ENDMDL
