MODEL 1
REMARK minimizedAffinity 5.19839287
REMARK minimizedRMSD -1
REMARK  1 active torsions:
REMARK  status: ('A' for Active; 'I' for Inactive)
REMARK    1  A    between atoms: C1_2  and  C2_3 
ROOT
ATOM      1  C2  UNL d   1      -2.639  -0.137   1.325  0.00  0.00    -0.073 A 
ATOM      2  C3  UNL d   1      -3.252   1.044   1.760  0.00  0.00    -0.002 A 
ATOM      3  C4  UNL d   1      -3.991   1.824   0.869  0.00  0.00     0.004 A 
ATOM      4  C5  UNL d   1      -4.129   1.429  -0.462  0.00  0.00    -0.004 A 
ATOM      5  C6  UNL d   1      -3.534   0.246  -0.912  0.00  0.00    -0.075 A 
ATOM      6  C7  UNL d   1      -3.672  -0.192  -2.341  0.00  0.00     0.076 C 
ATOM      7  C8  UNL d   1      -2.792  -0.530  -0.012  0.00  0.00     0.001 A 
ENDROOT
BRANCH   1   8
ATOM      8  C1  UNL d   1      -1.846  -0.985   2.285  0.00  0.00     0.053 C 
ATOM      9  C   UNL d   1      -1.407  -2.298   1.656  0.00  0.00     0.018 C 
ENDBRANCH   1   8
TORSDOF 1
ENDMDL
