MODEL 1
REMARK minimizedAffinity -3.16134739
REMARK minimizedRMSD -1
REMARK  0 active torsions:
REMARK  status: ('A' for Active; 'I' for Inactive)
ROOT
ATOM      1  C1  DEN d   1      -0.016  -3.968  -0.852  0.00  0.00     0.130 A 
ATOM      2  C2  DEN d   1       0.992  -3.982  -1.908  0.00  0.00    -0.031 A 
ATOM      3  C3  DEN d   1       1.504  -2.606  -2.068  0.00  0.00     0.027 A 
ATOM      4  C4  DEN d   1       0.842  -0.469  -0.787  0.00  0.00     0.027 A 
ATOM      5  C5  DEN d   1       0.022   0.044   0.194  0.00  0.00    -0.003 A 
ATOM      6  C6  DEN d   1      -0.885  -0.732   0.866  0.00  0.00     0.001 A 
ATOM      7  C7  DEN d   1      -0.962  -2.073   0.597  0.00  0.00     0.017 A 
ATOM      8  C8  DEN d   1      -0.143  -2.595  -0.396  0.00  0.00    -0.094 A 
ATOM      9  C9  DEN d   1       0.776  -1.797  -1.055  0.00  0.00    -0.072 A 
ENDROOT
TORSDOF 0
ENDMDL
