MODEL 1
REMARK minimizedAffinity -4.42348528
REMARK minimizedRMSD -1
REMARK  0 active torsions:
REMARK  status: ('A' for Active; 'I' for Inactive)
ROOT
ATOM      1  C1  DEN d   1      -1.962   1.672   0.539  0.00  0.00     0.130 A 
ATOM      2  C2  DEN d   1      -2.057   1.884   1.981  0.00  0.00    -0.031 A 
ATOM      3  C3  DEN d   1      -0.946   1.154   2.624  0.00  0.00     0.027 A 
ATOM      4  C4  DEN d   1       0.905  -0.273   1.532  0.00  0.00     0.027 A 
ATOM      5  C5  DEN d   1       1.394  -0.755   0.338  0.00  0.00    -0.003 A 
ATOM      6  C6  DEN d   1       0.784  -0.492  -0.860  0.00  0.00     0.001 A 
ATOM      7  C7  DEN d   1      -0.325   0.311  -0.895  0.00  0.00     0.017 A 
ATOM      8  C8  DEN d   1      -0.828   0.795   0.306  0.00  0.00    -0.094 A 
ATOM      9  C9  DEN d   1      -0.190   0.528   1.505  0.00  0.00    -0.072 A 
ENDROOT
TORSDOF 0
ENDMDL
