MODEL 1
REMARK minimizedAffinity -3.12337899
REMARK minimizedRMSD -1
REMARK  0 active torsions:
REMARK  status: ('A' for Active; 'I' for Inactive)
ROOT
ATOM      1  C1  DEN d   1      -1.177   0.295   1.501  0.00  0.00     0.130 A 
ATOM      2  C2  DEN d   1      -1.915   1.552   1.598  0.00  0.00    -0.031 A 
ATOM      3  C3  DEN d   1      -1.427   2.451   0.534  0.00  0.00     0.027 A 
ATOM      4  C4  DEN d   1       0.386   2.021  -1.250  0.00  0.00     0.027 A 
ATOM      5  C5  DEN d   1       1.300   1.106  -1.723  0.00  0.00    -0.003 A 
ATOM      6  C6  DEN d   1       1.474  -0.120  -1.140  0.00  0.00     0.001 A 
ATOM      7  C7  DEN d   1       0.692  -0.483  -0.075  0.00  0.00     0.017 A 
ATOM      8  C8  DEN d   1      -0.226   0.437   0.413  0.00  0.00    -0.094 A 
ATOM      9  C9  DEN d   1      -0.396   1.667  -0.199  0.00  0.00    -0.072 A 
ENDROOT
TORSDOF 0
ENDMDL
