MODEL 1
REMARK minimizedAffinity -4.023489
REMARK minimizedRMSD -1
REMARK  0 active torsions:
REMARK  status: ('A' for Active; 'I' for Inactive)
ROOT
ATOM      1  C1  DEN d   1      -0.904  -0.078   1.973  0.00  0.00     0.130 A 
ATOM      2  C2  DEN d   1      -0.048  -1.157   1.488  0.00  0.00    -0.031 A 
ATOM      3  C3  DEN d   1       0.555  -0.723   0.212  0.00  0.00     0.027 A 
ATOM      4  C4  DEN d   1       0.252   1.506  -1.050  0.00  0.00     0.027 A 
ATOM      5  C5  DEN d   1      -0.386   2.726  -1.036  0.00  0.00    -0.003 A 
ATOM      6  C6  DEN d   1      -1.261   3.081  -0.043  0.00  0.00     0.001 A 
ATOM      7  C7  DEN d   1      -1.487   2.224   1.001  0.00  0.00     0.017 A 
ATOM      8  C8  DEN d   1      -0.853   0.988   0.989  0.00  0.00    -0.094 A 
ATOM      9  C9  DEN d   1       0.037   0.653  -0.017  0.00  0.00    -0.072 A 
ENDROOT
TORSDOF 0
ENDMDL
