MODEL 1
REMARK minimizedAffinity -1.94129729
REMARK minimizedRMSD -1
REMARK  0 active torsions:
REMARK  status: ('A' for Active; 'I' for Inactive)
ROOT
ATOM      1  C1  DEN d   1      -1.500   2.145   0.112  0.00  0.00     0.130 A 
ATOM      2  C2  DEN d   1      -2.020   2.250   1.473  0.00  0.00    -0.031 A 
ATOM      3  C3  DEN d   1      -1.500   1.107   2.250  0.00  0.00     0.027 A 
ATOM      4  C4  DEN d   1       0.056  -0.802   1.484  0.00  0.00     0.027 A 
ATOM      5  C5  DEN d   1       0.750  -1.324   0.415  0.00  0.00    -0.003 A 
ATOM      6  C6  DEN d   1       0.715  -0.750  -0.828  0.00  0.00     0.001 A 
ATOM      7  C7  DEN d   1       0.008   0.406  -1.022  0.00  0.00     0.017 A 
ATOM      8  C8  DEN d   1      -0.701   0.935   0.049  0.00  0.00    -0.094 A 
ATOM      9  C9  DEN d   1      -0.643   0.347   1.301  0.00  0.00    -0.072 A 
ENDROOT
TORSDOF 0
ENDMDL
