MODEL 1
REMARK minimizedAffinity -3.62556982
REMARK minimizedRMSD -1
REMARK  0 active torsions:
REMARK  status: ('A' for Active; 'I' for Inactive)
ROOT
ATOM      1  C1  DEN d   1      -0.184  -0.050  -1.654  0.00  0.00     0.130 A 
ATOM      2  C2  DEN d   1       0.732  -1.185  -1.574  0.00  0.00    -0.031 A 
ATOM      3  C3  DEN d   1       0.953  -1.493  -0.146  0.00  0.00     0.027 A 
ATOM      4  C4  DEN d   1      -0.033  -0.333   1.936  0.00  0.00     0.027 A 
ATOM      5  C5  DEN d   1      -0.851   0.685   2.371  0.00  0.00    -0.003 A 
ATOM      6  C6  DEN d   1      -1.472   1.545   1.504  0.00  0.00     0.001 A 
ATOM      7  C7  DEN d   1      -1.321   1.373   0.153  0.00  0.00     0.017 A 
ATOM      8  C8  DEN d   1      -0.491   0.352  -0.293  0.00  0.00    -0.094 A 
ATOM      9  C9  DEN d   1       0.118  -0.513   0.599  0.00  0.00    -0.072 A 
ENDROOT
TORSDOF 0
ENDMDL
