MODEL 1
REMARK minimizedAffinity 0.458740592
REMARK minimizedRMSD -1
REMARK  0 active torsions:
REMARK  status: ('A' for Active; 'I' for Inactive)
ROOT
ATOM      1  C1  DEN d   1       0.176  -0.972  -0.824  0.00  0.00     0.130 A 
ATOM      2  C2  DEN d   1       1.130  -1.426   0.184  0.00  0.00    -0.031 A 
ATOM      3  C3  DEN d   1       0.971  -0.575   1.380  0.00  0.00     0.027 A 
ATOM      4  C4  DEN d   1      -0.655   1.389   1.769  0.00  0.00     0.027 A 
ATOM      5  C5  DEN d   1      -1.650   2.153   1.199  0.00  0.00    -0.003 A 
ATOM      6  C6  DEN d   1      -2.078   1.952  -0.087  0.00  0.00     0.001 A 
ATOM      7  C7  DEN d   1      -1.541   0.934  -0.830  0.00  0.00     0.017 A 
ATOM      8  C8  DEN d   1      -0.533   0.165  -0.264  0.00  0.00    -0.094 A 
ATOM      9  C9  DEN d   1      -0.122   0.375   1.041  0.00  0.00    -0.072 A 
ENDROOT
TORSDOF 0
ENDMDL
