MODEL 1
REMARK minimizedAffinity -6.33891678
REMARK minimizedRMSD -1
REMARK  0 active torsions:
REMARK  status: ('A' for Active; 'I' for Inactive)
ROOT
ATOM      1  C1  DEN d   1      -1.744   1.575   1.185  0.00  0.00     0.130 A 
ATOM      2  C2  DEN d   1      -1.897   2.966   0.764  0.00  0.00    -0.031 A 
ATOM      3  C3  DEN d   1      -0.875   3.246  -0.264  0.00  0.00     0.027 A 
ATOM      4  C4  DEN d   1       0.917   1.670  -1.244  0.00  0.00     0.027 A 
ATOM      5  C5  DEN d   1       1.443   0.399  -1.191  0.00  0.00    -0.003 A 
ATOM      6  C6  DEN d   1       0.970  -0.552  -0.325  0.00  0.00     0.001 A 
ATOM      7  C7  DEN d   1      -0.090  -0.259   0.491  0.00  0.00     0.017 A 
ATOM      8  C8  DEN d   1      -0.621   1.023   0.449  0.00  0.00    -0.094 A 
ATOM      9  C9  DEN d   1      -0.137   1.966  -0.442  0.00  0.00    -0.072 A 
ENDROOT
TORSDOF 0
ENDMDL
