MODEL 1
REMARK minimizedAffinity -5.35650921
REMARK minimizedRMSD -1
REMARK  0 active torsions:
REMARK  status: ('A' for Active; 'I' for Inactive)
ROOT
ATOM      1  C1  DEN d   1      -1.482   1.803   0.487  0.00  0.00     0.130 A 
ATOM      2  C2  DEN d   1      -2.434   0.773   0.893  0.00  0.00    -0.031 A 
ATOM      3  C3  DEN d   1      -1.906  -0.535   0.455  0.00  0.00     0.027 A 
ATOM      4  C4  DEN d   1       0.284  -1.063  -0.800  0.00  0.00     0.027 A 
ATOM      5  C5  DEN d   1       1.412  -0.515  -1.369  0.00  0.00    -0.003 A 
ATOM      6  C6  DEN d   1       1.636   0.836  -1.390  0.00  0.00     0.001 A 
ATOM      7  C7  DEN d   1       0.741   1.682  -0.790  0.00  0.00     0.017 A 
ATOM      8  C8  DEN d   1      -0.403   1.137  -0.220  0.00  0.00    -0.094 A 
ATOM      9  C9  DEN d   1      -0.605  -0.232  -0.199  0.00  0.00    -0.072 A 
ENDROOT
TORSDOF 0
ENDMDL
