MODEL 1
REMARK minimizedAffinity -3.0131712
REMARK minimizedRMSD -1
REMARK  0 active torsions:
REMARK  status: ('A' for Active; 'I' for Inactive)
ROOT
ATOM      1  C1  DEN d   1      -0.080  -0.024  -1.184  0.00  0.00     0.130 A 
ATOM      2  C2  DEN d   1       0.671  -1.256  -0.956  0.00  0.00    -0.031 A 
ATOM      3  C3  DEN d   1       0.781  -1.460   0.503  0.00  0.00     0.027 A 
ATOM      4  C4  DEN d   1      -0.139   0.002   2.419  0.00  0.00     0.027 A 
ATOM      5  C5  DEN d   1      -0.833   1.153   2.719  0.00  0.00    -0.003 A 
ATOM      6  C6  DEN d   1      -1.292   2.003   1.748  0.00  0.00     0.001 A 
ATOM      7  C7  DEN d   1      -1.101   1.691   0.427  0.00  0.00     0.017 A 
ATOM      8  C8  DEN d   1      -0.395   0.536   0.117  0.00  0.00    -0.094 A 
ATOM      9  C9  DEN d   1       0.050  -0.317   1.113  0.00  0.00    -0.072 A 
ENDROOT
TORSDOF 0
ENDMDL
