MODEL 1
REMARK minimizedAffinity -4.67327976
REMARK minimizedRMSD -1
REMARK  0 active torsions:
REMARK  status: ('A' for Active; 'I' for Inactive)
ROOT
ATOM      1  C1  DEN d   1       0.343  -0.134  -0.987  0.00  0.00     0.130 A 
ATOM      2  C2  DEN d   1       1.255  -0.811  -0.069  0.00  0.00    -0.031 A 
ATOM      3  C3  DEN d   1       0.974  -0.323   1.296  0.00  0.00     0.027 A 
ATOM      4  C4  DEN d   1      -0.779   1.402   2.074  0.00  0.00     0.027 A 
ATOM      5  C5  DEN d   1      -1.776   2.256   1.656  0.00  0.00    -0.003 A 
ATOM      6  C6  DEN d   1      -2.111   2.397   0.336  0.00  0.00     0.001 A 
ATOM      7  C7  DEN d   1      -1.473   1.639  -0.611  0.00  0.00     0.017 A 
ATOM      8  C8  DEN d   1      -0.462   0.781  -0.198  0.00  0.00    -0.094 A 
ATOM      9  C9  DEN d   1      -0.146   0.644   1.143  0.00  0.00    -0.072 A 
ENDROOT
TORSDOF 0
ENDMDL
