MODEL 1
REMARK minimizedAffinity -2.53433466
REMARK minimizedRMSD -1
REMARK  0 active torsions:
REMARK  status: ('A' for Active; 'I' for Inactive)
ROOT
ATOM      1  C1  DEN d   1       1.392   0.052  -0.414  0.00  0.00     0.130 A 
ATOM      2  C2  DEN d   1       1.573   1.108  -1.406  0.00  0.00    -0.031 A 
ATOM      3  C3  DEN d   1       0.590   2.173  -1.123  0.00  0.00     0.027 A 
ATOM      4  C4  DEN d   1      -1.181   2.292   0.748  0.00  0.00     0.027 A 
ATOM      5  C5  DEN d   1      -1.721   1.626   1.826  0.00  0.00    -0.003 A 
ATOM      6  C6  DEN d   1      -1.288   0.384   2.209  0.00  0.00     0.001 A 
ATOM      7  C7  DEN d   1      -0.254  -0.212   1.536  0.00  0.00     0.017 A 
ATOM      8  C8  DEN d   1       0.290   0.450   0.444  0.00  0.00    -0.094 A 
ATOM      9  C9  DEN d   1      -0.153   1.710   0.080  0.00  0.00    -0.072 A 
ENDROOT
TORSDOF 0
ENDMDL
