MODEL 1
REMARK minimizedAffinity -1.13653755
REMARK minimizedRMSD -1
REMARK  0 active torsions:
REMARK  status: ('A' for Active; 'I' for Inactive)
ROOT
ATOM      1  C1  DEN d   1      -0.191  -0.413  -1.455  0.00  0.00     0.130 A 
ATOM      2  C2  DEN d   1       0.785  -1.398  -0.995  0.00  0.00    -0.031 A 
ATOM      3  C3  DEN d   1       0.883  -1.292   0.475  0.00  0.00     0.027 A 
ATOM      4  C4  DEN d   1      -0.379   0.290   2.075  0.00  0.00     0.027 A 
ATOM      5  C5  DEN d   1      -1.301   1.310   2.149  0.00  0.00    -0.003 A 
ATOM      6  C6  DEN d   1      -1.888   1.846   1.033  0.00  0.00     0.001 A 
ATOM      7  C7  DEN d   1      -1.592   1.333  -0.202  0.00  0.00     0.017 A 
ATOM      8  C8  DEN d   1      -0.658   0.310  -0.285  0.00  0.00    -0.094 A 
ATOM      9  C9  DEN d   1      -0.085  -0.227   0.855  0.00  0.00    -0.072 A 
ENDROOT
TORSDOF 0
ENDMDL
