MODEL 1
REMARK minimizedAffinity -5.21249247
REMARK minimizedRMSD -1
REMARK  0 active torsions:
REMARK  status: ('A' for Active; 'I' for Inactive)
ROOT
ATOM      1  O1  BZF d   1      -0.403  -0.652   1.519  0.00  0.00    -0.204 OA
ATOM      2  C2  BZF d   1       0.299  -1.544   0.732  0.00  0.00     0.174 A 
ATOM      3  C3  BZF d   1       1.181  -0.896  -0.056  0.00  0.00    -0.012 A 
ATOM      4  C3A BZF d   1       1.085   0.480   0.324  0.00  0.00    -0.107 A 
ATOM      5  C4  BZF d   1       1.723   1.615  -0.089  0.00  0.00     0.055 A 
ATOM      6  C5  BZF d   1       1.345   2.811   0.433  0.00  0.00    -0.016 A 
ATOM      7  C6  BZF d   1       0.332   2.910   1.364  0.00  0.00     0.022 A 
ATOM      8  C7  BZF d   1      -0.326   1.812   1.808  0.00  0.00     0.029 A 
ATOM      9  C7A BZF d   1       0.075   0.598   1.307  0.00  0.00     0.058 A 
ENDROOT
TORSDOF 0
ENDMDL
