MODEL 1
REMARK minimizedAffinity -0.956356227
REMARK minimizedRMSD -1
REMARK  0 active torsions:
REMARK  status: ('A' for Active; 'I' for Inactive)
ROOT
ATOM      1  O1  BZF d   1       1.166  -1.056   0.028  0.00  0.00    -0.204 OA
ATOM      2  C2  BZF d   1       2.175  -0.668  -0.833  0.00  0.00     0.174 A 
ATOM      3  C3  BZF d   1       2.434   0.649  -0.703  0.00  0.00    -0.012 A 
ATOM      4  C3A BZF d   1       1.594   1.094   0.367  0.00  0.00    -0.107 A 
ATOM      5  C4  BZF d   1       1.410   2.303   0.975  0.00  0.00     0.055 A 
ATOM      6  C5  BZF d   1       0.461   2.418   1.941  0.00  0.00    -0.016 A 
ATOM      7  C6  BZF d   1      -0.324   1.349   2.319  0.00  0.00     0.022 A 
ATOM      8  C7  BZF d   1      -0.175   0.129   1.748  0.00  0.00     0.029 A 
ATOM      9  C7A BZF d   1       0.806   0.001   0.795  0.00  0.00     0.058 A 
ENDROOT
TORSDOF 0
ENDMDL
