MODEL 1
REMARK minimizedAffinity -1.10836434
REMARK minimizedRMSD -1
REMARK  0 active torsions:
REMARK  status: ('A' for Active; 'I' for Inactive)
ROOT
ATOM      1  O1  BZF d   1      -1.127  -0.606  -0.601  0.00  0.00    -0.204 OA
ATOM      2  C2  BZF d   1      -0.758  -1.503   0.383  0.00  0.00     0.174 A 
ATOM      3  C3  BZF d   1       0.205  -0.982   1.170  0.00  0.00    -0.012 A 
ATOM      4  C3A BZF d   1       0.389   0.358   0.702  0.00  0.00    -0.107 A 
ATOM      5  C4  BZF d   1       1.199   1.386   1.093  0.00  0.00     0.055 A 
ATOM      6  C5  BZF d   1       1.187   2.543   0.380  0.00  0.00    -0.016 A 
ATOM      7  C6  BZF d   1       0.384   2.704  -0.730  0.00  0.00     0.022 A 
ATOM      8  C7  BZF d   1      -0.440   1.714  -1.153  0.00  0.00     0.029 A 
ATOM      9  C7A BZF d   1      -0.455   0.556  -0.415  0.00  0.00     0.058 A 
ENDROOT
TORSDOF 0
ENDMDL
