MODEL 1
REMARK minimizedAffinity 6.1077466
REMARK minimizedRMSD -1
REMARK  0 active torsions:
REMARK  status: ('A' for Active; 'I' for Inactive)
ROOT
ATOM      1  O1  BZF d   1       1.968  -1.121  -1.763  0.00  0.00    -0.204 OA
ATOM      2  C2  BZF d   1       3.214  -0.531  -1.853  0.00  0.00     0.174 A 
ATOM      3  C3  BZF d   1       3.306   0.522  -1.015  0.00  0.00    -0.012 A 
ATOM      4  C3A BZF d   1       2.071   0.538  -0.293  0.00  0.00    -0.107 A 
ATOM      5  C4  BZF d   1       1.570   1.339   0.693  0.00  0.00     0.055 A 
ATOM      6  C5  BZF d   1       0.301   1.132   1.131  0.00  0.00    -0.016 A 
ATOM      7  C6  BZF d   1      -0.497   0.137   0.603  0.00  0.00     0.022 A 
ATOM      8  C7  BZF d   1      -0.042  -0.686  -0.373  0.00  0.00     0.029 A 
ATOM      9  C7A BZF d   1       1.252  -0.500  -0.795  0.00  0.00     0.058 A 
ENDROOT
TORSDOF 0
ENDMDL
