MODEL 1
REMARK minimizedAffinity 0.823894501
REMARK minimizedRMSD -1
REMARK  0 active torsions:
REMARK  status: ('A' for Active; 'I' for Inactive)
ROOT
ATOM      1  O1  BZF d   1       0.391   1.891   2.628  0.00  0.00    -0.204 OA
ATOM      2  C2  BZF d   1       1.079   2.726   1.769  0.00  0.00     0.174 A 
ATOM      3  C3  BZF d   1       1.123   2.203   0.526  0.00  0.00    -0.012 A 
ATOM      4  C3A BZF d   1       0.339   1.008   0.593  0.00  0.00    -0.107 A 
ATOM      5  C4  BZF d   1      -0.005   0.059  -0.326  0.00  0.00     0.055 A 
ATOM      6  C5  BZF d   1      -0.722  -1.023   0.079  0.00  0.00    -0.016 A 
ATOM      7  C6  BZF d   1      -1.105  -1.190   1.393  0.00  0.00     0.022 A 
ATOM      8  C7  BZF d   1      -0.791  -0.272   2.340  0.00  0.00     0.029 A 
ATOM      9  C7A BZF d   1      -0.096   0.838   1.928  0.00  0.00     0.058 A 
ENDROOT
TORSDOF 0
ENDMDL
