MODEL 1
REMARK minimizedAffinity -4.83383179
REMARK minimizedRMSD -1
REMARK  0 active torsions:
REMARK  status: ('A' for Active; 'I' for Inactive)
ROOT
ATOM      1  O1  BZF d   1      -0.131  -1.285  -1.269  0.00  0.00    -0.204 OA
ATOM      2  C2  BZF d   1      -1.423  -0.806  -1.361  0.00  0.00     0.174 A 
ATOM      3  C3  BZF d   1      -1.517   0.425  -0.817  0.00  0.00    -0.012 A 
ATOM      4  C3A BZF d   1      -0.181   0.772  -0.439  0.00  0.00    -0.107 A 
ATOM      5  C4  BZF d   1       0.375   1.878   0.138  0.00  0.00     0.055 A 
ATOM      6  C5  BZF d   1       1.699   1.870   0.441  0.00  0.00    -0.016 A 
ATOM      7  C6  BZF d   1       2.496   0.774   0.185  0.00  0.00     0.022 A 
ATOM      8  C7  BZF d   1       1.992  -0.344  -0.392  0.00  0.00     0.029 A 
ATOM      9  C7A BZF d   1       0.660  -0.328  -0.729  0.00  0.00     0.058 A 
ENDROOT
TORSDOF 0
ENDMDL
