MODEL 1
REMARK minimizedAffinity 3.69758558
REMARK minimizedRMSD -1
REMARK  0 active torsions:
REMARK  status: ('A' for Active; 'I' for Inactive)
ROOT
ATOM      1  O1  BZF d   1       0.967  -1.120   0.054  0.00  0.00    -0.204 OA
ATOM      2  C2  BZF d   1       1.354  -0.751  -1.219  0.00  0.00     0.174 A 
ATOM      3  C3  BZF d   1       1.513   0.586  -1.303  0.00  0.00    -0.012 A 
ATOM      4  C3A BZF d   1       1.294   1.074   0.025  0.00  0.00    -0.107 A 
ATOM      5  C4  BZF d   1       1.327   2.319   0.584  0.00  0.00     0.055 A 
ATOM      6  C5  BZF d   1       0.995   2.464   1.894  0.00  0.00    -0.016 A 
ATOM      7  C6  BZF d   1       0.620   1.387   2.671  0.00  0.00     0.022 A 
ATOM      8  C7  BZF d   1       0.577   0.132   2.161  0.00  0.00     0.029 A 
ATOM      9  C7A BZF d   1       0.945  -0.022   0.847  0.00  0.00     0.058 A 
ENDROOT
TORSDOF 0
ENDMDL
