MODEL 1
REMARK minimizedAffinity -3.05452585
REMARK minimizedRMSD -1
REMARK  0 active torsions:
REMARK  status: ('A' for Active; 'I' for Inactive)
ROOT
ATOM      1  O1  BZF d   1       1.077  -0.941  -0.276  0.00  0.00    -0.204 OA
ATOM      2  C2  BZF d   1       2.273  -0.447  -0.762  0.00  0.00     0.174 A 
ATOM      3  C3  BZF d   1       2.443   0.840  -0.396  0.00  0.00    -0.012 A 
ATOM      4  C3A BZF d   1       1.325   1.143   0.444  0.00  0.00    -0.107 A 
ATOM      5  C4  BZF d   1       0.941   2.261   1.127  0.00  0.00     0.055 A 
ATOM      6  C5  BZF d   1      -0.243   2.253   1.795  0.00  0.00    -0.016 A 
ATOM      7  C6  BZF d   1      -1.068   1.147   1.796  0.00  0.00     0.022 A 
ATOM      8  C7  BZF d   1      -0.726   0.013   1.137  0.00  0.00     0.029 A 
ATOM      9  C7A BZF d   1       0.484   0.007   0.489  0.00  0.00     0.058 A 
ENDROOT
TORSDOF 0
ENDMDL
