MODEL 1
REMARK minimizedAffinity -4.22346783
REMARK minimizedRMSD -1
REMARK  0 active torsions:
REMARK  status: ('A' for Active; 'I' for Inactive)
ROOT
ATOM      1  O1  BZF d   1      -0.630  -0.778   0.373  0.00  0.00    -0.204 OA
ATOM      2  C2  BZF d   1      -0.386  -0.658  -0.982  0.00  0.00     0.174 A 
ATOM      3  C3  BZF d   1       0.251   0.499  -1.252  0.00  0.00    -0.012 A 
ATOM      4  C3A BZF d   1       0.498   1.100   0.022  0.00  0.00    -0.107 A 
ATOM      5  C4  BZF d   1       1.112   2.256   0.413  0.00  0.00     0.055 A 
ATOM      6  C5  BZF d   1       1.121   2.586   1.731  0.00  0.00    -0.016 A 
ATOM      7  C6  BZF d   1       0.522   1.789   2.684  0.00  0.00     0.022 A 
ATOM      8  C7  BZF d   1      -0.095   0.630   2.345  0.00  0.00     0.029 A 
ATOM      9  C7A BZF d   1      -0.077   0.277   1.018  0.00  0.00     0.058 A 
ENDROOT
TORSDOF 0
ENDMDL
