MODEL 1
REMARK minimizedAffinity 8.56322956
REMARK minimizedRMSD -1
REMARK  0 active torsions:
REMARK  status: ('A' for Active; 'I' for Inactive)
ROOT
ATOM      1  O1  BZF d   1       4.685   3.380  -2.307  0.00  0.00    -0.204 OA
ATOM      2  C2  BZF d   1       5.980   3.332  -2.787  0.00  0.00     0.174 A 
ATOM      3  C3  BZF d   1       6.000   3.503  -4.125  0.00  0.00    -0.012 A 
ATOM      4  C3A BZF d   1       4.641   3.760  -4.492  0.00  0.00    -0.107 A 
ATOM      5  C4  BZF d   1       4.024   4.025  -5.681  0.00  0.00     0.055 A 
ATOM      6  C5  BZF d   1       2.672   4.156  -5.709  0.00  0.00    -0.016 A 
ATOM      7  C6  BZF d   1       1.906   4.023  -4.569  0.00  0.00     0.022 A 
ATOM      8  C7  BZF d   1       2.474   3.765  -3.365  0.00  0.00     0.029 A 
ATOM      9  C7A BZF d   1       3.843   3.665  -3.329  0.00  0.00     0.058 A 
ENDROOT
TORSDOF 0
ENDMDL
