MODEL 1
REMARK minimizedAffinity 11.318614
REMARK minimizedRMSD -1
REMARK  0 active torsions:
REMARK  status: ('A' for Active; 'I' for Inactive)
ROOT
ATOM      1  O1  BZF d   1       1.109   0.182  -0.486  0.00  0.00    -0.204 OA
ATOM      2  C2  BZF d   1       0.133  -0.029   0.469  0.00  0.00     0.174 A 
ATOM      3  C3  BZF d   1      -0.715   1.018   0.525  0.00  0.00    -0.012 A 
ATOM      4  C3A BZF d   1      -0.293   1.900  -0.520  0.00  0.00    -0.107 A 
ATOM      5  C4  BZF d   1      -0.752   3.103  -0.975  0.00  0.00     0.055 A 
ATOM      6  C5  BZF d   1      -0.071   3.738  -1.965  0.00  0.00    -0.016 A 
ATOM      7  C6  BZF d   1       1.073   3.202  -2.518  0.00  0.00     0.022 A 
ATOM      8  C7  BZF d   1       1.564   2.008  -2.103  0.00  0.00     0.029 A 
ATOM      9  C7A BZF d   1       0.859   1.349  -1.126  0.00  0.00     0.058 A 
ENDROOT
TORSDOF 0
ENDMDL
