MODEL 1
REMARK minimizedAffinity -3.70936513
REMARK minimizedRMSD -1
REMARK  0 active torsions:
REMARK  status: ('A' for Active; 'I' for Inactive)
ROOT
ATOM      1  O1  BZF d   1       4.202   4.344  -5.192  0.00  0.00    -0.204 OA
ATOM      2  C2  BZF d   1       4.620   3.895  -3.954  0.00  0.00     0.174 A 
ATOM      3  C3  BZF d   1       3.715   4.203  -3.003  0.00  0.00    -0.012 A 
ATOM      4  C3A BZF d   1       2.623   4.806  -3.703  0.00  0.00    -0.107 A 
ATOM      5  C4  BZF d   1       1.417   5.310  -3.307  0.00  0.00     0.055 A 
ATOM      6  C5  BZF d   1       0.610   5.895  -4.231  0.00  0.00    -0.016 A 
ATOM      7  C6  BZF d   1       0.979   5.999  -5.556  0.00  0.00     0.022 A 
ATOM      8  C7  BZF d   1       2.164   5.509  -5.997  0.00  0.00     0.029 A 
ATOM      9  C7A BZF d   1       2.967   4.888  -5.072  0.00  0.00     0.058 A 
ENDROOT
TORSDOF 0
ENDMDL
