MODEL 1
REMARK minimizedAffinity -2.85315871
REMARK minimizedRMSD -1
REMARK  0 active torsions:
REMARK  status: ('A' for Active; 'I' for Inactive)
ROOT
ATOM      1  O1  BZF d   1      -0.450   1.003   2.566  0.00  0.00    -0.204 OA
ATOM      2  C2  BZF d   1      -0.341   0.907   1.192  0.00  0.00     0.174 A 
ATOM      3  C3  BZF d   1       0.935   1.099   0.799  0.00  0.00    -0.012 A 
ATOM      4  C3A BZF d   1       1.685   1.237   2.010  0.00  0.00    -0.107 A 
ATOM      5  C4  BZF d   1       3.010   1.433   2.276  0.00  0.00     0.055 A 
ATOM      6  C5  BZF d   1       3.406   1.599   3.565  0.00  0.00    -0.016 A 
ATOM      7  C6  BZF d   1       2.506   1.579   4.611  0.00  0.00     0.022 A 
ATOM      8  C7  BZF d   1       1.182   1.382   4.396  0.00  0.00     0.029 A 
ATOM      9  C7A BZF d   1       0.783   1.182   3.097  0.00  0.00     0.058 A 
ENDROOT
TORSDOF 0
ENDMDL
