MODEL 1
REMARK minimizedAffinity -1.77822018
REMARK minimizedRMSD -1
REMARK  0 active torsions:
REMARK  status: ('A' for Active; 'I' for Inactive)
ROOT
ATOM      1  O1  BZF d   1       2.028   1.727   1.900  0.00  0.00    -0.204 OA
ATOM      2  C2  BZF d   1       2.070   2.103   3.229  0.00  0.00     0.174 A 
ATOM      3  C3  BZF d   1       1.032   1.576   3.909  0.00  0.00    -0.012 A 
ATOM      4  C3A BZF d   1       0.345   0.749   2.965  0.00  0.00    -0.107 A 
ATOM      5  C4  BZF d   1      -0.759  -0.051   3.045  0.00  0.00     0.055 A 
ATOM      6  C5  BZF d   1      -1.212  -0.667   1.922  0.00  0.00    -0.016 A 
ATOM      7  C6  BZF d   1      -0.590  -0.501   0.702  0.00  0.00     0.022 A 
ATOM      8  C7  BZF d   1       0.511   0.278   0.573  0.00  0.00     0.029 A 
ATOM      9  C7A BZF d   1       0.991   0.875   1.713  0.00  0.00     0.058 A 
ENDROOT
TORSDOF 0
ENDMDL
