MODEL 1
REMARK minimizedAffinity 2.98669529
REMARK minimizedRMSD -1
REMARK  0 active torsions:
REMARK  status: ('A' for Active; 'I' for Inactive)
ROOT
ATOM      1  O1  BZF d   1      -0.112  -0.438  -0.582  0.00  0.00    -0.204 OA
ATOM      2  C2  BZF d   1      -0.090  -0.066   0.749  0.00  0.00     0.174 A 
ATOM      3  C3  BZF d   1       0.504   1.135   0.900  0.00  0.00    -0.012 A 
ATOM      4  C3A BZF d   1       0.794   1.581  -0.429  0.00  0.00    -0.107 A 
ATOM      5  C4  BZF d   1       1.369   2.712  -0.935  0.00  0.00     0.055 A 
ATOM      6  C5  BZF d   1       1.573   2.805  -2.275  0.00  0.00    -0.016 A 
ATOM      7  C6  BZF d   1       1.220   1.787  -3.136  0.00  0.00     0.022 A 
ATOM      8  C7  BZF d   1       0.641   0.649  -2.682  0.00  0.00     0.029 A 
ATOM      9  C7A BZF d   1       0.404   0.565  -1.331  0.00  0.00     0.058 A 
ENDROOT
TORSDOF 0
ENDMDL
