MODEL 1
REMARK minimizedAffinity 8.96233845
REMARK minimizedRMSD -1
REMARK  0 active torsions:
REMARK  status: ('A' for Active; 'I' for Inactive)
ROOT
ATOM      1  O1  BZF d   1      -0.809  -1.103  -5.154  0.00  0.00    -0.204 OA
ATOM      2  C2  BZF d   1      -0.868  -0.011  -5.998  0.00  0.00     0.174 A 
ATOM      3  C3  BZF d   1      -0.130   1.009  -5.514  0.00  0.00    -0.012 A 
ATOM      4  C3A BZF d   1       0.499   0.492  -4.338  0.00  0.00    -0.107 A 
ATOM      5  C4  BZF d   1       1.367   1.023  -3.427  0.00  0.00     0.055 A 
ATOM      6  C5  BZF d   1       1.734   0.278  -2.352  0.00  0.00    -0.016 A 
ATOM      7  C6  BZF d   1       1.249  -0.998  -2.153  0.00  0.00     0.022 A 
ATOM      8  C7  BZF d   1       0.390  -1.569  -3.031  0.00  0.00     0.029 A 
ATOM      9  C7A BZF d   1       0.043  -0.831  -4.137  0.00  0.00     0.058 A 
ENDROOT
TORSDOF 0
ENDMDL
