MODEL 1
REMARK minimizedAffinity -2.46541834
REMARK minimizedRMSD -1
REMARK  0 active torsions:
REMARK  status: ('A' for Active; 'I' for Inactive)
ROOT
ATOM      1  O1  BZF d   1      -3.744   5.996  -4.681  0.00  0.00    -0.204 OA
ATOM      2  C2  BZF d   1      -4.389   5.998  -3.460  0.00  0.00     0.174 A 
ATOM      3  C3  BZF d   1      -3.501   5.913  -2.449  0.00  0.00    -0.012 A 
ATOM      4  C3A BZF d   1      -2.214   5.947  -3.075  0.00  0.00    -0.107 A 
ATOM      5  C4  BZF d   1      -0.936   5.912  -2.596  0.00  0.00     0.055 A 
ATOM      6  C5  BZF d   1       0.099   5.887  -3.476  0.00  0.00    -0.016 A 
ATOM      7  C6  BZF d   1      -0.108   5.892  -4.840  0.00  0.00     0.022 A 
ATOM      8  C7  BZF d   1      -1.358   5.931  -5.363  0.00  0.00     0.029 A 
ATOM      9  C7A BZF d   1      -2.405   5.989  -4.475  0.00  0.00     0.058 A 
ENDROOT
TORSDOF 0
ENDMDL
