MODEL 1
REMARK minimizedAffinity 16.0843239
REMARK minimizedRMSD -1
REMARK  0 active torsions:
REMARK  status: ('A' for Active; 'I' for Inactive)
ROOT
ATOM      1  C   UNL d   1      -2.099  -2.678   4.665  0.00  0.00     0.078 C 
ATOM      2  C1  UNL d   1      -3.463  -3.278   4.836  0.00  0.00    -0.077 A 
ATOM      3  C2  UNL d   1      -4.326  -2.831   5.843  0.00  0.00    -0.001 A 
ATOM      4  C3  UNL d   1      -5.589  -3.405   5.997  0.00  0.00     0.003 A 
ATOM      5  C4  UNL d   1      -5.999  -4.431   5.148  0.00  0.00    -0.005 A 
ATOM      6  C5  UNL d   1      -5.146  -4.885   4.144  0.00  0.00     0.003 A 
ATOM      7  C6  UNL d   1      -3.883  -4.311   3.989  0.00  0.00    -0.001 A 
ENDROOT
TORSDOF 0
ENDMDL
