MODEL 1
REMARK minimizedAffinity 12.8255062
REMARK minimizedRMSD -1
REMARK  0 active torsions:
REMARK  status: ('A' for Active; 'I' for Inactive)
ROOT
ATOM      1  C   UNL d   1      -4.706  -3.784   3.481  0.00  0.00     0.078 C 
ATOM      2  C1  UNL d   1      -3.345  -3.414   3.992  0.00  0.00    -0.077 A 
ATOM      3  C2  UNL d   1      -2.238  -4.239   3.759  0.00  0.00    -0.001 A 
ATOM      4  C3  UNL d   1      -0.980  -3.887   4.249  0.00  0.00     0.003 A 
ATOM      5  C4  UNL d   1      -0.816  -2.709   4.976  0.00  0.00    -0.005 A 
ATOM      6  C5  UNL d   1      -1.912  -1.883   5.214  0.00  0.00     0.003 A 
ATOM      7  C6  UNL d   1      -3.171  -2.233   4.725  0.00  0.00    -0.001 A 
ENDROOT
TORSDOF 0
ENDMDL
