MODEL 1
REMARK minimizedAffinity 9.03541756
REMARK minimizedRMSD -1
REMARK  0 active torsions:
REMARK  status: ('A' for Active; 'I' for Inactive)
ROOT
ATOM      1  C   UNL d   1      -5.991  -4.219   4.971  0.00  0.00     0.078 C 
ATOM      2  C1  UNL d   1      -4.690  -3.474   4.960  0.00  0.00    -0.077 A 
ATOM      3  C2  UNL d   1      -4.354  -2.592   5.995  0.00  0.00    -0.001 A 
ATOM      4  C3  UNL d   1      -3.144  -1.898   5.967  0.00  0.00     0.003 A 
ATOM      5  C4  UNL d   1      -2.259  -2.077   4.906  0.00  0.00    -0.005 A 
ATOM      6  C5  UNL d   1      -2.585  -2.950   3.870  0.00  0.00     0.003 A 
ATOM      7  C6  UNL d   1      -3.795  -3.645   3.896  0.00  0.00    -0.001 A 
ENDROOT
TORSDOF 0
ENDMDL
