MODEL 1
REMARK minimizedAffinity 11.1829691
REMARK minimizedRMSD -1
REMARK  0 active torsions:
REMARK  status: ('A' for Active; 'I' for Inactive)
ROOT
ATOM      1  C   UNL d   1      -4.844   5.867   3.803  0.00  0.00     0.078 C 
ATOM      2  C1  UNL d   1      -4.707   5.905   2.310  0.00  0.00    -0.077 A 
ATOM      3  C2  UNL d   1      -3.446   5.946   1.702  0.00  0.00    -0.001 A 
ATOM      4  C3  UNL d   1      -3.334   5.991   0.312  0.00  0.00     0.003 A 
ATOM      5  C4  UNL d   1      -4.479   5.998  -0.483  0.00  0.00    -0.005 A 
ATOM      6  C5  UNL d   1      -5.738   5.959   0.113  0.00  0.00     0.003 A 
ATOM      7  C6  UNL d   1      -5.852   5.914   1.503  0.00  0.00    -0.001 A 
ENDROOT
TORSDOF 0
ENDMDL
