MODEL 1
REMARK minimizedAffinity 6.45717192
REMARK minimizedRMSD -1
REMARK  0 active torsions:
REMARK  status: ('A' for Active; 'I' for Inactive)
ROOT
ATOM      1  C   UNL d   1      -4.328   5.970   2.224  0.00  0.00     0.078 C 
ATOM      2  C1  UNL d   1      -4.234   5.757   0.742  0.00  0.00    -0.077 A 
ATOM      3  C2  UNL d   1      -3.034   5.349   0.148  0.00  0.00    -0.001 A 
ATOM      4  C3  UNL d   1      -2.958   5.164  -1.234  0.00  0.00     0.003 A 
ATOM      5  C4  UNL d   1      -4.078   5.386  -2.032  0.00  0.00    -0.005 A 
ATOM      6  C5  UNL d   1      -5.276   5.795  -1.450  0.00  0.00     0.003 A 
ATOM      7  C6  UNL d   1      -5.354   5.980  -0.068  0.00  0.00    -0.001 A 
ENDROOT
TORSDOF 0
ENDMDL
