MODEL 1
REMARK minimizedAffinity 14.2428761
REMARK minimizedRMSD -1
REMARK  0 active torsions:
REMARK  status: ('A' for Active; 'I' for Inactive)
ROOT
ATOM      1  C   UNL d   1       1.235  -0.052  -5.994  0.00  0.00     0.078 C 
ATOM      2  C1  UNL d   1       1.906  -1.392  -5.963  0.00  0.00    -0.077 A 
ATOM      3  C2  UNL d   1       3.302  -1.500  -5.980  0.00  0.00    -0.001 A 
ATOM      4  C3  UNL d   1       3.914  -2.755  -5.962  0.00  0.00     0.003 A 
ATOM      5  C4  UNL d   1       3.137  -3.911  -5.927  0.00  0.00    -0.005 A 
ATOM      6  C5  UNL d   1       1.747  -3.814  -5.912  0.00  0.00     0.003 A 
ATOM      7  C6  UNL d   1       1.134  -2.560  -5.931  0.00  0.00    -0.001 A 
ENDROOT
TORSDOF 0
ENDMDL
