MODEL 1
REMARK minimizedAffinity 14.1646585
REMARK minimizedRMSD -1
REMARK  0 active torsions:
REMARK  status: ('A' for Active; 'I' for Inactive)
ROOT
ATOM      1  C   UNL d   1      -0.535   3.035  -3.359  0.00  0.00     0.078 C 
ATOM      2  C1  UNL d   1      -2.033   3.034  -3.433  0.00  0.00    -0.077 A 
ATOM      3  C2  UNL d   1      -2.736   1.878  -3.792  0.00  0.00    -0.001 A 
ATOM      4  C3  UNL d   1      -4.130   1.894  -3.867  0.00  0.00     0.003 A 
ATOM      5  C4  UNL d   1      -4.832   3.064  -3.586  0.00  0.00    -0.005 A 
ATOM      6  C5  UNL d   1      -4.141   4.220  -3.230  0.00  0.00     0.003 A 
ATOM      7  C6  UNL d   1      -2.747   4.206  -3.155  0.00  0.00    -0.001 A 
ENDROOT
TORSDOF 0
ENDMDL
