MODEL 1
REMARK minimizedAffinity 14.0226784
REMARK minimizedRMSD -1
REMARK  0 active torsions:
REMARK  status: ('A' for Active; 'I' for Inactive)
ROOT
ATOM      1  C   UNL d   1      -0.362   2.058   0.224  0.00  0.00     0.078 C 
ATOM      2  C1  UNL d   1      -0.178   2.844  -1.040  0.00  0.00    -0.077 A 
ATOM      3  C2  UNL d   1       0.999   3.565  -1.276  0.00  0.00    -0.001 A 
ATOM      4  C3  UNL d   1       1.153   4.300  -2.452  0.00  0.00     0.003 A 
ATOM      5  C4  UNL d   1       0.133   4.323  -3.402  0.00  0.00    -0.005 A 
ATOM      6  C5  UNL d   1      -1.043   3.610  -3.175  0.00  0.00     0.003 A 
ATOM      7  C6  UNL d   1      -1.198   2.875  -1.999  0.00  0.00    -0.001 A 
ENDROOT
TORSDOF 0
ENDMDL
