MODEL 1
REMARK minimizedAffinity 2.59679556
REMARK minimizedRMSD -1
REMARK  0 active torsions:
REMARK  status: ('A' for Active; 'I' for Inactive)
ROOT
ATOM      1  C   UNL d   1      -0.579   1.872   0.936  0.00  0.00     0.078 C 
ATOM      2  C1  UNL d   1      -0.516   2.933  -0.122  0.00  0.00    -0.077 A 
ATOM      3  C2  UNL d   1      -1.015   2.698  -1.410  0.00  0.00    -0.001 A 
ATOM      4  C3  UNL d   1      -0.941   3.691  -2.387  0.00  0.00     0.003 A 
ATOM      5  C4  UNL d   1      -0.368   4.926  -2.089  0.00  0.00    -0.005 A 
ATOM      6  C5  UNL d   1       0.134   5.168  -0.811  0.00  0.00     0.003 A 
ATOM      7  C6  UNL d   1       0.061   4.176   0.168  0.00  0.00    -0.001 A 
ENDROOT
TORSDOF 0
ENDMDL
