MODEL 1
REMARK minimizedAffinity 2.55555749
REMARK minimizedRMSD -1
REMARK  0 active torsions:
REMARK  status: ('A' for Active; 'I' for Inactive)
ROOT
ATOM      1  C   UNL d   1       0.151   4.368  -0.657  0.00  0.00     0.078 C 
ATOM      2  C1  UNL d   1      -0.770   3.584   0.229  0.00  0.00    -0.077 A 
ATOM      3  C2  UNL d   1      -1.959   4.145   0.710  0.00  0.00    -0.001 A 
ATOM      4  C3  UNL d   1      -2.803   3.407   1.541  0.00  0.00     0.003 A 
ATOM      5  C4  UNL d   1      -2.465   2.104   1.901  0.00  0.00    -0.005 A 
ATOM      6  C5  UNL d   1      -1.283   1.537   1.429  0.00  0.00     0.003 A 
ATOM      7  C6  UNL d   1      -0.438   2.274   0.597  0.00  0.00    -0.001 A 
ENDROOT
TORSDOF 0
ENDMDL
