MODEL 1
REMARK minimizedAffinity 2.21496773
REMARK minimizedRMSD -1
REMARK  0 active torsions:
REMARK  status: ('A' for Active; 'I' for Inactive)
ROOT
ATOM      1  C   UNL d   1      -1.181   1.149  -2.264  0.00  0.00     0.078 C 
ATOM      2  C1  UNL d   1      -0.714   2.361  -1.515  0.00  0.00    -0.077 A 
ATOM      3  C2  UNL d   1      -0.137   2.245  -0.244  0.00  0.00    -0.001 A 
ATOM      4  C3  UNL d   1       0.284   3.383   0.446  0.00  0.00     0.003 A 
ATOM      5  C4  UNL d   1       0.131   4.645  -0.125  0.00  0.00    -0.005 A 
ATOM      6  C5  UNL d   1      -0.445   4.770  -1.387  0.00  0.00     0.003 A 
ATOM      7  C6  UNL d   1      -0.866   3.634  -2.080  0.00  0.00    -0.001 A 
ENDROOT
TORSDOF 0
ENDMDL
