MODEL 1
REMARK minimizedAffinity -0.450177431
REMARK minimizedRMSD -1
REMARK  0 active torsions:
REMARK  status: ('A' for Active; 'I' for Inactive)
ROOT
ATOM      1  C   UNL d   1       1.879   6.000   2.248  0.00  0.00     0.078 C 
ATOM      2  C1  UNL d   1       1.144   5.213   1.204  0.00  0.00    -0.077 A 
ATOM      3  C2  UNL d   1       0.697   3.912   1.463  0.00  0.00    -0.001 A 
ATOM      4  C3  UNL d   1       0.023   3.187   0.479  0.00  0.00     0.003 A 
ATOM      5  C4  UNL d   1      -0.210   3.755  -0.772  0.00  0.00    -0.005 A 
ATOM      6  C5  UNL d   1       0.233   5.049  -1.040  0.00  0.00     0.003 A 
ATOM      7  C6  UNL d   1       0.907   5.775  -0.057  0.00  0.00    -0.001 A 
ENDROOT
TORSDOF 0
ENDMDL
