MODEL 1
REMARK minimizedAffinity 1.39942002
REMARK minimizedRMSD -1
REMARK  0 active torsions:
REMARK  status: ('A' for Active; 'I' for Inactive)
ROOT
ATOM      1  C   UNL d   1      -4.231  -0.026  -2.016  0.00  0.00     0.078 C 
ATOM      2  C1  UNL d   1      -4.835  -0.925  -0.979  0.00  0.00    -0.077 A 
ATOM      3  C2  UNL d   1      -4.831  -2.316  -1.140  0.00  0.00    -0.001 A 
ATOM      4  C3  UNL d   1      -5.405  -3.140  -0.171  0.00  0.00     0.003 A 
ATOM      5  C4  UNL d   1      -5.989  -2.583   0.965  0.00  0.00    -0.005 A 
ATOM      6  C5  UNL d   1      -6.000  -1.200   1.133  0.00  0.00     0.003 A 
ATOM      7  C6  UNL d   1      -5.426  -0.374   0.165  0.00  0.00    -0.001 A 
ENDROOT
TORSDOF 0
ENDMDL
