MODEL 1
REMARK minimizedAffinity 8.29734898
REMARK minimizedRMSD -1
REMARK  0 active torsions:
REMARK  status: ('A' for Active; 'I' for Inactive)
ROOT
ATOM      1  C   UNL d   1      -1.121   3.535  -3.057  0.00  0.00     0.078 C 
ATOM      2  C1  UNL d   1      -0.696   4.218  -1.792  0.00  0.00    -0.077 A 
ATOM      3  C2  UNL d   1       0.395   3.748  -1.050  0.00  0.00    -0.001 A 
ATOM      4  C3  UNL d   1       0.774   4.388   0.131  0.00  0.00     0.003 A 
ATOM      5  C4  UNL d   1       0.066   5.500   0.582  0.00  0.00    -0.005 A 
ATOM      6  C5  UNL d   1      -1.022   5.973  -0.148  0.00  0.00     0.003 A 
ATOM      7  C6  UNL d   1      -1.403   5.335  -1.329  0.00  0.00    -0.001 A 
ENDROOT
TORSDOF 0
ENDMDL
