MODEL 1
REMARK minimizedAffinity 1.94378853
REMARK minimizedRMSD -1
REMARK  0 active torsions:
REMARK  status: ('A' for Active; 'I' for Inactive)
ROOT
ATOM      1  C   UNL d   1      -5.996  -3.393   0.374  0.00  0.00     0.078 C 
ATOM      2  C1  UNL d   1      -5.387  -2.074   0.001  0.00  0.00    -0.077 A 
ATOM      3  C2  UNL d   1      -5.999  -0.869   0.365  0.00  0.00    -0.001 A 
ATOM      4  C3  UNL d   1      -5.426   0.352   0.003  0.00  0.00     0.003 A 
ATOM      5  C4  UNL d   1      -4.238   0.378  -0.725  0.00  0.00    -0.005 A 
ATOM      6  C5  UNL d   1      -3.623  -0.816  -1.094  0.00  0.00     0.003 A 
ATOM      7  C6  UNL d   1      -4.194  -2.038  -0.733  0.00  0.00    -0.001 A 
ENDROOT
TORSDOF 0
ENDMDL
