MODEL 1
REMARK minimizedAffinity 15.1968784
REMARK minimizedRMSD -1
REMARK  0 active torsions:
REMARK  status: ('A' for Active; 'I' for Inactive)
ROOT
ATOM      1  C   UNL d   1      -1.033  -3.046   4.135  0.00  0.00     0.078 C 
ATOM      2  C1  UNL d   1       0.029  -2.618   3.167  0.00  0.00    -0.077 A 
ATOM      3  C2  UNL d   1       0.598  -1.341   3.240  0.00  0.00    -0.001 A 
ATOM      4  C3  UNL d   1       1.579  -0.952   2.326  0.00  0.00     0.003 A 
ATOM      5  C4  UNL d   1       1.998  -1.834   1.332  0.00  0.00    -0.005 A 
ATOM      6  C5  UNL d   1       1.435  -3.106   1.250  0.00  0.00     0.003 A 
ATOM      7  C6  UNL d   1       0.454  -3.497   2.163  0.00  0.00    -0.001 A 
ENDROOT
TORSDOF 0
ENDMDL
