MODEL 1
REMARK minimizedAffinity 2.52500391
REMARK minimizedRMSD -1
REMARK  0 active torsions:
REMARK  status: ('A' for Active; 'I' for Inactive)
ROOT
ATOM      1  C   UNL d   1      -5.206  -3.826   1.804  0.00  0.00     0.078 C 
ATOM      2  C1  UNL d   1      -5.228  -4.148   3.269  0.00  0.00    -0.077 A 
ATOM      3  C2  UNL d   1      -4.497  -3.384   4.186  0.00  0.00    -0.001 A 
ATOM      4  C3  UNL d   1      -4.519  -3.701   5.545  0.00  0.00     0.003 A 
ATOM      5  C4  UNL d   1      -5.270  -4.783   5.999  0.00  0.00    -0.005 A 
ATOM      6  C5  UNL d   1      -6.000  -5.550   5.094  0.00  0.00     0.003 A 
ATOM      7  C6  UNL d   1      -5.979  -5.235   3.734  0.00  0.00    -0.001 A 
ENDROOT
TORSDOF 0
ENDMDL
