MODEL 1
REMARK minimizedAffinity 9.42588329
REMARK minimizedRMSD -1
REMARK  0 active torsions:
REMARK  status: ('A' for Active; 'I' for Inactive)
ROOT
ATOM      1  N1  IND d   1       0.513   4.043  -0.339  0.00  0.00    -0.196 N 
ATOM      2  C2  IND d   1       0.337   4.975   0.645  0.00  0.00     0.054 A 
ATOM      3  C3  IND d   1       0.818   4.515   1.821  0.00  0.00    -0.031 A 
ATOM      4  C4  IND d   1       2.028   2.302   2.339  0.00  0.00     0.051 A 
ATOM      5  C5  IND d   1       2.390   1.114   1.770  0.00  0.00    -0.031 A 
ATOM      6  C6  IND d   1       2.143   0.836   0.441  0.00  0.00     0.015 A 
ATOM      7  C7  IND d   1       1.531   1.746  -0.374  0.00  0.00    -0.016 A 
ATOM      8  C8  IND d   1       1.155   2.951   0.202  0.00  0.00    -0.047 A 
ATOM      9  C9  IND d   1       1.366   3.221   1.560  0.00  0.00    -0.096 A 
ATOM     10  HN1 IND d   1       0.264   4.124  -1.158  0.00  0.00     0.298 HD
ENDROOT
TORSDOF 0
ENDMDL
