MODEL 1
REMARK minimizedAffinity 7.29715729
REMARK minimizedRMSD -1
REMARK  0 active torsions:
REMARK  status: ('A' for Active; 'I' for Inactive)
ROOT
ATOM      1  N1  IND d   1       3.403   0.090  -2.969  0.00  0.00    -0.196 N 
ATOM      2  C2  IND d   1       3.180  -1.241  -2.751  0.00  0.00     0.054 A 
ATOM      3  C3  IND d   1       2.862  -1.459  -1.455  0.00  0.00    -0.031 A 
ATOM      4  C4  IND d   1       2.549   0.235   0.459  0.00  0.00     0.051 A 
ATOM      5  C5  IND d   1       2.679   1.563   0.754  0.00  0.00    -0.031 A 
ATOM      6  C6  IND d   1       3.063   2.487  -0.196  0.00  0.00     0.015 A 
ATOM      7  C7  IND d   1       3.320   2.117  -1.486  0.00  0.00    -0.016 A 
ATOM      8  C8  IND d   1       3.196   0.768  -1.788  0.00  0.00    -0.047 A 
ATOM      9  C9  IND d   1       2.848  -0.180  -0.818  0.00  0.00    -0.096 A 
ATOM     10  HN1 IND d   1       3.634   0.444  -3.718  0.00  0.00     0.298 HD
ENDROOT
TORSDOF 0
ENDMDL
