MODEL 1
REMARK minimizedAffinity -4.72280979
REMARK minimizedRMSD -1
REMARK  0 active torsions:
REMARK  status: ('A' for Active; 'I' for Inactive)
ROOT
ATOM      1  N1  IND d   1       4.231  -1.556   1.082  0.00  0.00    -0.196 N 
ATOM      2  C2  IND d   1       2.882  -1.750   0.979  0.00  0.00     0.054 A 
ATOM      3  C3  IND d   1       2.275  -0.616   0.563  0.00  0.00    -0.031 A 
ATOM      4  C4  IND d   1       3.312   1.644  -0.106  0.00  0.00     0.051 A 
ATOM      5  C5  IND d   1       4.502   2.314  -0.144  0.00  0.00    -0.031 A 
ATOM      6  C6  IND d   1       5.688   1.715   0.230  0.00  0.00     0.015 A 
ATOM      7  C7  IND d   1       5.729   0.414   0.647  0.00  0.00    -0.016 A 
ATOM      8  C8  IND d   1       4.521  -0.267   0.693  0.00  0.00    -0.047 A 
ATOM      9  C9  IND d   1       3.308   0.349   0.355  0.00  0.00    -0.096 A 
ATOM     10  HN1 IND d   1       4.803  -2.142   1.346  0.00  0.00     0.298 HD
ENDROOT
TORSDOF 0
ENDMDL
