MODEL 1
REMARK minimizedAffinity 14.6114025
REMARK minimizedRMSD -1
REMARK  0 active torsions:
REMARK  status: ('A' for Active; 'I' for Inactive)
ROOT
ATOM      1  N1  IND d   1       6.000  -0.205   1.496  0.00  0.00    -0.196 N 
ATOM      2  C2  IND d   1       5.910  -1.532   1.814  0.00  0.00     0.054 A 
ATOM      3  C3  IND d   1       4.710  -2.026   1.434  0.00  0.00    -0.031 A 
ATOM      4  C4  IND d   1       2.783  -0.863   0.184  0.00  0.00     0.051 A 
ATOM      5  C5  IND d   1       2.387   0.357  -0.288  0.00  0.00    -0.031 A 
ATOM      6  C6  IND d   1       3.191   1.473  -0.190  0.00  0.00     0.015 A 
ATOM      7  C7  IND d   1       4.433   1.409   0.376  0.00  0.00    -0.016 A 
ATOM      8  C8  IND d   1       4.837   0.174   0.863  0.00  0.00    -0.047 A 
ATOM      9  C9  IND d   1       4.007  -0.954   0.805  0.00  0.00    -0.096 A 
ATOM     10  HN1 IND d   1       6.670   0.306   1.664  0.00  0.00     0.298 HD
ENDROOT
TORSDOF 0
ENDMDL
