MODEL 1
REMARK minimizedAffinity 3.79943275
REMARK minimizedRMSD -1
REMARK  0 active torsions:
REMARK  status: ('A' for Active; 'I' for Inactive)
ROOT
ATOM      1  N1  IND d   1      -3.738   5.993   5.202  0.00  0.00    -0.196 N 
ATOM      2  C2  IND d   1      -4.848   5.960   6.000  0.00  0.00     0.054 A 
ATOM      3  C3  IND d   1      -5.899   5.445   5.322  0.00  0.00    -0.031 A 
ATOM      4  C4  IND d   1      -5.998   4.501   2.929  0.00  0.00     0.051 A 
ATOM      5  C5  IND d   1      -5.244   4.350   1.799  0.00  0.00    -0.031 A 
ATOM      6  C6  IND d   1      -3.923   4.744   1.745  0.00  0.00     0.015 A 
ATOM      7  C7  IND d   1      -3.300   5.296   2.828  0.00  0.00    -0.016 A 
ATOM      8  C8  IND d   1      -4.064   5.458   3.975  0.00  0.00    -0.047 A 
ATOM      9  C9  IND d   1      -5.417   5.099   4.022  0.00  0.00    -0.096 A 
ATOM     10  HN1 IND d   1      -2.967   6.298   5.429  0.00  0.00     0.298 HD
ENDROOT
TORSDOF 0
ENDMDL
