MODEL 1
REMARK minimizedAffinity 2.84482718
REMARK minimizedRMSD -1
REMARK  0 active torsions:
REMARK  status: ('A' for Active; 'I' for Inactive)
ROOT
ATOM      1  N1  IND d   1       4.346   3.157   2.255  0.00  0.00    -0.196 N 
ATOM      2  C2  IND d   1       5.511   3.680   1.767  0.00  0.00     0.054 A 
ATOM      3  C3  IND d   1       5.703   3.288   0.487  0.00  0.00    -0.031 A 
ATOM      4  C4  IND d   1       4.185   1.873  -1.035  0.00  0.00     0.051 A 
ATOM      5  C5  IND d   1       3.031   1.139  -1.024  0.00  0.00    -0.031 A 
ATOM      6  C6  IND d   1       2.240   1.041   0.102  0.00  0.00     0.015 A 
ATOM      7  C7  IND d   1       2.568   1.685   1.261  0.00  0.00    -0.016 A 
ATOM      8  C8  IND d   1       3.742   2.425   1.256  0.00  0.00    -0.047 A 
ATOM      9  C9  IND d   1       4.571   2.493   0.129  0.00  0.00    -0.096 A 
ATOM     10  HN1 IND d   1       4.042   3.267   3.051  0.00  0.00     0.298 HD
ENDROOT
TORSDOF 0
ENDMDL
