MODEL 1
REMARK minimizedAffinity 10.2962055
REMARK minimizedRMSD -1
REMARK  0 active torsions:
REMARK  status: ('A' for Active; 'I' for Inactive)
ROOT
ATOM      1  N1  IND d   1       5.050   2.935   0.260  0.00  0.00    -0.196 N 
ATOM      2  C2  IND d   1       5.147   3.075   1.617  0.00  0.00     0.054 A 
ATOM      3  C3  IND d   1       4.261   2.265   2.238  0.00  0.00    -0.031 A 
ATOM      4  C4  IND d   1       2.626   0.551   1.231  0.00  0.00     0.051 A 
ATOM      5  C5  IND d   1       2.150   0.090   0.035  0.00  0.00    -0.031 A 
ATOM      6  C6  IND d   1       2.628   0.561  -1.170  0.00  0.00     0.015 A 
ATOM      7  C7  IND d   1       3.612   1.507  -1.226  0.00  0.00    -0.016 A 
ATOM      8  C8  IND d   1       4.093   1.983  -0.014  0.00  0.00    -0.047 A 
ATOM      9  C9  IND d   1       3.582   1.539   1.212  0.00  0.00    -0.096 A 
ATOM     10  HN1 IND d   1       5.509   3.368  -0.323  0.00  0.00     0.298 HD
ENDROOT
TORSDOF 0
ENDMDL
