MODEL 1
REMARK minimizedAffinity 2.46824288
REMARK minimizedRMSD -1
REMARK  0 active torsions:
REMARK  status: ('A' for Active; 'I' for Inactive)
ROOT
ATOM      1  N1  IND d   1       0.656  -2.617   5.241  0.00  0.00    -0.196 N 
ATOM      2  C2  IND d   1       0.330  -1.866   4.146  0.00  0.00     0.054 A 
ATOM      3  C3  IND d   1      -0.500  -2.556   3.332  0.00  0.00    -0.031 A 
ATOM      4  C4  IND d   1      -1.534  -4.892   3.652  0.00  0.00     0.051 A 
ATOM      5  C5  IND d   1      -1.505  -5.979   4.480  0.00  0.00    -0.031 A 
ATOM      6  C6  IND d   1      -0.741  -6.000   5.629  0.00  0.00     0.015 A 
ATOM      7  C7  IND d   1       0.017  -4.926   6.000  0.00  0.00    -0.016 A 
ATOM      8  C8  IND d   1      -0.004  -3.823   5.158  0.00  0.00    -0.047 A 
ATOM      9  C9  IND d   1      -0.745  -3.812   3.968  0.00  0.00    -0.096 A 
ATOM     10  HN1 IND d   1       1.184  -2.376   5.875  0.00  0.00     0.298 HD
ENDROOT
TORSDOF 0
ENDMDL
