MODEL 1
REMARK minimizedAffinity 6.82035828
REMARK minimizedRMSD -1
REMARK  0 active torsions:
REMARK  status: ('A' for Active; 'I' for Inactive)
ROOT
ATOM      1  C2' OXE d   1       0.025   1.223   0.754  0.00  0.00     0.078 C 
ATOM      2  C1' OXE d   1      -0.414  -1.509   0.279  0.00  0.00     0.078 C 
ATOM      3  C1  OXE d   1       0.965  -0.960   0.008  0.00  0.00    -0.078 A 
ATOM      4  C2  OXE d   1       1.158   0.387   0.199  0.00  0.00    -0.078 A 
ATOM      5  C3  OXE d   1       2.424   0.935   0.015  0.00  0.00     0.003 A 
ATOM      6  C4  OXE d   1       3.464   0.157  -0.508  0.00  0.00    -0.002 A 
ATOM      7  C5  OXE d   1       3.278  -1.209  -0.747  0.00  0.00    -0.002 A 
ATOM      8  C6  OXE d   1       2.049  -1.790  -0.455  0.00  0.00     0.003 A 
ENDROOT
TORSDOF 0
ENDMDL
