MODEL 1
REMARK minimizedAffinity -1.38846874
REMARK minimizedRMSD -1
REMARK  0 active torsions:
REMARK  status: ('A' for Active; 'I' for Inactive)
ROOT
ATOM      1  C2' OXE d   1       3.804   0.655  -1.131  0.00  0.00     0.078 C 
ATOM      2  C1' OXE d   1       3.313  -2.067  -1.610  0.00  0.00     0.078 C 
ATOM      3  C1  OXE d   1       2.221  -1.260  -0.954  0.00  0.00    -0.078 A 
ATOM      4  C2  OXE d   1       2.487   0.060  -0.681  0.00  0.00    -0.078 A 
ATOM      5  C3  OXE d   1       1.495   0.864  -0.126  0.00  0.00     0.003 A 
ATOM      6  C4  OXE d   1       0.283   0.303   0.296  0.00  0.00    -0.002 A 
ATOM      7  C5  OXE d   1       0.007  -1.048   0.064  0.00  0.00    -0.002 A 
ATOM      8  C6  OXE d   1       0.946  -1.832  -0.597  0.00  0.00     0.003 A 
ENDROOT
TORSDOF 0
ENDMDL
