MODEL 1
REMARK minimizedAffinity 8.77084923
REMARK minimizedRMSD -1
REMARK  0 active torsions:
REMARK  status: ('A' for Active; 'I' for Inactive)
ROOT
ATOM      1  C2' OXE d   1      -1.091  -2.653  -2.212  0.00  0.00     0.078 C 
ATOM      2  C1' OXE d   1       1.245  -2.728  -0.656  0.00  0.00     0.078 C 
ATOM      3  C1  OXE d   1       0.489  -1.424  -0.729  0.00  0.00    -0.078 A 
ATOM      4  C2  OXE d   1      -0.627  -1.384  -1.530  0.00  0.00    -0.078 A 
ATOM      5  C3  OXE d   1      -1.391  -0.223  -1.589  0.00  0.00     0.003 A 
ATOM      6  C4  OXE d   1      -0.949   0.949  -0.963  0.00  0.00    -0.002 A 
ATOM      7  C5  OXE d   1       0.206   0.941  -0.175  0.00  0.00    -0.002 A 
ATOM      8  C6  OXE d   1       0.912  -0.246  -0.013  0.00  0.00     0.003 A 
ENDROOT
TORSDOF 0
ENDMDL
