MODEL 1
REMARK minimizedAffinity 2.97059679
REMARK minimizedRMSD -1
REMARK  0 active torsions:
REMARK  status: ('A' for Active; 'I' for Inactive)
ROOT
ATOM      1  C2' OXE d   1      -1.708  -0.098  -0.614  0.00  0.00     0.078 C 
ATOM      2  C1' OXE d   1       0.679   1.341  -0.282  0.00  0.00     0.078 C 
ATOM      3  C1  OXE d   1       0.781  -0.144  -0.525  0.00  0.00    -0.078 A 
ATOM      4  C2  OXE d   1      -0.394  -0.848  -0.640  0.00  0.00    -0.078 A 
ATOM      5  C3  OXE d   1      -0.356  -2.211  -0.919  0.00  0.00     0.003 A 
ATOM      6  C4  OXE d   1       0.864  -2.899  -0.931  0.00  0.00    -0.002 A 
ATOM      7  C5  OXE d   1       2.070  -2.207  -0.776  0.00  0.00    -0.002 A 
ATOM      8  C6  OXE d   1       2.048  -0.826  -0.616  0.00  0.00     0.003 A 
ENDROOT
TORSDOF 0
ENDMDL
