MODEL 1
REMARK minimizedAffinity -0.134811923
REMARK minimizedRMSD -1
REMARK  0 active torsions:
REMARK  status: ('A' for Active; 'I' for Inactive)
ROOT
ATOM      1  C2' OXE d   1       1.702   0.490   0.320  0.00  0.00     0.078 C 
ATOM      2  C1' OXE d   1       0.564  -2.054  -0.014  0.00  0.00     0.078 C 
ATOM      3  C1  OXE d   1       1.815  -1.736  -0.794  0.00  0.00    -0.078 A 
ATOM      4  C2  OXE d   1       2.339  -0.472  -0.660  0.00  0.00    -0.078 A 
ATOM      5  C3  OXE d   1       3.523  -0.144  -1.314  0.00  0.00     0.003 A 
ATOM      6  C4  OXE d   1       4.099  -1.036  -2.226  0.00  0.00    -0.002 A 
ATOM      7  C5  OXE d   1       3.559  -2.314  -2.407  0.00  0.00    -0.002 A 
ATOM      8  C6  OXE d   1       2.444  -2.694  -1.669  0.00  0.00     0.003 A 
ENDROOT
TORSDOF 0
ENDMDL
