MODEL 1
REMARK minimizedAffinity -3.5754745
REMARK minimizedRMSD -1
REMARK  0 active torsions:
REMARK  status: ('A' for Active; 'I' for Inactive)
ROOT
ATOM      1  C2' OXE d   1       0.463   1.144  -0.086  0.00  0.00     0.078 C 
ATOM      2  C1' OXE d   1       0.186  -1.637  -0.352  0.00  0.00     0.078 C 
ATOM      3  C1  OXE d   1       1.553  -1.041  -0.580  0.00  0.00    -0.078 A 
ATOM      4  C2  OXE d   1       1.669   0.326  -0.494  0.00  0.00    -0.078 A 
ATOM      5  C3  OXE d   1       2.918   0.922  -0.642  0.00  0.00     0.003 A 
ATOM      6  C4  OXE d   1       4.027   0.159  -1.028  0.00  0.00    -0.002 A 
ATOM      7  C5  OXE d   1       3.921  -1.230  -1.161  0.00  0.00    -0.002 A 
ATOM      8  C6  OXE d   1       2.704  -1.849  -0.899  0.00  0.00     0.003 A 
ENDROOT
TORSDOF 0
ENDMDL
