MODEL 1
REMARK minimizedAffinity 9.36638641
REMARK minimizedRMSD -1
REMARK  0 active torsions:
REMARK  status: ('A' for Active; 'I' for Inactive)
ROOT
ATOM      1  O1  BZF d   1       2.423  -4.779  -0.308  0.00  0.00    -0.204 OA
ATOM      2  C2  BZF d   1       1.614  -3.738   0.104  0.00  0.00     0.174 A 
ATOM      3  C3  BZF d   1       2.344  -2.627   0.333  0.00  0.00    -0.012 A 
ATOM      4  C3A BZF d   1       3.681  -2.971  -0.043  0.00  0.00    -0.107 A 
ATOM      5  C4  BZF d   1       4.859  -2.280  -0.057  0.00  0.00     0.055 A 
ATOM      6  C5  BZF d   1       6.000  -2.928  -0.411  0.00  0.00    -0.016 A 
ATOM      7  C6  BZF d   1       6.000  -4.265  -0.750  0.00  0.00     0.022 A 
ATOM      8  C7  BZF d   1       4.855  -4.991  -0.755  0.00  0.00     0.029 A 
ATOM      9  C7A BZF d   1       3.695  -4.331  -0.430  0.00  0.00     0.058 A 
ENDROOT
TORSDOF 0
ENDMDL
