MODEL 1
REMARK minimizedAffinity 5.51750946
REMARK minimizedRMSD -1
REMARK  0 active torsions:
REMARK  status: ('A' for Active; 'I' for Inactive)
ROOT
ATOM      1  O1  BZF d   1      -3.660   0.836   2.306  0.00  0.00    -0.204 OA
ATOM      2  C2  BZF d   1      -3.874   1.700   3.362  0.00  0.00     0.174 A 
ATOM      3  C3  BZF d   1      -2.970   1.493   4.341  0.00  0.00    -0.012 A 
ATOM      4  C3A BZF d   1      -2.082   0.495   3.828  0.00  0.00    -0.107 A 
ATOM      5  C4  BZF d   1      -0.969  -0.119   4.329  0.00  0.00     0.055 A 
ATOM      6  C5  BZF d   1      -0.375  -1.103   3.604  0.00  0.00    -0.016 A 
ATOM      7  C6  BZF d   1      -0.869  -1.502   2.380  0.00  0.00     0.022 A 
ATOM      8  C7  BZF d   1      -1.967  -0.919   1.840  0.00  0.00     0.029 A 
ATOM      9  C7A BZF d   1      -2.550   0.099   2.554  0.00  0.00     0.058 A 
ENDROOT
TORSDOF 0
ENDMDL
