MODEL 1
REMARK minimizedAffinity 4.91428328
REMARK minimizedRMSD -1
REMARK  0 active torsions:
REMARK  status: ('A' for Active; 'I' for Inactive)
ROOT
ATOM      1  O1  BZF d   1       5.949   1.976  -2.341  0.00  0.00    -0.204 OA
ATOM      2  C2  BZF d   1       5.917   0.605  -2.170  0.00  0.00     0.174 A 
ATOM      3  C3  BZF d   1       5.954   0.285  -0.861  0.00  0.00    -0.012 A 
ATOM      4  C3A BZF d   1       5.920   1.535  -0.166  0.00  0.00    -0.107 A 
ATOM      5  C4  BZF d   1       5.918   1.875   1.156  0.00  0.00     0.055 A 
ATOM      6  C5  BZF d   1       5.955   3.189   1.501  0.00  0.00    -0.016 A 
ATOM      7  C6  BZF d   1       6.000   4.188   0.551  0.00  0.00     0.022 A 
ATOM      8  C7  BZF d   1       5.999   3.900  -0.774  0.00  0.00     0.029 A 
ATOM      9  C7A BZF d   1       5.928   2.575  -1.126  0.00  0.00     0.058 A 
ENDROOT
TORSDOF 0
ENDMDL
