MODEL 1
REMARK minimizedAffinity 7.67931843
REMARK minimizedRMSD -1
REMARK  0 active torsions:
REMARK  status: ('A' for Active; 'I' for Inactive)
ROOT
ATOM      1  O1  BZF d   1      -3.496   0.312   1.865  0.00  0.00    -0.204 OA
ATOM      2  C2  BZF d   1      -3.788   1.154   2.921  0.00  0.00     0.174 A 
ATOM      3  C3  BZF d   1      -2.875   1.021   3.904  0.00  0.00    -0.012 A 
ATOM      4  C3A BZF d   1      -1.903   0.103   3.394  0.00  0.00    -0.107 A 
ATOM      5  C4  BZF d   1      -0.745  -0.415   3.900  0.00  0.00     0.055 A 
ATOM      6  C5  BZF d   1      -0.066  -1.344   3.177  0.00  0.00    -0.016 A 
ATOM      7  C6  BZF d   1      -0.518  -1.780   1.949  0.00  0.00     0.022 A 
ATOM      8  C7  BZF d   1      -1.659  -1.292   1.404  0.00  0.00     0.029 A 
ATOM      9  C7A BZF d   1      -2.330  -0.329   2.117  0.00  0.00     0.058 A 
ENDROOT
TORSDOF 0
ENDMDL
