MODEL 1
REMARK minimizedAffinity 10.4188547
REMARK minimizedRMSD -1
REMARK  0 active torsions:
REMARK  status: ('A' for Active; 'I' for Inactive)
ROOT
ATOM      1  O1  BZF d   1       1.024  -2.245   1.378  0.00  0.00    -0.204 OA
ATOM      2  C2  BZF d   1       1.679  -3.276   0.733  0.00  0.00     0.174 A 
ATOM      3  C3  BZF d   1       2.683  -3.756   1.495  0.00  0.00    -0.012 A 
ATOM      4  C3A BZF d   1       2.596  -3.038   2.729  0.00  0.00    -0.107 A 
ATOM      5  C4  BZF d   1       3.311  -3.078   3.892  0.00  0.00     0.055 A 
ATOM      6  C5  BZF d   1       3.016  -2.193   4.880  0.00  0.00    -0.016 A 
ATOM      7  C6  BZF d   1       2.016  -1.253   4.738  0.00  0.00     0.022 A 
ATOM      8  C7  BZF d   1       1.276  -1.177   3.605  0.00  0.00     0.029 A 
ATOM      9  C7A BZF d   1       1.550  -2.092   2.617  0.00  0.00     0.058 A 
ENDROOT
TORSDOF 0
ENDMDL
