MODEL 1
REMARK minimizedAffinity 4.95280981
REMARK minimizedRMSD -1
REMARK  0 active torsions:
REMARK  status: ('A' for Active; 'I' for Inactive)
ROOT
ATOM      1  O1  BZF d   1       5.946   2.605   0.352  0.00  0.00    -0.204 OA
ATOM      2  C2  BZF d   1       5.943   2.932   1.694  0.00  0.00     0.174 A 
ATOM      3  C3  BZF d   1       5.907   1.820   2.457  0.00  0.00    -0.012 A 
ATOM      4  C3A BZF d   1       5.979   0.728   1.535  0.00  0.00    -0.107 A 
ATOM      5  C4  BZF d   1       6.000  -0.629   1.687  0.00  0.00     0.055 A 
ATOM      6  C5  BZF d   1       6.000  -1.417   0.580  0.00  0.00    -0.016 A 
ATOM      7  C6  BZF d   1       5.974  -0.883  -0.692  0.00  0.00     0.022 A 
ATOM      8  C7  BZF d   1       5.959   0.458  -0.893  0.00  0.00     0.029 A 
ATOM      9  C7A BZF d   1       5.991   1.257   0.224  0.00  0.00     0.058 A 
ENDROOT
TORSDOF 0
ENDMDL
