MODEL 1
REMARK minimizedAffinity 7.57100964
REMARK minimizedRMSD -1
REMARK  0 active torsions:
REMARK  status: ('A' for Active; 'I' for Inactive)
ROOT
ATOM      1  O1  BZF d   1      -1.545   0.430   3.417  0.00  0.00    -0.204 OA
ATOM      2  C2  BZF d   1      -2.614  -0.335   2.990  0.00  0.00     0.174 A 
ATOM      3  C3  BZF d   1      -2.186  -1.414   2.304  0.00  0.00    -0.012 A 
ATOM      4  C3A BZF d   1      -0.758  -1.367   2.380  0.00  0.00    -0.107 A 
ATOM      5  C4  BZF d   1       0.235  -2.175   1.905  0.00  0.00     0.055 A 
ATOM      6  C5  BZF d   1       1.531  -1.808   2.090  0.00  0.00    -0.016 A 
ATOM      7  C6  BZF d   1       1.869  -0.639   2.739  0.00  0.00     0.022 A 
ATOM      8  C7  BZF d   1       0.919   0.192   3.232  0.00  0.00     0.029 A 
ATOM      9  C7A BZF d   1      -0.391  -0.192   3.076  0.00  0.00     0.058 A 
ENDROOT
TORSDOF 0
ENDMDL
