MODEL 1
REMARK minimizedAffinity -0.48209855
REMARK minimizedRMSD -1
REMARK  0 active torsions:
REMARK  status: ('A' for Active; 'I' for Inactive)
ROOT
ATOM      1  O1  BZF d   1       3.382  -1.627   0.386  0.00  0.00    -0.204 OA
ATOM      2  C2  BZF d   1       2.001  -1.652   0.357  0.00  0.00     0.174 A 
ATOM      3  C3  BZF d   1       1.538  -2.880   0.670  0.00  0.00    -0.012 A 
ATOM      4  C3A BZF d   1       2.700  -3.647   1.000  0.00  0.00    -0.107 A 
ATOM      5  C4  BZF d   1       2.890  -4.936   1.408  0.00  0.00     0.055 A 
ATOM      6  C5  BZF d   1       4.157  -5.397   1.575  0.00  0.00    -0.016 A 
ATOM      7  C6  BZF d   1       5.257  -4.598   1.340  0.00  0.00     0.022 A 
ATOM      8  C7  BZF d   1       5.119  -3.310   0.939  0.00  0.00     0.029 A 
ATOM      9  C7A BZF d   1       3.839  -2.832   0.801  0.00  0.00     0.058 A 
ENDROOT
TORSDOF 0
ENDMDL
