MODEL 1
REMARK minimizedAffinity 13.2489986
REMARK minimizedRMSD -1
REMARK  0 active torsions:
REMARK  status: ('A' for Active; 'I' for Inactive)
ROOT
ATOM      1  O1  BZF d   1       3.896   0.338   0.506  0.00  0.00    -0.204 OA
ATOM      2  C2  BZF d   1       5.236   0.207   0.198  0.00  0.00     0.174 A 
ATOM      3  C3  BZF d   1       5.649  -1.063   0.388  0.00  0.00    -0.012 A 
ATOM      4  C3A BZF d   1       4.472  -1.790   0.755  0.00  0.00    -0.107 A 
ATOM      5  C4  BZF d   1       4.234  -3.100   1.057  0.00  0.00     0.055 A 
ATOM      6  C5  BZF d   1       2.986  -3.472   1.446  0.00  0.00    -0.016 A 
ATOM      7  C6  BZF d   1       1.956  -2.561   1.548  0.00  0.00     0.022 A 
ATOM      8  C7  BZF d   1       2.142  -1.251   1.253  0.00  0.00     0.029 A 
ATOM      9  C7A BZF d   1       3.394  -0.878   0.829  0.00  0.00     0.058 A 
ENDROOT
TORSDOF 0
ENDMDL
