MODEL 1
REMARK minimizedAffinity 6.28920794
REMARK minimizedRMSD -1
REMARK  0 active torsions:
REMARK  status: ('A' for Active; 'I' for Inactive)
ROOT
ATOM      1  O1  BZF d   1       2.812  -3.562   0.674  0.00  0.00    -0.204 OA
ATOM      2  C2  BZF d   1       2.868  -4.439   1.741  0.00  0.00     0.174 A 
ATOM      3  C3  BZF d   1       2.046  -4.038   2.732  0.00  0.00    -0.012 A 
ATOM      4  C3A BZF d   1       1.370  -2.886   2.219  0.00  0.00    -0.107 A 
ATOM      5  C4  BZF d   1       0.417  -2.052   2.729  0.00  0.00     0.055 A 
ATOM      6  C5  BZF d   1       0.021  -0.976   1.998  0.00  0.00    -0.016 A 
ATOM      7  C6  BZF d   1       0.560  -0.703   0.758  0.00  0.00     0.022 A 
ATOM      8  C7  BZF d   1       1.504  -1.505   0.208  0.00  0.00     0.029 A 
ATOM      9  C7A BZF d   1       1.882  -2.611   0.930  0.00  0.00     0.058 A 
ENDROOT
TORSDOF 0
ENDMDL
