MODEL 1
REMARK minimizedAffinity 11.3757915
REMARK minimizedRMSD -1
REMARK  0 active torsions:
REMARK  status: ('A' for Active; 'I' for Inactive)
ROOT
ATOM      1  O1  BZF d   1       0.675  -1.500  -1.407  0.00  0.00    -0.204 OA
ATOM      2  C2  BZF d   1      -0.414  -0.652  -1.449  0.00  0.00     0.174 A 
ATOM      3  C3  BZF d   1      -0.932  -0.476  -0.216  0.00  0.00    -0.012 A 
ATOM      4  C3A BZF d   1      -0.059  -1.191   0.664  0.00  0.00    -0.107 A 
ATOM      5  C4  BZF d   1      -0.037  -1.380   2.016  0.00  0.00     0.055 A 
ATOM      6  C5  BZF d   1       0.909  -2.193   2.554  0.00  0.00    -0.016 A 
ATOM      7  C6  BZF d   1       1.844  -2.837   1.771  0.00  0.00     0.022 A 
ATOM      8  C7  BZF d   1       1.866  -2.677   0.425  0.00  0.00     0.029 A 
ATOM      9  C7A BZF d   1       0.931  -1.830  -0.118  0.00  0.00     0.058 A 
ENDROOT
TORSDOF 0
ENDMDL
