MODEL 1
REMARK minimizedAffinity -1.64124846
REMARK minimizedRMSD -1
REMARK  1 active torsions:
REMARK  status: ('A' for Active; 'I' for Inactive)
REMARK    1  A    between atoms: N_2  and  C1_3 
ROOT
ATOM      1  C1  UNL d   1       0.616  -0.537  -2.170  0.00  0.00     0.143 A 
ATOM      2  C2  UNL d   1      -0.042  -0.120  -3.332  0.00  0.00    -0.057 A 
ATOM      3  C3  UNL d   1       0.621   0.627  -4.313  0.00  0.00     0.033 A 
ATOM      4  C4  UNL d   1       1.950   0.998  -4.134  0.00  0.00    -0.042 A 
ATOM      5  C5  UNL d   1       2.616   0.616  -2.975  0.00  0.00     0.033 A 
ATOM      6  C6  UNL d   1       1.951  -0.136  -2.002  0.00  0.00    -0.057 A 
ENDROOT
BRANCH   1   7
ATOM      7  N   UNL d   1      -0.016  -1.197  -1.113  0.00  0.00    -0.732 N 
ATOM      8  C   UNL d   1      -1.122  -0.579  -0.413  0.00  0.00     0.284 C 
ATOM      9  H3  UNL d   1      -0.143  -2.190  -1.296  0.00  0.00     0.395 HD
ENDBRANCH   1   7
TORSDOF 1
ENDMDL
