MODEL 1
REMARK minimizedAffinity -4.57967997
REMARK minimizedRMSD -1
REMARK  1 active torsions:
REMARK  status: ('A' for Active; 'I' for Inactive)
REMARK    1  A    between atoms: N_2  and  C1_3 
ROOT
ATOM      1  C1  UNL d   1       0.114   0.202  -0.315  0.00  0.00     0.143 A 
ATOM      2  C2  UNL d   1      -1.206   0.414   0.096  0.00  0.00    -0.057 A 
ATOM      3  C3  UNL d   1      -1.503   0.828   1.401  0.00  0.00     0.033 A 
ATOM      4  C4  UNL d   1      -0.482   1.009   2.328  0.00  0.00    -0.042 A 
ATOM      5  C5  UNL d   1       0.835   0.779   1.949  0.00  0.00     0.033 A 
ATOM      6  C6  UNL d   1       1.126   0.373   0.643  0.00  0.00    -0.057 A 
ENDROOT
BRANCH   1   7
ATOM      7  N   UNL d   1       0.466  -0.305  -1.568  0.00  0.00    -0.732 N 
ATOM      8  C   UNL d   1       1.279   0.475  -2.476  0.00  0.00     0.284 C 
ATOM      9  H3  UNL d   1       0.711  -1.292  -1.534  0.00  0.00     0.395 HD
ENDBRANCH   1   7
TORSDOF 1
ENDMDL
