MODEL 1
REMARK minimizedAffinity -3.14861441
REMARK minimizedRMSD -1
REMARK  1 active torsions:
REMARK  status: ('A' for Active; 'I' for Inactive)
REMARK    1  A    between atoms: N_2  and  C1_3 
ROOT
ATOM      1  C1  UNL d   1      -0.094  -0.005   0.129  0.00  0.00     0.143 A 
ATOM      2  C2  UNL d   1      -1.358  -0.260   0.670  0.00  0.00    -0.057 A 
ATOM      3  C3  UNL d   1      -1.779   0.357   1.854  0.00  0.00     0.033 A 
ATOM      4  C4  UNL d   1      -0.929   1.221   2.536  0.00  0.00    -0.042 A 
ATOM      5  C5  UNL d   1       0.342   1.471   2.029  0.00  0.00     0.033 A 
ATOM      6  C6  UNL d   1       0.754   0.857   0.843  0.00  0.00    -0.057 A 
ENDROOT
BRANCH   1   7
ATOM      7  N   UNL d   1       0.420  -0.662  -0.992  0.00  0.00    -0.732 N 
ATOM      8  C   UNL d   1       1.123   0.074  -2.021  0.00  0.00     0.284 C 
ATOM      9  H3  UNL d   1       0.844  -1.556  -0.757  0.00  0.00     0.395 HD
ENDBRANCH   1   7
TORSDOF 1
ENDMDL
