MODEL 1
REMARK minimizedAffinity -4.29478121
REMARK minimizedRMSD -1
REMARK  1 active torsions:
REMARK  status: ('A' for Active; 'I' for Inactive)
REMARK    1  A    between atoms: N_2  and  C1_3 
ROOT
ATOM      1  C1  UNL d   1      -0.228  -0.686  -0.219  0.00  0.00     0.143 A 
ATOM      2  C2  UNL d   1       0.039  -0.723   1.153  0.00  0.00    -0.057 A 
ATOM      3  C3  UNL d   1      -0.865  -0.195   2.083  0.00  0.00     0.033 A 
ATOM      4  C4  UNL d   1      -2.042   0.408   1.653  0.00  0.00    -0.042 A 
ATOM      5  C5  UNL d   1      -2.317   0.478   0.292  0.00  0.00     0.033 A 
ATOM      6  C6  UNL d   1      -1.414  -0.058  -0.632  0.00  0.00    -0.057 A 
ENDROOT
BRANCH   1   7
ATOM      7  N   UNL d   1       0.675  -1.106  -1.199  0.00  0.00    -0.732 N 
ATOM      8  C   UNL d   1       0.890  -0.314  -2.391  0.00  0.00     0.284 C 
ATOM      9  H3  UNL d   1       1.526  -1.498  -0.801  0.00  0.00     0.395 HD
ENDBRANCH   1   7
TORSDOF 1
ENDMDL
