MODEL 1
REMARK minimizedAffinity 3.69931364
REMARK minimizedRMSD -1
REMARK  2 active torsions:
REMARK  status: ('A' for Active; 'I' for Inactive)
REMARK    1  A    between atoms: C1_2  and  C2_3 
REMARK    2  A    between atoms: C2_3  and  C3_4 
ROOT
ATOM      1  C3  UNL d   1      -5.253   1.613   0.437  0.00  0.00    -0.075 A 
ATOM      2  C4  UNL d   1      -4.103   2.210   0.973  0.00  0.00     0.002 A 
ATOM      3  C5  UNL d   1      -3.617   1.818   2.221  0.00  0.00     0.002 A 
ATOM      4  C6  UNL d   1      -4.279   0.834   2.952  0.00  0.00    -0.004 A 
ATOM      5  C7  UNL d   1      -5.432   0.246   2.437  0.00  0.00     0.002 A 
ATOM      6  C8  UNL d   1      -5.918   0.633   1.187  0.00  0.00     0.002 A 
ENDROOT
BRANCH   1   7
ATOM      7  C2  UNL d   1      -5.767   2.012  -0.925  0.00  0.00     0.056 C 
BRANCH   7   8
ATOM      8  C1  UNL d   1      -5.098   3.264  -1.503  0.00  0.00     0.007 C 
ATOM      9  C   UNL d   1      -5.268   3.394  -3.010  0.00  0.00     0.009 C 
ENDBRANCH   7   8
ENDBRANCH   1   7
TORSDOF 2
ENDMDL
