MODEL 1
REMARK minimizedAffinity -0.416404337
REMARK minimizedRMSD -1
REMARK  2 active torsions:
REMARK  status: ('A' for Active; 'I' for Inactive)
REMARK    1  A    between atoms: C1_2  and  C2_3 
REMARK    2  A    between atoms: C2_3  and  C3_4 
ROOT
ATOM      1  C3  UNL d   1      -5.853   1.736  -4.111  0.00  0.00    -0.075 A 
ATOM      2  C4  UNL d   1      -5.970   1.832  -2.716  0.00  0.00     0.002 A 
ATOM      3  C5  UNL d   1      -5.862   3.068  -2.079  0.00  0.00     0.002 A 
ATOM      4  C6  UNL d   1      -5.626   4.221  -2.825  0.00  0.00    -0.004 A 
ATOM      5  C7  UNL d   1      -5.491   4.136  -4.209  0.00  0.00     0.002 A 
ATOM      6  C8  UNL d   1      -5.603   2.901  -4.849  0.00  0.00     0.002 A 
ENDROOT
BRANCH   1   7
ATOM      7  C2  UNL d   1      -5.999   0.406  -4.809  0.00  0.00     0.056 C 
BRANCH   7   8
ATOM      8  C1  UNL d   1      -5.053   0.219  -5.999  0.00  0.00     0.007 C 
ATOM      9  C   UNL d   1      -3.689  -0.332  -5.602  0.00  0.00     0.009 C 
ENDBRANCH   7   8
ENDBRANCH   1   7
TORSDOF 2
ENDMDL
