MODEL 1
REMARK minimizedAffinity 7.36617231
REMARK minimizedRMSD -1
REMARK  2 active torsions:
REMARK  status: ('A' for Active; 'I' for Inactive)
REMARK    1  A    between atoms: C1_2  and  C2_3 
REMARK    2  A    between atoms: C2_3  and  C3_4 
ROOT
ATOM      1  C3  UNL d   1      -5.626   1.531  -4.043  0.00  0.00    -0.075 A 
ATOM      2  C4  UNL d   1      -5.157   2.610  -4.805  0.00  0.00     0.002 A 
ATOM      3  C5  UNL d   1      -4.846   3.826  -4.195  0.00  0.00     0.002 A 
ATOM      4  C6  UNL d   1      -5.009   3.981  -2.820  0.00  0.00    -0.004 A 
ATOM      5  C7  UNL d   1      -5.490   2.920  -2.056  0.00  0.00     0.002 A 
ATOM      6  C8  UNL d   1      -5.798   1.701  -2.663  0.00  0.00     0.002 A 
ENDROOT
BRANCH   1   7
ATOM      7  C2  UNL d   1      -5.936   0.203  -4.693  0.00  0.00     0.056 C 
BRANCH   7   8
ATOM      8  C1  UNL d   1      -5.174  -0.045  -5.999  0.00  0.00     0.007 C 
ATOM      9  C   UNL d   1      -3.712  -0.411  -5.781  0.00  0.00     0.009 C 
ENDBRANCH   7   8
ENDBRANCH   1   7
TORSDOF 2
ENDMDL
