MODEL 1
REMARK minimizedAffinity 3.97910881
REMARK minimizedRMSD -1
REMARK  2 active torsions:
REMARK  status: ('A' for Active; 'I' for Inactive)
REMARK    1  A    between atoms: C1_2  and  C2_3 
REMARK    2  A    between atoms: C2_3  and  C3_4 
ROOT
ATOM      1  C3  UNL d   1       2.078  -2.917  -0.148  0.00  0.00    -0.075 A 
ATOM      2  C4  UNL d   1       1.918  -4.283  -0.421  0.00  0.00     0.002 A 
ATOM      3  C5  UNL d   1       0.745  -4.755  -1.012  0.00  0.00     0.002 A 
ATOM      4  C6  UNL d   1      -0.285  -3.871  -1.326  0.00  0.00    -0.004 A 
ATOM      5  C7  UNL d   1      -0.144  -2.514  -1.043  0.00  0.00     0.002 A 
ATOM      6  C8  UNL d   1       1.030  -2.039  -0.456  0.00  0.00     0.002 A 
ENDROOT
BRANCH   1   7
ATOM      7  C2  UNL d   1       3.356  -2.396   0.464  0.00  0.00     0.056 C 
BRANCH   7   8
ATOM      8  C1  UNL d   1       4.505  -2.234  -0.537  0.00  0.00     0.007 C 
ATOM      9  C   UNL d   1       5.426  -3.445  -0.594  0.00  0.00     0.009 C 
ENDBRANCH   7   8
ENDBRANCH   1   7
TORSDOF 2
ENDMDL
