MODEL 1
REMARK minimizedAffinity -4.61496019
REMARK minimizedRMSD -1
REMARK  0 active torsions:
REMARK  status: ('A' for Active; 'I' for Inactive)
ROOT
ATOM      1  C   UNL d   1      -1.235   0.038   1.064  0.00  0.00     0.078 C 
ATOM      2  C1  UNL d   1      -0.215   0.201  -0.023  0.00  0.00    -0.077 A 
ATOM      3  C2  UNL d   1       0.504   1.395  -0.164  0.00  0.00    -0.001 A 
ATOM      4  C3  UNL d   1       1.444   1.536  -1.186  0.00  0.00     0.003 A 
ATOM      5  C4  UNL d   1       1.673   0.488  -2.075  0.00  0.00    -0.005 A 
ATOM      6  C5  UNL d   1       0.961  -0.702  -1.944  0.00  0.00     0.003 A 
ATOM      7  C6  UNL d   1       0.020  -0.845  -0.923  0.00  0.00    -0.001 A 
ENDROOT
TORSDOF 0
ENDMDL
