MODEL 1
REMARK minimizedAffinity -5.71572113
REMARK minimizedRMSD -1
REMARK  0 active torsions:
REMARK  status: ('A' for Active; 'I' for Inactive)
ROOT
ATOM      1  C   UNL d   1      -0.609  -0.426   0.524  0.00  0.00     0.078 C 
ATOM      2  C1  UNL d   1       0.345  -0.634  -0.614  0.00  0.00    -0.077 A 
ATOM      3  C2  UNL d   1       0.893  -1.896  -0.874  0.00  0.00    -0.001 A 
ATOM      4  C3  UNL d   1       1.787  -2.074  -1.931  0.00  0.00     0.003 A 
ATOM      5  C4  UNL d   1       2.143  -0.993  -2.735  0.00  0.00    -0.005 A 
ATOM      6  C5  UNL d   1       1.605   0.268  -2.483  0.00  0.00     0.003 A 
ATOM      7  C6  UNL d   1       0.711   0.447  -1.426  0.00  0.00    -0.001 A 
ENDROOT
TORSDOF 0
ENDMDL
