MODEL 1
REMARK minimizedAffinity -4.60953712
REMARK minimizedRMSD -1
REMARK  0 active torsions:
REMARK  status: ('A' for Active; 'I' for Inactive)
ROOT
ATOM      1  C   UNL d   1       1.871  -0.005  -2.586  0.00  0.00     0.078 C 
ATOM      2  C1  UNL d   1       0.745   0.226  -1.623  0.00  0.00    -0.077 A 
ATOM      3  C2  UNL d   1       0.498  -0.669  -0.574  0.00  0.00    -0.001 A 
ATOM      4  C3  UNL d   1      -0.560  -0.446   0.309  0.00  0.00     0.003 A 
ATOM      5  C4  UNL d   1      -1.380   0.669   0.151  0.00  0.00    -0.005 A 
ATOM      6  C5  UNL d   1      -1.144   1.563  -0.891  0.00  0.00     0.003 A 
ATOM      7  C6  UNL d   1      -0.086   1.343  -1.775  0.00  0.00    -0.001 A 
ENDROOT
TORSDOF 0
ENDMDL
