MODEL 1
REMARK minimizedAffinity -2.92283607
REMARK minimizedRMSD -1
REMARK  0 active torsions:
REMARK  status: ('A' for Active; 'I' for Inactive)
ROOT
ATOM      1  C   UNL d   1      -0.597  -0.279   1.324  0.00  0.00     0.078 C 
ATOM      2  C1  UNL d   1       0.092  -0.064   0.009  0.00  0.00    -0.077 A 
ATOM      3  C2  UNL d   1       0.187  -1.096  -0.932  0.00  0.00    -0.001 A 
ATOM      4  C3  UNL d   1       0.840  -0.885  -2.148  0.00  0.00     0.003 A 
ATOM      5  C4  UNL d   1       1.404   0.357  -2.432  0.00  0.00    -0.005 A 
ATOM      6  C5  UNL d   1       1.316   1.389  -1.501  0.00  0.00     0.003 A 
ATOM      7  C6  UNL d   1       0.664   1.180  -0.285  0.00  0.00    -0.001 A 
ENDROOT
TORSDOF 0
ENDMDL
