MODEL 1
REMARK minimizedAffinity -4.93362808
REMARK minimizedRMSD -1
REMARK  0 active torsions:
REMARK  status: ('A' for Active; 'I' for Inactive)
ROOT
ATOM      1  C   UNL d   1       1.428   0.516  -1.812  0.00  0.00     0.078 C 
ATOM      2  C1  UNL d   1       0.466   0.339  -0.675  0.00  0.00    -0.077 A 
ATOM      3  C2  UNL d   1       0.813  -0.414   0.453  0.00  0.00    -0.001 A 
ATOM      4  C3  UNL d   1      -0.096  -0.578   1.499  0.00  0.00     0.003 A 
ATOM      5  C4  UNL d   1      -1.359   0.006   1.427  0.00  0.00    -0.005 A 
ATOM      6  C5  UNL d   1      -1.715   0.754   0.307  0.00  0.00     0.003 A 
ATOM      7  C6  UNL d   1      -0.807   0.920  -0.740  0.00  0.00    -0.001 A 
ENDROOT
TORSDOF 0
ENDMDL
