MODEL 1
REMARK minimizedAffinity -4.81199169
REMARK minimizedRMSD -1
REMARK  0 active torsions:
REMARK  status: ('A' for Active; 'I' for Inactive)
ROOT
ATOM      1  C   UNL d   1       0.141   0.395  -0.815  0.00  0.00     0.078 C 
ATOM      2  C1  UNL d   1      -0.942   0.433   0.222  0.00  0.00    -0.077 A 
ATOM      3  C2  UNL d   1      -2.208   0.952  -0.076  0.00  0.00    -0.001 A 
ATOM      4  C3  UNL d   1      -3.203   0.990   0.901  0.00  0.00     0.003 A 
ATOM      5  C4  UNL d   1      -2.943   0.512   2.184  0.00  0.00    -0.005 A 
ATOM      6  C5  UNL d   1      -1.685  -0.003   2.491  0.00  0.00     0.003 A 
ATOM      7  C6  UNL d   1      -0.689  -0.042   1.515  0.00  0.00    -0.001 A 
ENDROOT
TORSDOF 0
ENDMDL
