MODEL 1
REMARK minimizedAffinity -4.24591255
REMARK minimizedRMSD -1
REMARK  0 active torsions:
REMARK  status: ('A' for Active; 'I' for Inactive)
ROOT
ATOM      1  C   UNL d   1      -2.139   0.096   0.977  0.00  0.00     0.078 C 
ATOM      2  C1  UNL d   1      -0.787   0.194   0.336  0.00  0.00    -0.077 A 
ATOM      3  C2  UNL d   1       0.128   1.179   0.729  0.00  0.00    -0.001 A 
ATOM      4  C3  UNL d   1       1.379   1.264   0.117  0.00  0.00     0.003 A 
ATOM      5  C4  UNL d   1       1.727   0.369  -0.892  0.00  0.00    -0.005 A 
ATOM      6  C5  UNL d   1       0.823  -0.614  -1.291  0.00  0.00     0.003 A 
ATOM      7  C6  UNL d   1      -0.429  -0.701  -0.680  0.00  0.00    -0.001 A 
ENDROOT
TORSDOF 0
ENDMDL
