MODEL 1
REMARK minimizedAffinity -4.18486452
REMARK minimizedRMSD -1
REMARK  0 active torsions:
REMARK  status: ('A' for Active; 'I' for Inactive)
ROOT
ATOM      1  C   UNL d   1       2.011  -0.348  -2.665  0.00  0.00     0.078 C 
ATOM      2  C1  UNL d   1       1.316  -0.088  -1.362  0.00  0.00    -0.077 A 
ATOM      3  C2  UNL d   1       0.447  -1.034  -0.807  0.00  0.00    -0.001 A 
ATOM      4  C3  UNL d   1      -0.200  -0.775   0.402  0.00  0.00     0.003 A 
ATOM      5  C4  UNL d   1       0.014   0.432   1.065  0.00  0.00    -0.005 A 
ATOM      6  C5  UNL d   1       0.875   1.381   0.519  0.00  0.00     0.003 A 
ATOM      7  C6  UNL d   1       1.524   1.123  -0.690  0.00  0.00    -0.001 A 
ENDROOT
TORSDOF 0
ENDMDL
