MODEL 1
REMARK minimizedAffinity -0.815005779
REMARK minimizedRMSD -1
REMARK  0 active torsions:
REMARK  status: ('A' for Active; 'I' for Inactive)
ROOT
ATOM      1  C   UNL d   1       2.506   0.491  -2.193  0.00  0.00     0.078 C 
ATOM      2  C1  UNL d   1       1.508   0.120  -1.137  0.00  0.00    -0.077 A 
ATOM      3  C2  UNL d   1       0.888   1.101  -0.354  0.00  0.00    -0.001 A 
ATOM      4  C3  UNL d   1      -0.032   0.740   0.632  0.00  0.00     0.003 A 
ATOM      5  C4  UNL d   1      -0.339  -0.602   0.844  0.00  0.00    -0.005 A 
ATOM      6  C5  UNL d   1       0.274  -1.586   0.071  0.00  0.00     0.003 A 
ATOM      7  C6  UNL d   1       1.195  -1.227  -0.915  0.00  0.00    -0.001 A 
ENDROOT
TORSDOF 0
ENDMDL
