MODEL 1
REMARK minimizedAffinity -5.1509099
REMARK minimizedRMSD -1
REMARK  0 active torsions:
REMARK  status: ('A' for Active; 'I' for Inactive)
ROOT
ATOM      1  C   UNL d   1       0.706   2.226   1.217  0.00  0.00     0.078 C 
ATOM      2  C1  UNL d   1       0.740   0.913   0.493  0.00  0.00    -0.077 A 
ATOM      3  C2  UNL d   1       1.122   0.841  -0.852  0.00  0.00    -0.001 A 
ATOM      4  C3  UNL d   1       1.140  -0.386  -1.516  0.00  0.00     0.003 A 
ATOM      5  C4  UNL d   1       0.776  -1.551  -0.844  0.00  0.00    -0.005 A 
ATOM      6  C5  UNL d   1       0.392  -1.489   0.494  0.00  0.00     0.003 A 
ATOM      7  C6  UNL d   1       0.373  -0.263   1.160  0.00  0.00    -0.001 A 
ENDROOT
TORSDOF 0
ENDMDL
