MODEL 1
REMARK minimizedAffinity -5.13230419
REMARK minimizedRMSD -1
REMARK  0 active torsions:
REMARK  status: ('A' for Active; 'I' for Inactive)
ROOT
ATOM      1  C   UNL d   1      -1.205   0.409   1.023  0.00  0.00     0.078 C 
ATOM      2  C1  UNL d   1      -0.196   0.289  -0.080  0.00  0.00    -0.077 A 
ATOM      3  C2  UNL d   1       0.811   1.249  -0.243  0.00  0.00    -0.001 A 
ATOM      4  C3  UNL d   1       1.738   1.131  -1.280  0.00  0.00     0.003 A 
ATOM      5  C4  UNL d   1       1.667   0.054  -2.162  0.00  0.00    -0.005 A 
ATOM      6  C5  UNL d   1       0.668  -0.904  -2.009  0.00  0.00     0.003 A 
ATOM      7  C6  UNL d   1      -0.260  -0.788  -0.972  0.00  0.00    -0.001 A 
ENDROOT
TORSDOF 0
ENDMDL
