MODEL 1
REMARK minimizedAffinity -4.76691961
REMARK minimizedRMSD -1
REMARK  0 active torsions:
REMARK  status: ('A' for Active; 'I' for Inactive)
ROOT
ATOM      1  C   UNL d   1      -0.997   0.144   0.682  0.00  0.00     0.078 C 
ATOM      2  C1  UNL d   1       0.109   0.087  -0.329  0.00  0.00    -0.077 A 
ATOM      3  C2  UNL d   1       0.631   1.258  -0.893  0.00  0.00    -0.001 A 
ATOM      4  C3  UNL d   1       1.654   1.190  -1.840  0.00  0.00     0.003 A 
ATOM      5  C4  UNL d   1       2.164  -0.047  -2.232  0.00  0.00    -0.005 A 
ATOM      6  C5  UNL d   1       1.650  -1.217  -1.677  0.00  0.00     0.003 A 
ATOM      7  C6  UNL d   1       0.626  -1.151  -0.730  0.00  0.00    -0.001 A 
ENDROOT
TORSDOF 0
ENDMDL
