MODEL 1
REMARK minimizedAffinity 14.7001181
REMARK minimizedRMSD -1
REMARK  1 active torsions:
REMARK  status: ('A' for Active; 'I' for Inactive)
REMARK    1  A    between atoms: C1_2  and  C2_3 
ROOT
ATOM      1  C2  UNL d   1       1.884  -0.599  -3.584  0.00  0.00    -0.077 A 
ATOM      2  C3  UNL d   1       0.749  -1.411  -3.449  0.00  0.00     0.002 A 
ATOM      3  C4  UNL d   1       0.372  -1.895  -2.194  0.00  0.00     0.002 A 
ATOM      4  C5  UNL d   1       1.121  -1.569  -1.066  0.00  0.00    -0.004 A 
ATOM      5  C6  UNL d   1       2.253  -0.764  -1.190  0.00  0.00     0.002 A 
ATOM      6  C7  UNL d   1       2.632  -0.281  -2.443  0.00  0.00     0.002 A 
ENDROOT
BRANCH   1   7
ATOM      7  C1  UNL d   1       2.264  -0.035  -4.928  0.00  0.00     0.055 C 
ATOM      8  C   UNL d   1       2.267  -1.116  -6.000  0.00  0.00     0.019 C 
ENDBRANCH   1   7
TORSDOF 1
ENDMDL
