MODEL 1
REMARK minimizedAffinity 11.7254353
REMARK minimizedRMSD -1
REMARK  1 active torsions:
REMARK  status: ('A' for Active; 'I' for Inactive)
REMARK    1  A    between atoms: C1_2  and  C2_3 
ROOT
ATOM      1  C2  UNL d   1       0.854  -2.854  -2.463  0.00  0.00    -0.077 A 
ATOM      2  C3  UNL d   1       0.893  -1.459  -2.601  0.00  0.00     0.002 A 
ATOM      3  C4  UNL d   1       1.549  -0.674  -1.650  0.00  0.00     0.002 A 
ATOM      4  C5  UNL d   1       2.173  -1.274  -0.559  0.00  0.00    -0.004 A 
ATOM      5  C6  UNL d   1       2.138  -2.660  -0.412  0.00  0.00     0.002 A 
ATOM      6  C7  UNL d   1       1.482  -3.447  -1.360  0.00  0.00     0.002 A 
ENDROOT
BRANCH   1   7
ATOM      7  C1  UNL d   1       0.190  -3.706  -3.512  0.00  0.00     0.055 C 
ATOM      8  C   UNL d   1      -1.101  -4.321  -2.991  0.00  0.00     0.019 C 
ENDBRANCH   1   7
TORSDOF 1
ENDMDL
