MODEL 1
REMARK minimizedAffinity 13.2083912
REMARK minimizedRMSD -1
REMARK  1 active torsions:
REMARK  status: ('A' for Active; 'I' for Inactive)
REMARK    1  A    between atoms: C1_2  and  C2_3 
ROOT
ATOM      1  C2  UNL d   1      -3.453  -3.843  -3.692  0.00  0.00    -0.077 A 
ATOM      2  C3  UNL d   1      -2.517  -2.804  -3.795  0.00  0.00     0.002 A 
ATOM      3  C4  UNL d   1      -1.309  -2.870  -3.098  0.00  0.00     0.002 A 
ATOM      4  C5  UNL d   1      -1.023  -3.974  -2.298  0.00  0.00    -0.004 A 
ATOM      5  C6  UNL d   1      -1.948  -5.012  -2.188  0.00  0.00     0.002 A 
ATOM      6  C7  UNL d   1      -3.157  -4.947  -2.882  0.00  0.00     0.002 A 
ENDROOT
BRANCH   1   7
ATOM      7  C1  UNL d   1      -4.735  -3.796  -4.481  0.00  0.00     0.055 C 
ATOM      8  C   UNL d   1      -4.712  -4.789  -5.634  0.00  0.00     0.019 C 
ENDBRANCH   1   7
TORSDOF 1
ENDMDL
