MODEL 1
REMARK minimizedAffinity 13.8966818
REMARK minimizedRMSD -1
REMARK  1 active torsions:
REMARK  status: ('A' for Active; 'I' for Inactive)
REMARK    1  A    between atoms: C1_2  and  C2_3 
ROOT
ATOM      1  C2  UNL d   1      -3.491   1.141   3.730  0.00  0.00    -0.077 A 
ATOM      2  C3  UNL d   1      -4.467   2.106   3.447  0.00  0.00     0.002 A 
ATOM      3  C4  UNL d   1      -4.880   3.003   4.434  0.00  0.00     0.002 A 
ATOM      4  C5  UNL d   1      -4.319   2.946   5.708  0.00  0.00    -0.004 A 
ATOM      5  C6  UNL d   1      -3.349   1.988   6.000  0.00  0.00     0.002 A 
ATOM      6  C7  UNL d   1      -2.936   1.090   5.015  0.00  0.00     0.002 A 
ENDROOT
BRANCH   1   7
ATOM      7  C1  UNL d   1      -3.009   0.205   2.652  0.00  0.00     0.055 C 
ATOM      8  C   UNL d   1      -3.756  -1.120   2.695  0.00  0.00     0.019 C 
ENDBRANCH   1   7
TORSDOF 1
ENDMDL
