MODEL 1
REMARK minimizedAffinity 9.49356556
REMARK minimizedRMSD -1
REMARK  1 active torsions:
REMARK  status: ('A' for Active; 'I' for Inactive)
REMARK    1  A    between atoms: C1_2  and  C2_3 
ROOT
ATOM      1  C2  UNL d   1      -3.564   3.652  -5.932  0.00  0.00    -0.077 A 
ATOM      2  C3  UNL d   1      -3.234   5.015  -5.928  0.00  0.00     0.002 A 
ATOM      3  C4  UNL d   1      -4.239   5.984  -5.949  0.00  0.00     0.002 A 
ATOM      4  C5  UNL d   1      -5.578   5.602  -5.970  0.00  0.00    -0.004 A 
ATOM      5  C6  UNL d   1      -5.916   4.249  -5.976  0.00  0.00     0.002 A 
ATOM      6  C7  UNL d   1      -4.914   3.279  -5.957  0.00  0.00     0.002 A 
ENDROOT
BRANCH   1   7
ATOM      7  C1  UNL d   1      -2.483   2.605  -5.860  0.00  0.00     0.055 C 
ATOM      8  C   UNL d   1      -2.155   2.247  -4.418  0.00  0.00     0.019 C 
ENDBRANCH   1   7
TORSDOF 1
ENDMDL
