MODEL 1
REMARK minimizedAffinity 8.05482006
REMARK minimizedRMSD -1
REMARK  1 active torsions:
REMARK  status: ('A' for Active; 'I' for Inactive)
REMARK    1  A    between atoms: C1_2  and  C2_3 
ROOT
ATOM      1  C2  UNL d   1      -2.272   1.739   4.857  0.00  0.00    -0.077 A 
ATOM      2  C3  UNL d   1      -3.078   1.574   3.721  0.00  0.00     0.002 A 
ATOM      3  C4  UNL d   1      -4.405   2.008   3.728  0.00  0.00     0.002 A 
ATOM      4  C5  UNL d   1      -4.936   2.613   4.865  0.00  0.00    -0.004 A 
ATOM      5  C6  UNL d   1      -4.143   2.780   6.000  0.00  0.00     0.002 A 
ATOM      6  C7  UNL d   1      -2.817   2.346   5.995  0.00  0.00     0.002 A 
ENDROOT
BRANCH   1   7
ATOM      7  C1  UNL d   1      -0.826   1.317   4.835  0.00  0.00     0.055 C 
ATOM      8  C   UNL d   1      -0.054   1.925   5.996  0.00  0.00     0.019 C 
ENDBRANCH   1   7
TORSDOF 1
ENDMDL
