MODEL 1
REMARK minimizedAffinity 13.3973742
REMARK minimizedRMSD -1
REMARK  1 active torsions:
REMARK  status: ('A' for Active; 'I' for Inactive)
REMARK    1  A    between atoms: C1_2  and  C2_3 
ROOT
ATOM      1  C2  UNL d   1       1.339  -1.163  -3.238  0.00  0.00    -0.077 A 
ATOM      2  C3  UNL d   1       1.990  -0.586  -2.139  0.00  0.00     0.002 A 
ATOM      3  C4  UNL d   1       1.846  -1.136  -0.864  0.00  0.00     0.002 A 
ATOM      4  C5  UNL d   1       1.054  -2.267  -0.677  0.00  0.00    -0.004 A 
ATOM      5  C6  UNL d   1       0.401  -2.847  -1.764  0.00  0.00     0.002 A 
ATOM      6  C7  UNL d   1       0.543  -2.298  -3.039  0.00  0.00     0.002 A 
ENDROOT
BRANCH   1   7
ATOM      7  C1  UNL d   1       1.532  -0.600  -4.622  0.00  0.00     0.055 C 
ATOM      8  C   UNL d   1       1.955  -1.682  -5.605  0.00  0.00     0.019 C 
ENDBRANCH   1   7
TORSDOF 1
ENDMDL
