MODEL 1
REMARK minimizedAffinity 11.2824574
REMARK minimizedRMSD -1
REMARK  1 active torsions:
REMARK  status: ('A' for Active; 'I' for Inactive)
REMARK    1  A    between atoms: C1_2  and  C2_3 
ROOT
ATOM      1  C2  UNL d   1      -3.333  -3.809  -4.015  0.00  0.00    -0.077 A 
ATOM      2  C3  UNL d   1      -2.711  -4.412  -5.117  0.00  0.00     0.002 A 
ATOM      3  C4  UNL d   1      -1.598  -5.236  -4.937  0.00  0.00     0.002 A 
ATOM      4  C5  UNL d   1      -1.100  -5.467  -3.656  0.00  0.00    -0.004 A 
ATOM      5  C6  UNL d   1      -1.711  -4.870  -2.554  0.00  0.00     0.002 A 
ATOM      6  C7  UNL d   1      -2.823  -4.046  -2.732  0.00  0.00     0.002 A 
ENDROOT
BRANCH   1   7
ATOM      7  C1  UNL d   1      -4.564  -2.961  -4.203  0.00  0.00     0.055 C 
ATOM      8  C   UNL d   1      -5.039  -2.987  -5.648  0.00  0.00     0.019 C 
ENDBRANCH   1   7
TORSDOF 1
ENDMDL
