MODEL 1
REMARK minimizedAffinity 1.34947598
REMARK minimizedRMSD -1
REMARK  1 active torsions:
REMARK  status: ('A' for Active; 'I' for Inactive)
REMARK    1  A    between atoms: C1_2  and  C2_3 
ROOT
ATOM      1  C2  UNL d   1      -2.931  -4.585  -4.269  0.00  0.00    -0.077 A 
ATOM      2  C3  UNL d   1      -3.508  -5.607  -5.036  0.00  0.00     0.002 A 
ATOM      3  C4  UNL d   1      -4.572  -5.331  -5.896  0.00  0.00     0.002 A 
ATOM      4  C5  UNL d   1      -5.067  -4.033  -5.999  0.00  0.00    -0.004 A 
ATOM      5  C6  UNL d   1      -4.502  -3.009  -5.239  0.00  0.00     0.002 A 
ATOM      6  C7  UNL d   1      -3.438  -3.284  -4.379  0.00  0.00     0.002 A 
ENDROOT
BRANCH   1   7
ATOM      7  C1  UNL d   1      -1.751  -4.872  -3.378  0.00  0.00     0.055 C 
ATOM      8  C   UNL d   1      -0.750  -5.791  -4.064  0.00  0.00     0.019 C 
ENDBRANCH   1   7
TORSDOF 1
ENDMDL
