MODEL 1
REMARK minimizedAffinity -2.9935143
REMARK minimizedRMSD -1
REMARK  1 active torsions:
REMARK  status: ('A' for Active; 'I' for Inactive)
REMARK    1  A    between atoms: C1_2  and  C2_3 
ROOT
ATOM      1  C2  UNL d   1      -2.626  -4.668  -4.557  0.00  0.00    -0.077 A 
ATOM      2  C3  UNL d   1      -3.162  -3.409  -4.863  0.00  0.00     0.002 A 
ATOM      3  C4  UNL d   1      -4.354  -3.305  -5.583  0.00  0.00     0.002 A 
ATOM      4  C5  UNL d   1      -5.021  -4.455  -5.999  0.00  0.00    -0.004 A 
ATOM      5  C6  UNL d   1      -4.495  -5.711  -5.701  0.00  0.00     0.002 A 
ATOM      6  C7  UNL d   1      -3.304  -5.818  -4.983  0.00  0.00     0.002 A 
ENDROOT
BRANCH   1   7
ATOM      7  C1  UNL d   1      -1.367  -4.783  -3.739  0.00  0.00     0.055 C 
ATOM      8  C   UNL d   1      -0.549  -6.000  -4.149  0.00  0.00     0.019 C 
ENDBRANCH   1   7
TORSDOF 1
ENDMDL
