MODEL 1
REMARK minimizedAffinity 8.11241245
REMARK minimizedRMSD -1
REMARK  1 active torsions:
REMARK  status: ('A' for Active; 'I' for Inactive)
REMARK    1  A    between atoms: C1_2  and  C2_3 
ROOT
ATOM      1  C2  UNL d   1       2.232  -0.521  -1.090  0.00  0.00    -0.077 A 
ATOM      2  C3  UNL d   1       1.169  -0.617  -1.999  0.00  0.00     0.002 A 
ATOM      3  C4  UNL d   1       0.502  -1.830  -2.181  0.00  0.00     0.002 A 
ATOM      4  C5  UNL d   1       0.887  -2.954  -1.455  0.00  0.00    -0.004 A 
ATOM      5  C6  UNL d   1       1.944  -2.870  -0.549  0.00  0.00     0.002 A 
ATOM      6  C7  UNL d   1       2.613  -1.659  -0.367  0.00  0.00     0.002 A 
ENDROOT
BRANCH   1   7
ATOM      7  C1  UNL d   1       2.920   0.798  -0.856  0.00  0.00     0.055 C 
ATOM      8  C   UNL d   1       3.958   0.692   0.252  0.00  0.00     0.019 C 
ENDBRANCH   1   7
TORSDOF 1
ENDMDL
