MODEL 1
REMARK minimizedAffinity 13.1189556
REMARK minimizedRMSD -1
REMARK  1 active torsions:
REMARK  status: ('A' for Active; 'I' for Inactive)
REMARK    1  A    between atoms: C1_2  and  C2_3 
ROOT
ATOM      1  C2  UNL d   1      -3.879   1.085   3.874  0.00  0.00    -0.077 A 
ATOM      2  C3  UNL d   1      -3.492   1.235   5.213  0.00  0.00     0.002 A 
ATOM      3  C4  UNL d   1      -4.044   2.248   5.999  0.00  0.00     0.002 A 
ATOM      4  C5  UNL d   1      -4.990   3.115   5.457  0.00  0.00    -0.004 A 
ATOM      5  C6  UNL d   1      -5.381   2.976   4.126  0.00  0.00     0.002 A 
ATOM      6  C7  UNL d   1      -4.829   1.965   3.338  0.00  0.00     0.002 A 
ENDROOT
BRANCH   1   7
ATOM      7  C1  UNL d   1      -3.321  -0.037   3.038  0.00  0.00     0.055 C 
ATOM      8  C   UNL d   1      -3.405  -1.368   3.772  0.00  0.00     0.019 C 
ENDBRANCH   1   7
TORSDOF 1
ENDMDL
