MODEL 1
REMARK minimizedAffinity -5.71566916
REMARK minimizedRMSD -1
REMARK  0 active torsions:
REMARK  status: ('A' for Active; 'I' for Inactive)
ROOT
ATOM      1  C4' PXY d   1      -0.447  -1.360  -0.717  0.00  0.00     0.077 C 
ATOM      2  C1' PXY d   1       2.346   3.224   1.427  0.00  0.00     0.077 C 
ATOM      3  C1  PXY d   1       1.606   2.022   0.875  0.00  0.00    -0.082 A 
ATOM      4  C2  PXY d   1       2.198   1.241  -0.014  0.00  0.00     0.003 A 
ATOM      5  C3  PXY d   1       1.531   0.167  -0.547  0.00  0.00     0.003 A 
ATOM      6  C4  PXY d   1       0.265  -0.140  -0.126  0.00  0.00    -0.082 A 
ATOM      7  C5  PXY d   1      -0.342   0.645   0.789  0.00  0.00     0.003 A 
ATOM      8  C6  PXY d   1       0.337   1.754   1.287  0.00  0.00     0.003 A 
ENDROOT
TORSDOF 0
ENDMDL
