MODEL 1
REMARK minimizedAffinity -4.48875713
REMARK minimizedRMSD -1
REMARK  0 active torsions:
REMARK  status: ('A' for Active; 'I' for Inactive)
ROOT
ATOM      1  C4' PXY d   1       0.012   1.201   1.195  0.00  0.00     0.077 C 
ATOM      2  C1' PXY d   1      -2.445  -2.031  -2.920  0.00  0.00     0.077 C 
ATOM      3  C1  PXY d   1      -1.805  -1.173  -1.847  0.00  0.00    -0.082 A 
ATOM      4  C2  PXY d   1      -0.831  -1.673  -1.104  0.00  0.00     0.003 A 
ATOM      5  C3  PXY d   1      -0.262  -0.921  -0.108  0.00  0.00     0.003 A 
ATOM      6  C4  PXY d   1      -0.658   0.374   0.094  0.00  0.00    -0.082 A 
ATOM      7  C5  PXY d   1      -1.643   0.895  -0.668  0.00  0.00     0.003 A 
ATOM      8  C6  PXY d   1      -2.236   0.102  -1.646  0.00  0.00     0.003 A 
ENDROOT
TORSDOF 0
ENDMDL
