MODEL 1
REMARK minimizedAffinity -6.18924189
REMARK minimizedRMSD -1
REMARK  0 active torsions:
REMARK  status: ('A' for Active; 'I' for Inactive)
ROOT
ATOM      1  C4' PXY d   1       3.447   1.978   0.009  0.00  0.00     0.077 C 
ATOM      2  C1' PXY d   1      -1.549   0.333   2.405  0.00  0.00     0.077 C 
ATOM      3  C1  PXY d   1      -0.238   0.753   1.770  0.00  0.00    -0.082 A 
ATOM      4  C2  PXY d   1       0.516   1.661   2.367  0.00  0.00     0.003 A 
ATOM      5  C3  PXY d   1       1.689   2.076   1.791  0.00  0.00     0.003 A 
ATOM      6  C4  PXY d   1       2.121   1.517   0.618  0.00  0.00    -0.082 A 
ATOM      7  C5  PXY d   1       1.362   0.581   0.009  0.00  0.00     0.003 A 
ATOM      8  C6  PXY d   1       0.154   0.204   0.589  0.00  0.00     0.003 A 
ENDROOT
TORSDOF 0
ENDMDL
