MODEL 1
REMARK minimizedAffinity -3.49550009
REMARK minimizedRMSD -1
REMARK  0 active torsions:
REMARK  status: ('A' for Active; 'I' for Inactive)
ROOT
ATOM      1  C4' PXY d   1      -1.679  -1.806  -1.089  0.00  0.00     0.077 C 
ATOM      2  C1' PXY d   1       1.107   2.634   1.346  0.00  0.00     0.077 C 
ATOM      3  C1  PXY d   1       0.379   1.463   0.719  0.00  0.00    -0.082 A 
ATOM      4  C2  PXY d   1       0.305   1.368  -0.599  0.00  0.00     0.003 A 
ATOM      5  C3  PXY d   1      -0.378   0.333  -1.183  0.00  0.00     0.003 A 
ATOM      6  C4  PXY d   1      -0.946  -0.646  -0.411  0.00  0.00    -0.082 A 
ATOM      7  C5  PXY d   1      -0.866  -0.562   0.933  0.00  0.00     0.003 A 
ATOM      8  C6  PXY d   1      -0.203   0.519   1.508  0.00  0.00     0.003 A 
ENDROOT
TORSDOF 0
ENDMDL
