MODEL 1
REMARK minimizedAffinity -2.58743119
REMARK minimizedRMSD -1
REMARK  0 active torsions:
REMARK  status: ('A' for Active; 'I' for Inactive)
ROOT
ATOM      1  C4' PXY d   1       1.111   2.044   2.090  0.00  0.00     0.077 C 
ATOM      2  C1' PXY d   1      -1.390  -1.172  -2.010  0.00  0.00     0.077 C 
ATOM      3  C1  PXY d   1      -0.723  -0.329  -0.941  0.00  0.00    -0.082 A 
ATOM      4  C2  PXY d   1      -1.218  -0.316   0.286  0.00  0.00     0.003 A 
ATOM      5  C3  PXY d   1      -0.646   0.466   1.256  0.00  0.00     0.003 A 
ATOM      6  C4  PXY d   1       0.476   1.200   0.982  0.00  0.00    -0.082 A 
ATOM      7  C5  PXY d   1       0.994   1.184  -0.265  0.00  0.00     0.003 A 
ATOM      8  C6  PXY d   1       0.374   0.416  -1.246  0.00  0.00     0.003 A 
ENDROOT
TORSDOF 0
ENDMDL
