MODEL 1
REMARK minimizedAffinity -5.13591671
REMARK minimizedRMSD -1
REMARK  0 active torsions:
REMARK  status: ('A' for Active; 'I' for Inactive)
ROOT
ATOM      1  C4' PXY d   1      -0.653  -1.070  -0.186  0.00  0.00     0.077 C 
ATOM      2  C1' PXY d   1       2.998   3.052   1.573  0.00  0.00     0.077 C 
ATOM      3  C1  PXY d   1       2.035   1.972   1.123  0.00  0.00    -0.082 A 
ATOM      4  C2  PXY d   1       2.398   1.124   0.174  0.00  0.00     0.003 A 
ATOM      5  C3  PXY d   1       1.528   0.161  -0.267  0.00  0.00     0.003 A 
ATOM      6  C4  PXY d   1       0.291   0.031   0.306  0.00  0.00    -0.082 A 
ATOM      7  C5  PXY d   1      -0.084   0.885   1.282  0.00  0.00     0.003 A 
ATOM      8  C6  PXY d   1       0.800   1.881   1.687  0.00  0.00     0.003 A 
ENDROOT
TORSDOF 0
ENDMDL
