MODEL 1
REMARK minimizedAffinity -1.5964936
REMARK minimizedRMSD -1
REMARK  0 active torsions:
REMARK  status: ('A' for Active; 'I' for Inactive)
ROOT
ATOM      1  C4' PXY d   1       1.754   2.822   1.521  0.00  0.00     0.077 C 
ATOM      2  C1' PXY d   1      -0.836  -1.559  -1.220  0.00  0.00     0.077 C 
ATOM      3  C1  PXY d   1      -0.145  -0.413  -0.507  0.00  0.00    -0.082 A 
ATOM      4  C2  PXY d   1      -0.621   0.020   0.650  0.00  0.00     0.003 A 
ATOM      5  C3  PXY d   1      -0.028   1.076   1.292  0.00  0.00     0.003 A 
ATOM      6  C4  PXY d   1       1.095   1.662   0.771  0.00  0.00    -0.082 A 
ATOM      7  C5  PXY d   1       1.592   1.219  -0.403  0.00  0.00     0.003 A 
ATOM      8  C6  PXY d   1       0.951   0.173  -1.060  0.00  0.00     0.003 A 
ENDROOT
TORSDOF 0
ENDMDL
