MODEL 1
REMARK minimizedAffinity -4.94462538
REMARK minimizedRMSD -1
REMARK  0 active torsions:
REMARK  status: ('A' for Active; 'I' for Inactive)
ROOT
ATOM      1  C4' PXY d   1       0.389   2.225  -0.258  0.00  0.00     0.077 C 
ATOM      2  C1' PXY d   1       3.858   0.797   4.139  0.00  0.00     0.077 C 
ATOM      3  C1  PXY d   1       2.958   1.169   2.978  0.00  0.00    -0.082 A 
ATOM      4  C2  PXY d   1       1.884   1.910   3.195  0.00  0.00     0.003 A 
ATOM      5  C3  PXY d   1       1.042   2.230   2.161  0.00  0.00     0.003 A 
ATOM      6  C4  PXY d   1       1.331   1.832   0.883  0.00  0.00    -0.082 A 
ATOM      7  C5  PXY d   1       2.431   1.085   0.652  0.00  0.00     0.003 A 
ATOM      8  C6  PXY d   1       3.251   0.736   1.721  0.00  0.00     0.003 A 
ENDROOT
TORSDOF 0
ENDMDL
