MODEL 1
REMARK minimizedAffinity -5.65973806
REMARK minimizedRMSD -1
REMARK  0 active torsions:
REMARK  status: ('A' for Active; 'I' for Inactive)
ROOT
ATOM      1  C4' PXY d   1      -1.021  -1.050  -0.433  0.00  0.00     0.077 C 
ATOM      2  C1' PXY d   1       2.594   3.021   1.510  0.00  0.00     0.077 C 
ATOM      3  C1  PXY d   1       1.652   1.954   0.989  0.00  0.00    -0.082 A 
ATOM      4  C2  PXY d   1       0.476   1.779   1.570  0.00  0.00     0.003 A 
ATOM      5  C3  PXY d   1      -0.375   0.797   1.131  0.00  0.00     0.003 A 
ATOM      6  C4  PXY d   1      -0.041   0.022   0.054  0.00  0.00    -0.082 A 
ATOM      7  C5  PXY d   1       1.152   0.201  -0.551  0.00  0.00     0.003 A 
ATOM      8  C6  PXY d   1       2.019   1.175  -0.065  0.00  0.00     0.003 A 
ENDROOT
TORSDOF 0
ENDMDL
