MODEL 1
REMARK minimizedAffinity -4.1971221
REMARK minimizedRMSD -1
REMARK  0 active torsions:
REMARK  status: ('A' for Active; 'I' for Inactive)
ROOT
ATOM      1  C4' PXY d   1      -0.539  -1.225  -0.797  0.00  0.00     0.077 C 
ATOM      2  C1' PXY d   1       2.026   3.293   1.737  0.00  0.00     0.077 C 
ATOM      3  C1  PXY d   1       1.345   2.108   1.082  0.00  0.00    -0.082 A 
ATOM      4  C2  PXY d   1       2.021   1.353   0.231  0.00  0.00     0.003 A 
ATOM      5  C3  PXY d   1       1.411   0.296  -0.394  0.00  0.00     0.003 A 
ATOM      6  C4  PXY d   1       0.111  -0.024  -0.105  0.00  0.00    -0.082 A 
ATOM      7  C5  PXY d   1      -0.582   0.735   0.771  0.00  0.00     0.003 A 
ATOM      8  C6  PXY d   1       0.043   1.828   1.364  0.00  0.00     0.003 A 
ENDROOT
TORSDOF 0
ENDMDL
