MODEL 1
REMARK minimizedAffinity -1.03746593
REMARK minimizedRMSD -1
REMARK  0 active torsions:
REMARK  status: ('A' for Active; 'I' for Inactive)
ROOT
ATOM      1  C4' PXY d   1      -1.548  -1.476  -2.982  0.00  0.00     0.077 C 
ATOM      2  C1' PXY d   1       0.560   1.660   1.393  0.00  0.00     0.077 C 
ATOM      3  C1  PXY d   1       0.016   0.829   0.247  0.00  0.00    -0.082 A 
ATOM      4  C2  PXY d   1      -0.705   1.410  -0.698  0.00  0.00     0.003 A 
ATOM      5  C3  PXY d   1      -1.230   0.667  -1.724  0.00  0.00     0.003 A 
ATOM      6  C4  PXY d   1      -0.971  -0.674  -1.812  0.00  0.00    -0.082 A 
ATOM      7  C5  PXY d   1      -0.227  -1.272  -0.857  0.00  0.00     0.003 A 
ATOM      8  C6  PXY d   1       0.263  -0.508   0.198  0.00  0.00     0.003 A 
ENDROOT
TORSDOF 0
ENDMDL
