MODEL 1
REMARK minimizedAffinity -1.21212685
REMARK minimizedRMSD -1
REMARK  0 active torsions:
REMARK  status: ('A' for Active; 'I' for Inactive)
ROOT
ATOM      1  C4' PXY d   1      -0.760  -2.185  -1.033  0.00  0.00     0.077 C 
ATOM      2  C1' PXY d   1       1.672   2.725   0.807  0.00  0.00     0.077 C 
ATOM      3  C1  PXY d   1       1.041   1.438   0.313  0.00  0.00    -0.082 A 
ATOM      4  C2  PXY d   1      -0.129   1.055   0.798  0.00  0.00     0.003 A 
ATOM      5  C3  PXY d   1      -0.699  -0.122   0.386  0.00  0.00     0.003 A 
ATOM      6  C4  PXY d   1      -0.090  -0.888  -0.571  0.00  0.00    -0.082 A 
ATOM      7  C5  PXY d   1       1.098  -0.499  -1.078  0.00  0.00     0.003 A 
ATOM      8  C6  PXY d   1       1.680   0.678  -0.617  0.00  0.00     0.003 A 
ENDROOT
TORSDOF 0
ENDMDL
