MODEL 1
REMARK minimizedAffinity -4.76754093
REMARK minimizedRMSD -1
REMARK  0 active torsions:
REMARK  status: ('A' for Active; 'I' for Inactive)
ROOT
ATOM      1  C4' PXY d   1      -1.579  -1.543  -2.359  0.00  0.00     0.077 C 
ATOM      2  C1' PXY d   1       0.600   1.937   1.710  0.00  0.00     0.077 C 
ATOM      3  C1  PXY d   1       0.027   1.015   0.652  0.00  0.00    -0.082 A 
ATOM      4  C2  PXY d   1       0.307   1.229  -0.624  0.00  0.00     0.003 A 
ATOM      5  C3  PXY d   1      -0.228   0.425  -1.596  0.00  0.00     0.003 A 
ATOM      6  C4  PXY d   1      -1.015  -0.643  -1.256  0.00  0.00    -0.082 A 
ATOM      7  C5  PXY d   1      -1.296  -0.875   0.044  0.00  0.00     0.003 A 
ATOM      8  C6  PXY d   1      -0.777  -0.022   1.013  0.00  0.00     0.003 A 
ENDROOT
TORSDOF 0
ENDMDL
