MODEL 1
REMARK minimizedAffinity -4.94429302
REMARK minimizedRMSD -1
REMARK  0 active torsions:
REMARK  status: ('A' for Active; 'I' for Inactive)
ROOT
ATOM      1  C4' PXY d   1       1.489   3.250   1.453  0.00  0.00     0.077 C 
ATOM      2  C1' PXY d   1      -0.657  -1.688  -0.651  0.00  0.00     0.077 C 
ATOM      3  C1  PXY d   1      -0.106  -0.390  -0.095  0.00  0.00    -0.082 A 
ATOM      4  C2  PXY d   1       1.013   0.111  -0.591  0.00  0.00     0.003 A 
ATOM      5  C3  PXY d   1       1.542   1.268  -0.078  0.00  0.00     0.003 A 
ATOM      6  C4  PXY d   1       0.891   1.947   0.916  0.00  0.00    -0.082 A 
ATOM      7  C5  PXY d   1      -0.258   1.447   1.421  0.00  0.00     0.003 A 
ATOM      8  C6  PXY d   1      -0.757   0.251   0.915  0.00  0.00     0.003 A 
ENDROOT
TORSDOF 0
ENDMDL
