MODEL 1
REMARK minimizedAffinity -4.1649251
REMARK minimizedRMSD -1
REMARK  0 active torsions:
REMARK  status: ('A' for Active; 'I' for Inactive)
ROOT
ATOM      1  C4' PXY d   1      -0.756  -1.407  -0.855  0.00  0.00     0.077 C 
ATOM      2  C1' PXY d   1       2.016   2.899   1.826  0.00  0.00     0.077 C 
ATOM      3  C1  PXY d   1       1.281   1.770   1.133  0.00  0.00    -0.082 A 
ATOM      4  C2  PXY d   1       1.920   1.014   0.255  0.00  0.00     0.003 A 
ATOM      5  C3  PXY d   1       1.262   0.009  -0.405  0.00  0.00     0.003 A 
ATOM      6  C4  PXY d   1      -0.051  -0.261  -0.124  0.00  0.00    -0.082 A 
ATOM      7  C5  PXY d   1      -0.707   0.498   0.778  0.00  0.00     0.003 A 
ATOM      8  C6  PXY d   1      -0.032   1.541   1.407  0.00  0.00     0.003 A 
ENDROOT
TORSDOF 0
ENDMDL
