MODEL 1
REMARK minimizedAffinity -5.73747683
REMARK minimizedRMSD -1
REMARK  0 active torsions:
REMARK  status: ('A' for Active; 'I' for Inactive)
ROOT
ATOM      1  C4' PXY d   1       3.496   1.741  -0.013  0.00  0.00     0.077 C 
ATOM      2  C1' PXY d   1      -1.994   1.656   1.792  0.00  0.00     0.077 C 
ATOM      3  C1  PXY d   1      -0.555   1.691   1.318  0.00  0.00    -0.082 A 
ATOM      4  C2  PXY d   1      -0.025   0.617   0.754  0.00  0.00     0.003 A 
ATOM      5  C3  PXY d   1       1.284   0.622   0.348  0.00  0.00     0.003 A 
ATOM      6  C4  PXY d   1       2.044   1.754   0.472  0.00  0.00    -0.082 A 
ATOM      7  C5  PXY d   1       1.508   2.857   1.036  0.00  0.00     0.003 A 
ATOM      8  C6  PXY d   1       0.189   2.819   1.479  0.00  0.00     0.003 A 
ENDROOT
TORSDOF 0
ENDMDL
