MODEL 1
REMARK minimizedAffinity -6.1090641
REMARK minimizedRMSD -1
REMARK  0 active torsions:
REMARK  status: ('A' for Active; 'I' for Inactive)
ROOT
ATOM      1  C4' PXY d   1      -0.112  -1.264  -0.576  0.00  0.00     0.077 C 
ATOM      2  C1' PXY d   1       2.727   3.248   1.659  0.00  0.00     0.077 C 
ATOM      3  C1  PXY d   1       1.974   2.066   1.083  0.00  0.00    -0.082 A 
ATOM      4  C2  PXY d   1       2.611   1.194   0.319  0.00  0.00     0.003 A 
ATOM      5  C3  PXY d   1       1.938   0.136  -0.237  0.00  0.00     0.003 A 
ATOM      6  C4  PXY d   1       0.611  -0.060   0.035  0.00  0.00    -0.082 A 
ATOM      7  C5  PXY d   1      -0.044   0.819   0.823  0.00  0.00     0.003 A 
ATOM      8  C6  PXY d   1       0.648   1.909   1.344  0.00  0.00     0.003 A 
ENDROOT
TORSDOF 0
ENDMDL
