MODEL 1
REMARK minimizedAffinity -2.67096877
REMARK minimizedRMSD -1
REMARK  0 active torsions:
REMARK  status: ('A' for Active; 'I' for Inactive)
ROOT
ATOM      1  C4' PXY d   1      -1.877   0.069   1.153  0.00  0.00     0.077 C 
ATOM      2  C1' PXY d   1       3.171   2.885   1.181  0.00  0.00     0.077 C 
ATOM      3  C1  PXY d   1       1.847   2.149   1.161  0.00  0.00    -0.082 A 
ATOM      4  C2  PXY d   1       1.129   2.063   2.269  0.00  0.00     0.003 A 
ATOM      5  C3  PXY d   1      -0.056   1.373   2.276  0.00  0.00     0.003 A 
ATOM      6  C4  PXY d   1      -0.537   0.811   1.124  0.00  0.00    -0.082 A 
ATOM      7  C5  PXY d   1       0.184   0.903  -0.013  0.00  0.00     0.003 A 
ATOM      8  C6  PXY d   1       1.404   1.572   0.010  0.00  0.00     0.003 A 
ENDROOT
TORSDOF 0
ENDMDL
