MODEL 1
REMARK minimizedAffinity -2.66050887
REMARK minimizedRMSD -1
REMARK  0 active torsions:
REMARK  status: ('A' for Active; 'I' for Inactive)
ROOT
ATOM      1  C4' PXY d   1      -1.455  -1.797  -1.325  0.00  0.00     0.077 C 
ATOM      2  C1' PXY d   1       2.690   1.894   0.291  0.00  0.00     0.077 C 
ATOM      3  C1  PXY d   1       1.612   0.918  -0.137  0.00  0.00    -0.082 A 
ATOM      4  C2  PXY d   1       0.385   1.357  -0.366  0.00  0.00     0.003 A 
ATOM      5  C3  PXY d   1      -0.609   0.483  -0.723  0.00  0.00     0.003 A 
ATOM      6  C4  PXY d   1      -0.333  -0.846  -0.900  0.00  0.00    -0.082 A 
ATOM      7  C5  PXY d   1       0.919  -1.301  -0.679  0.00  0.00     0.003 A 
ATOM      8  C6  PXY d   1       1.905  -0.404  -0.277  0.00  0.00     0.003 A 
ENDROOT
TORSDOF 0
ENDMDL
