MODEL 1
REMARK minimizedAffinity -5.95272779
REMARK minimizedRMSD -1
REMARK  0 active torsions:
REMARK  status: ('A' for Active; 'I' for Inactive)
ROOT
ATOM      1  C4' PXY d   1      -1.616   0.037   2.025  0.00  0.00     0.077 C 
ATOM      2  C1' PXY d   1       3.467   1.831  -0.062  0.00  0.00     0.077 C 
ATOM      3  C1  PXY d   1       2.131   1.355   0.474  0.00  0.00    -0.082 A 
ATOM      4  C2  PXY d   1       1.570   1.991   1.489  0.00  0.00     0.003 A 
ATOM      5  C3  PXY d   1       0.377   1.554   2.007  0.00  0.00     0.003 A 
ATOM      6  C4  PXY d   1      -0.273   0.488   1.445  0.00  0.00    -0.082 A 
ATOM      7  C5  PXY d   1       0.289  -0.159   0.402  0.00  0.00     0.003 A 
ATOM      8  C6  PXY d   1       1.519   0.274  -0.082  0.00  0.00     0.003 A 
ENDROOT
TORSDOF 0
ENDMDL
