MODEL 1
REMARK minimizedAffinity -4.05588675
REMARK minimizedRMSD -1
REMARK  0 active torsions:
REMARK  status: ('A' for Active; 'I' for Inactive)
ROOT
ATOM      1  C   UNL d   1      -1.418  -0.443  -0.141  0.00  0.00     0.023 A 
ATOM      2  C1  UNL d   1      -0.194  -0.536  -0.803  0.00  0.00     0.003 A 
ATOM      3  C2  UNL d   1       0.845   0.341  -0.481  0.00  0.00     0.048 A 
ATOM      4  C3  UNL d   1       0.652   1.307   0.506  0.00  0.00     0.023 A 
ATOM      5  C4  UNL d   1      -0.571   1.403   1.172  0.00  0.00     0.048 A 
ATOM      6  C5  UNL d   1      -1.606   0.525   0.846  0.00  0.00     0.003 A 
ATOM      7  I   UNL d   1       2.196   2.612   0.989  0.00  0.00    -0.146 I 
ENDROOT
TORSDOF 0
ENDMDL
