MODEL 1
REMARK minimizedAffinity -4.63017321
REMARK minimizedRMSD -1
REMARK  0 active torsions:
REMARK  status: ('A' for Active; 'I' for Inactive)
ROOT
ATOM      1  C   UNL d   1       0.766   2.863   1.580  0.00  0.00     0.023 A 
ATOM      2  C1  UNL d   1      -0.195   2.002   2.110  0.00  0.00     0.003 A 
ATOM      3  C2  UNL d   1      -0.426   0.760   1.515  0.00  0.00     0.048 A 
ATOM      4  C3  UNL d   1       0.308   0.386   0.390  0.00  0.00     0.023 A 
ATOM      5  C4  UNL d   1       1.271   1.244  -0.143  0.00  0.00     0.048 A 
ATOM      6  C5  UNL d   1       1.498   2.485   0.455  0.00  0.00     0.003 A 
ATOM      7  I   UNL d   1      -0.033  -1.462  -0.498  0.00  0.00    -0.146 I 
ENDROOT
TORSDOF 0
ENDMDL
