MODEL 1
REMARK minimizedAffinity -4.37143517
REMARK minimizedRMSD -1
REMARK  0 active torsions:
REMARK  status: ('A' for Active; 'I' for Inactive)
ROOT
ATOM      1  C   UNL d   1       1.116   2.675   1.655  0.00  0.00     0.023 A 
ATOM      2  C1  UNL d   1       1.432   2.633   0.297  0.00  0.00     0.003 A 
ATOM      3  C2  UNL d   1       1.003   1.562  -0.488  0.00  0.00     0.048 A 
ATOM      4  C3  UNL d   1       0.256   0.536   0.091  0.00  0.00     0.023 A 
ATOM      5  C4  UNL d   1      -0.064   0.574   1.449  0.00  0.00     0.048 A 
ATOM      6  C5  UNL d   1       0.369   1.647   2.230  0.00  0.00     0.003 A 
ATOM      7  I   UNL d   1      -0.384  -1.060  -1.077  0.00  0.00    -0.146 I 
ENDROOT
TORSDOF 0
ENDMDL
