MODEL 1
REMARK minimizedAffinity -1.76337886
REMARK minimizedRMSD -1
REMARK  0 active torsions:
REMARK  status: ('A' for Active; 'I' for Inactive)
ROOT
ATOM      1  C   UNL d   1       1.132   0.977   1.397  0.00  0.00     0.023 A 
ATOM      2  C1  UNL d   1      -0.243   0.904   1.620  0.00  0.00     0.003 A 
ATOM      3  C2  UNL d   1      -1.055   0.174   0.750  0.00  0.00     0.048 A 
ATOM      4  C3  UNL d   1      -0.486  -0.483  -0.341  0.00  0.00     0.023 A 
ATOM      5  C4  UNL d   1       0.890  -0.414  -0.567  0.00  0.00     0.048 A 
ATOM      6  C5  UNL d   1       1.698   0.319   0.305  0.00  0.00     0.003 A 
ATOM      7  I   UNL d   1      -1.692  -1.571  -1.637  0.00  0.00    -0.146 I 
ENDROOT
TORSDOF 0
ENDMDL
