MODEL 1
REMARK minimizedAffinity -2.92246318
REMARK minimizedRMSD -1
REMARK  0 active torsions:
REMARK  status: ('A' for Active; 'I' for Inactive)
ROOT
ATOM      1  C   UNL d   1       0.094  -1.799  -1.035  0.00  0.00     0.023 A 
ATOM      2  C1  UNL d   1       1.296  -1.099  -1.140  0.00  0.00     0.003 A 
ATOM      3  C2  UNL d   1       1.489   0.073  -0.405  0.00  0.00     0.048 A 
ATOM      4  C3  UNL d   1       0.477   0.537   0.434  0.00  0.00     0.023 A 
ATOM      5  C4  UNL d   1      -0.727  -0.161   0.543  0.00  0.00     0.048 A 
ATOM      6  C5  UNL d   1      -0.916  -1.331  -0.195  0.00  0.00     0.003 A 
ATOM      7  I   UNL d   1       0.762   2.281   1.529  0.00  0.00    -0.146 I 
ENDROOT
TORSDOF 0
ENDMDL
