MODEL 1
REMARK minimizedAffinity -2.84153271
REMARK minimizedRMSD -1
REMARK  0 active torsions:
REMARK  status: ('A' for Active; 'I' for Inactive)
ROOT
ATOM      1  C   UNL d   1       0.701   2.016   1.441  0.00  0.00     0.023 A 
ATOM      2  C1  UNL d   1      -0.347   1.167   1.798  0.00  0.00     0.003 A 
ATOM      3  C2  UNL d   1      -0.848   0.248   0.875  0.00  0.00     0.048 A 
ATOM      4  C3  UNL d   1      -0.296   0.182  -0.404  0.00  0.00     0.023 A 
ATOM      5  C4  UNL d   1       0.754   1.028  -0.766  0.00  0.00     0.048 A 
ATOM      6  C5  UNL d   1       1.251   1.946   0.161  0.00  0.00     0.003 A 
ATOM      7  I   UNL d   1      -1.040  -1.186  -1.780  0.00  0.00    -0.146 I 
ENDROOT
TORSDOF 0
ENDMDL
