MODEL 1
REMARK minimizedAffinity -1.4198451
REMARK minimizedRMSD -1
REMARK  0 active torsions:
REMARK  status: ('A' for Active; 'I' for Inactive)
ROOT
ATOM      1  C   UNL d   1       0.405   1.853   1.645  0.00  0.00     0.023 A 
ATOM      2  C1  UNL d   1      -0.941   1.577   1.404  0.00  0.00     0.003 A 
ATOM      3  C2  UNL d   1      -1.298   0.563   0.511  0.00  0.00     0.048 A 
ATOM      4  C3  UNL d   1      -0.304  -0.170  -0.135  0.00  0.00     0.023 A 
ATOM      5  C4  UNL d   1       1.044   0.102   0.103  0.00  0.00     0.048 A 
ATOM      6  C5  UNL d   1       1.396   1.116   0.995  0.00  0.00     0.003 A 
ATOM      7  I   UNL d   1      -0.834  -1.679  -1.463  0.00  0.00    -0.146 I 
ENDROOT
TORSDOF 0
ENDMDL
