MODEL 1
REMARK minimizedAffinity -1.2318691
REMARK minimizedRMSD -1
REMARK  0 active torsions:
REMARK  status: ('A' for Active; 'I' for Inactive)
ROOT
ATOM      1  C   UNL d   1      -1.107  -1.798  -2.779  0.00  0.00     0.023 A 
ATOM      2  C1  UNL d   1      -0.278  -2.249  -1.751  0.00  0.00     0.003 A 
ATOM      3  C2  UNL d   1      -0.096  -1.470  -0.607  0.00  0.00     0.048 A 
ATOM      4  C3  UNL d   1      -0.748  -0.242  -0.495  0.00  0.00     0.023 A 
ATOM      5  C4  UNL d   1      -1.579   0.212  -1.520  0.00  0.00     0.048 A 
ATOM      6  C5  UNL d   1      -1.757  -0.569  -2.663  0.00  0.00     0.003 A 
ATOM      7  I   UNL d   1      -0.479   0.919   1.208  0.00  0.00    -0.146 I 
ENDROOT
TORSDOF 0
ENDMDL
