MODEL 1
REMARK minimizedAffinity -2.84185934
REMARK minimizedRMSD -1
REMARK  0 active torsions:
REMARK  status: ('A' for Active; 'I' for Inactive)
ROOT
ATOM      1  C   UNL d   1      -0.036  -1.955  -1.039  0.00  0.00     0.023 A 
ATOM      2  C1  UNL d   1      -1.046  -1.399  -0.254  0.00  0.00     0.003 A 
ATOM      3  C2  UNL d   1      -0.789  -0.261   0.513  0.00  0.00     0.048 A 
ATOM      4  C3  UNL d   1       0.480   0.317   0.489  0.00  0.00     0.023 A 
ATOM      5  C4  UNL d   1       1.493  -0.236  -0.296  0.00  0.00     0.048 A 
ATOM      6  C5  UNL d   1       1.232  -1.374  -1.060  0.00  0.00     0.003 A 
ATOM      7  I   UNL d   1       0.865   2.011   1.630  0.00  0.00    -0.146 I 
ENDROOT
TORSDOF 0
ENDMDL
