MODEL 1
REMARK minimizedAffinity -2.75506449
REMARK minimizedRMSD -1
REMARK  0 active torsions:
REMARK  status: ('A' for Active; 'I' for Inactive)
ROOT
ATOM      1  C   UNL d   1       2.706   2.432   1.168  0.00  0.00     0.023 A 
ATOM      2  C1  UNL d   1       1.362   2.474   1.541  0.00  0.00     0.003 A 
ATOM      3  C2  UNL d   1       0.440   1.622   0.930  0.00  0.00     0.048 A 
ATOM      4  C3  UNL d   1       0.868   0.730  -0.053  0.00  0.00     0.023 A 
ATOM      5  C4  UNL d   1       2.211   0.684  -0.429  0.00  0.00     0.048 A 
ATOM      6  C5  UNL d   1       3.130   1.539   0.184  0.00  0.00     0.003 A 
ATOM      7  I   UNL d   1      -0.503  -0.539  -0.964  0.00  0.00    -0.146 I 
ENDROOT
TORSDOF 0
ENDMDL
