MODEL 1
REMARK minimizedAffinity -0.46947363
REMARK minimizedRMSD -1
REMARK  0 active torsions:
REMARK  status: ('A' for Active; 'I' for Inactive)
ROOT
ATOM      1  C   UNL d   1       0.214   1.857   2.012  0.00  0.00     0.023 A 
ATOM      2  C1  UNL d   1       0.996   1.886   0.857  0.00  0.00     0.003 A 
ATOM      3  C2  UNL d   1       0.789   0.943  -0.152  0.00  0.00     0.048 A 
ATOM      4  C3  UNL d   1      -0.203  -0.025  -0.000  0.00  0.00     0.023 A 
ATOM      5  C4  UNL d   1      -0.989  -0.057   1.153  0.00  0.00     0.048 A 
ATOM      6  C5  UNL d   1      -0.778   0.887   2.160  0.00  0.00     0.003 A 
ATOM      7  I   UNL d   1      -0.514  -1.429  -1.501  0.00  0.00    -0.146 I 
ENDROOT
TORSDOF 0
ENDMDL
