MODEL 1
REMARK minimizedAffinity -3.63348627
REMARK minimizedRMSD -1
REMARK  0 active torsions:
REMARK  status: ('A' for Active; 'I' for Inactive)
ROOT
ATOM      1  C   UNL d   1       2.432   2.286   1.238  0.00  0.00     0.023 A 
ATOM      2  C1  UNL d   1       3.016   1.372   0.361  0.00  0.00     0.003 A 
ATOM      3  C2  UNL d   1       2.239   0.370  -0.224  0.00  0.00     0.048 A 
ATOM      4  C3  UNL d   1       0.879   0.287   0.071  0.00  0.00     0.023 A 
ATOM      5  C4  UNL d   1       0.290   1.200   0.948  0.00  0.00     0.048 A 
ATOM      6  C5  UNL d   1       1.071   2.200   1.531  0.00  0.00     0.003 A 
ATOM      7  I   UNL d   1      -0.279  -1.203  -0.799  0.00  0.00    -0.146 I 
ENDROOT
TORSDOF 0
ENDMDL
