MODEL 1
REMARK minimizedAffinity -3.42067838
REMARK minimizedRMSD -1
REMARK  0 active torsions:
REMARK  status: ('A' for Active; 'I' for Inactive)
ROOT
ATOM      1  C   UNL d   1       2.919   2.979   0.870  0.00  0.00     0.023 A 
ATOM      2  C1  UNL d   1       3.618   1.853   0.435  0.00  0.00     0.003 A 
ATOM      3  C2  UNL d   1       2.922   0.731  -0.021  0.00  0.00     0.048 A 
ATOM      4  C3  UNL d   1       1.528   0.743  -0.040  0.00  0.00     0.023 A 
ATOM      5  C4  UNL d   1       0.824   1.867   0.394  0.00  0.00     0.048 A 
ATOM      6  C5  UNL d   1       1.524   2.986   0.850  0.00  0.00     0.003 A 
ATOM      7  I   UNL d   1       0.491  -0.926  -0.718  0.00  0.00    -0.146 I 
ENDROOT
TORSDOF 0
ENDMDL
