MODEL 1
REMARK minimizedAffinity 0.902721524
REMARK minimizedRMSD -1
REMARK  0 active torsions:
REMARK  status: ('A' for Active; 'I' for Inactive)
ROOT
ATOM      1  C   UNL d   1      -1.159   0.518   1.170  0.00  0.00     0.023 A 
ATOM      2  C1  UNL d   1      -0.525  -0.334   0.265  0.00  0.00     0.003 A 
ATOM      3  C2  UNL d   1       0.857  -0.257   0.083  0.00  0.00     0.048 A 
ATOM      4  C3  UNL d   1       1.600   0.673   0.810  0.00  0.00     0.023 A 
ATOM      5  C4  UNL d   1       0.970   1.526   1.717  0.00  0.00     0.048 A 
ATOM      6  C5  UNL d   1      -0.412   1.447   1.895  0.00  0.00     0.003 A 
ATOM      7  I   UNL d   1       3.657   0.788   0.540  0.00  0.00    -0.146 I 
ENDROOT
TORSDOF 0
ENDMDL
