MODEL 1
REMARK minimizedAffinity -3.33873057
REMARK minimizedRMSD -1
REMARK  0 active torsions:
REMARK  status: ('A' for Active; 'I' for Inactive)
ROOT
ATOM      1  C   UNL d   1       1.499   1.993   1.908  0.00  0.00     0.023 A 
ATOM      2  C1  UNL d   1       0.115   1.819   1.903  0.00  0.00     0.003 A 
ATOM      3  C2  UNL d   1      -0.473   0.918   1.014  0.00  0.00     0.048 A 
ATOM      4  C3  UNL d   1       0.328   0.193   0.132  0.00  0.00     0.023 A 
ATOM      5  C4  UNL d   1       1.713   0.363   0.134  0.00  0.00     0.048 A 
ATOM      6  C5  UNL d   1       2.297   1.266   1.025  0.00  0.00     0.003 A 
ATOM      7  I   UNL d   1      -0.546  -1.149  -1.192  0.00  0.00    -0.146 I 
ENDROOT
TORSDOF 0
ENDMDL
