MODEL 1
REMARK minimizedAffinity 2.49191594
REMARK minimizedRMSD -1
REMARK  0 active torsions:
REMARK  status: ('A' for Active; 'I' for Inactive)
ROOT
ATOM      1  C   UNL d   1      -0.103   1.199   1.552  0.00  0.00     0.023 A 
ATOM      2  C1  UNL d   1       0.492   0.360   0.610  0.00  0.00     0.003 A 
ATOM      3  C2  UNL d   1       1.109   0.902  -0.519  0.00  0.00     0.048 A 
ATOM      4  C3  UNL d   1       1.129   2.285  -0.699  0.00  0.00     0.023 A 
ATOM      5  C4  UNL d   1       0.536   3.129   0.241  0.00  0.00     0.048 A 
ATOM      6  C5  UNL d   1      -0.081   2.582   1.368  0.00  0.00     0.003 A 
ATOM      7  I   UNL d   1       2.047   3.094  -2.379  0.00  0.00    -0.146 I 
ENDROOT
TORSDOF 0
ENDMDL
