MODEL 1
REMARK minimizedAffinity 3.07463241
REMARK minimizedRMSD -1
REMARK  0 active torsions:
REMARK  status: ('A' for Active; 'I' for Inactive)
ROOT
ATOM      1  C   UNL d   1       1.541  -1.450   3.336  0.00  0.00     0.172 C 
ATOM      2  N   UNL d   1       2.089  -0.116   3.412  0.00  0.00    -0.070 N 
ATOM      3  C1  UNL d   1       2.749   0.416   4.488  0.00  0.00    -0.004 A 
ATOM      4  C2  UNL d   1       3.112   1.705   4.165  0.00  0.00    -0.047 A 
ATOM      5  C3  UNL d   1       2.654   1.957   2.850  0.00  0.00    -0.047 A 
ATOM      6  C4  UNL d   1       2.024   0.813   2.408  0.00  0.00    -0.004 A 
ENDROOT
TORSDOF 0
ENDMDL
