MODEL 1
REMARK minimizedAffinity -3.60664034
REMARK minimizedRMSD -1
REMARK  0 active torsions:
REMARK  status: ('A' for Active; 'I' for Inactive)
ROOT
ATOM      1  C   UNL d   1      -1.161  -0.114  -0.177  0.00  0.00     0.172 C 
ATOM      2  N   UNL d   1       0.246   0.187  -0.047  0.00  0.00    -0.070 N 
ATOM      3  C1  UNL d   1       0.804   1.436  -0.101  0.00  0.00    -0.004 A 
ATOM      4  C2  UNL d   1       2.165   1.298   0.065  0.00  0.00    -0.047 A 
ATOM      5  C3  UNL d   1       2.434  -0.082   0.224  0.00  0.00    -0.047 A 
ATOM      6  C4  UNL d   1       1.228  -0.747   0.151  0.00  0.00    -0.004 A 
ENDROOT
TORSDOF 0
ENDMDL
