MODEL 1
REMARK minimizedAffinity -2.8386488
REMARK minimizedRMSD -1
REMARK  0 active torsions:
REMARK  status: ('A' for Active; 'I' for Inactive)
ROOT
ATOM      1  C   UNL d   1      -2.291  -0.289  -2.442  0.00  0.00     0.172 C 
ATOM      2  N   UNL d   1      -1.212   0.025  -1.535  0.00  0.00    -0.070 N 
ATOM      3  C1  UNL d   1       0.102   0.190  -1.885  0.00  0.00    -0.004 A 
ATOM      4  C2  UNL d   1       0.810   0.479  -0.739  0.00  0.00    -0.047 A 
ATOM      5  C3  UNL d   1      -0.109   0.487   0.337  0.00  0.00    -0.047 A 
ATOM      6  C4  UNL d   1      -1.354   0.203  -0.184  0.00  0.00    -0.004 A 
ENDROOT
TORSDOF 0
ENDMDL
