MODEL 1
REMARK minimizedAffinity -1.7148149
REMARK minimizedRMSD -1
REMARK  0 active torsions:
REMARK  status: ('A' for Active; 'I' for Inactive)
ROOT
ATOM      1  C   UNL d   1       0.448  -2.048   1.483  0.00  0.00     0.172 C 
ATOM      2  N   UNL d   1       1.123  -0.859   1.018  0.00  0.00    -0.070 N 
ATOM      3  C1  UNL d   1       2.345  -0.416   1.447  0.00  0.00    -0.004 A 
ATOM      4  C2  UNL d   1       2.637   0.745   0.764  0.00  0.00    -0.047 A 
ATOM      5  C3  UNL d   1       1.551   1.009  -0.105  0.00  0.00    -0.047 A 
ATOM      6  C4  UNL d   1       0.629  -0.000   0.072  0.00  0.00    -0.004 A 
ENDROOT
TORSDOF 0
ENDMDL
