MODEL 1
REMARK minimizedAffinity -1.27486098
REMARK minimizedRMSD -1
REMARK  0 active torsions:
REMARK  status: ('A' for Active; 'I' for Inactive)
ROOT
ATOM      1  C   UNL d   1      -1.460  -0.093   0.086  0.00  0.00     0.172 C 
ATOM      2  N   UNL d   1      -2.157  -0.338  -1.155  0.00  0.00    -0.070 N 
ATOM      3  C1  UNL d   1      -3.246   0.357  -1.609  0.00  0.00    -0.004 A 
ATOM      4  C2  UNL d   1      -3.612  -0.180  -2.824  0.00  0.00    -0.047 A 
ATOM      5  C3  UNL d   1      -2.714  -1.235  -3.109  0.00  0.00    -0.047 A 
ATOM      6  C4  UNL d   1      -1.823  -1.311  -2.059  0.00  0.00    -0.004 A 
ENDROOT
TORSDOF 0
ENDMDL
