MODEL 1
REMARK minimizedAffinity -2.11423922
REMARK minimizedRMSD -1
REMARK  0 active torsions:
REMARK  status: ('A' for Active; 'I' for Inactive)
ROOT
ATOM      1  C   UNL d   1      -1.263   0.308  -0.090  0.00  0.00     0.172 C 
ATOM      2  N   UNL d   1       0.111   0.623   0.222  0.00  0.00    -0.070 N 
ATOM      3  C1  UNL d   1       0.931   1.436  -0.514  0.00  0.00    -0.004 A 
ATOM      4  C2  UNL d   1       2.156   1.480   0.114  0.00  0.00    -0.047 A 
ATOM      5  C3  UNL d   1       2.070   0.665   1.268  0.00  0.00    -0.047 A 
ATOM      6  C4  UNL d   1       0.793   0.147   1.310  0.00  0.00    -0.004 A 
ENDROOT
TORSDOF 0
ENDMDL
