MODEL 1
REMARK minimizedAffinity -3.63016963
REMARK minimizedRMSD -1
REMARK  0 active torsions:
REMARK  status: ('A' for Active; 'I' for Inactive)
ROOT
ATOM      1  C   UNL d   1      -1.131  -0.030   0.204  0.00  0.00     0.172 C 
ATOM      2  N   UNL d   1       0.303   0.031   0.358  0.00  0.00    -0.070 N 
ATOM      3  C1  UNL d   1       1.143  -1.047   0.451  0.00  0.00    -0.004 A 
ATOM      4  C2  UNL d   1       2.429  -0.570   0.588  0.00  0.00    -0.047 A 
ATOM      5  C3  UNL d   1       2.359   0.844   0.578  0.00  0.00    -0.047 A 
ATOM      6  C4  UNL d   1       1.032   1.189   0.434  0.00  0.00    -0.004 A 
ENDROOT
TORSDOF 0
ENDMDL
