MODEL 1
REMARK minimizedAffinity 7.06369734
REMARK minimizedRMSD -1
REMARK  0 active torsions:
REMARK  status: ('A' for Active; 'I' for Inactive)
ROOT
ATOM      1  C   UNL d   1      -6.000   2.148  -1.139  0.00  0.00     0.172 C 
ATOM      2  N   UNL d   1      -5.457   3.455  -1.424  0.00  0.00    -0.070 N 
ATOM      3  C1  UNL d   1      -6.000   4.648  -1.027  0.00  0.00    -0.004 A 
ATOM      4  C2  UNL d   1      -5.187   5.658  -1.495  0.00  0.00    -0.047 A 
ATOM      5  C3  UNL d   1      -4.119   5.051  -2.197  0.00  0.00    -0.047 A 
ATOM      6  C4  UNL d   1      -4.311   3.687  -2.138  0.00  0.00    -0.004 A 
ENDROOT
TORSDOF 0
ENDMDL
