MODEL 1
REMARK minimizedAffinity -3.77399182
REMARK minimizedRMSD -1
REMARK  0 active torsions:
REMARK  status: ('A' for Active; 'I' for Inactive)
ROOT
ATOM      1  C   UNL d   1       2.824  -0.666   0.097  0.00  0.00     0.172 C 
ATOM      2  N   UNL d   1       1.401  -0.795   0.303  0.00  0.00    -0.070 N 
ATOM      3  C1  UNL d   1       0.512   0.242   0.402  0.00  0.00    -0.004 A 
ATOM      4  C2  UNL d   1      -0.743  -0.295   0.593  0.00  0.00    -0.047 A 
ATOM      5  C3  UNL d   1      -0.603  -1.703   0.611  0.00  0.00    -0.047 A 
ATOM      6  C4  UNL d   1       0.734  -1.985   0.429  0.00  0.00    -0.004 A 
ENDROOT
TORSDOF 0
ENDMDL
