MODEL 1
REMARK minimizedAffinity 10.0913038
REMARK minimizedRMSD -1
REMARK  2 active torsions:
REMARK  status: ('A' for Active; 'I' for Inactive)
REMARK    1  A    between atoms: C1_2  and  C2_3 
REMARK    2  A    between atoms: C2_3  and  C3_4 
ROOT
ATOM      1  C3  UNL d   1       1.671  -1.382   4.324  0.00  0.00    -0.075 A 
ATOM      2  C4  UNL d   1       1.490  -1.521   2.941  0.00  0.00     0.002 A 
ATOM      3  C5  UNL d   1       1.467  -0.399   2.112  0.00  0.00     0.002 A 
ATOM      4  C6  UNL d   1       1.615   0.875   2.656  0.00  0.00    -0.004 A 
ATOM      5  C7  UNL d   1       1.779   1.027   4.031  0.00  0.00     0.002 A 
ATOM      6  C8  UNL d   1       1.807  -0.095   4.862  0.00  0.00     0.002 A 
ENDROOT
BRANCH   1   7
ATOM      7  C2  UNL d   1       1.726  -2.594   5.222  0.00  0.00     0.056 C 
BRANCH   7   8
ATOM      8  C1  UNL d   1       0.419  -2.875   5.972  0.00  0.00     0.007 C 
ATOM      9  C   UNL d   1       0.048  -4.352   5.999  0.00  0.00     0.009 C 
ENDBRANCH   7   8
ENDBRANCH   1   7
TORSDOF 2
ENDMDL
