MODEL 1
REMARK minimizedAffinity 5.11421108
REMARK minimizedRMSD -1
REMARK  2 active torsions:
REMARK  status: ('A' for Active; 'I' for Inactive)
REMARK    1  A    between atoms: C1_2  and  C2_3 
REMARK    2  A    between atoms: C2_3  and  C3_4 
ROOT
ATOM      1  C3  UNL d   1      -2.586   0.148  -0.110  0.00  0.00    -0.075 A 
ATOM      2  C4  UNL d   1      -1.951   1.398  -0.089  0.00  0.00     0.002 A 
ATOM      3  C5  UNL d   1      -0.829   1.609   0.714  0.00  0.00     0.002 A 
ATOM      4  C6  UNL d   1      -0.336   0.579   1.511  0.00  0.00    -0.004 A 
ATOM      5  C7  UNL d   1      -0.969  -0.662   1.511  0.00  0.00     0.002 A 
ATOM      6  C8  UNL d   1      -2.088  -0.878   0.706  0.00  0.00     0.002 A 
ENDROOT
BRANCH   1   7
ATOM      7  C2  UNL d   1      -3.782  -0.096  -0.999  0.00  0.00     0.056 C 
BRANCH   7   8
ATOM      8  C1  UNL d   1      -3.453  -0.838  -2.298  0.00  0.00     0.007 C 
ATOM      9  C   UNL d   1      -2.906   0.074  -3.388  0.00  0.00     0.009 C 
ENDBRANCH   7   8
ENDBRANCH   1   7
TORSDOF 2
ENDMDL
