MODEL 1
REMARK minimizedAffinity 9.75247002
REMARK minimizedRMSD -1
REMARK  2 active torsions:
REMARK  status: ('A' for Active; 'I' for Inactive)
REMARK    1  A    between atoms: C1_2  and  C2_3 
REMARK    2  A    between atoms: C2_3  and  C3_4 
ROOT
ATOM      1  C3  UNL d   1      -2.114  -2.392  -0.786  0.00  0.00    -0.075 A 
ATOM      2  C4  UNL d   1      -2.826  -1.351  -1.399  0.00  0.00     0.002 A 
ATOM      3  C5  UNL d   1      -3.188  -1.437  -2.743  0.00  0.00     0.002 A 
ATOM      4  C6  UNL d   1      -2.836  -2.557  -3.493  0.00  0.00    -0.004 A 
ATOM      5  C7  UNL d   1      -2.114  -3.590  -2.899  0.00  0.00     0.002 A 
ATOM      6  C8  UNL d   1      -1.754  -3.509  -1.552  0.00  0.00     0.002 A 
ENDROOT
BRANCH   1   7
ATOM      7  C2  UNL d   1      -1.744  -2.319   0.677  0.00  0.00     0.056 C 
BRANCH   7   8
ATOM      8  C1  UNL d   1      -1.337  -0.919   1.148  0.00  0.00     0.007 C 
ATOM      9  C   UNL d   1       0.054  -0.874   1.766  0.00  0.00     0.009 C 
ENDBRANCH   7   8
ENDBRANCH   1   7
TORSDOF 2
ENDMDL
