MODEL 1
REMARK minimizedAffinity 2.71437883
REMARK minimizedRMSD -1
REMARK  2 active torsions:
REMARK  status: ('A' for Active; 'I' for Inactive)
REMARK    1  A    between atoms: C1_2  and  C2_3 
REMARK    2  A    between atoms: C2_3  and  C3_4 
ROOT
ATOM      1  C3  UNL d   1      -0.902  -4.344  -1.724  0.00  0.00    -0.075 A 
ATOM      2  C4  UNL d   1      -1.411  -3.071  -1.427  0.00  0.00     0.002 A 
ATOM      3  C5  UNL d   1      -2.502  -2.926  -0.570  0.00  0.00     0.002 A 
ATOM      4  C6  UNL d   1      -3.103  -4.050  -0.008  0.00  0.00    -0.004 A 
ATOM      5  C7  UNL d   1      -2.616  -5.320  -0.309  0.00  0.00     0.002 A 
ATOM      6  C8  UNL d   1      -1.522  -5.468  -1.163  0.00  0.00     0.002 A 
ENDROOT
BRANCH   1   7
ATOM      7  C2  UNL d   1       0.297  -4.505  -2.628  0.00  0.00     0.056 C 
BRANCH   7   8
ATOM      8  C1  UNL d   1       1.582  -4.904  -1.895  0.00  0.00     0.007 C 
ATOM      9  C   UNL d   1       2.364  -6.000  -2.607  0.00  0.00     0.009 C 
ENDBRANCH   7   8
ENDBRANCH   1   7
TORSDOF 2
ENDMDL
