MODEL 1
REMARK minimizedAffinity 9.5396471
REMARK minimizedRMSD -1
REMARK  2 active torsions:
REMARK  status: ('A' for Active; 'I' for Inactive)
REMARK    1  A    between atoms: C1_2  and  C2_3 
REMARK    2  A    between atoms: C2_3  and  C3_4 
ROOT
ATOM      1  C3  UNL d   1      -0.980   1.892   0.795  0.00  0.00    -0.075 A 
ATOM      2  C4  UNL d   1       0.224   1.507   1.402  0.00  0.00     0.002 A 
ATOM      3  C5  UNL d   1       0.398   0.201   1.863  0.00  0.00     0.002 A 
ATOM      4  C6  UNL d   1      -0.629  -0.730   1.732  0.00  0.00    -0.004 A 
ATOM      5  C7  UNL d   1      -1.836  -0.354   1.145  0.00  0.00     0.002 A 
ATOM      6  C8  UNL d   1      -2.012   0.951   0.680  0.00  0.00     0.002 A 
ENDROOT
BRANCH   1   7
ATOM      7  C2  UNL d   1      -1.165   3.295   0.268  0.00  0.00     0.056 C 
BRANCH   7   8
ATOM      8  C1  UNL d   1      -0.416   4.366   1.069  0.00  0.00     0.007 C 
ATOM      9  C   UNL d   1      -0.779   5.787   0.657  0.00  0.00     0.009 C 
ENDBRANCH   7   8
ENDBRANCH   1   7
TORSDOF 2
ENDMDL
