MODEL 1
REMARK minimizedAffinity 6.69854307
REMARK minimizedRMSD -1
REMARK  2 active torsions:
REMARK  status: ('A' for Active; 'I' for Inactive)
REMARK    1  A    between atoms: C1_2  and  C2_3 
REMARK    2  A    between atoms: C2_3  and  C3_4 
ROOT
ATOM      1  C3  UNL d   1      -5.003   3.785  -3.314  0.00  0.00    -0.075 A 
ATOM      2  C4  UNL d   1      -4.988   3.804  -1.911  0.00  0.00     0.002 A 
ATOM      3  C5  UNL d   1      -5.487   4.903  -1.212  0.00  0.00     0.002 A 
ATOM      4  C6  UNL d   1      -5.996   6.000  -1.904  0.00  0.00    -0.004 A 
ATOM      5  C7  UNL d   1      -6.000   6.000  -3.298  0.00  0.00     0.002 A 
ATOM      6  C8  UNL d   1      -5.505   4.899  -4.000  0.00  0.00     0.002 A 
ENDROOT
BRANCH   1   7
ATOM      7  C2  UNL d   1      -4.491   2.586  -4.076  0.00  0.00     0.056 C 
BRANCH   7   8
ATOM      8  C1  UNL d   1      -3.644   1.627  -3.234  0.00  0.00     0.007 C 
ATOM      9  C   UNL d   1      -4.213   0.216  -3.175  0.00  0.00     0.009 C 
ENDBRANCH   7   8
ENDBRANCH   1   7
TORSDOF 2
ENDMDL
