MODEL 1
REMARK minimizedAffinity 0.947308898
REMARK minimizedRMSD -1
REMARK  0 active torsions:
REMARK  status: ('A' for Active; 'I' for Inactive)
ROOT
ATOM      1  C2' OXE d   1       2.888  -0.836  -4.267  0.00  0.00     0.078 C 
ATOM      2  C1' OXE d   1       5.411  -1.636  -5.202  0.00  0.00     0.078 C 
ATOM      3  C1  OXE d   1       5.062  -0.171  -5.287  0.00  0.00    -0.078 A 
ATOM      4  C2  OXE d   1       3.807   0.204  -4.870  0.00  0.00    -0.078 A 
ATOM      5  C3  OXE d   1       3.453   1.550  -4.876  0.00  0.00     0.003 A 
ATOM      6  C4  OXE d   1       4.305   2.505  -5.445  0.00  0.00    -0.002 A 
ATOM      7  C5  OXE d   1       5.572   2.138  -5.912  0.00  0.00    -0.002 A 
ATOM      8  C6  OXE d   1       5.981   0.814  -5.801  0.00  0.00     0.003 A 
ENDROOT
TORSDOF 0
ENDMDL
