MODEL 1
REMARK minimizedAffinity 5.91270208
REMARK minimizedRMSD -1
REMARK  0 active torsions:
REMARK  status: ('A' for Active; 'I' for Inactive)
ROOT
ATOM      1  C2' OXE d   1       2.407   4.928  -2.188  0.00  0.00     0.078 C 
ATOM      2  C1' OXE d   1       4.742   5.559  -0.763  0.00  0.00     0.078 C 
ATOM      3  C1  OXE d   1       4.801   5.614  -2.269  0.00  0.00    -0.078 A 
ATOM      4  C2  OXE d   1       3.667   5.258  -2.959  0.00  0.00    -0.078 A 
ATOM      5  C3  OXE d   1       3.651   5.344  -4.348  0.00  0.00     0.003 A 
ATOM      6  C4  OXE d   1       4.823   5.640  -5.054  0.00  0.00    -0.002 A 
ATOM      7  C5  OXE d   1       5.999   5.967  -4.371  0.00  0.00    -0.002 A 
ATOM      8  C6  OXE d   1       5.994   6.000  -2.981  0.00  0.00     0.003 A 
ENDROOT
TORSDOF 0
ENDMDL
