MODEL 1
REMARK minimizedAffinity 6.68007517
REMARK minimizedRMSD -1
REMARK  0 active torsions:
REMARK  status: ('A' for Active; 'I' for Inactive)
ROOT
ATOM      1  C2' OXE d   1       1.428  -2.736   2.046  0.00  0.00     0.078 C 
ATOM      2  C1' OXE d   1       0.831  -1.822   4.633  0.00  0.00     0.078 C 
ATOM      3  C1  OXE d   1       1.188  -0.794   3.588  0.00  0.00    -0.078 A 
ATOM      4  C2  OXE d   1       1.524  -1.254   2.338  0.00  0.00    -0.078 A 
ATOM      5  C3  OXE d   1       1.808  -0.345   1.323  0.00  0.00     0.003 A 
ATOM      6  C4  OXE d   1       1.905   1.024   1.603  0.00  0.00    -0.002 A 
ATOM      7  C5  OXE d   1       1.606   1.510   2.880  0.00  0.00    -0.002 A 
ATOM      8  C6  OXE d   1       1.205   0.620   3.871  0.00  0.00     0.003 A 
ENDROOT
TORSDOF 0
ENDMDL
