MODEL 1
REMARK minimizedAffinity 12.6751451
REMARK minimizedRMSD -1
REMARK  0 active torsions:
REMARK  status: ('A' for Active; 'I' for Inactive)
ROOT
ATOM      1  C2' OXE d   1       1.222  -0.405   1.385  0.00  0.00     0.078 C 
ATOM      2  C1' OXE d   1       2.280   2.110   2.047  0.00  0.00     0.078 C 
ATOM      3  C1  OXE d   1       0.846   2.049   1.583  0.00  0.00    -0.078 A 
ATOM      4  C2  OXE d   1       0.351   0.821   1.217  0.00  0.00    -0.078 A 
ATOM      5  C3  OXE d   1      -0.982   0.701   0.834  0.00  0.00     0.003 A 
ATOM      6  C4  OXE d   1      -1.778   1.841   0.671  0.00  0.00    -0.002 A 
ATOM      7  C5  OXE d   1      -1.282   3.106   1.000  0.00  0.00    -0.002 A 
ATOM      8  C6  OXE d   1       0.012   3.223   1.497  0.00  0.00     0.003 A 
ENDROOT
TORSDOF 0
ENDMDL
