MODEL 1
REMARK minimizedAffinity 2.17841959
REMARK minimizedRMSD -1
REMARK  0 active torsions:
REMARK  status: ('A' for Active; 'I' for Inactive)
ROOT
ATOM      1  C2' OXE d   1       1.493  -3.515   1.297  0.00  0.00     0.078 C 
ATOM      2  C1' OXE d   1       0.634  -2.764   3.861  0.00  0.00     0.078 C 
ATOM      3  C1  OXE d   1       0.948  -1.667   2.875  0.00  0.00    -0.078 A 
ATOM      4  C2  OXE d   1       1.413  -2.043   1.638  0.00  0.00    -0.078 A 
ATOM      5  C3  OXE d   1       1.666  -1.073   0.673  0.00  0.00     0.003 A 
ATOM      6  C4  OXE d   1       1.598   0.287   1.000  0.00  0.00    -0.002 A 
ATOM      7  C5  OXE d   1       1.165   0.692   2.267  0.00  0.00    -0.002 A 
ATOM      8  C6  OXE d   1       0.796  -0.270   3.200  0.00  0.00     0.003 A 
ENDROOT
TORSDOF 0
ENDMDL
