MODEL 1
REMARK minimizedAffinity 7.55461788
REMARK minimizedRMSD -1
REMARK  0 active torsions:
REMARK  status: ('A' for Active; 'I' for Inactive)
ROOT
ATOM      1  C2' OXE d   1      -3.520  -0.012  -3.194  0.00  0.00     0.078 C 
ATOM      2  C1' OXE d   1      -4.922   2.411  -3.413  0.00  0.00     0.078 C 
ATOM      3  C1  OXE d   1      -3.915   2.279  -2.298  0.00  0.00    -0.078 A 
ATOM      4  C2  OXE d   1      -3.268   1.073  -2.170  0.00  0.00    -0.078 A 
ATOM      5  C3  OXE d   1      -2.290   0.916  -1.191  0.00  0.00     0.003 A 
ATOM      6  C4  OXE d   1      -2.070   1.922  -0.242  0.00  0.00    -0.002 A 
ATOM      7  C5  OXE d   1      -2.747   3.142  -0.330  0.00  0.00    -0.002 A 
ATOM      8  C6  OXE d   1      -3.640   3.352  -1.375  0.00  0.00     0.003 A 
ENDROOT
TORSDOF 0
ENDMDL
