MODEL 1
REMARK minimizedAffinity -0.398440689
REMARK minimizedRMSD -1
REMARK  0 active torsions:
REMARK  status: ('A' for Active; 'I' for Inactive)
ROOT
ATOM      1  C2' OXE d   1      -2.133   2.608   0.369  0.00  0.00     0.078 C 
ATOM      2  C1' OXE d   1      -0.526   0.311   0.243  0.00  0.00     0.078 C 
ATOM      3  C1  OXE d   1      -1.645   0.442  -0.759  0.00  0.00    -0.078 A 
ATOM      4  C2  OXE d   1      -2.456   1.547  -0.661  0.00  0.00    -0.078 A 
ATOM      5  C3  OXE d   1      -3.469   1.744  -1.594  0.00  0.00     0.003 A 
ATOM      6  C4  OXE d   1      -3.767   0.753  -2.537  0.00  0.00    -0.002 A 
ATOM      7  C5  OXE d   1      -2.978  -0.399  -2.629  0.00  0.00    -0.002 A 
ATOM      8  C6  OXE d   1      -1.890  -0.550  -1.777  0.00  0.00     0.003 A 
ENDROOT
TORSDOF 0
ENDMDL
