MODEL 1
REMARK minimizedAffinity 11.6070728
REMARK minimizedRMSD -1
REMARK  0 active torsions:
REMARK  status: ('A' for Active; 'I' for Inactive)
ROOT
ATOM      1  C2' OXE d   1      -3.024  -0.434  -2.386  0.00  0.00     0.078 C 
ATOM      2  C1' OXE d   1      -4.234   2.051  -2.881  0.00  0.00     0.078 C 
ATOM      3  C1  OXE d   1      -3.493   1.876  -1.579  0.00  0.00    -0.078 A 
ATOM      4  C2  OXE d   1      -2.944   0.642  -1.325  0.00  0.00    -0.078 A 
ATOM      5  C3  OXE d   1      -2.203   0.443  -0.163  0.00  0.00     0.003 A 
ATOM      6  C4  OXE d   1      -2.142   1.440   0.818  0.00  0.00    -0.002 A 
ATOM      7  C5  OXE d   1      -2.728   2.691   0.597  0.00  0.00    -0.002 A 
ATOM      8  C6  OXE d   1      -3.369   2.939  -0.612  0.00  0.00     0.003 A 
ENDROOT
TORSDOF 0
ENDMDL
