MODEL 1
REMARK minimizedAffinity 3.28858185
REMARK minimizedRMSD -1
REMARK  0 active torsions:
REMARK  status: ('A' for Active; 'I' for Inactive)
ROOT
ATOM      1  C2' OXE d   1       3.045  -2.248   2.528  0.00  0.00     0.078 C 
ATOM      2  C1' OXE d   1       1.132  -0.257   3.037  0.00  0.00     0.078 C 
ATOM      3  C1  OXE d   1       1.225  -1.408   4.007  0.00  0.00    -0.078 A 
ATOM      4  C2  OXE d   1       2.132  -2.401   3.725  0.00  0.00    -0.078 A 
ATOM      5  C3  OXE d   1       2.296  -3.458   4.616  0.00  0.00     0.003 A 
ATOM      6  C4  OXE d   1       1.441  -3.598   5.716  0.00  0.00    -0.002 A 
ATOM      7  C5  OXE d   1       0.484  -2.618   6.000  0.00  0.00    -0.002 A 
ATOM      8  C6  OXE d   1       0.392  -1.497   5.181  0.00  0.00     0.003 A 
ENDROOT
TORSDOF 0
ENDMDL
