MODEL 1
REMARK minimizedAffinity -0.735588849
REMARK minimizedRMSD -1
REMARK  0 active torsions:
REMARK  status: ('A' for Active; 'I' for Inactive)
ROOT
ATOM      1  C2' OXE d   1       1.280   0.726   4.907  0.00  0.00     0.078 C 
ATOM      2  C1' OXE d   1       1.313  -2.015   5.513  0.00  0.00     0.078 C 
ATOM      3  C1  OXE d   1       1.610  -1.605   4.092  0.00  0.00    -0.078 A 
ATOM      4  C2  OXE d   1       1.546  -0.265   3.794  0.00  0.00    -0.078 A 
ATOM      5  C3  OXE d   1       1.866   0.172   2.512  0.00  0.00     0.003 A 
ATOM      6  C4  OXE d   1       2.101  -0.751   1.486  0.00  0.00    -0.002 A 
ATOM      7  C5  OXE d   1       2.131  -2.123   1.760  0.00  0.00    -0.002 A 
ATOM      8  C6  OXE d   1       1.931  -2.563   3.063  0.00  0.00     0.003 A 
ENDROOT
TORSDOF 0
ENDMDL
