MODEL 1
REMARK minimizedAffinity -3.926054
REMARK minimizedRMSD -1
REMARK  1 active torsions:
REMARK  status: ('A' for Active; 'I' for Inactive)
REMARK    1  A    between atoms: C1_2  and  C2_3 
ROOT
ATOM      1  C2  UNL d   1      -0.127  -0.017   0.363  0.00  0.00    -0.076 A 
ATOM      2  C3  UNL d   1       0.369   1.185  -0.172  0.00  0.00     0.004 A 
ATOM      3  C4  UNL d   1       1.658   1.625   0.126  0.00  0.00    -0.003 A 
ATOM      4  C5  UNL d   1       2.472   0.870   0.963  0.00  0.00     0.000 A 
ATOM      5  C6  UNL d   1       2.003  -0.334   1.488  0.00  0.00     0.000 A 
ATOM      6  C7  UNL d   1       0.712  -0.800   1.185  0.00  0.00    -0.073 A 
ATOM      7  C8  UNL d   1       0.255  -2.102   1.783  0.00  0.00     0.078 C 
ENDROOT
BRANCH   1   8
ATOM      8  C1  UNL d   1      -1.542  -0.430   0.026  0.00  0.00     0.053 C 
ATOM      9  C   UNL d   1      -1.999   0.102  -1.323  0.00  0.00     0.018 C 
ENDBRANCH   1   8
TORSDOF 1
ENDMDL
