MODEL 1
REMARK minimizedAffinity -6.20713997
REMARK minimizedRMSD -1
REMARK  1 active torsions:
REMARK  status: ('A' for Active; 'I' for Inactive)
REMARK    1  A    between atoms: C1_2  and  C2_3 
ROOT
ATOM      1  C2  UNL d   1       1.211  -1.025   1.107  0.00  0.00    -0.076 A 
ATOM      2  C3  UNL d   1      -0.041  -0.493   0.754  0.00  0.00     0.004 A 
ATOM      3  C4  UNL d   1      -0.143   0.747   0.127  0.00  0.00    -0.003 A 
ATOM      4  C5  UNL d   1       1.007   1.476  -0.159  0.00  0.00     0.000 A 
ATOM      5  C6  UNL d   1       2.258   0.955   0.169  0.00  0.00     0.000 A 
ATOM      6  C7  UNL d   1       2.379  -0.301   0.787  0.00  0.00    -0.073 A 
ATOM      7  C8  UNL d   1       3.754  -0.811   1.123  0.00  0.00     0.078 C 
ENDROOT
BRANCH   1   8
ATOM      8  C1  UNL d   1       1.258  -2.363   1.811  0.00  0.00     0.053 C 
ATOM      9  C   UNL d   1       1.437  -2.225   3.315  0.00  0.00     0.018 C 
ENDBRANCH   1   8
TORSDOF 1
ENDMDL
