MODEL 1
REMARK minimizedAffinity -4.75813437
REMARK minimizedRMSD -1
REMARK  1 active torsions:
REMARK  status: ('A' for Active; 'I' for Inactive)
REMARK    1  A    between atoms: C1_2  and  C2_3 
ROOT
ATOM      1  C2  UNL d   1       0.377  -0.614   0.479  0.00  0.00    -0.076 A 
ATOM      2  C3  UNL d   1       0.713  -1.869   1.017  0.00  0.00     0.004 A 
ATOM      3  C4  UNL d   1       1.980  -2.108   1.545  0.00  0.00    -0.003 A 
ATOM      4  C5  UNL d   1       2.934  -1.095   1.543  0.00  0.00     0.000 A 
ATOM      5  C6  UNL d   1       2.613   0.161   1.029  0.00  0.00     0.000 A 
ATOM      6  C7  UNL d   1       1.334   0.423   0.508  0.00  0.00    -0.073 A 
ATOM      7  C8  UNL d   1       1.045   1.794  -0.039  0.00  0.00     0.078 C 
ENDROOT
BRANCH   1   8
ATOM      8  C1  UNL d   1      -1.004  -0.422  -0.104  0.00  0.00     0.053 C 
ATOM      9  C   UNL d   1      -2.107  -0.799   0.873  0.00  0.00     0.018 C 
ENDBRANCH   1   8
TORSDOF 1
ENDMDL
