MODEL 1
REMARK minimizedAffinity 3.4777143
REMARK minimizedRMSD -1
REMARK  1 active torsions:
REMARK  status: ('A' for Active; 'I' for Inactive)
REMARK    1  A    between atoms: C1_2  and  C2_3 
ROOT
ATOM      1  C2  UNL d   1      -0.670   0.643  -0.173  0.00  0.00    -0.076 A 
ATOM      2  C3  UNL d   1       0.075   1.830  -0.274  0.00  0.00     0.004 A 
ATOM      3  C4  UNL d   1       1.323   1.949   0.336  0.00  0.00    -0.003 A 
ATOM      4  C5  UNL d   1       1.846   0.881   1.057  0.00  0.00     0.000 A 
ATOM      5  C6  UNL d   1       1.128  -0.311   1.153  0.00  0.00     0.000 A 
ATOM      6  C7  UNL d   1      -0.124  -0.452   0.531  0.00  0.00    -0.073 A 
ATOM      7  C8  UNL d   1      -0.857  -1.758   0.672  0.00  0.00     0.078 C 
ENDROOT
BRANCH   1   8
ATOM      8  C1  UNL d   1      -2.029   0.582  -0.832  0.00  0.00     0.053 C 
ATOM      9  C   UNL d   1      -1.986   0.998  -2.295  0.00  0.00     0.018 C 
ENDBRANCH   1   8
TORSDOF 1
ENDMDL
