MODEL 1
REMARK minimizedAffinity -6.97764111
REMARK minimizedRMSD -1
REMARK  1 active torsions:
REMARK  status: ('A' for Active; 'I' for Inactive)
REMARK    1  A    between atoms: C1_2  and  C2_3 
ROOT
ATOM      1  C2  UNL d   1      -0.112  -0.207   0.437  0.00  0.00    -0.076 A 
ATOM      2  C3  UNL d   1       0.267  -1.443   0.989  0.00  0.00     0.004 A 
ATOM      3  C4  UNL d   1       1.589  -1.690   1.354  0.00  0.00    -0.003 A 
ATOM      4  C5  UNL d   1       2.554  -0.705   1.175  0.00  0.00     0.000 A 
ATOM      5  C6  UNL d   1       2.192   0.534   0.646  0.00  0.00     0.000 A 
ATOM      6  C7  UNL d   1       0.861   0.805   0.288  0.00  0.00    -0.073 A 
ATOM      7  C8  UNL d   1       0.528   2.156  -0.284  0.00  0.00     0.078 C 
ENDROOT
BRANCH   1   8
ATOM      8  C1  UNL d   1      -1.555  -0.005   0.034  0.00  0.00     0.053 C 
ATOM      9  C   UNL d   1      -1.802  -0.329  -1.431  0.00  0.00     0.018 C 
ENDBRANCH   1   8
TORSDOF 1
ENDMDL
