MODEL 1
REMARK minimizedAffinity 6.46094847
REMARK minimizedRMSD -1
REMARK  0 active torsions:
REMARK  status: ('A' for Active; 'I' for Inactive)
ROOT
ATOM      1  N1  IND d   1       2.134  -2.709   2.210  0.00  0.00    -0.196 N 
ATOM      2  C2  IND d   1       3.059  -1.771   2.574  0.00  0.00     0.054 A 
ATOM      3  C3  IND d   1       3.421  -1.027   1.505  0.00  0.00    -0.031 A 
ATOM      4  C4  IND d   1       2.550  -1.110  -0.916  0.00  0.00     0.051 A 
ATOM      5  C5  IND d   1       1.727  -1.825  -1.741  0.00  0.00    -0.031 A 
ATOM      6  C6  IND d   1       0.981  -2.891  -1.281  0.00  0.00     0.015 A 
ATOM      7  C7  IND d   1       1.021  -3.276   0.029  0.00  0.00    -0.016 A 
ATOM      8  C8  IND d   1       1.861  -2.557   0.868  0.00  0.00    -0.047 A 
ATOM      9  C9  IND d   1       2.653  -1.502   0.398  0.00  0.00    -0.096 A 
ATOM     10  HN1 IND d   1       1.783  -3.296   2.731  0.00  0.00     0.298 HD
ENDROOT
TORSDOF 0
ENDMDL
