MODEL 1
REMARK minimizedAffinity 3.58787274
REMARK minimizedRMSD -1
REMARK  0 active torsions:
REMARK  status: ('A' for Active; 'I' for Inactive)
ROOT
ATOM      1  N1  IND d   1       3.381  -1.881  -0.001  0.00  0.00    -0.196 N 
ATOM      2  C2  IND d   1       2.229  -2.588  -0.205  0.00  0.00     0.054 A 
ATOM      3  C3  IND d   1       1.151  -1.788  -0.042  0.00  0.00    -0.031 A 
ATOM      4  C4  IND d   1       1.048   0.735   0.460  0.00  0.00     0.051 A 
ATOM      5  C5  IND d   1       1.841   1.806   0.764  0.00  0.00    -0.031 A 
ATOM      6  C6  IND d   1       3.215   1.702   0.827  0.00  0.00     0.015 A 
ATOM      7  C7  IND d   1       3.852   0.519   0.576  0.00  0.00    -0.016 A 
ATOM      8  C8  IND d   1       3.050  -0.572   0.274  0.00  0.00    -0.047 A 
ATOM      9  C9  IND d   1       1.652  -0.482   0.250  0.00  0.00    -0.096 A 
ATOM     10  HN1 IND d   1       4.179  -2.200  -0.039  0.00  0.00     0.298 HD
ENDROOT
TORSDOF 0
ENDMDL
