MODEL 1
REMARK minimizedAffinity 3.7864995
REMARK minimizedRMSD -1
REMARK  0 active torsions:
REMARK  status: ('A' for Active; 'I' for Inactive)
ROOT
ATOM      1  N1  IND d   1       0.688   1.182   1.649  0.00  0.00    -0.196 N 
ATOM      2  C2  IND d   1      -0.527   1.808   1.673  0.00  0.00     0.054 A 
ATOM      3  C3  IND d   1      -1.194   1.585   0.518  0.00  0.00    -0.031 A 
ATOM      4  C4  IND d   1      -0.523   0.140  -1.505  0.00  0.00     0.051 A 
ATOM      5  C5  IND d   1       0.512  -0.599  -2.005  0.00  0.00    -0.031 A 
ATOM      6  C6  IND d   1       1.682  -0.788  -1.297  0.00  0.00     0.015 A 
ATOM      7  C7  IND d   1       1.856  -0.252  -0.052  0.00  0.00    -0.016 A 
ATOM      8  C8  IND d   1       0.809   0.505   0.456  0.00  0.00    -0.047 A 
ATOM      9  C9  IND d   1      -0.363   0.736  -0.276  0.00  0.00    -0.096 A 
ATOM     10  HN1 IND d   1       1.278   1.208   2.274  0.00  0.00     0.298 HD
ENDROOT
TORSDOF 0
ENDMDL
