MODEL 1
REMARK minimizedAffinity 0.632812083
REMARK minimizedRMSD -1
REMARK  0 active torsions:
REMARK  status: ('A' for Active; 'I' for Inactive)
ROOT
ATOM      1  N1  IND d   1       0.163   1.154  -0.891  0.00  0.00    -0.196 N 
ATOM      2  C2  IND d   1       0.667   2.303  -0.348  0.00  0.00     0.054 A 
ATOM      3  C3  IND d   1       1.771   2.033   0.383  0.00  0.00    -0.031 A 
ATOM      4  C4  IND d   1       2.988  -0.207   0.742  0.00  0.00     0.051 A 
ATOM      5  C5  IND d   1       2.885  -1.543   0.476  0.00  0.00    -0.031 A 
ATOM      6  C6  IND d   1       1.850  -2.059  -0.277  0.00  0.00     0.015 A 
ATOM      7  C7  IND d   1       0.881  -1.252  -0.804  0.00  0.00    -0.016 A 
ATOM      8  C8  IND d   1       0.979   0.105  -0.530  0.00  0.00    -0.047 A 
ATOM      9  C9  IND d   1       2.004   0.629   0.269  0.00  0.00    -0.096 A 
ATOM     10  HN1 IND d   1      -0.544   1.097  -1.377  0.00  0.00     0.298 HD
ENDROOT
TORSDOF 0
ENDMDL
