MODEL 1
REMARK minimizedAffinity 6.82540274
REMARK minimizedRMSD -1
REMARK  0 active torsions:
REMARK  status: ('A' for Active; 'I' for Inactive)
ROOT
ATOM      1  N1  IND d   1      -5.944   3.874  -3.477  0.00  0.00    -0.196 N 
ATOM      2  C2  IND d   1      -6.000   4.542  -2.285  0.00  0.00     0.054 A 
ATOM      3  C3  IND d   1      -5.583   3.742  -1.278  0.00  0.00    -0.031 A 
ATOM      4  C4  IND d   1      -4.669   1.337  -1.371  0.00  0.00     0.051 A 
ATOM      5  C5  IND d   1      -4.462   0.296  -2.231  0.00  0.00    -0.031 A 
ATOM      6  C6  IND d   1      -4.741   0.397  -3.579  0.00  0.00     0.015 A 
ATOM      7  C7  IND d   1      -5.230   1.552  -4.120  0.00  0.00    -0.016 A 
ATOM      8  C8  IND d   1      -5.448   2.609  -3.248  0.00  0.00    -0.047 A 
ATOM      9  C9  IND d   1      -5.206   2.499  -1.873  0.00  0.00    -0.096 A 
ATOM     10  HN1 IND d   1      -6.179   4.191  -4.241  0.00  0.00     0.298 HD
ENDROOT
TORSDOF 0
ENDMDL
