MODEL 1
REMARK minimizedAffinity 9.314991
REMARK minimizedRMSD -1
REMARK  0 active torsions:
REMARK  status: ('A' for Active; 'I' for Inactive)
ROOT
ATOM      1  N1  IND d   1       3.794  -0.338   1.120  0.00  0.00    -0.196 N 
ATOM      2  C2  IND d   1       3.690   0.875   0.497  0.00  0.00     0.054 A 
ATOM      3  C3  IND d   1       2.676   0.858  -0.397  0.00  0.00    -0.031 A 
ATOM      4  C4  IND d   1       0.993  -1.017  -0.927  0.00  0.00     0.051 A 
ATOM      5  C5  IND d   1       0.709  -2.322  -0.639  0.00  0.00    -0.031 A 
ATOM      6  C6  IND d   1       1.452  -3.046   0.271  0.00  0.00     0.015 A 
ATOM      7  C7  IND d   1       2.505  -2.486   0.937  0.00  0.00    -0.016 A 
ATOM      8  C8  IND d   1       2.801  -1.163   0.642  0.00  0.00    -0.047 A 
ATOM      9  C9  IND d   1       2.077  -0.436  -0.311  0.00  0.00    -0.096 A 
ATOM     10  HN1 IND d   1       4.382  -0.549   1.711  0.00  0.00     0.298 HD
ENDROOT
TORSDOF 0
ENDMDL
