MODEL 1
REMARK minimizedAffinity 15.1601114
REMARK minimizedRMSD -1
REMARK  0 active torsions:
REMARK  status: ('A' for Active; 'I' for Inactive)
ROOT
ATOM      1  N1  IND d   1       2.860  -2.473   2.070  0.00  0.00    -0.196 N 
ATOM      2  C2  IND d   1       3.371  -1.692   1.072  0.00  0.00     0.054 A 
ATOM      3  C3  IND d   1       2.787  -0.473   1.082  0.00  0.00    -0.031 A 
ATOM      4  C4  IND d   1       1.043   0.491   2.712  0.00  0.00     0.051 A 
ATOM      5  C5  IND d   1       0.247   0.143   3.767  0.00  0.00    -0.031 A 
ATOM      6  C6  IND d   1       0.284  -1.119   4.324  0.00  0.00     0.015 A 
ATOM      7  C7  IND d   1       1.130  -2.082   3.851  0.00  0.00    -0.016 A 
ATOM      8  C8  IND d   1       1.935  -1.734   2.775  0.00  0.00    -0.047 A 
ATOM      9  C9  IND d   1       1.871  -0.468   2.179  0.00  0.00    -0.096 A 
ATOM     10  HN1 IND d   1       3.079  -3.289   2.232  0.00  0.00     0.298 HD
ENDROOT
TORSDOF 0
ENDMDL
