MODEL 1
REMARK minimizedAffinity 10.4250526
REMARK minimizedRMSD -1
REMARK  0 active torsions:
REMARK  status: ('A' for Active; 'I' for Inactive)
ROOT
ATOM      1  N1  IND d   1       1.108   1.530   3.926  0.00  0.00    -0.196 N 
ATOM      2  C2  IND d   1      -0.155   1.097   4.216  0.00  0.00     0.054 A 
ATOM      3  C3  IND d   1      -0.940   1.164   3.118  0.00  0.00    -0.031 A 
ATOM      4  C4  IND d   1      -0.333   1.859   0.714  0.00  0.00     0.051 A 
ATOM      5  C5  IND d   1       0.691   2.369  -0.034  0.00  0.00    -0.031 A 
ATOM      6  C6  IND d   1       1.933   2.628   0.511  0.00  0.00     0.015 A 
ATOM      7  C7  IND d   1       2.201   2.375   1.826  0.00  0.00    -0.016 A 
ATOM      8  C8  IND d   1       1.161   1.864   2.590  0.00  0.00    -0.047 A 
ATOM      9  C9  IND d   1      -0.113   1.639   2.054  0.00  0.00    -0.096 A 
ATOM     10  HN1 IND d   1       1.761   1.586   4.483  0.00  0.00     0.298 HD
ENDROOT
TORSDOF 0
ENDMDL
