MODEL 1
REMARK minimizedAffinity -3.35556245
REMARK minimizedRMSD -1
REMARK  0 active torsions:
REMARK  status: ('A' for Active; 'I' for Inactive)
ROOT
ATOM      1  C   UNL d   1       1.615   2.911   0.463  0.00  0.00    -0.002 A 
ATOM      2  C1  UNL d   1       2.656   1.999   0.558  0.00  0.00     0.010 A 
ATOM      3  C2  UNL d   1       2.411   0.628   0.447  0.00  0.00     0.041 A 
ATOM      4  C3  UNL d   1       1.091   0.186   0.234  0.00  0.00    -0.075 A 
ATOM      5  S   UNL d   1       0.554  -1.443   0.066  0.00  0.00     0.015 SA
ATOM      6  C4  UNL d   1      -1.069  -0.966  -0.138  0.00  0.00     0.022 A 
ATOM      7  C5  UNL d   1      -1.217   0.399  -0.081  0.00  0.00     0.026 A 
ATOM      8  C6  UNL d   1       0.026   1.086   0.134  0.00  0.00    -0.082 A 
ATOM      9  C7  UNL d   1       0.306   2.469   0.252  0.00  0.00     0.045 A 
ENDROOT
TORSDOF 0
ENDMDL
