MODEL 1
REMARK minimizedAffinity 8.22071075
REMARK minimizedRMSD -1
REMARK  0 active torsions:
REMARK  status: ('A' for Active; 'I' for Inactive)
ROOT
ATOM      1  C   UNL d   1      -0.707   2.957   0.946  0.00  0.00    -0.002 A 
ATOM      2  C1  UNL d   1      -0.074   1.873   1.537  0.00  0.00     0.010 A 
ATOM      3  C2  UNL d   1      -0.323   0.574   1.090  0.00  0.00     0.041 A 
ATOM      4  C3  UNL d   1      -1.226   0.381   0.026  0.00  0.00    -0.075 A 
ATOM      5  S   UNL d   1      -1.685  -1.119  -0.689  0.00  0.00     0.015 SA
ATOM      6  C4  UNL d   1      -2.732  -0.357  -1.796  0.00  0.00     0.022 A 
ATOM      7  C5  UNL d   1      -2.744   1.009  -1.638  0.00  0.00     0.026 A 
ATOM      8  C6  UNL d   1      -1.876   1.457  -0.586  0.00  0.00    -0.082 A 
ATOM      9  C7  UNL d   1      -1.603   2.761  -0.109  0.00  0.00     0.045 A 
ENDROOT
TORSDOF 0
ENDMDL
