MODEL 1
REMARK minimizedAffinity -1.3282882
REMARK minimizedRMSD -1
REMARK  0 active torsions:
REMARK  status: ('A' for Active; 'I' for Inactive)
ROOT
ATOM      1  C   UNL d   1       1.448   3.712   0.611  0.00  0.00    -0.002 A 
ATOM      2  C1  UNL d   1       2.631   2.989   0.668  0.00  0.00     0.010 A 
ATOM      3  C2  UNL d   1       2.615   1.594   0.615  0.00  0.00     0.041 A 
ATOM      4  C3  UNL d   1       1.377   0.931   0.500  0.00  0.00    -0.075 A 
ATOM      5  S   UNL d   1       1.113  -0.771   0.417  0.00  0.00     0.015 SA
ATOM      6  C4  UNL d   1      -0.576  -0.579   0.303  0.00  0.00     0.022 A 
ATOM      7  C5  UNL d   1      -0.948   0.745   0.327  0.00  0.00     0.026 A 
ATOM      8  C6  UNL d   1       0.172   1.637   0.441  0.00  0.00    -0.082 A 
ATOM      9  C7  UNL d   1       0.222   3.050   0.498  0.00  0.00     0.045 A 
ENDROOT
TORSDOF 0
ENDMDL
