MODEL 1
REMARK minimizedAffinity 1.67544341
REMARK minimizedRMSD -1
REMARK  0 active torsions:
REMARK  status: ('A' for Active; 'I' for Inactive)
ROOT
ATOM      1  C   UNL d   1       0.091  -3.319  -2.085  0.00  0.00    -0.002 A 
ATOM      2  C1  UNL d   1      -0.900  -3.787  -1.234  0.00  0.00     0.010 A 
ATOM      3  C2  UNL d   1      -1.360  -2.998  -0.178  0.00  0.00     0.041 A 
ATOM      4  C3  UNL d   1      -0.803  -1.718   0.009  0.00  0.00    -0.075 A 
ATOM      5  S   UNL d   1      -1.211  -0.576   1.235  0.00  0.00     0.015 SA
ATOM      6  C4  UNL d   1      -0.080   0.561   0.657  0.00  0.00     0.022 A 
ATOM      7  C5  UNL d   1       0.602   0.096  -0.443  0.00  0.00     0.026 A 
ATOM      8  C6  UNL d   1       0.196  -1.224  -0.835  0.00  0.00    -0.082 A 
ATOM      9  C7  UNL d   1       0.641  -2.048  -1.896  0.00  0.00     0.045 A 
ENDROOT
TORSDOF 0
ENDMDL
