MODEL 1
REMARK minimizedAffinity -5.54214287
REMARK minimizedRMSD -1
REMARK  0 active torsions:
REMARK  status: ('A' for Active; 'I' for Inactive)
ROOT
ATOM      1  C   UNL d   1       1.524   3.119   0.250  0.00  0.00    -0.002 A 
ATOM      2  C1  UNL d   1       2.532   2.172   0.370  0.00  0.00     0.010 A 
ATOM      3  C2  UNL d   1       2.229   0.809   0.366  0.00  0.00     0.041 A 
ATOM      4  C3  UNL d   1       0.884   0.410   0.236  0.00  0.00    -0.075 A 
ATOM      5  S   UNL d   1       0.277  -1.203   0.204  0.00  0.00     0.015 SA
ATOM      6  C4  UNL d   1      -1.334  -0.673   0.029  0.00  0.00     0.022 A 
ATOM      7  C5  UNL d   1      -1.424   0.698  -0.005  0.00  0.00     0.026 A 
ATOM      8  C6  UNL d   1      -0.148   1.345   0.112  0.00  0.00    -0.082 A 
ATOM      9  C7  UNL d   1       0.192   2.720   0.121  0.00  0.00     0.045 A 
ENDROOT
TORSDOF 0
ENDMDL
