MODEL 1
REMARK minimizedAffinity -3.68475318
REMARK minimizedRMSD -1
REMARK  0 active torsions:
REMARK  status: ('A' for Active; 'I' for Inactive)
ROOT
ATOM      1  C   UNL d   1       2.174   3.547   1.151  0.00  0.00    -0.002 A 
ATOM      2  C1  UNL d   1       3.011   2.454   1.327  0.00  0.00     0.010 A 
ATOM      3  C2  UNL d   1       2.528   1.155   1.156  0.00  0.00     0.041 A 
ATOM      4  C3  UNL d   1       1.177   0.972   0.800  0.00  0.00    -0.075 A 
ATOM      5  S   UNL d   1       0.366  -0.526   0.536  0.00  0.00     0.015 SA
ATOM      6  C4  UNL d   1      -1.110   0.250   0.183  0.00  0.00     0.022 A 
ATOM      7  C5  UNL d   1      -1.005   1.618   0.260  0.00  0.00     0.026 A 
ATOM      8  C6  UNL d   1       0.315   2.057   0.616  0.00  0.00    -0.082 A 
ATOM      9  C7  UNL d   1       0.835   3.361   0.798  0.00  0.00     0.045 A 
ENDROOT
TORSDOF 0
ENDMDL
