MODEL 1
REMARK minimizedAffinity -4.16167402
REMARK minimizedRMSD -1
REMARK  0 active torsions:
REMARK  status: ('A' for Active; 'I' for Inactive)
ROOT
ATOM      1  C   UNL d   1       2.029   2.580   0.767  0.00  0.00    -0.002 A 
ATOM      2  C1  UNL d   1       0.797   3.154   1.045  0.00  0.00     0.010 A 
ATOM      3  C2  UNL d   1      -0.359   2.371   1.084  0.00  0.00     0.041 A 
ATOM      4  C3  UNL d   1      -0.253   0.988   0.837  0.00  0.00    -0.075 A 
ATOM      5  S   UNL d   1      -1.533  -0.168   0.833  0.00  0.00     0.015 SA
ATOM      6  C4  UNL d   1      -0.473  -1.450   0.462  0.00  0.00     0.022 A 
ATOM      7  C5  UNL d   1       0.829  -1.025   0.342  0.00  0.00     0.026 A 
ATOM      8  C6  UNL d   1       0.977   0.387   0.556  0.00  0.00    -0.082 A 
ATOM      9  C7  UNL d   1       2.130   1.208   0.524  0.00  0.00     0.045 A 
ENDROOT
TORSDOF 0
ENDMDL
