MODEL 1
REMARK minimizedAffinity -3.20035458
REMARK minimizedRMSD -1
REMARK  0 active torsions:
REMARK  status: ('A' for Active; 'I' for Inactive)
ROOT
ATOM      1  C   UNL d   1      -1.399   2.627   0.752  0.00  0.00    -0.002 A 
ATOM      2  C1  UNL d   1      -2.416   1.701   0.565  0.00  0.00     0.010 A 
ATOM      3  C2  UNL d   1      -2.122   0.346   0.408  0.00  0.00     0.041 A 
ATOM      4  C3  UNL d   1      -0.776  -0.068   0.445  0.00  0.00    -0.075 A 
ATOM      5  S   UNL d   1      -0.178  -1.677   0.276  0.00  0.00     0.015 SA
ATOM      6  C4  UNL d   1       1.441  -1.173   0.449  0.00  0.00     0.022 A 
ATOM      7  C5  UNL d   1       1.541   0.186   0.632  0.00  0.00     0.026 A 
ATOM      8  C6  UNL d   1       0.265   0.845   0.633  0.00  0.00    -0.082 A 
ATOM      9  C7  UNL d   1      -0.065   2.213   0.788  0.00  0.00     0.045 A 
ENDROOT
TORSDOF 0
ENDMDL
