MODEL 1
REMARK minimizedAffinity -3.93082333
REMARK minimizedRMSD -1
REMARK  0 active torsions:
REMARK  status: ('A' for Active; 'I' for Inactive)
ROOT
ATOM      1  C   UNL d   1       2.071   2.298   0.107  0.00  0.00    -0.002 A 
ATOM      2  C1  UNL d   1       0.832   2.918   0.177  0.00  0.00     0.010 A 
ATOM      3  C2  UNL d   1      -0.341   2.160   0.200  0.00  0.00     0.041 A 
ATOM      4  C3  UNL d   1      -0.245   0.755   0.153  0.00  0.00    -0.075 A 
ATOM      5  S   UNL d   1      -1.546  -0.377   0.170  0.00  0.00     0.015 SA
ATOM      6  C4  UNL d   1      -0.486  -1.709   0.086  0.00  0.00     0.022 A 
ATOM      7  C5  UNL d   1       0.831  -1.318   0.044  0.00  0.00     0.026 A 
ATOM      8  C6  UNL d   1       0.992   0.108   0.083  0.00  0.00    -0.082 A 
ATOM      9  C7  UNL d   1       2.162   0.905   0.061  0.00  0.00     0.045 A 
ENDROOT
TORSDOF 0
ENDMDL
