MODEL 1
REMARK minimizedAffinity -6.71712685
REMARK minimizedRMSD -1
REMARK  0 active torsions:
REMARK  status: ('A' for Active; 'I' for Inactive)
ROOT
ATOM      1  C   UNL d   1       1.547   4.220   0.095  0.00  0.00    -0.002 A 
ATOM      2  C1  UNL d   1       0.252   3.810  -0.187  0.00  0.00     0.010 A 
ATOM      3  C2  UNL d   1      -0.069   2.452  -0.237  0.00  0.00     0.041 A 
ATOM      4  C3  UNL d   1       0.943   1.504   0.006  0.00  0.00    -0.075 A 
ATOM      5  S   UNL d   1       0.783  -0.213  -0.001  0.00  0.00     0.015 SA
ATOM      6  C4  UNL d   1       2.430  -0.443   0.372  0.00  0.00     0.022 A 
ATOM      7  C5  UNL d   1       3.101   0.749   0.502  0.00  0.00     0.026 A 
ATOM      8  C6  UNL d   1       2.255   1.891   0.294  0.00  0.00    -0.082 A 
ATOM      9  C7  UNL d   1       2.549   3.276   0.336  0.00  0.00     0.045 A 
ENDROOT
TORSDOF 0
ENDMDL
