MODEL 1
REMARK minimizedAffinity -1.44268394
REMARK minimizedRMSD -1
REMARK  0 active torsions:
REMARK  status: ('A' for Active; 'I' for Inactive)
ROOT
ATOM      1  C1  BNZ d   1       0.110   0.247   0.717  0.00  0.00     0.000 A 
ATOM      2  C2  BNZ d   1      -0.847  -0.730   0.644  0.00  0.00     0.000 A 
ATOM      3  C3  BNZ d   1      -1.930  -0.589  -0.177  0.00  0.00     0.000 A 
ATOM      4  C4  BNZ d   1      -2.077   0.545  -0.893  0.00  0.00     0.000 A 
ATOM      5  C5  BNZ d   1      -1.126   1.543  -0.823  0.00  0.00     0.000 A 
ATOM      6  C6  BNZ d   1      -0.016   1.381  -0.025  0.00  0.00     0.000 A 
ENDROOT
TORSDOF 0
ENDMDL
