MODEL 1
REMARK minimizedAffinity -5.43801737
REMARK minimizedRMSD -1
REMARK  0 active torsions:
REMARK  status: ('A' for Active; 'I' for Inactive)
ROOT
ATOM      1  C1  BNZ d   1      -0.072  -0.738   0.357  0.00  0.00     0.000 A 
ATOM      2  C2  BNZ d   1       1.144  -1.271   0.692  0.00  0.00     0.000 A 
ATOM      3  C3  BNZ d   1       2.277  -0.507   0.658  0.00  0.00     0.000 A 
ATOM      4  C4  BNZ d   1       2.199   0.776   0.250  0.00  0.00     0.000 A 
ATOM      5  C5  BNZ d   1       0.982   1.326  -0.100  0.00  0.00     0.000 A 
ATOM      6  C6  BNZ d   1      -0.162   0.565  -0.027  0.00  0.00     0.000 A 
ENDROOT
TORSDOF 0
ENDMDL
