MODEL 1
REMARK minimizedAffinity -3.6724894
REMARK minimizedRMSD -1
REMARK  0 active torsions:
REMARK  status: ('A' for Active; 'I' for Inactive)
ROOT
ATOM      1  C1  BNZ d   1      -2.590  -1.899  -0.822  0.00  0.00     0.000 A 
ATOM      2  C2  BNZ d   1      -2.779  -1.962  -2.177  0.00  0.00     0.000 A 
ATOM      3  C3  BNZ d   1      -2.483  -0.893  -2.976  0.00  0.00     0.000 A 
ATOM      4  C4  BNZ d   1      -2.036   0.249  -2.415  0.00  0.00     0.000 A 
ATOM      5  C5  BNZ d   1      -1.850   0.332  -1.050  0.00  0.00     0.000 A 
ATOM      6  C6  BNZ d   1      -2.112  -0.759  -0.253  0.00  0.00     0.000 A 
ENDROOT
TORSDOF 0
ENDMDL
