MODEL 1
REMARK minimizedAffinity 3.8088541
REMARK minimizedRMSD -1
REMARK  0 active torsions:
REMARK  status: ('A' for Active; 'I' for Inactive)
ROOT
ATOM      1  C1  BNZ d   1      -5.209   2.746   1.618  0.00  0.00     0.000 A 
ATOM      2  C2  BNZ d   1      -5.797   3.199   0.467  0.00  0.00     0.000 A 
ATOM      3  C3  BNZ d   1      -5.161   3.080  -0.737  0.00  0.00     0.000 A 
ATOM      4  C4  BNZ d   1      -3.923   2.546  -0.783  0.00  0.00     0.000 A 
ATOM      5  C5  BNZ d   1      -3.314   2.094   0.370  0.00  0.00     0.000 A 
ATOM      6  C6  BNZ d   1      -3.973   2.180   1.575  0.00  0.00     0.000 A 
ENDROOT
TORSDOF 0
ENDMDL
