MODEL 1
REMARK minimizedAffinity -5.34057236
REMARK minimizedRMSD -1
REMARK  0 active torsions:
REMARK  status: ('A' for Active; 'I' for Inactive)
ROOT
ATOM      1  C1  BNZ d   1       0.149  -0.073   0.386  0.00  0.00     0.000 A 
ATOM      2  C2  BNZ d   1       0.176  -1.388   0.767  0.00  0.00     0.000 A 
ATOM      3  C3  BNZ d   1       1.294  -1.928   1.338  0.00  0.00     0.000 A 
ATOM      4  C4  BNZ d   1       2.395  -1.165   1.491  0.00  0.00     0.000 A 
ATOM      5  C5  BNZ d   1       2.387   0.160   1.103  0.00  0.00     0.000 A 
ATOM      6  C6  BNZ d   1       1.247   0.711   0.564  0.00  0.00     0.000 A 
ENDROOT
TORSDOF 0
ENDMDL
