MODEL 1
REMARK minimizedAffinity -4.38689899
REMARK minimizedRMSD -1
REMARK  0 active torsions:
REMARK  status: ('A' for Active; 'I' for Inactive)
ROOT
ATOM      1  C1  BNZ d   1       0.634  -1.360   1.304  0.00  0.00     0.000 A 
ATOM      2  C2  BNZ d   1       1.620  -1.917   2.074  0.00  0.00     0.000 A 
ATOM      3  C3  BNZ d   1       2.939  -1.735   1.761  0.00  0.00     0.000 A 
ATOM      4  C4  BNZ d   1       3.268  -1.032   0.658  0.00  0.00     0.000 A 
ATOM      5  C5  BNZ d   1       2.285  -0.472  -0.133  0.00  0.00     0.000 A 
ATOM      6  C6  BNZ d   1       0.960  -0.625   0.207  0.00  0.00     0.000 A 
ENDROOT
TORSDOF 0
ENDMDL
