MODEL 1
REMARK minimizedAffinity -2.31206918
REMARK minimizedRMSD -1
REMARK  0 active torsions:
REMARK  status: ('A' for Active; 'I' for Inactive)
ROOT
ATOM      1  C1  BNZ d   1       0.232   1.057  -0.631  0.00  0.00     0.000 A 
ATOM      2  C2  BNZ d   1       1.358   1.835  -0.685  0.00  0.00     0.000 A 
ATOM      3  C3  BNZ d   1       2.331   1.726   0.268  0.00  0.00     0.000 A 
ATOM      4  C4  BNZ d   1       2.159   0.869   1.295  0.00  0.00     0.000 A 
ATOM      5  C5  BNZ d   1       1.026   0.084   1.369  0.00  0.00     0.000 A 
ATOM      6  C6  BNZ d   1       0.066   0.169   0.387  0.00  0.00     0.000 A 
ENDROOT
TORSDOF 0
ENDMDL
