MODEL 1
REMARK minimizedAffinity -2.82440901
REMARK minimizedRMSD -1
REMARK  0 active torsions:
REMARK  status: ('A' for Active; 'I' for Inactive)
ROOT
ATOM      1  C1  BNZ d   1      -0.351  -0.669   0.715  0.00  0.00     0.000 A 
ATOM      2  C2  BNZ d   1       0.021   0.581   0.297  0.00  0.00     0.000 A 
ATOM      3  C3  BNZ d   1       1.208   1.129   0.697  0.00  0.00     0.000 A 
ATOM      4  C4  BNZ d   1       2.002   0.444   1.545  0.00  0.00     0.000 A 
ATOM      5  C5  BNZ d   1       1.637  -0.814   1.983  0.00  0.00     0.000 A 
ATOM      6  C6  BNZ d   1       0.460  -1.378   1.547  0.00  0.00     0.000 A 
ENDROOT
TORSDOF 0
ENDMDL
