MODEL 1
REMARK minimizedAffinity -4.56388283
REMARK minimizedRMSD -1
REMARK  0 active torsions:
REMARK  status: ('A' for Active; 'I' for Inactive)
ROOT
ATOM      1  C1  BNZ d   1       2.515  -0.935   0.633  0.00  0.00     0.000 A 
ATOM      2  C2  BNZ d   1       1.200  -0.940   0.249  0.00  0.00     0.000 A 
ATOM      3  C3  BNZ d   1       0.269  -1.654   0.950  0.00  0.00     0.000 A 
ATOM      4  C4  BNZ d   1       0.659  -2.393   2.008  0.00  0.00     0.000 A 
ATOM      5  C5  BNZ d   1       1.982  -2.406   2.402  0.00  0.00     0.000 A 
ATOM      6  C6  BNZ d   1       2.910  -1.655   1.718  0.00  0.00     0.000 A 
ENDROOT
TORSDOF 0
ENDMDL
