MODEL 1
REMARK minimizedAffinity -2.51744747
REMARK minimizedRMSD -1
REMARK  0 active torsions:
REMARK  status: ('A' for Active; 'I' for Inactive)
ROOT
ATOM      1  C1  BNZ d   1      -0.890  -0.692   0.295  0.00  0.00     0.000 A 
ATOM      2  C2  BNZ d   1      -1.251   0.166  -0.709  0.00  0.00     0.000 A 
ATOM      3  C3  BNZ d   1      -0.421   1.183  -1.093  0.00  0.00     0.000 A 
ATOM      4  C4  BNZ d   1       0.749   1.364  -0.446  0.00  0.00     0.000 A 
ATOM      5  C5  BNZ d   1       1.122   0.512   0.575  0.00  0.00     0.000 A 
ATOM      6  C6  BNZ d   1       0.302  -0.533   0.932  0.00  0.00     0.000 A 
ENDROOT
TORSDOF 0
ENDMDL
