MODEL 1
REMARK minimizedAffinity -4.37114286
REMARK minimizedRMSD -1
REMARK  0 active torsions:
REMARK  status: ('A' for Active; 'I' for Inactive)
ROOT
ATOM      1  C1  BNZ d   1       0.932   0.554   0.581  0.00  0.00     0.000 A 
ATOM      2  C2  BNZ d   1       0.541  -0.587   1.231  0.00  0.00     0.000 A 
ATOM      3  C3  BNZ d   1       1.443  -1.572   1.519  0.00  0.00     0.000 A 
ATOM      4  C4  BNZ d   1       2.725  -1.434   1.124  0.00  0.00     0.000 A 
ATOM      5  C5  BNZ d   1       3.133  -0.294   0.460  0.00  0.00     0.000 A 
ATOM      6  C6  BNZ d   1       2.230   0.713   0.205  0.00  0.00     0.000 A 
ENDROOT
TORSDOF 0
ENDMDL
