MODEL 1
REMARK minimizedAffinity -2.67243075
REMARK minimizedRMSD -1
REMARK  0 active torsions:
REMARK  status: ('A' for Active; 'I' for Inactive)
ROOT
ATOM      1  C1  BNZ d   1      -3.001  -1.268  -1.746  0.00  0.00     0.000 A 
ATOM      2  C2  BNZ d   1      -3.812  -0.885  -2.781  0.00  0.00     0.000 A 
ATOM      3  C3  BNZ d   1      -3.794   0.400  -3.245  0.00  0.00     0.000 A 
ATOM      4  C4  BNZ d   1      -2.998   1.310  -2.648  0.00  0.00     0.000 A 
ATOM      5  C5  BNZ d   1      -2.182   0.942  -1.597  0.00  0.00     0.000 A 
ATOM      6  C6  BNZ d   1      -2.173  -0.362  -1.158  0.00  0.00     0.000 A 
ENDROOT
TORSDOF 0
ENDMDL
