MODEL 1
REMARK minimizedAffinity 0.00593517348
REMARK minimizedRMSD -1
REMARK  0 active torsions:
REMARK  status: ('A' for Active; 'I' for Inactive)
ROOT
ATOM      1  C4' PXY d   1      -0.203   4.248   0.397  0.00  0.00     0.077 C 
ATOM      2  C1' PXY d   1       0.640  -1.455  -0.022  0.00  0.00     0.077 C 
ATOM      3  C1  PXY d   1       0.428   0.041   0.097  0.00  0.00    -0.082 A 
ATOM      4  C2  PXY d   1      -0.703   0.578  -0.332  0.00  0.00     0.003 A 
ATOM      5  C3  PXY d   1      -0.899   1.933  -0.260  0.00  0.00     0.003 A 
ATOM      6  C4  PXY d   1       0.051   2.741   0.304  0.00  0.00    -0.082 A 
ATOM      7  C5  PXY d   1       1.203   2.200   0.754  0.00  0.00     0.003 A 
ATOM      8  C6  PXY d   1       1.399   0.827   0.635  0.00  0.00     0.003 A 
ENDROOT
TORSDOF 0
ENDMDL
