MODEL 1
REMARK minimizedAffinity -1.43600166
REMARK minimizedRMSD -1
REMARK  0 active torsions:
REMARK  status: ('A' for Active; 'I' for Inactive)
ROOT
ATOM      1  C4' PXY d   1      -1.852  -2.475   0.870  0.00  0.00     0.077 C 
ATOM      2  C1' PXY d   1       1.296   2.102  -0.728  0.00  0.00     0.077 C 
ATOM      3  C1  PXY d   1       0.461   0.910  -0.304  0.00  0.00    -0.082 A 
ATOM      4  C2  PXY d   1       1.046  -0.261  -0.105  0.00  0.00     0.003 A 
ATOM      5  C3  PXY d   1       0.302  -1.357   0.247  0.00  0.00     0.003 A 
ATOM      6  C4  PXY d   1      -1.047  -1.242   0.451  0.00  0.00    -0.082 A 
ATOM      7  C5  PXY d   1      -1.650  -0.049   0.261  0.00  0.00     0.003 A 
ATOM      8  C6  PXY d   1      -0.882   1.042  -0.138  0.00  0.00     0.003 A 
ENDROOT
TORSDOF 0
ENDMDL
