MODEL 1
REMARK minimizedAffinity 2.47774291
REMARK minimizedRMSD -1
REMARK  0 active torsions:
REMARK  status: ('A' for Active; 'I' for Inactive)
ROOT
ATOM      1  C4' PXY d   1       1.931  -1.107   3.789  0.00  0.00     0.077 C 
ATOM      2  C1' PXY d   1       0.645   2.233  -0.751  0.00  0.00     0.077 C 
ATOM      3  C1  PXY d   1       0.970   1.352   0.440  0.00  0.00    -0.082 A 
ATOM      4  C2  PXY d   1       1.983   1.668   1.230  0.00  0.00     0.003 A 
ATOM      5  C3  PXY d   1       2.311   0.866   2.292  0.00  0.00     0.003 A 
ATOM      6  C4  PXY d   1       1.561  -0.242   2.581  0.00  0.00    -0.082 A 
ATOM      7  C5  PXY d   1       0.519  -0.566   1.786  0.00  0.00     0.003 A 
ATOM      8  C6  PXY d   1       0.228   0.239   0.688  0.00  0.00     0.003 A 
ENDROOT
TORSDOF 0
ENDMDL
