MODEL 1
REMARK minimizedAffinity 3.92010856
REMARK minimizedRMSD -1
REMARK  0 active torsions:
REMARK  status: ('A' for Active; 'I' for Inactive)
ROOT
ATOM      1  C4' PXY d   1       2.350  -1.311   3.669  0.00  0.00     0.077 C 
ATOM      2  C1' PXY d   1       0.676   2.075  -0.707  0.00  0.00     0.077 C 
ATOM      3  C1  PXY d   1       1.103   1.182   0.441  0.00  0.00    -0.082 A 
ATOM      4  C2  PXY d   1       2.146   1.522   1.182  0.00  0.00     0.003 A 
ATOM      5  C3  PXY d   1       2.565   0.710   2.204  0.00  0.00     0.003 A 
ATOM      6  C4  PXY d   1       1.877  -0.435   2.505  0.00  0.00    -0.082 A 
ATOM      7  C5  PXY d   1       0.806  -0.783   1.761  0.00  0.00     0.003 A 
ATOM      8  C6  PXY d   1       0.422   0.033   0.702  0.00  0.00     0.003 A 
ENDROOT
TORSDOF 0
ENDMDL
