MODEL 1
REMARK minimizedAffinity -3.89499998
REMARK minimizedRMSD -1
REMARK  0 active torsions:
REMARK  status: ('A' for Active; 'I' for Inactive)
ROOT
ATOM      1  C4' PXY d   1       3.283  -1.313   2.318  0.00  0.00     0.077 C 
ATOM      2  C1' PXY d   1      -0.850   1.873  -0.168  0.00  0.00     0.077 C 
ATOM      3  C1  PXY d   1       0.243   1.045   0.478  0.00  0.00    -0.082 A 
ATOM      4  C2  PXY d   1      -0.026  -0.183   0.892  0.00  0.00     0.003 A 
ATOM      5  C3  PXY d   1       0.943  -0.934   1.507  0.00  0.00     0.003 A 
ATOM      6  C4  PXY d   1       2.213  -0.444   1.652  0.00  0.00    -0.082 A 
ATOM      7  C5  PXY d   1       2.497   0.804   1.222  0.00  0.00     0.003 A 
ATOM      8  C6  PXY d   1       1.490   1.566   0.637  0.00  0.00     0.003 A 
ENDROOT
TORSDOF 0
ENDMDL
