MODEL 1
REMARK minimizedAffinity 3.12082529
REMARK minimizedRMSD -1
REMARK  0 active torsions:
REMARK  status: ('A' for Active; 'I' for Inactive)
ROOT
ATOM      1  C4' PXY d   1       1.099  -2.659   2.565  0.00  0.00     0.077 C 
ATOM      2  C1' PXY d   1       0.988   2.223  -0.528  0.00  0.00     0.077 C 
ATOM      3  C1  PXY d   1       1.005   0.942   0.282  0.00  0.00    -0.082 A 
ATOM      4  C2  PXY d   1       2.000   0.711   1.122  0.00  0.00     0.003 A 
ATOM      5  C3  PXY d   1       2.047  -0.457   1.839  0.00  0.00     0.003 A 
ATOM      6  C4  PXY d   1       1.037  -1.375   1.734  0.00  0.00    -0.082 A 
ATOM      7  C5  PXY d   1       0.012  -1.142   0.887  0.00  0.00     0.003 A 
ATOM      8  C6  PXY d   1       0.004   0.031   0.138  0.00  0.00     0.003 A 
ENDROOT
TORSDOF 0
ENDMDL
