MODEL 1
REMARK minimizedAffinity 3.39863992
REMARK minimizedRMSD -1
REMARK  0 active torsions:
REMARK  status: ('A' for Active; 'I' for Inactive)
ROOT
ATOM      1  C4' PXY d   1       2.498  -1.568   1.694  0.00  0.00     0.077 C 
ATOM      2  C1' PXY d   1       1.461   3.535  -0.816  0.00  0.00     0.077 C 
ATOM      3  C1  PXY d   1       1.743   2.194  -0.166  0.00  0.00    -0.082 A 
ATOM      4  C2  PXY d   1       0.778   1.568   0.487  0.00  0.00     0.003 A 
ATOM      5  C3  PXY d   1       1.024   0.371   1.108  0.00  0.00     0.003 A 
ATOM      6  C4  PXY d   1       2.257  -0.218   1.014  0.00  0.00    -0.082 A 
ATOM      7  C5  PXY d   1       3.244   0.410   0.341  0.00  0.00     0.003 A 
ATOM      8  C6  PXY d   1       2.985   1.644  -0.248  0.00  0.00     0.003 A 
ENDROOT
TORSDOF 0
ENDMDL
