MODEL 1
REMARK minimizedAffinity 1.44143522
REMARK minimizedRMSD -1
REMARK  0 active torsions:
REMARK  status: ('A' for Active; 'I' for Inactive)
ROOT
ATOM      1  C4' PXY d   1      -1.600  -1.905   0.294  0.00  0.00     0.077 C 
ATOM      2  C1' PXY d   1      -3.519  -0.237  -4.897  0.00  0.00     0.077 C 
ATOM      3  C1  PXY d   1      -3.018  -0.687  -3.538  0.00  0.00    -0.082 A 
ATOM      4  C2  PXY d   1      -2.984   0.176  -2.535  0.00  0.00     0.003 A 
ATOM      5  C3  PXY d   1      -2.505  -0.206  -1.309  0.00  0.00     0.003 A 
ATOM      6  C4  PXY d   1      -2.106  -1.498  -1.092  0.00  0.00    -0.082 A 
ATOM      7  C5  PXY d   1      -2.148  -2.386  -2.107  0.00  0.00     0.003 A 
ATOM      8  C6  PXY d   1      -2.599  -1.968  -3.356  0.00  0.00     0.003 A 
ENDROOT
TORSDOF 0
ENDMDL
