MODEL 1
REMARK minimizedAffinity 6.1910491
REMARK minimizedRMSD -1
REMARK  0 active torsions:
REMARK  status: ('A' for Active; 'I' for Inactive)
ROOT
ATOM      1  C4' PXY d   1       1.852  -1.670   2.938  0.00  0.00     0.077 C 
ATOM      2  C1' PXY d   1       0.932   2.462  -0.999  0.00  0.00     0.077 C 
ATOM      3  C1  PXY d   1       1.161   1.374   0.032  0.00  0.00    -0.082 A 
ATOM      4  C2  PXY d   1       2.101   1.531   0.951  0.00  0.00     0.003 A 
ATOM      5  C3  PXY d   1       2.343   0.544   1.871  0.00  0.00     0.003 A 
ATOM      6  C4  PXY d   1       1.580  -0.593   1.883  0.00  0.00    -0.082 A 
ATOM      7  C5  PXY d   1       0.613  -0.756   0.956  0.00  0.00     0.003 A 
ATOM      8  C6  PXY d   1       0.410   0.240   0.005  0.00  0.00     0.003 A 
ENDROOT
TORSDOF 0
ENDMDL
