MODEL 1
REMARK minimizedAffinity 4.07652044
REMARK minimizedRMSD -1
REMARK  0 active torsions:
REMARK  status: ('A' for Active; 'I' for Inactive)
ROOT
ATOM      1  C4' PXY d   1       4.837   0.879  -6.000  0.00  0.00     0.077 C 
ATOM      2  C1' PXY d   1       3.139  -3.898  -3.223  0.00  0.00     0.077 C 
ATOM      3  C1  PXY d   1       3.589  -2.653  -3.961  0.00  0.00    -0.082 A 
ATOM      4  C2  PXY d   1       3.823  -1.540  -3.284  0.00  0.00     0.003 A 
ATOM      5  C3  PXY d   1       4.199  -0.396  -3.939  0.00  0.00     0.003 A 
ATOM      6  C4  PXY d   1       4.390  -0.405  -5.295  0.00  0.00    -0.082 A 
ATOM      7  C5  PXY d   1       4.165  -1.539  -5.991  0.00  0.00     0.003 A 
ATOM      8  C6  PXY d   1       3.743  -2.679  -5.313  0.00  0.00     0.003 A 
ENDROOT
TORSDOF 0
ENDMDL
