MODEL 1
REMARK minimizedAffinity -2.545928
REMARK minimizedRMSD -1
REMARK  0 active torsions:
REMARK  status: ('A' for Active; 'I' for Inactive)
ROOT
ATOM      1  C4' PXY d   1       3.301  -5.573  -5.773  0.00  0.00     0.077 C 
ATOM      2  C1' PXY d   1       5.959  -0.441  -5.844  0.00  0.00     0.077 C 
ATOM      3  C1  PXY d   1       5.271  -1.792  -5.832  0.00  0.00    -0.082 A 
ATOM      4  C2  PXY d   1       3.963  -1.858  -5.650  0.00  0.00     0.003 A 
ATOM      5  C3  PXY d   1       3.329  -3.074  -5.604  0.00  0.00     0.003 A 
ATOM      6  C4  PXY d   1       4.035  -4.230  -5.801  0.00  0.00    -0.082 A 
ATOM      7  C5  PXY d   1       5.369  -4.170  -5.999  0.00  0.00     0.003 A 
ATOM      8  C6  PXY d   1       5.999  -2.929  -6.000  0.00  0.00     0.003 A 
ENDROOT
TORSDOF 0
ENDMDL
