MODEL 1
REMARK minimizedAffinity -2.08924532
REMARK minimizedRMSD -1
REMARK  0 active torsions:
REMARK  status: ('A' for Active; 'I' for Inactive)
ROOT
ATOM      1  C4' PXY d   1       2.275  -1.111   4.274  0.00  0.00     0.077 C 
ATOM      2  C1' PXY d   1       1.087   1.859  -0.541  0.00  0.00     0.077 C 
ATOM      3  C1  PXY d   1       1.411   1.085   0.721  0.00  0.00    -0.082 A 
ATOM      4  C2  PXY d   1       0.695   0.017   1.035  0.00  0.00     0.003 A 
ATOM      5  C3  PXY d   1       0.954  -0.676   2.190  0.00  0.00     0.003 A 
ATOM      6  C4  PXY d   1       1.990  -0.304   3.004  0.00  0.00    -0.082 A 
ATOM      7  C5  PXY d   1       2.731   0.778   2.685  0.00  0.00     0.003 A 
ATOM      8  C6  PXY d   1       2.426   1.493   1.530  0.00  0.00     0.003 A 
ENDROOT
TORSDOF 0
ENDMDL
