MODEL 1
REMARK minimizedAffinity 0.145671353
REMARK minimizedRMSD -1
REMARK  0 active torsions:
REMARK  status: ('A' for Active; 'I' for Inactive)
ROOT
ATOM      1  C4' PXY d   1      -0.698  -1.828   0.988  0.00  0.00     0.077 C 
ATOM      2  C1' PXY d   1       1.488   3.523   0.962  0.00  0.00     0.077 C 
ATOM      3  C1  PXY d   1       0.926   2.115   0.966  0.00  0.00    -0.082 A 
ATOM      4  C2  PXY d   1      -0.365   1.926   0.752  0.00  0.00     0.003 A 
ATOM      5  C3  PXY d   1      -0.895   0.661   0.784  0.00  0.00     0.003 A 
ATOM      6  C4  PXY d   1      -0.086  -0.425   0.984  0.00  0.00    -0.082 A 
ATOM      7  C5  PXY d   1       1.235  -0.240   1.192  0.00  0.00     0.003 A 
ATOM      8  C6  PXY d   1       1.747   1.055   1.197  0.00  0.00     0.003 A 
ENDROOT
TORSDOF 0
ENDMDL
