MODEL 1
REMARK minimizedAffinity 0.691379428
REMARK minimizedRMSD -1
REMARK  1 active torsions:
REMARK  status: ('A' for Active; 'I' for Inactive)
REMARK    1  A    between atoms: C3_4  and  O_7 
ROOT
ATOM      1  C   UNL d   1       0.093  -5.436  -4.503  0.00  0.00    -0.033 A 
ATOM      2  C1  UNL d   1      -1.067  -6.000  -5.037  0.00  0.00     0.039 A 
ATOM      3  C2  UNL d   1      -2.251  -5.999  -4.296  0.00  0.00    -0.080 A 
ATOM      4  C3  UNL d   1      -2.261  -5.432  -3.025  0.00  0.00     0.150 A 
ATOM      5  C4  UNL d   1      -1.110  -4.865  -2.488  0.00  0.00    -0.007 A 
ATOM      6  C5  UNL d   1       0.072  -4.868  -3.229  0.00  0.00     0.039 A 
ENDROOT
BRANCH   4   7
ATOM      7  O   UNL d   1      -3.391  -5.412  -2.263  0.00  0.00    -0.526 OA
ATOM      8  H5  UNL d   1      -4.099  -5.864  -2.750  0.00  0.00     0.418 HD
ENDBRANCH   4   7
TORSDOF 1
ENDMDL
