MODEL 1
REMARK minimizedAffinity 4.21010733
REMARK minimizedRMSD -1
REMARK  1 active torsions:
REMARK  status: ('A' for Active; 'I' for Inactive)
REMARK    1  A    between atoms: C3_4  and  O_7 
ROOT
ATOM      1  C   UNL d   1       2.363  -0.887   1.558  0.00  0.00    -0.033 A 
ATOM      2  C1  UNL d   1       1.969   0.007   0.561  0.00  0.00     0.039 A 
ATOM      3  C2  UNL d   1       0.613   0.236   0.322  0.00  0.00    -0.080 A 
ATOM      4  C3  UNL d   1      -0.338  -0.434   1.087  0.00  0.00     0.150 A 
ATOM      5  C4  UNL d   1       0.047  -1.323   2.084  0.00  0.00    -0.007 A 
ATOM      6  C5  UNL d   1       1.402  -1.551   2.321  0.00  0.00     0.039 A 
ENDROOT
BRANCH   4   7
ATOM      7  O   UNL d   1      -1.674  -0.247   0.887  0.00  0.00    -0.526 OA
ATOM      8  H5  UNL d   1      -1.790   0.372   0.147  0.00  0.00     0.418 HD
ENDBRANCH   4   7
TORSDOF 1
ENDMDL
