MODEL 1
REMARK minimizedAffinity 0.952329516
REMARK minimizedRMSD -1
REMARK  1 active torsions:
REMARK  status: ('A' for Active; 'I' for Inactive)
REMARK    1  A    between atoms: C3_4  and  O_7 
ROOT
ATOM      1  C   UNL d   1       2.043   0.630  -0.199  0.00  0.00    -0.033 A 
ATOM      2  C1  UNL d   1       0.766   0.322   0.275  0.00  0.00     0.039 A 
ATOM      3  C2  UNL d   1       0.614  -0.519   1.379  0.00  0.00    -0.080 A 
ATOM      4  C3  UNL d   1       1.745  -1.044   1.999  0.00  0.00     0.150 A 
ATOM      5  C4  UNL d   1       3.020  -0.737   1.534  0.00  0.00    -0.007 A 
ATOM      6  C5  UNL d   1       3.170   0.102   0.431  0.00  0.00     0.039 A 
ENDROOT
BRANCH   4   7
ATOM      7  O   UNL d   1       1.647  -1.873   3.077  0.00  0.00    -0.526 OA
ATOM      8  H5  UNL d   1       0.705  -2.018   3.268  0.00  0.00     0.418 HD
ENDBRANCH   4   7
TORSDOF 1
ENDMDL
