MODEL 1
REMARK minimizedAffinity 0.146230817
REMARK minimizedRMSD -1
REMARK  1 active torsions:
REMARK  status: ('A' for Active; 'I' for Inactive)
REMARK    1  A    between atoms: C3_4  and  O_7 
ROOT
ATOM      1  C   UNL d   1       1.281  -2.738   2.024  0.00  0.00    -0.033 A 
ATOM      2  C1  UNL d   1       1.977  -1.743   2.713  0.00  0.00     0.039 A 
ATOM      3  C2  UNL d   1       1.896  -0.413   2.294  0.00  0.00    -0.080 A 
ATOM      4  C3  UNL d   1       1.114  -0.092   1.188  0.00  0.00     0.150 A 
ATOM      5  C4  UNL d   1       0.414  -1.077   0.499  0.00  0.00    -0.007 A 
ATOM      6  C5  UNL d   1       0.498  -2.405   0.918  0.00  0.00     0.039 A 
ENDROOT
BRANCH   4   7
ATOM      7  O   UNL d   1       1.007   1.191   0.739  0.00  0.00    -0.526 OA
ATOM      8  H5  UNL d   1       1.567   1.759   1.295  0.00  0.00     0.418 HD
ENDBRANCH   4   7
TORSDOF 1
ENDMDL
