MODEL 1
REMARK minimizedAffinity -1.61826825
REMARK minimizedRMSD -1
REMARK  1 active torsions:
REMARK  status: ('A' for Active; 'I' for Inactive)
REMARK    1  A    between atoms: C3_4  and  O_7 
ROOT
ATOM      1  C   UNL d   1      -1.868  -5.973  -3.316  0.00  0.00    -0.033 A 
ATOM      2  C1  UNL d   1      -1.779  -5.988  -4.710  0.00  0.00     0.039 A 
ATOM      3  C2  UNL d   1      -0.529  -5.987  -5.331  0.00  0.00    -0.080 A 
ATOM      4  C3  UNL d   1       0.623  -5.973  -4.549  0.00  0.00     0.150 A 
ATOM      5  C4  UNL d   1       0.542  -5.963  -3.161  0.00  0.00    -0.007 A 
ATOM      6  C5  UNL d   1      -0.708  -5.962  -2.542  0.00  0.00     0.039 A 
ENDROOT
BRANCH   4   7
ATOM      7  O   UNL d   1       1.865  -5.967  -5.111  0.00  0.00    -0.526 OA
ATOM      8  H5  UNL d   1       1.766  -5.947  -6.077  0.00  0.00     0.418 HD
ENDBRANCH   4   7
TORSDOF 1
ENDMDL
