MODEL 1
REMARK minimizedAffinity -0.340551108
REMARK minimizedRMSD -1
REMARK  1 active torsions:
REMARK  status: ('A' for Active; 'I' for Inactive)
REMARK    1  A    between atoms: C3_4  and  O_7 
ROOT
ATOM      1  C   UNL d   1      -2.215  -5.963  -4.669  0.00  0.00    -0.033 A 
ATOM      2  C1  UNL d   1      -1.508  -5.999  -3.466  0.00  0.00     0.039 A 
ATOM      3  C2  UNL d   1      -0.111  -6.000  -3.476  0.00  0.00    -0.080 A 
ATOM      4  C3  UNL d   1       0.564  -5.962  -4.692  0.00  0.00     0.150 A 
ATOM      5  C4  UNL d   1      -0.135  -5.922  -5.895  0.00  0.00    -0.007 A 
ATOM      6  C5  UNL d   1      -1.529  -5.923  -5.883  0.00  0.00     0.039 A 
ENDROOT
BRANCH   4   7
ATOM      7  O   UNL d   1       1.926  -5.966  -4.752  0.00  0.00    -0.526 OA
ATOM      8  H5  UNL d   1       2.273  -6.025  -3.846  0.00  0.00     0.418 HD
ENDBRANCH   4   7
TORSDOF 1
ENDMDL
