MODEL 1
REMARK minimizedAffinity -2.44965863
REMARK minimizedRMSD -1
REMARK  1 active torsions:
REMARK  status: ('A' for Active; 'I' for Inactive)
REMARK    1  A    between atoms: C3_4  and  O_7 
ROOT
ATOM      1  C   UNL d   1       0.868  -5.967  -4.307  0.00  0.00    -0.033 A 
ATOM      2  C1  UNL d   1       0.028  -5.903  -5.421  0.00  0.00     0.039 A 
ATOM      3  C2  UNL d   1      -1.358  -5.875  -5.252  0.00  0.00    -0.080 A 
ATOM      4  C3  UNL d   1      -1.890  -5.911  -3.966  0.00  0.00     0.150 A 
ATOM      5  C4  UNL d   1      -1.059  -5.971  -2.852  0.00  0.00    -0.007 A 
ATOM      6  C5  UNL d   1       0.324  -6.000  -3.023  0.00  0.00     0.039 A 
ENDROOT
BRANCH   4   7
ATOM      7  O   UNL d   1      -3.236  -5.891  -3.751  0.00  0.00    -0.526 OA
ATOM      8  H5  UNL d   1      -3.685  -5.878  -4.612  0.00  0.00     0.418 HD
ENDBRANCH   4   7
TORSDOF 1
ENDMDL
