MODEL 1
REMARK minimizedAffinity 1.58144855
REMARK minimizedRMSD -1
REMARK  1 active torsions:
REMARK  status: ('A' for Active; 'I' for Inactive)
REMARK    1  A    between atoms: C3_4  and  O_7 
ROOT
ATOM      1  C   UNL d   1       1.100  -5.857  -3.964  0.00  0.00    -0.033 A 
ATOM      2  C1  UNL d   1       0.251  -5.952  -5.069  0.00  0.00     0.039 A 
ATOM      3  C2  UNL d   1      -1.132  -6.000  -4.887  0.00  0.00    -0.080 A 
ATOM      4  C3  UNL d   1      -1.654  -5.949  -3.598  0.00  0.00     0.150 A 
ATOM      5  C4  UNL d   1      -0.815  -5.850  -2.493  0.00  0.00    -0.007 A 
ATOM      6  C5  UNL d   1       0.567  -5.804  -2.676  0.00  0.00     0.039 A 
ENDROOT
BRANCH   4   7
ATOM      7  O   UNL d   1      -2.997  -5.997  -3.370  0.00  0.00    -0.526 OA
ATOM      8  H5  UNL d   1      -3.451  -6.094  -4.224  0.00  0.00     0.418 HD
ENDBRANCH   4   7
TORSDOF 1
ENDMDL
