MODEL 1
REMARK minimizedAffinity 2.29786134
REMARK minimizedRMSD -1
REMARK  1 active torsions:
REMARK  status: ('A' for Active; 'I' for Inactive)
REMARK    1  A    between atoms: C3_4  and  O_7 
ROOT
ATOM      1  C   UNL d   1       0.379   0.498   0.432  0.00  0.00    -0.033 A 
ATOM      2  C1  UNL d   1       1.572  -0.050   0.908  0.00  0.00     0.039 A 
ATOM      3  C2  UNL d   1       1.666  -1.423   1.144  0.00  0.00    -0.080 A 
ATOM      4  C3  UNL d   1       0.563  -2.235   0.898  0.00  0.00     0.150 A 
ATOM      5  C4  UNL d   1      -0.627  -1.697   0.419  0.00  0.00    -0.007 A 
ATOM      6  C5  UNL d   1      -0.720  -0.325   0.186  0.00  0.00     0.039 A 
ENDROOT
BRANCH   4   7
ATOM      7  O   UNL d   1       0.606  -3.580   1.117  0.00  0.00    -0.526 OA
ATOM      8  H5  UNL d   1       1.481  -3.806   1.474  0.00  0.00     0.418 HD
ENDBRANCH   4   7
TORSDOF 1
ENDMDL
