MODEL 1
REMARK minimizedAffinity -3.30673671
REMARK minimizedRMSD -1
REMARK  1 active torsions:
REMARK  status: ('A' for Active; 'I' for Inactive)
REMARK    1  A    between atoms: C3_4  and  O_7 
ROOT
ATOM      1  C   UNL d   1      -1.825  -5.997  -3.514  0.00  0.00    -0.033 A 
ATOM      2  C1  UNL d   1      -0.807  -5.987  -2.558  0.00  0.00     0.039 A 
ATOM      3  C2  UNL d   1       0.530  -5.976  -2.961  0.00  0.00    -0.080 A 
ATOM      4  C3  UNL d   1       0.835  -5.974  -4.319  0.00  0.00     0.150 A 
ATOM      5  C4  UNL d   1      -0.174  -5.979  -5.276  0.00  0.00    -0.007 A 
ATOM      6  C5  UNL d   1      -1.509  -5.991  -4.873  0.00  0.00     0.039 A 
ENDROOT
BRANCH   4   7
ATOM      7  O   UNL d   1       2.125  -5.968  -4.760  0.00  0.00    -0.526 OA
ATOM      8  H5  UNL d   1       2.715  -5.994  -3.987  0.00  0.00     0.418 HD
ENDBRANCH   4   7
TORSDOF 1
ENDMDL
