MODEL 1
REMARK minimizedAffinity -1.24629188
REMARK minimizedRMSD -1
REMARK  1 active torsions:
REMARK  status: ('A' for Active; 'I' for Inactive)
REMARK    1  A    between atoms: C3_4  and  O_7 
ROOT
ATOM      1  C   UNL d   1      -1.902  -5.985  -3.018  0.00  0.00    -0.033 A 
ATOM      2  C1  UNL d   1      -2.231  -5.994  -4.375  0.00  0.00     0.039 A 
ATOM      3  C2  UNL d   1      -1.222  -6.000  -5.340  0.00  0.00    -0.080 A 
ATOM      4  C3  UNL d   1       0.110  -5.998  -4.935  0.00  0.00     0.150 A 
ATOM      5  C4  UNL d   1       0.445  -5.994  -3.586  0.00  0.00    -0.007 A 
ATOM      6  C5  UNL d   1      -0.564  -5.987  -2.623  0.00  0.00     0.039 A 
ENDROOT
BRANCH   4   7
ATOM      7  O   UNL d   1       1.129  -5.999  -5.841  0.00  0.00    -0.526 OA
ATOM      8  H5  UNL d   1       0.747  -5.973  -6.734  0.00  0.00     0.418 HD
ENDBRANCH   4   7
TORSDOF 1
ENDMDL
