MODEL 1
REMARK minimizedAffinity 0.241093621
REMARK minimizedRMSD -1
REMARK  1 active torsions:
REMARK  status: ('A' for Active; 'I' for Inactive)
REMARK    1  A    between atoms: C3_4  and  O_7 
ROOT
ATOM      1  C   UNL d   1       0.492  -5.979  -3.869  0.00  0.00    -0.033 A 
ATOM      2  C1  UNL d   1      -0.003  -5.991  -2.563  0.00  0.00     0.039 A 
ATOM      3  C2  UNL d   1      -1.381  -5.999  -2.337  0.00  0.00    -0.080 A 
ATOM      4  C3  UNL d   1      -2.251  -5.996  -3.424  0.00  0.00     0.150 A 
ATOM      5  C4  UNL d   1      -1.765  -5.988  -4.727  0.00  0.00    -0.007 A 
ATOM      6  C5  UNL d   1      -0.389  -5.978  -4.951  0.00  0.00     0.039 A 
ENDROOT
BRANCH   4   7
ATOM      7  O   UNL d   1      -3.604  -5.999  -3.253  0.00  0.00    -0.526 OA
ATOM      8  H5  UNL d   1      -3.794  -5.976  -2.300  0.00  0.00     0.418 HD
ENDBRANCH   4   7
TORSDOF 1
ENDMDL
