MODEL 1
REMARK minimizedAffinity -2.2479012
REMARK minimizedRMSD -1
REMARK  1 active torsions:
REMARK  status: ('A' for Active; 'I' for Inactive)
REMARK    1  A    between atoms: C3_4  and  O_7 
ROOT
ATOM      1  C   UNL d   1      -2.808  -5.987  -2.970  0.00  0.00    -0.033 A 
ATOM      2  C1  UNL d   1      -1.688  -5.982  -2.137  0.00  0.00     0.039 A 
ATOM      3  C2  UNL d   1      -0.405  -5.984  -2.689  0.00  0.00    -0.080 A 
ATOM      4  C3  UNL d   1      -0.257  -5.991  -4.073  0.00  0.00     0.150 A 
ATOM      5  C4  UNL d   1      -1.369  -5.992  -4.909  0.00  0.00    -0.007 A 
ATOM      6  C5  UNL d   1      -2.649  -5.990  -4.356  0.00  0.00     0.039 A 
ENDROOT
BRANCH   4   7
ATOM      7  O   UNL d   1       0.974  -5.999  -4.658  0.00  0.00    -0.526 OA
ATOM      8  H5  UNL d   1       1.648  -6.026  -3.958  0.00  0.00     0.418 HD
ENDBRANCH   4   7
TORSDOF 1
ENDMDL
