MODEL 1
REMARK minimizedAffinity 1.41466534
REMARK minimizedRMSD -1
REMARK  1 active torsions:
REMARK  status: ('A' for Active; 'I' for Inactive)
REMARK    1  A    between atoms: C3_4  and  O_7 
ROOT
ATOM      1  C   UNL d   1      -4.383   0.737   0.361  0.00  0.00    -0.033 A 
ATOM      2  C1  UNL d   1      -5.304   1.032  -0.646  0.00  0.00     0.039 A 
ATOM      3  C2  UNL d   1      -5.348   0.253  -1.804  0.00  0.00    -0.080 A 
ATOM      4  C3  UNL d   1      -4.469  -0.818  -1.942  0.00  0.00     0.150 A 
ATOM      5  C4  UNL d   1      -3.552  -1.120  -0.941  0.00  0.00    -0.007 A 
ATOM      6  C5  UNL d   1      -3.508  -0.340   0.214  0.00  0.00     0.039 A 
ENDROOT
BRANCH   4   7
ATOM      7  O   UNL d   1      -4.472  -1.604  -3.055  0.00  0.00    -0.526 OA
ATOM      8  H5  UNL d   1      -5.138  -1.259  -3.674  0.00  0.00     0.418 HD
ENDBRANCH   4   7
TORSDOF 1
ENDMDL
