MODEL 1
REMARK minimizedAffinity -3.08347249
REMARK minimizedRMSD -1
REMARK  2 active torsions:
REMARK  status: ('A' for Active; 'I' for Inactive)
REMARK    1  A    between atoms: C1_2  and  C2_3 
REMARK    2  A    between atoms: C2_3  and  C3_4 
ROOT
ATOM      1  C3  UNL d   1       1.340  -0.690  -0.195  0.00  0.00    -0.075 A 
ATOM      2  C4  UNL d   1       1.115   0.525   0.468  0.00  0.00     0.002 A 
ATOM      3  C5  UNL d   1      -0.169   1.067   0.538  0.00  0.00     0.002 A 
ATOM      4  C6  UNL d   1      -1.240   0.407  -0.060  0.00  0.00    -0.004 A 
ATOM      5  C7  UNL d   1      -1.026  -0.793  -0.735  0.00  0.00     0.002 A 
ATOM      6  C8  UNL d   1       0.257  -1.339  -0.803  0.00  0.00     0.002 A 
ENDROOT
BRANCH   1   7
ATOM      7  C2  UNL d   1       2.722  -1.296  -0.250  0.00  0.00     0.056 C 
BRANCH   7   8
ATOM      8  C1  UNL d   1       2.949  -2.223  -1.449  0.00  0.00     0.007 C 
ATOM      9  C   UNL d   1       3.824  -1.602  -2.530  0.00  0.00     0.009 C 
ENDBRANCH   7   8
ENDBRANCH   1   7
TORSDOF 2
ENDMDL
