MODEL 1
REMARK minimizedAffinity -5.04833364
REMARK minimizedRMSD -1
REMARK  2 active torsions:
REMARK  status: ('A' for Active; 'I' for Inactive)
REMARK    1  A    between atoms: C1_2  and  C2_3 
REMARK    2  A    between atoms: C2_3  and  C3_4 
ROOT
ATOM      1  C3  UNL d   1       0.139  -0.161  -0.045  0.00  0.00    -0.075 A 
ATOM      2  C4  UNL d   1       0.331  -1.506  -0.393  0.00  0.00     0.002 A 
ATOM      3  C5  UNL d   1       1.507  -2.168  -0.039  0.00  0.00     0.002 A 
ATOM      4  C6  UNL d   1       2.507  -1.494   0.657  0.00  0.00    -0.004 A 
ATOM      5  C7  UNL d   1       2.334  -0.154   0.995  0.00  0.00     0.002 A 
ATOM      6  C8  UNL d   1       1.157   0.511   0.645  0.00  0.00     0.002 A 
ENDROOT
BRANCH   1   7
ATOM      7  C2  UNL d   1      -1.143   0.554  -0.399  0.00  0.00     0.056 C 
BRANCH   7   8
ATOM      8  C1  UNL d   1      -2.085   0.772   0.790  0.00  0.00     0.007 C 
ATOM      9  C   UNL d   1      -3.527   0.385   0.492  0.00  0.00     0.009 C 
ENDBRANCH   7   8
ENDBRANCH   1   7
TORSDOF 2
ENDMDL
