MODEL 1
REMARK minimizedAffinity -4.07079172
REMARK minimizedRMSD -1
REMARK  2 active torsions:
REMARK  status: ('A' for Active; 'I' for Inactive)
REMARK    1  A    between atoms: C1_2  and  C2_3 
REMARK    2  A    between atoms: C2_3  and  C3_4 
ROOT
ATOM      1  C3  UNL d   1       0.701   0.159   0.109  0.00  0.00    -0.075 A 
ATOM      2  C4  UNL d   1       1.399   0.428   1.295  0.00  0.00     0.002 A 
ATOM      3  C5  UNL d   1       2.289  -0.508   1.822  0.00  0.00     0.002 A 
ATOM      4  C6  UNL d   1       2.484  -1.728   1.177  0.00  0.00    -0.004 A 
ATOM      5  C7  UNL d   1       1.784  -2.013   0.007  0.00  0.00     0.002 A 
ATOM      6  C8  UNL d   1       0.896  -1.075  -0.525  0.00  0.00     0.002 A 
ENDROOT
BRANCH   1   7
ATOM      7  C2  UNL d   1      -0.241   1.181  -0.482  0.00  0.00     0.056 C 
BRANCH   7   8
ATOM      8  C1  UNL d   1      -1.689   0.695  -0.607  0.00  0.00     0.007 C 
ATOM      9  C   UNL d   1      -2.570   1.128   0.558  0.00  0.00     0.009 C 
ENDBRANCH   7   8
ENDBRANCH   1   7
TORSDOF 2
ENDMDL
