MODEL 1
REMARK minimizedAffinity -5.21569777
REMARK minimizedRMSD -1
REMARK  2 active torsions:
REMARK  status: ('A' for Active; 'I' for Inactive)
REMARK    1  A    between atoms: C1_2  and  C2_3 
REMARK    2  A    between atoms: C2_3  and  C3_4 
ROOT
ATOM      1  C3  UNL d   1       0.319   0.317  -0.469  0.00  0.00    -0.075 A 
ATOM      2  C4  UNL d   1       0.362  -1.070  -0.677  0.00  0.00     0.002 A 
ATOM      3  C5  UNL d   1       1.282  -1.861   0.011  0.00  0.00     0.002 A 
ATOM      4  C6  UNL d   1       2.175  -1.277   0.906  0.00  0.00    -0.004 A 
ATOM      5  C7  UNL d   1       2.153   0.101   1.108  0.00  0.00     0.002 A 
ATOM      6  C8  UNL d   1       1.231   0.895   0.424  0.00  0.00     0.002 A 
ENDROOT
BRANCH   1   7
ATOM      7  C2  UNL d   1      -0.694   1.175  -1.189  0.00  0.00     0.056 C 
BRANCH   7   8
ATOM      8  C1  UNL d   1      -2.144   0.716  -1.004  0.00  0.00     0.007 C 
ATOM      9  C   UNL d   1      -2.670   0.942   0.407  0.00  0.00     0.009 C 
ENDBRANCH   7   8
ENDBRANCH   1   7
TORSDOF 2
ENDMDL
