MODEL 1
REMARK minimizedAffinity -5.00669861
REMARK minimizedRMSD -1
REMARK  2 active torsions:
REMARK  status: ('A' for Active; 'I' for Inactive)
REMARK    1  A    between atoms: C1_2  and  C2_3 
REMARK    2  A    between atoms: C2_3  and  C3_4 
ROOT
ATOM      1  C3  UNL d   1      -0.651   0.587  -0.208  0.00  0.00    -0.075 A 
ATOM      2  C4  UNL d   1      -0.790  -0.671  -0.811  0.00  0.00     0.002 A 
ATOM      3  C5  UNL d   1       0.289  -1.553  -0.867  0.00  0.00     0.002 A 
ATOM      4  C6  UNL d   1       1.522  -1.185  -0.332  0.00  0.00    -0.004 A 
ATOM      5  C7  UNL d   1       1.676   0.070   0.254  0.00  0.00     0.002 A 
ATOM      6  C8  UNL d   1       0.596   0.952   0.316  0.00  0.00     0.002 A 
ENDROOT
BRANCH   1   7
ATOM      7  C2  UNL d   1      -1.824   1.534  -0.118  0.00  0.00     0.056 C 
BRANCH   7   8
ATOM      8  C1  UNL d   1      -3.188   0.836  -0.080  0.00  0.00     0.007 C 
ATOM      9  C   UNL d   1      -4.109   1.378   1.006  0.00  0.00     0.009 C 
ENDBRANCH   7   8
ENDBRANCH   1   7
TORSDOF 2
ENDMDL
