MODEL 1
REMARK minimizedAffinity 1.35650289
REMARK minimizedRMSD -1
REMARK  0 active torsions:
REMARK  status: ('A' for Active; 'I' for Inactive)
ROOT
ATOM      1  C   UNL d   1      -2.267   0.897   1.199  0.00  0.00     0.077 C 
ATOM      2  C1  UNL d   1      -1.006   0.349   0.598  0.00  0.00    -0.074 A 
ATOM      3  C2  UNL d   1      -0.124  -0.424   1.361  0.00  0.00    -0.005 A 
ATOM      4  C3  UNL d   1       1.040  -0.935   0.786  0.00  0.00     0.006 A 
ATOM      5  C4  UNL d   1       1.332  -0.679  -0.554  0.00  0.00    -0.005 A 
ATOM      6  C5  UNL d   1       0.461   0.090  -1.332  0.00  0.00    -0.074 A 
ATOM      7  C6  UNL d   1       0.756   0.366  -2.777  0.00  0.00     0.077 C 
ATOM      8  C7  UNL d   1      -0.709   0.595  -0.749  0.00  0.00    -0.001 A 
ENDROOT
TORSDOF 0
ENDMDL
