MODEL 1
REMARK minimizedAffinity 2.86679006
REMARK minimizedRMSD -1
REMARK  0 active torsions:
REMARK  status: ('A' for Active; 'I' for Inactive)
ROOT
ATOM      1  C   UNL d   1      -2.383  -0.259   2.414  0.00  0.00     0.077 C 
ATOM      2  C1  UNL d   1      -1.419  -0.133   1.272  0.00  0.00    -0.074 A 
ATOM      3  C2  UNL d   1      -1.863   0.221  -0.007  0.00  0.00    -0.005 A 
ATOM      4  C3  UNL d   1      -0.953   0.343  -1.058  0.00  0.00     0.006 A 
ATOM      5  C4  UNL d   1       0.406   0.114  -0.841  0.00  0.00    -0.005 A 
ATOM      6  C5  UNL d   1       0.868  -0.240   0.431  0.00  0.00    -0.074 A 
ATOM      7  C6  UNL d   1       2.326  -0.480   0.683  0.00  0.00     0.077 C 
ATOM      8  C7  UNL d   1      -0.051  -0.354   1.483  0.00  0.00    -0.001 A 
ENDROOT
TORSDOF 0
ENDMDL
