MODEL 1
REMARK minimizedAffinity 1.43117559
REMARK minimizedRMSD -1
REMARK  0 active torsions:
REMARK  status: ('A' for Active; 'I' for Inactive)
ROOT
ATOM      1  C   UNL d   1       1.896  -0.578   0.823  0.00  0.00     0.077 C 
ATOM      2  C1  UNL d   1       0.745  -0.112  -0.017  0.00  0.00    -0.074 A 
ATOM      3  C2  UNL d   1      -0.509   0.132   0.553  0.00  0.00    -0.005 A 
ATOM      4  C3  UNL d   1      -1.568   0.575  -0.239  0.00  0.00     0.006 A 
ATOM      5  C4  UNL d   1      -1.384   0.779  -1.607  0.00  0.00    -0.005 A 
ATOM      6  C5  UNL d   1      -0.138   0.541  -2.195  0.00  0.00    -0.074 A 
ATOM      7  C6  UNL d   1       0.079   0.764  -3.662  0.00  0.00     0.077 C 
ATOM      8  C7  UNL d   1       0.923   0.103  -1.391  0.00  0.00    -0.001 A 
ENDROOT
TORSDOF 0
ENDMDL
