MODEL 1
REMARK minimizedAffinity -2.27743864
REMARK minimizedRMSD -1
REMARK  0 active torsions:
REMARK  status: ('A' for Active; 'I' for Inactive)
ROOT
ATOM      1  C   UNL d   1       0.548   0.988  -4.193  0.00  0.00     0.077 C 
ATOM      2  C1  UNL d   1       0.783   0.723  -2.736  0.00  0.00    -0.074 A 
ATOM      3  C2  UNL d   1       1.973   1.119  -2.117  0.00  0.00    -0.005 A 
ATOM      4  C3  UNL d   1       2.174   0.875  -0.758  0.00  0.00     0.006 A 
ATOM      5  C4  UNL d   1       1.189   0.234  -0.006  0.00  0.00    -0.005 A 
ATOM      6  C5  UNL d   1      -0.008  -0.168  -0.608  0.00  0.00    -0.074 A 
ATOM      7  C6  UNL d   1      -1.081  -0.849   0.188  0.00  0.00     0.077 C 
ATOM      8  C7  UNL d   1      -0.205   0.087  -1.972  0.00  0.00    -0.001 A 
ENDROOT
TORSDOF 0
ENDMDL
