MODEL 1
REMARK minimizedAffinity -5.58698225
REMARK minimizedRMSD -1
REMARK  0 active torsions:
REMARK  status: ('A' for Active; 'I' for Inactive)
ROOT
ATOM      1  C   UNL d   1      -2.470   0.752   0.287  0.00  0.00     0.077 C 
ATOM      2  C1  UNL d   1      -1.169   0.603   1.018  0.00  0.00    -0.074 A 
ATOM      3  C2  UNL d   1      -0.033   0.107   0.370  0.00  0.00    -0.005 A 
ATOM      4  C3  UNL d   1       1.172  -0.016   1.060  0.00  0.00     0.006 A 
ATOM      5  C4  UNL d   1       1.255   0.355   2.403  0.00  0.00    -0.005 A 
ATOM      6  C5  UNL d   1       0.130   0.854   3.067  0.00  0.00    -0.074 A 
ATOM      7  C6  UNL d   1       0.203   1.267   4.507  0.00  0.00     0.077 C 
ATOM      8  C7  UNL d   1      -1.077   0.981   2.365  0.00  0.00    -0.001 A 
ENDROOT
TORSDOF 0
ENDMDL
