MODEL 1
REMARK minimizedAffinity -4.50519323
REMARK minimizedRMSD -1
REMARK  0 active torsions:
REMARK  status: ('A' for Active; 'I' for Inactive)
ROOT
ATOM      1  C   UNL d   1      -0.092  -0.522  -1.560  0.00  0.00     0.077 C 
ATOM      2  C1  UNL d   1      -0.114  -0.009  -0.151  0.00  0.00    -0.074 A 
ATOM      3  C2  UNL d   1      -1.288   0.507   0.407  0.00  0.00    -0.005 A 
ATOM      4  C3  UNL d   1      -1.296   0.972   1.722  0.00  0.00     0.006 A 
ATOM      5  C4  UNL d   1      -0.132   0.925   2.491  0.00  0.00    -0.005 A 
ATOM      6  C5  UNL d   1       1.051   0.411   1.950  0.00  0.00    -0.074 A 
ATOM      7  C6  UNL d   1       2.308   0.345   2.765  0.00  0.00     0.077 C 
ATOM      8  C7  UNL d   1       1.049  -0.060   0.630  0.00  0.00    -0.001 A 
ENDROOT
TORSDOF 0
ENDMDL
