MODEL 1
REMARK minimizedAffinity -3.93029284
REMARK minimizedRMSD -1
REMARK  0 active torsions:
REMARK  status: ('A' for Active; 'I' for Inactive)
ROOT
ATOM      1  C   UNL d   1      -2.470  -1.034   3.363  0.00  0.00     0.077 C 
ATOM      2  C1  UNL d   1      -1.459  -0.293   2.539  0.00  0.00    -0.074 A 
ATOM      3  C2  UNL d   1      -0.854   0.872   3.021  0.00  0.00    -0.005 A 
ATOM      4  C3  UNL d   1       0.092   1.545   2.247  0.00  0.00     0.006 A 
ATOM      5  C4  UNL d   1       0.441   1.061   0.986  0.00  0.00    -0.005 A 
ATOM      6  C5  UNL d   1      -0.153  -0.103   0.488  0.00  0.00    -0.074 A 
ATOM      7  C6  UNL d   1       0.218  -0.642  -0.862  0.00  0.00     0.077 C 
ATOM      8  C7  UNL d   1      -1.097  -0.778   1.274  0.00  0.00    -0.001 A 
ENDROOT
TORSDOF 0
ENDMDL
