MODEL 1
REMARK minimizedAffinity -2.97287536
REMARK minimizedRMSD -1
REMARK  0 active torsions:
REMARK  status: ('A' for Active; 'I' for Inactive)
ROOT
ATOM      1  C   UNL d   1       0.726  -0.013   4.305  0.00  0.00     0.077 C 
ATOM      2  C1  UNL d   1       0.452  -0.207   2.843  0.00  0.00    -0.074 A 
ATOM      3  C2  UNL d   1       1.418  -0.765   1.999  0.00  0.00    -0.005 A 
ATOM      4  C3  UNL d   1       1.146  -0.948   0.643  0.00  0.00     0.006 A 
ATOM      5  C4  UNL d   1      -0.093  -0.577   0.119  0.00  0.00    -0.005 A 
ATOM      6  C5  UNL d   1      -1.071  -0.019   0.948  0.00  0.00    -0.074 A 
ATOM      7  C6  UNL d   1      -2.411   0.377   0.402  0.00  0.00     0.077 C 
ATOM      8  C7  UNL d   1      -0.793   0.156   2.310  0.00  0.00    -0.001 A 
ENDROOT
TORSDOF 0
ENDMDL
