MODEL 1
REMARK minimizedAffinity -2.6744411
REMARK minimizedRMSD -1
REMARK  1 active torsions:
REMARK  status: ('A' for Active; 'I' for Inactive)
REMARK    1  A    between atoms: C1_2  and  C2_3 
ROOT
ATOM      1  C2  UNL d   1       3.977  -2.883   3.961  0.00  0.00    -0.077 A 
ATOM      2  C3  UNL d   1       3.169  -2.192   3.047  0.00  0.00     0.002 A 
ATOM      3  C4  UNL d   1       1.783  -2.359   3.063  0.00  0.00     0.002 A 
ATOM      4  C5  UNL d   1       1.193  -3.212   3.994  0.00  0.00    -0.004 A 
ATOM      5  C6  UNL d   1       1.988  -3.905   4.905  0.00  0.00     0.002 A 
ATOM      6  C7  UNL d   1       3.374  -3.741   4.890  0.00  0.00     0.002 A 
ENDROOT
BRANCH   1   7
ATOM      7  C1  UNL d   1       5.468  -2.667   3.977  0.00  0.00     0.055 C 
ATOM      8  C   UNL d   1       5.993  -2.326   2.589  0.00  0.00     0.019 C 
ENDBRANCH   1   7
TORSDOF 1
ENDMDL
