MODEL 1
REMARK minimizedAffinity 2.45909286
REMARK minimizedRMSD -1
REMARK  1 active torsions:
REMARK  status: ('A' for Active; 'I' for Inactive)
REMARK    1  A    between atoms: C1_2  and  C2_3 
ROOT
ATOM      1  C2  UNL d   1       3.678  -2.061   3.931  0.00  0.00    -0.077 A 
ATOM      2  C3  UNL d   1       3.482  -1.004   3.031  0.00  0.00     0.002 A 
ATOM      3  C4  UNL d   1       2.214  -0.749   2.505  0.00  0.00     0.002 A 
ATOM      4  C5  UNL d   1       1.132  -1.545   2.875  0.00  0.00    -0.004 A 
ATOM      5  C6  UNL d   1       1.317  -2.601   3.767  0.00  0.00     0.002 A 
ATOM      6  C7  UNL d   1       2.584  -2.857   4.293  0.00  0.00     0.002 A 
ENDROOT
BRANCH   1   7
ATOM      7  C1  UNL d   1       5.035  -2.306   4.537  0.00  0.00     0.055 C 
ATOM      8  C   UNL d   1       4.922  -2.711   6.000  0.00  0.00     0.019 C 
ENDBRANCH   1   7
TORSDOF 1
ENDMDL
