MODEL 1
REMARK minimizedAffinity 11.6567936
REMARK minimizedRMSD -1
REMARK  1 active torsions:
REMARK  status: ('A' for Active; 'I' for Inactive)
REMARK    1  A    between atoms: C1_2  and  C2_3 
ROOT
ATOM      1  C2  UNL d   1       4.115   0.014  -3.980  0.00  0.00    -0.077 A 
ATOM      2  C3  UNL d   1       5.248  -0.625  -4.503  0.00  0.00     0.002 A 
ATOM      3  C4  UNL d   1       6.000  -0.016  -5.510  0.00  0.00     0.002 A 
ATOM      4  C5  UNL d   1       5.629   1.234  -6.000  0.00  0.00    -0.004 A 
ATOM      5  C6  UNL d   1       4.502   1.876  -5.488  0.00  0.00     0.002 A 
ATOM      6  C7  UNL d   1       3.749   1.269  -4.482  0.00  0.00     0.002 A 
ENDROOT
BRANCH   1   7
ATOM      7  C1  UNL d   1       3.332  -0.619  -2.860  0.00  0.00     0.055 C 
ATOM      8  C   UNL d   1       2.169  -1.443  -3.393  0.00  0.00     0.019 C 
ENDBRANCH   1   7
TORSDOF 1
ENDMDL
