MODEL 1
REMARK minimizedAffinity 9.88257694
REMARK minimizedRMSD -1
REMARK  1 active torsions:
REMARK  status: ('A' for Active; 'I' for Inactive)
REMARK    1  A    between atoms: C1_2  and  C2_3 
ROOT
ATOM      1  C2  UNL d   1       1.391  -0.572   0.903  0.00  0.00    -0.077 A 
ATOM      2  C3  UNL d   1       0.097  -0.051   1.046  0.00  0.00     0.002 A 
ATOM      3  C4  UNL d   1      -0.879  -0.309   0.082  0.00  0.00     0.002 A 
ATOM      4  C5  UNL d   1      -0.574  -1.093  -1.028  0.00  0.00    -0.004 A 
ATOM      5  C6  UNL d   1       0.710  -1.615  -1.181  0.00  0.00     0.002 A 
ATOM      6  C7  UNL d   1       1.688  -1.356  -0.219  0.00  0.00     0.002 A 
ENDROOT
BRANCH   1   7
ATOM      7  C1  UNL d   1       2.431  -0.335   1.967  0.00  0.00     0.055 C 
ATOM      8  C   UNL d   1       2.042  -1.000   3.279  0.00  0.00     0.019 C 
ENDBRANCH   1   7
TORSDOF 1
ENDMDL
