MODEL 1
REMARK minimizedAffinity 6.05770731
REMARK minimizedRMSD -1
REMARK  1 active torsions:
REMARK  status: ('A' for Active; 'I' for Inactive)
REMARK    1  A    between atoms: C1_2  and  C2_3 
ROOT
ATOM      1  C2  UNL d   1       3.553  -2.322   4.471  0.00  0.00    -0.077 A 
ATOM      2  C3  UNL d   1       3.101  -1.227   3.721  0.00  0.00     0.002 A 
ATOM      3  C4  UNL d   1       1.831  -1.245   3.141  0.00  0.00     0.002 A 
ATOM      4  C5  UNL d   1       1.002  -2.352   3.309  0.00  0.00    -0.004 A 
ATOM      5  C6  UNL d   1       1.443  -3.446   4.051  0.00  0.00     0.002 A 
ATOM      6  C7  UNL d   1       2.713  -3.431   4.630  0.00  0.00     0.002 A 
ENDROOT
BRANCH   1   7
ATOM      7  C1  UNL d   1       4.903  -2.285   5.138  0.00  0.00     0.055 C 
ATOM      8  C   UNL d   1       5.999  -1.913   4.150  0.00  0.00     0.019 C 
ENDBRANCH   1   7
TORSDOF 1
ENDMDL
