MODEL 1
REMARK minimizedAffinity 8.98530579
REMARK minimizedRMSD -1
REMARK  1 active torsions:
REMARK  status: ('A' for Active; 'I' for Inactive)
REMARK    1  A    between atoms: C1_2  and  C2_3 
ROOT
ATOM      1  C2  UNL d   1       1.719  -1.372   1.469  0.00  0.00    -0.077 A 
ATOM      2  C3  UNL d   1       0.660  -0.512   1.792  0.00  0.00     0.002 A 
ATOM      3  C4  UNL d   1      -0.485  -0.470   0.994  0.00  0.00     0.002 A 
ATOM      4  C5  UNL d   1      -0.584  -1.288  -0.130  0.00  0.00    -0.004 A 
ATOM      5  C6  UNL d   1       0.465  -2.145  -0.461  0.00  0.00     0.002 A 
ATOM      6  C7  UNL d   1       1.611  -2.187   0.335  0.00  0.00     0.002 A 
ENDROOT
BRANCH   1   7
ATOM      7  C1  UNL d   1       2.933  -1.455   2.356  0.00  0.00     0.055 C 
ATOM      8  C   UNL d   1       2.992  -2.786   3.091  0.00  0.00     0.019 C 
ENDBRANCH   1   7
TORSDOF 1
ENDMDL
