MODEL 1
REMARK minimizedAffinity -1.69986188
REMARK minimizedRMSD -1
REMARK  1 active torsions:
REMARK  status: ('A' for Active; 'I' for Inactive)
REMARK    1  A    between atoms: C1_2  and  C2_3 
ROOT
ATOM      1  C2  UNL d   1       3.629  -1.963   4.415  0.00  0.00    -0.077 A 
ATOM      2  C3  UNL d   1       3.630  -3.032   5.322  0.00  0.00     0.002 A 
ATOM      3  C4  UNL d   1       4.807  -3.404   5.974  0.00  0.00     0.002 A 
ATOM      4  C5  UNL d   1       5.990  -2.710   5.730  0.00  0.00    -0.004 A 
ATOM      5  C6  UNL d   1       6.000  -1.646   4.828  0.00  0.00     0.002 A 
ATOM      6  C7  UNL d   1       4.824  -1.274   4.175  0.00  0.00     0.002 A 
ENDROOT
BRANCH   1   7
ATOM      7  C1  UNL d   1       2.350  -1.529   3.748  0.00  0.00     0.055 C 
ATOM      8  C   UNL d   1       2.589  -0.366   2.797  0.00  0.00     0.019 C 
ENDBRANCH   1   7
TORSDOF 1
ENDMDL
