MODEL 1
REMARK minimizedAffinity 2.26539302
REMARK minimizedRMSD -1
REMARK  1 active torsions:
REMARK  status: ('A' for Active; 'I' for Inactive)
REMARK    1  A    between atoms: C1_2  and  C2_3 
ROOT
ATOM      1  C2  UNL d   1       3.945  -1.626   3.667  0.00  0.00    -0.077 A 
ATOM      2  C3  UNL d   1       2.811  -2.442   3.781  0.00  0.00     0.002 A 
ATOM      3  C4  UNL d   1       1.551  -1.951   3.434  0.00  0.00     0.002 A 
ATOM      4  C5  UNL d   1       1.413  -0.646   2.967  0.00  0.00    -0.004 A 
ATOM      5  C6  UNL d   1       2.535   0.174   2.852  0.00  0.00     0.002 A 
ATOM      6  C7  UNL d   1       3.796  -0.314   3.200  0.00  0.00     0.002 A 
ENDROOT
BRANCH   1   7
ATOM      7  C1  UNL d   1       5.312  -2.169   3.994  0.00  0.00     0.055 C 
ATOM      8  C   UNL d   1       5.479  -2.384   5.491  0.00  0.00     0.019 C 
ENDBRANCH   1   7
TORSDOF 1
ENDMDL
