MODEL 1
REMARK minimizedAffinity -3.27134991
REMARK minimizedRMSD -1
REMARK  0 active torsions:
REMARK  status: ('A' for Active; 'I' for Inactive)
ROOT
ATOM      1  C   UNL d   1      -0.001  -0.761   1.215  0.00  0.00     0.020 A 
ATOM      2  C1  UNL d   1       0.627  -0.560  -0.013  0.00  0.00     0.020 A 
ATOM      3  C2  UNL d   1       0.271   0.531  -0.809  0.00  0.00     0.034 A 
ATOM      4  C3  UNL d   1      -0.715   1.425  -0.377  0.00  0.00     0.017 A 
ATOM      5  C4  UNL d   1      -1.345   1.222   0.857  0.00  0.00     0.017 A 
ATOM      6  C5  UNL d   1      -0.985   0.128   1.649  0.00  0.00     0.034 A 
ATOM      7 Cl   UNL d   1      -2.571   2.282   1.457  0.00  0.00    -0.070 Cl
ATOM      8 Cl1  UNL d   1      -1.105   2.753  -1.411  0.00  0.00    -0.070 Cl
ENDROOT
TORSDOF 0
ENDMDL
