MODEL 1
REMARK minimizedAffinity -6.1192708
REMARK minimizedRMSD -1
REMARK  0 active torsions:
REMARK  status: ('A' for Active; 'I' for Inactive)
ROOT
ATOM      1  C   UNL d   1      -1.120  -0.022   1.210  0.00  0.00     0.020 A 
ATOM      2  C1  UNL d   1      -1.761   1.213   1.121  0.00  0.00     0.020 A 
ATOM      3  C2  UNL d   1      -1.311   2.168   0.206  0.00  0.00     0.034 A 
ATOM      4  C3  UNL d   1      -0.218   1.889  -0.622  0.00  0.00     0.017 A 
ATOM      5  C4  UNL d   1       0.424   0.649  -0.532  0.00  0.00     0.017 A 
ATOM      6  C5  UNL d   1      -0.030  -0.304   0.386  0.00  0.00     0.034 A 
ATOM      7 Cl   UNL d   1       1.779   0.232  -1.521  0.00  0.00    -0.070 Cl
ATOM      8 Cl1  UNL d   1       0.283   3.116  -1.731  0.00  0.00    -0.070 Cl
ENDROOT
TORSDOF 0
ENDMDL
