MODEL 1
REMARK minimizedAffinity -1.88199699
REMARK minimizedRMSD -1
REMARK  0 active torsions:
REMARK  status: ('A' for Active; 'I' for Inactive)
ROOT
ATOM      1  C   UNL d   1       0.797  -3.164  -1.986  0.00  0.00     0.020 A 
ATOM      2  C1  UNL d   1       0.355  -2.294  -2.982  0.00  0.00     0.020 A 
ATOM      3  C2  UNL d   1       0.137  -0.947  -2.686  0.00  0.00     0.034 A 
ATOM      4  C3  UNL d   1       0.361  -0.465  -1.391  0.00  0.00     0.017 A 
ATOM      5  C4  UNL d   1       0.804  -1.340  -0.392  0.00  0.00     0.017 A 
ATOM      6  C5  UNL d   1       1.021  -2.688  -0.694  0.00  0.00     0.034 A 
ATOM      7 Cl   UNL d   1       1.102  -0.820   1.229  0.00  0.00    -0.070 Cl
ATOM      8 Cl1  UNL d   1       0.071   1.212  -1.096  0.00  0.00    -0.070 Cl
ENDROOT
TORSDOF 0
ENDMDL
