MODEL 1
REMARK minimizedAffinity -5.18783379
REMARK minimizedRMSD -1
REMARK  0 active torsions:
REMARK  status: ('A' for Active; 'I' for Inactive)
ROOT
ATOM      1  C   UNL d   1      -1.339  -0.005   2.280  0.00  0.00     0.020 A 
ATOM      2  C1  UNL d   1      -1.802   1.258   1.914  0.00  0.00     0.020 A 
ATOM      3  C2  UNL d   1      -1.222   1.929   0.835  0.00  0.00     0.034 A 
ATOM      4  C3  UNL d   1      -0.175   1.338   0.119  0.00  0.00     0.017 A 
ATOM      5  C4  UNL d   1       0.290   0.070   0.487  0.00  0.00     0.017 A 
ATOM      6  C5  UNL d   1      -0.295  -0.598   1.568  0.00  0.00     0.034 A 
ATOM      7 Cl   UNL d   1       1.578  -0.724  -0.348  0.00  0.00    -0.070 Cl
ATOM      8 Cl1  UNL d   1       0.496   2.225  -1.203  0.00  0.00    -0.070 Cl
ENDROOT
TORSDOF 0
ENDMDL
