MODEL 1
REMARK minimizedAffinity -4.05692053
REMARK minimizedRMSD -1
REMARK  0 active torsions:
REMARK  status: ('A' for Active; 'I' for Inactive)
ROOT
ATOM      1  C   UNL d   1      -1.989   1.717   1.428  0.00  0.00     0.020 A 
ATOM      2  C1  UNL d   1      -1.717   0.423   1.871  0.00  0.00     0.020 A 
ATOM      3  C2  UNL d   1      -0.802  -0.373   1.179  0.00  0.00     0.034 A 
ATOM      4  C3  UNL d   1      -0.156   0.123   0.041  0.00  0.00     0.017 A 
ATOM      5  C4  UNL d   1      -0.429   1.422  -0.402  0.00  0.00     0.017 A 
ATOM      6  C5  UNL d   1      -1.346   2.215   0.294  0.00  0.00     0.034 A 
ATOM      7 Cl   UNL d   1       0.328   2.104  -1.798  0.00  0.00    -0.070 Cl
ATOM      8 Cl1  UNL d   1       0.964  -0.917  -0.765  0.00  0.00    -0.070 Cl
ENDROOT
TORSDOF 0
ENDMDL
