MODEL 1
REMARK minimizedAffinity -1.29790592
REMARK minimizedRMSD -1
REMARK  0 active torsions:
REMARK  status: ('A' for Active; 'I' for Inactive)
ROOT
ATOM      1  C   UNL d   1       0.952  -1.033  -0.954  0.00  0.00     0.020 A 
ATOM      2  C1  UNL d   1       0.364  -1.382   0.261  0.00  0.00     0.020 A 
ATOM      3  C2  UNL d   1      -0.387  -0.441   0.969  0.00  0.00     0.034 A 
ATOM      4  C3  UNL d   1      -0.551   0.853   0.463  0.00  0.00     0.017 A 
ATOM      5  C4  UNL d   1       0.039   1.203  -0.757  0.00  0.00     0.017 A 
ATOM      6  C5  UNL d   1       0.790   0.257  -1.462  0.00  0.00     0.034 A 
ATOM      7 Cl   UNL d   1      -0.119   2.780  -1.445  0.00  0.00    -0.070 Cl
ATOM      8 Cl1  UNL d   1      -1.493   1.965   1.391  0.00  0.00    -0.070 Cl
ENDROOT
TORSDOF 0
ENDMDL
