MODEL 1
REMARK minimizedAffinity -4.23396158
REMARK minimizedRMSD -1
REMARK  0 active torsions:
REMARK  status: ('A' for Active; 'I' for Inactive)
ROOT
ATOM      1  C   UNL d   1       1.266   0.487  -1.048  0.00  0.00     0.020 A 
ATOM      2  C1  UNL d   1       0.722   1.752  -1.268  0.00  0.00     0.020 A 
ATOM      3  C2  UNL d   1      -0.333   2.206  -0.474  0.00  0.00     0.034 A 
ATOM      4  C3  UNL d   1      -0.848   1.395   0.544  0.00  0.00     0.017 A 
ATOM      5  C4  UNL d   1      -0.301   0.126   0.764  0.00  0.00     0.017 A 
ATOM      6  C5  UNL d   1       0.755  -0.324  -0.034  0.00  0.00     0.034 A 
ATOM      7 Cl   UNL d   1      -0.883  -0.932   2.001  0.00  0.00    -0.070 Cl
ATOM      8 Cl1  UNL d   1      -2.153   2.022   1.487  0.00  0.00    -0.070 Cl
ENDROOT
TORSDOF 0
ENDMDL
