MODEL 1
REMARK minimizedAffinity -5.44753838
REMARK minimizedRMSD -1
REMARK  0 active torsions:
REMARK  status: ('A' for Active; 'I' for Inactive)
ROOT
ATOM      1  C   UNL d   1      -1.242   2.251   0.105  0.00  0.00     0.020 A 
ATOM      2  C1  UNL d   1      -1.685   2.112   1.420  0.00  0.00     0.020 A 
ATOM      3  C2  UNL d   1      -1.343   0.975   2.155  0.00  0.00     0.034 A 
ATOM      4  C3  UNL d   1      -0.557  -0.027   1.577  0.00  0.00     0.017 A 
ATOM      5  C4  UNL d   1      -0.112   0.113   0.257  0.00  0.00     0.017 A 
ATOM      6  C5  UNL d   1      -0.457   1.254  -0.475  0.00  0.00     0.034 A 
ATOM      7 Cl   UNL d   1       0.862  -1.081  -0.525  0.00  0.00    -0.070 Cl
ATOM      8 Cl1  UNL d   1      -0.172  -1.406   2.544  0.00  0.00    -0.070 Cl
ENDROOT
TORSDOF 0
ENDMDL
