MODEL 1
REMARK minimizedAffinity -5.228302
REMARK minimizedRMSD -1
REMARK  0 active torsions:
REMARK  status: ('A' for Active; 'I' for Inactive)
ROOT
ATOM      1  C   UNL d   1      -1.538   0.258   1.870  0.00  0.00     0.020 A 
ATOM      2  C1  UNL d   1      -2.371   1.305   1.476  0.00  0.00     0.020 A 
ATOM      3  C2  UNL d   1      -2.022   2.101   0.383  0.00  0.00     0.034 A 
ATOM      4  C3  UNL d   1      -0.838   1.851  -0.320  0.00  0.00     0.017 A 
ATOM      5  C4  UNL d   1      -0.003   0.799   0.076  0.00  0.00     0.017 A 
ATOM      6  C5  UNL d   1      -0.357   0.005   1.171  0.00  0.00     0.034 A 
ATOM      7 Cl   UNL d   1       1.473   0.429  -0.743  0.00  0.00    -0.070 Cl
ATOM      8 Cl1  UNL d   1      -0.469   2.874  -1.663  0.00  0.00    -0.070 Cl
ENDROOT
TORSDOF 0
ENDMDL
