MODEL 1
REMARK minimizedAffinity -2.20520663
REMARK minimizedRMSD -1
REMARK  0 active torsions:
REMARK  status: ('A' for Active; 'I' for Inactive)
ROOT
ATOM      1  C   UNL d   1      -1.778   1.279   1.142  0.00  0.00     0.020 A 
ATOM      2  C1  UNL d   1      -1.775   2.236   0.128  0.00  0.00     0.020 A 
ATOM      3  C2  UNL d   1      -0.676   2.342  -0.727  0.00  0.00     0.034 A 
ATOM      4  C3  UNL d   1       0.424   1.491  -0.570  0.00  0.00     0.017 A 
ATOM      5  C4  UNL d   1       0.419   0.530   0.448  0.00  0.00     0.017 A 
ATOM      6  C5  UNL d   1      -0.684   0.428   1.302  0.00  0.00     0.034 A 
ATOM      7 Cl   UNL d   1       1.739  -0.556   0.703  0.00  0.00    -0.070 Cl
ATOM      8 Cl1  UNL d   1       1.748   1.678  -1.664  0.00  0.00    -0.070 Cl
ENDROOT
TORSDOF 0
ENDMDL
