MODEL 1
REMARK minimizedAffinity -3.24417257
REMARK minimizedRMSD -1
REMARK  0 active torsions:
REMARK  status: ('A' for Active; 'I' for Inactive)
ROOT
ATOM      1  C   UNL d   1       0.100   2.899  -1.455  0.00  0.00     0.020 A 
ATOM      2  C1  UNL d   1       1.398   2.392  -1.505  0.00  0.00     0.020 A 
ATOM      3  C2  UNL d   1       1.635   1.048  -1.209  0.00  0.00     0.034 A 
ATOM      4  C3  UNL d   1       0.572   0.206  -0.862  0.00  0.00     0.017 A 
ATOM      5  C4  UNL d   1      -0.731   0.716  -0.813  0.00  0.00     0.017 A 
ATOM      6  C5  UNL d   1      -0.962   2.063  -1.110  0.00  0.00     0.034 A 
ATOM      7 Cl   UNL d   1      -2.093  -0.261  -0.393  0.00  0.00    -0.070 Cl
ATOM      8 Cl1  UNL d   1       0.937  -1.445  -0.509  0.00  0.00    -0.070 Cl
ENDROOT
TORSDOF 0
ENDMDL
