MODEL 1
REMARK minimizedAffinity -2.14349556
REMARK minimizedRMSD -1
REMARK  0 active torsions:
REMARK  status: ('A' for Active; 'I' for Inactive)
ROOT
ATOM      1  C   UNL d   1      -1.776   2.485   1.955  0.00  0.00     0.020 A 
ATOM      2  C1  UNL d   1      -1.622   1.109   2.120  0.00  0.00     0.020 A 
ATOM      3  C2  UNL d   1      -0.868   0.376   1.201  0.00  0.00     0.034 A 
ATOM      4  C3  UNL d   1      -0.266   1.018   0.113  0.00  0.00     0.017 A 
ATOM      5  C4  UNL d   1      -0.422   2.399  -0.052  0.00  0.00     0.017 A 
ATOM      6  C5  UNL d   1      -1.178   3.129   0.871  0.00  0.00     0.034 A 
ATOM      7 Cl   UNL d   1       0.290   3.262  -1.370  0.00  0.00    -0.070 Cl
ATOM      8 Cl1  UNL d   1       0.652   0.050  -0.984  0.00  0.00    -0.070 Cl
ENDROOT
TORSDOF 0
ENDMDL
