MODEL 1
REMARK minimizedAffinity -3.24369264
REMARK minimizedRMSD -1
REMARK  0 active torsions:
REMARK  status: ('A' for Active; 'I' for Inactive)
ROOT
ATOM      1  C   UNL d   1      -1.953   0.158   2.249  0.00  0.00     0.020 A 
ATOM      2  C1  UNL d   1      -2.440   1.451   2.060  0.00  0.00     0.020 A 
ATOM      3  C2  UNL d   1      -1.846   2.289   1.114  0.00  0.00     0.034 A 
ATOM      4  C3  UNL d   1      -0.763   1.836   0.353  0.00  0.00     0.017 A 
ATOM      5  C4  UNL d   1      -0.274   0.538   0.543  0.00  0.00     0.017 A 
ATOM      6  C5  UNL d   1      -0.872  -0.297   1.492  0.00  0.00     0.034 A 
ATOM      7 Cl   UNL d   1       1.059  -0.092  -0.358  0.00  0.00    -0.070 Cl
ATOM      8 Cl1  UNL d   1      -0.078   2.926  -0.800  0.00  0.00    -0.070 Cl
ENDROOT
TORSDOF 0
ENDMDL
