MODEL 1
REMARK minimizedAffinity -3.84054875
REMARK minimizedRMSD -1
REMARK  0 active torsions:
REMARK  status: ('A' for Active; 'I' for Inactive)
ROOT
ATOM      1  C   UNL d   1      -1.678   2.123   0.332  0.00  0.00     0.020 A 
ATOM      2  C1  UNL d   1      -1.364   2.183   1.689  0.00  0.00     0.020 A 
ATOM      3  C2  UNL d   1      -0.531   1.215   2.256  0.00  0.00     0.034 A 
ATOM      4  C3  UNL d   1      -0.010   0.185   1.465  0.00  0.00     0.017 A 
ATOM      5  C4  UNL d   1      -0.325   0.127   0.103  0.00  0.00     0.017 A 
ATOM      6  C5  UNL d   1      -1.159   1.098  -0.460  0.00  0.00     0.034 A 
ATOM      7 Cl   UNL d   1       0.281  -1.114  -0.936  0.00  0.00    -0.070 Cl
ATOM      8 Cl1  UNL d   1       1.014  -0.977   2.232  0.00  0.00    -0.070 Cl
ENDROOT
TORSDOF 0
ENDMDL
