MODEL 1
REMARK minimizedAffinity -3.96624708
REMARK minimizedRMSD -1
REMARK  0 active torsions:
REMARK  status: ('A' for Active; 'I' for Inactive)
ROOT
ATOM      1  C   UNL d   1      -1.571   1.630  -0.151  0.00  0.00     0.020 A 
ATOM      2  C1  UNL d   1      -1.818   1.639   1.221  0.00  0.00     0.020 A 
ATOM      3  C2  UNL d   1      -1.184   0.712   2.051  0.00  0.00     0.034 A 
ATOM      4  C3  UNL d   1      -0.300  -0.229   1.510  0.00  0.00     0.017 A 
ATOM      5  C4  UNL d   1      -0.052  -0.237   0.133  0.00  0.00     0.017 A 
ATOM      6  C5  UNL d   1      -0.690   0.694  -0.694  0.00  0.00     0.034 A 
ATOM      7 Cl   UNL d   1       1.026  -1.366  -0.608  0.00  0.00    -0.070 Cl
ATOM      8 Cl1  UNL d   1       0.449  -1.345   2.595  0.00  0.00    -0.070 Cl
ENDROOT
TORSDOF 0
ENDMDL
