MODEL 1
REMARK minimizedAffinity -3.13314009
REMARK minimizedRMSD -1
REMARK  0 active torsions:
REMARK  status: ('A' for Active; 'I' for Inactive)
ROOT
ATOM      1  C   UNL d   1      -0.487  -0.423   0.320  0.00  0.00     0.020 A 
ATOM      2  C1  UNL d   1       0.881  -0.289   0.086  0.00  0.00     0.020 A 
ATOM      3  C2  UNL d   1       1.508  -1.092  -0.869  0.00  0.00     0.034 A 
ATOM      4  C3  UNL d   1       0.767  -2.033  -1.593  0.00  0.00     0.017 A 
ATOM      5  C4  UNL d   1      -0.606  -2.167  -1.358  0.00  0.00     0.017 A 
ATOM      6  C5  UNL d   1      -1.229  -1.360  -0.401  0.00  0.00     0.034 A 
ATOM      7 Cl   UNL d   1      -1.586  -3.306  -2.212  0.00  0.00    -0.070 Cl
ATOM      8 Cl1  UNL d   1       1.608  -2.993  -2.758  0.00  0.00    -0.070 Cl
ENDROOT
TORSDOF 0
ENDMDL
