MODEL 1
REMARK minimizedAffinity -4.37926483
REMARK minimizedRMSD -1
REMARK  0 active torsions:
REMARK  status: ('A' for Active; 'I' for Inactive)
ROOT
ATOM      1  C   UNL d   1      -1.597   2.014   0.737  0.00  0.00     0.020 A 
ATOM      2  C1  UNL d   1      -1.347   0.974   1.631  0.00  0.00     0.020 A 
ATOM      3  C2  UNL d   1      -0.320   0.063   1.373  0.00  0.00     0.034 A 
ATOM      4  C3  UNL d   1       0.461   0.191   0.219  0.00  0.00     0.017 A 
ATOM      5  C4  UNL d   1       0.209   1.236  -0.678  0.00  0.00     0.017 A 
ATOM      6  C5  UNL d   1      -0.820   2.145  -0.415  0.00  0.00     0.034 A 
ATOM      7 Cl   UNL d   1       1.130   1.459  -2.123  0.00  0.00    -0.070 Cl
ATOM      8 Cl1  UNL d   1       1.714  -0.970  -0.037  0.00  0.00    -0.070 Cl
ENDROOT
TORSDOF 0
ENDMDL
