MODEL 1
REMARK minimizedAffinity -6.03502369
REMARK minimizedRMSD -1
REMARK  0 active torsions:
REMARK  status: ('A' for Active; 'I' for Inactive)
ROOT
ATOM      1  C1  DEN d   1       0.925   0.276  -0.733  0.00  0.00     0.130 A 
ATOM      2  C2  DEN d   1       1.566  -0.583   0.259  0.00  0.00    -0.031 A 
ATOM      3  C3  DEN d   1       0.811  -0.464   1.522  0.00  0.00     0.027 A 
ATOM      4  C4  DEN d   1      -1.279   0.958   2.036  0.00  0.00     0.027 A 
ATOM      5  C5  DEN d   1      -2.178   1.860   1.513  0.00  0.00    -0.003 A 
ATOM      6  C6  DEN d   1      -2.088   2.320   0.226  0.00  0.00     0.001 A 
ATOM      7  C7  DEN d   1      -1.101   1.844  -0.596  0.00  0.00     0.017 A 
ATOM      8  C8  DEN d   1      -0.186   0.940  -0.074  0.00  0.00    -0.094 A 
ATOM      9  C9  DEN d   1      -0.302   0.478   1.226  0.00  0.00    -0.072 A 
ENDROOT
TORSDOF 0
ENDMDL
