MODEL 1
REMARK minimizedAffinity -0.195911646
REMARK minimizedRMSD -1
REMARK  0 active torsions:
REMARK  status: ('A' for Active; 'I' for Inactive)
ROOT
ATOM      1  C1  DEN d   1       0.041   2.675  -1.154  0.00  0.00     0.130 A 
ATOM      2  C2  DEN d   1       0.899   1.651  -1.744  0.00  0.00    -0.031 A 
ATOM      3  C3  DEN d   1       1.000   0.532  -0.786  0.00  0.00     0.027 A 
ATOM      4  C4  DEN d   1      -0.086   0.285   1.540  0.00  0.00     0.027 A 
ATOM      5  C5  DEN d   1      -0.890   0.899   2.475  0.00  0.00    -0.003 A 
ATOM      6  C6  DEN d   1      -1.408   2.152   2.281  0.00  0.00     0.001 A 
ATOM      7  C7  DEN d   1      -1.164   2.814   1.107  0.00  0.00     0.017 A 
ATOM      8  C8  DEN d   1      -0.349   2.204   0.163  0.00  0.00    -0.094 A 
ATOM      9  C9  DEN d   1       0.155   0.931   0.371  0.00  0.00    -0.072 A 
ENDROOT
TORSDOF 0
ENDMDL
