MODEL 1
REMARK minimizedAffinity -3.6904788
REMARK minimizedRMSD -1
REMARK  0 active torsions:
REMARK  status: ('A' for Active; 'I' for Inactive)
ROOT
ATOM      1  C1  DEN d   1      -1.442   0.029   0.444  0.00  0.00     0.130 A 
ATOM      2  C2  DEN d   1      -2.047   1.353   0.329  0.00  0.00    -0.031 A 
ATOM      3  C3  DEN d   1      -1.144   2.199  -0.478  0.00  0.00     0.027 A 
ATOM      4  C4  DEN d   1       1.117   1.588  -1.558  0.00  0.00     0.027 A 
ATOM      5  C5  DEN d   1       2.046   0.585  -1.725  0.00  0.00    -0.003 A 
ATOM      6  C6  DEN d   1       1.896  -0.652  -1.158  0.00  0.00     0.001 A 
ATOM      7  C7  DEN d   1       0.768  -0.934  -0.433  0.00  0.00     0.017 A 
ATOM      8  C8  DEN d   1      -0.170   0.074  -0.253  0.00  0.00    -0.094 A 
ATOM      9  C9  DEN d   1      -0.005   1.315  -0.845  0.00  0.00    -0.072 A 
ENDROOT
TORSDOF 0
ENDMDL
