MODEL 1
REMARK minimizedAffinity -3.87800932
REMARK minimizedRMSD -1
REMARK  0 active torsions:
REMARK  status: ('A' for Active; 'I' for Inactive)
ROOT
ATOM      1  C1  DEN d   1       1.018  -0.629   1.686  0.00  0.00     0.130 A 
ATOM      2  C2  DEN d   1       0.921  -1.639   0.635  0.00  0.00    -0.031 A 
ATOM      3  C3  DEN d   1      -0.220  -1.287  -0.233  0.00  0.00     0.027 A 
ATOM      4  C4  DEN d   1      -1.835   0.716  -0.056  0.00  0.00     0.027 A 
ATOM      5  C5  DEN d   1      -2.158   1.837   0.677  0.00  0.00    -0.003 A 
ATOM      6  C6  DEN d   1      -1.472   2.192   1.808  0.00  0.00     0.001 A 
ATOM      7  C7  DEN d   1      -0.398   1.444   2.213  0.00  0.00     0.017 A 
ATOM      8  C8  DEN d   1      -0.071   0.309   1.484  0.00  0.00    -0.094 A 
ATOM      9  C9  DEN d   1      -0.770  -0.027   0.336  0.00  0.00    -0.072 A 
ENDROOT
TORSDOF 0
ENDMDL
