MODEL 1
REMARK minimizedAffinity -6.17807627
REMARK minimizedRMSD -1
REMARK  0 active torsions:
REMARK  status: ('A' for Active; 'I' for Inactive)
ROOT
ATOM      1  C1  DEN d   1       0.688  -1.583  -0.776  0.00  0.00     0.130 A 
ATOM      2  C2  DEN d   1       1.985  -1.155  -1.291  0.00  0.00    -0.031 A 
ATOM      3  C3  DEN d   1       1.989   0.320  -1.349  0.00  0.00     0.027 A 
ATOM      4  C4  DEN d   1       0.124   1.975  -0.690  0.00  0.00     0.027 A 
ATOM      5  C5  DEN d   1      -1.163   2.083  -0.212  0.00  0.00    -0.003 A 
ATOM      6  C6  DEN d   1      -1.929   0.985   0.078  0.00  0.00     0.001 A 
ATOM      7  C7  DEN d   1      -1.398  -0.270  -0.065  0.00  0.00     0.017 A 
ATOM      8  C8  DEN d   1      -0.104  -0.387  -0.555  0.00  0.00    -0.094 A 
ATOM      9  C9  DEN d   1       0.658   0.736  -0.830  0.00  0.00    -0.072 A 
ENDROOT
TORSDOF 0
ENDMDL
