MODEL 1
REMARK minimizedAffinity -3.73854232
REMARK minimizedRMSD -1
REMARK  0 active torsions:
REMARK  status: ('A' for Active; 'I' for Inactive)
ROOT
ATOM      1  C1  DEN d   1      -1.746   2.215   0.421  0.00  0.00     0.130 A 
ATOM      2  C2  DEN d   1      -1.978   2.268   1.862  0.00  0.00    -0.031 A 
ATOM      3  C3  DEN d   1      -1.205   1.177   2.489  0.00  0.00     0.027 A 
ATOM      4  C4  DEN d   1       0.325  -0.576   1.375  0.00  0.00     0.027 A 
ATOM      5  C5  DEN d   1       0.825  -1.028   0.174  0.00  0.00    -0.003 A 
ATOM      6  C6  DEN d   1       0.479  -0.457  -1.022  0.00  0.00     0.001 A 
ATOM      7  C7  DEN d   1      -0.356   0.628  -1.040  0.00  0.00     0.017 A 
ATOM      8  C8  DEN d   1      -0.870   1.086   0.166  0.00  0.00    -0.094 A 
ATOM      9  C9  DEN d   1      -0.499   0.503   1.366  0.00  0.00    -0.072 A 
ENDROOT
TORSDOF 0
ENDMDL
