MODEL 1
REMARK minimizedAffinity -2.47349143
REMARK minimizedRMSD -1
REMARK  0 active torsions:
REMARK  status: ('A' for Active; 'I' for Inactive)
ROOT
ATOM      1  C1  DEN d   1       0.832  -1.129   0.232  0.00  0.00     0.130 A 
ATOM      2  C2  DEN d   1       1.343  -0.370  -0.906  0.00  0.00    -0.031 A 
ATOM      3  C3  DEN d   1       0.760   0.985  -0.850  0.00  0.00     0.027 A 
ATOM      4  C4  DEN d   1      -0.873   1.979   0.882  0.00  0.00     0.027 A 
ATOM      5  C5  DEN d   1      -1.597   1.713   2.023  0.00  0.00    -0.003 A 
ATOM      6  C6  DEN d   1      -1.590   0.481   2.623  0.00  0.00     0.001 A 
ATOM      7  C7  DEN d   1      -0.807  -0.519   2.109  0.00  0.00     0.017 A 
ATOM      8  C8  DEN d   1      -0.079  -0.261   0.955  0.00  0.00    -0.094 A 
ATOM      9  C9  DEN d   1      -0.090   0.995   0.371  0.00  0.00    -0.072 A 
ENDROOT
TORSDOF 0
ENDMDL
