MODEL 1
REMARK minimizedAffinity -1.33229017
REMARK minimizedRMSD -1
REMARK  0 active torsions:
REMARK  status: ('A' for Active; 'I' for Inactive)
ROOT
ATOM      1  C1  DEN d   1       1.630   1.609  -0.981  0.00  0.00     0.130 A 
ATOM      2  C2  DEN d   1       0.693   2.528  -1.619  0.00  0.00    -0.031 A 
ATOM      3  C3  DEN d   1      -0.676   2.045  -1.350  0.00  0.00     0.027 A 
ATOM      4  C4  DEN d   1      -1.432  -0.025  -0.009  0.00  0.00     0.027 A 
ATOM      5  C5  DEN d   1      -0.997  -1.116   0.711  0.00  0.00    -0.003 A 
ATOM      6  C6  DEN d   1       0.333  -1.392   0.888  0.00  0.00     0.001 A 
ATOM      7  C7  DEN d   1       1.276  -0.541   0.375  0.00  0.00     0.017 A 
ATOM      8  C8  DEN d   1       0.846   0.557  -0.358  0.00  0.00    -0.094 A 
ATOM      9  C9  DEN d   1      -0.503   0.825  -0.515  0.00  0.00    -0.072 A 
ENDROOT
TORSDOF 0
ENDMDL
