MODEL 1
REMARK minimizedAffinity -3.55417252
REMARK minimizedRMSD -1
REMARK  0 active torsions:
REMARK  status: ('A' for Active; 'I' for Inactive)
ROOT
ATOM      1  C1  DEN d   1      -1.051  -0.219   0.520  0.00  0.00     0.130 A 
ATOM      2  C2  DEN d   1      -1.898   0.963   0.388  0.00  0.00    -0.031 A 
ATOM      3  C3  DEN d   1      -1.200   1.931  -0.482  0.00  0.00     0.027 A 
ATOM      4  C4  DEN d   1       1.097   1.712  -1.636  0.00  0.00     0.027 A 
ATOM      5  C5  DEN d   1       2.192   0.896  -1.810  0.00  0.00    -0.003 A 
ATOM      6  C6  DEN d   1       2.298  -0.325  -1.198  0.00  0.00     0.001 A 
ATOM      7  C7  DEN d   1       1.270  -0.784  -0.418  0.00  0.00     0.017 A 
ATOM      8  C8  DEN d   1       0.165   0.037  -0.231  0.00  0.00    -0.094 A 
ATOM      9  C9  DEN d   1       0.072   1.262  -0.868  0.00  0.00    -0.072 A 
ENDROOT
TORSDOF 0
ENDMDL
