MODEL 1
REMARK minimizedAffinity -3.10926557
REMARK minimizedRMSD -1
REMARK  0 active torsions:
REMARK  status: ('A' for Active; 'I' for Inactive)
ROOT
ATOM      1  C1  DEN d   1      -0.625  -0.425   2.174  0.00  0.00     0.130 A 
ATOM      2  C2  DEN d   1      -1.350   0.811   2.455  0.00  0.00    -0.031 A 
ATOM      3  C3  DEN d   1      -1.132   1.736   1.324  0.00  0.00     0.027 A 
ATOM      4  C4  DEN d   1       0.245   1.373  -0.826  0.00  0.00     0.027 A 
ATOM      5  C5  DEN d   1       1.049   0.486  -1.508  0.00  0.00    -0.003 A 
ATOM      6  C6  DEN d   1       1.377  -0.742  -0.999  0.00  0.00     0.001 A 
ATOM      7  C7  DEN d   1       0.861  -1.137   0.207  0.00  0.00     0.017 A 
ATOM      8  C8  DEN d   1       0.055  -0.246   0.904  0.00  0.00    -0.094 A 
ATOM      9  C9  DEN d   1      -0.275   0.987   0.367  0.00  0.00    -0.072 A 
ENDROOT
TORSDOF 0
ENDMDL
