MODEL 1
REMARK minimizedAffinity -2.58642125
REMARK minimizedRMSD -1
REMARK  0 active torsions:
REMARK  status: ('A' for Active; 'I' for Inactive)
ROOT
ATOM      1  C1  DEN d   1       0.889   0.165  -1.125  0.00  0.00     0.130 A 
ATOM      2  C2  DEN d   1       0.801  -1.287  -1.252  0.00  0.00    -0.031 A 
ATOM      3  C3  DEN d   1      -0.071  -1.788  -0.170  0.00  0.00     0.027 A 
ATOM      4  C4  DEN d   1      -1.291  -0.462   1.675  0.00  0.00     0.027 A 
ATOM      5  C5  DEN d   1      -1.510   0.793   2.198  0.00  0.00    -0.003 A 
ATOM      6  C6  DEN d   1      -0.922   1.914   1.674  0.00  0.00     0.001 A 
ATOM      7  C7  DEN d   1      -0.122   1.808   0.568  0.00  0.00     0.017 A 
ATOM      8  C8  DEN d   1       0.109   0.544   0.040  0.00  0.00    -0.094 A 
ATOM      9  C9  DEN d   1      -0.504  -0.576   0.576  0.00  0.00    -0.072 A 
ENDROOT
TORSDOF 0
ENDMDL
