MODEL 1
REMARK minimizedAffinity -2.79365396
REMARK minimizedRMSD -1
REMARK  0 active torsions:
REMARK  status: ('A' for Active; 'I' for Inactive)
ROOT
ATOM      1  C1  DEN d   1       0.104   0.642  -1.151  0.00  0.00     0.130 A 
ATOM      2  C2  DEN d   1       0.923  -0.567  -1.178  0.00  0.00    -0.031 A 
ATOM      3  C3  DEN d   1       0.959  -1.124   0.189  0.00  0.00     0.027 A 
ATOM      4  C4  DEN d   1      -0.171  -0.239   2.332  0.00  0.00     0.027 A 
ATOM      5  C5  DEN d   1      -0.960   0.763   2.854  0.00  0.00    -0.003 A 
ATOM      6  C6  DEN d   1      -1.417   1.804   2.091  0.00  0.00     0.001 A 
ATOM      7  C7  DEN d   1      -1.126   1.844   0.752  0.00  0.00     0.017 A 
ATOM      8  C8  DEN d   1      -0.326   0.841   0.221  0.00  0.00    -0.094 A 
ATOM      9  C9  DEN d   1       0.116  -0.210   1.006  0.00  0.00    -0.072 A 
ENDROOT
TORSDOF 0
ENDMDL
