MODEL 1
REMARK minimizedAffinity -3.73196173
REMARK minimizedRMSD -1
REMARK  0 active torsions:
REMARK  status: ('A' for Active; 'I' for Inactive)
ROOT
ATOM      1  C1  DEN d   1       0.470   1.137  -0.619  0.00  0.00     0.130 A 
ATOM      2  C2  DEN d   1       1.068  -0.188  -0.762  0.00  0.00    -0.031 A 
ATOM      3  C3  DEN d   1       0.555  -1.039   0.331  0.00  0.00     0.027 A 
ATOM      4  C4  DEN d   1      -1.100  -0.439   2.216  0.00  0.00     0.027 A 
ATOM      5  C5  DEN d   1      -1.868   0.568   2.756  0.00  0.00    -0.003 A 
ATOM      6  C6  DEN d   1      -1.884   1.834   2.235  0.00  0.00     0.001 A 
ATOM      7  C7  DEN d   1      -1.152   2.115   1.111  0.00  0.00     0.017 A 
ATOM      8  C8  DEN d   1      -0.370   1.106   0.565  0.00  0.00    -0.094 A 
ATOM      9  C9  DEN d   1      -0.376  -0.171   1.100  0.00  0.00    -0.072 A 
ENDROOT
TORSDOF 0
ENDMDL
