MODEL 1
REMARK minimizedAffinity 1.63992536
REMARK minimizedRMSD -1
REMARK  0 active torsions:
REMARK  status: ('A' for Active; 'I' for Inactive)
ROOT
ATOM      1  C4' PXY d   1       6.000   6.000  -5.999  0.00  0.00     0.077 C 
ATOM      2  C1' PXY d   1       1.118   3.430  -4.272  0.00  0.00     0.077 C 
ATOM      3  C1  PXY d   1       2.392   4.110  -4.735  0.00  0.00    -0.082 A 
ATOM      4  C2  PXY d   1       3.565   3.578  -4.431  0.00  0.00     0.003 A 
ATOM      5  C3  PXY d   1       4.727   4.197  -4.814  0.00  0.00     0.003 A 
ATOM      6  C4  PXY d   1       4.688   5.343  -5.561  0.00  0.00    -0.082 A 
ATOM      7  C5  PXY d   1       3.495   5.886  -5.885  0.00  0.00     0.003 A 
ATOM      8  C6  PXY d   1       2.327   5.265  -5.451  0.00  0.00     0.003 A 
ENDROOT
TORSDOF 0
ENDMDL
