MODEL 1
REMARK minimizedAffinity 5.13554955
REMARK minimizedRMSD -1
REMARK  0 active torsions:
REMARK  status: ('A' for Active; 'I' for Inactive)
ROOT
ATOM      1  C4' PXY d   1       4.812   1.484  -3.263  0.00  0.00     0.077 C 
ATOM      2  C1' PXY d   1       2.461   6.000  -6.000  0.00  0.00     0.077 C 
ATOM      3  C1  PXY d   1       3.066   4.812  -5.278  0.00  0.00    -0.082 A 
ATOM      4  C2  PXY d   1       4.323   4.865  -4.870  0.00  0.00     0.003 A 
ATOM      5  C3  PXY d   1       4.896   3.787  -4.245  0.00  0.00     0.003 A 
ATOM      6  C4  PXY d   1       4.157   2.663  -3.987  0.00  0.00    -0.082 A 
ATOM      7  C5  PXY d   1       2.870   2.606  -4.390  0.00  0.00     0.003 A 
ATOM      8  C6  PXY d   1       2.320   3.694  -5.060  0.00  0.00     0.003 A 
ENDROOT
TORSDOF 0
ENDMDL
