MODEL 1
REMARK minimizedAffinity 7.46709061
REMARK minimizedRMSD -1
REMARK  0 active torsions:
REMARK  status: ('A' for Active; 'I' for Inactive)
ROOT
ATOM      1  C4' PXY d   1       2.756   5.999  -5.999  0.00  0.00     0.077 C 
ATOM      2  C1' PXY d   1       3.804   1.939  -2.020  0.00  0.00     0.077 C 
ATOM      3  C1  PXY d   1       3.520   3.009  -3.055  0.00  0.00    -0.082 A 
ATOM      4  C2  PXY d   1       3.774   2.768  -4.332  0.00  0.00     0.003 A 
ATOM      5  C3  PXY d   1       3.553   3.736  -5.277  0.00  0.00     0.003 A 
ATOM      6  C4  PXY d   1       3.018   4.945  -4.920  0.00  0.00    -0.082 A 
ATOM      7  C5  PXY d   1       2.746   5.194  -3.622  0.00  0.00     0.003 A 
ATOM      8  C6  PXY d   1       3.016   4.213  -2.672  0.00  0.00     0.003 A 
ENDROOT
TORSDOF 0
ENDMDL
