MODEL 1
REMARK minimizedAffinity 3.30382872
REMARK minimizedRMSD -1
REMARK  0 active torsions:
REMARK  status: ('A' for Active; 'I' for Inactive)
ROOT
ATOM      1  C4' PXY d   1       0.270   5.035  -5.759  0.00  0.00     0.077 C 
ATOM      2  C1' PXY d   1       5.998   4.920  -4.988  0.00  0.00     0.077 C 
ATOM      3  C1  PXY d   1       4.495   4.937  -5.189  0.00  0.00    -0.082 A 
ATOM      4  C2  PXY d   1       3.933   5.946  -5.835  0.00  0.00     0.003 A 
ATOM      5  C3  PXY d   1       2.573   5.993  -5.998  0.00  0.00     0.003 A 
ATOM      6  C4  PXY d   1       1.784   4.971  -5.541  0.00  0.00    -0.082 A 
ATOM      7  C5  PXY d   1       2.351   3.933  -4.890  0.00  0.00     0.003 A 
ATOM      8  C6  PXY d   1       3.730   3.924  -4.699  0.00  0.00     0.003 A 
ENDROOT
TORSDOF 0
ENDMDL
