MODEL 1
REMARK minimizedAffinity 1.84427249
REMARK minimizedRMSD -1
REMARK  0 active torsions:
REMARK  status: ('A' for Active; 'I' for Inactive)
ROOT
ATOM      1  C4' PXY d   1       5.269   2.391  -2.625  0.00  0.00     0.077 C 
ATOM      2  C1' PXY d   1       2.198   6.000  -5.935  0.00  0.00     0.077 C 
ATOM      3  C1  PXY d   1       3.014   5.056  -5.074  0.00  0.00    -0.082 A 
ATOM      4  C2  PXY d   1       2.419   4.039  -4.472  0.00  0.00     0.003 A 
ATOM      5  C3  PXY d   1       3.136   3.196  -3.664  0.00  0.00     0.003 A 
ATOM      6  C4  PXY d   1       4.486   3.363  -3.512  0.00  0.00    -0.082 A 
ATOM      7  C5  PXY d   1       5.103   4.392  -4.131  0.00  0.00     0.003 A 
ATOM      8  C6  PXY d   1       4.350   5.262  -4.914  0.00  0.00     0.003 A 
ENDROOT
TORSDOF 0
ENDMDL
