MODEL 1
REMARK minimizedAffinity 4.08722258
REMARK minimizedRMSD -1
REMARK  0 active torsions:
REMARK  status: ('A' for Active; 'I' for Inactive)
ROOT
ATOM      1  C4' PXY d   1       3.003   6.000  -6.000  0.00  0.00     0.077 C 
ATOM      2  C1' PXY d   1       4.580   1.530  -2.691  0.00  0.00     0.077 C 
ATOM      3  C1  PXY d   1       4.164   2.709  -3.548  0.00  0.00    -0.082 A 
ATOM      4  C2  PXY d   1       3.794   2.508  -4.802  0.00  0.00     0.003 A 
ATOM      5  C3  PXY d   1       3.444   3.566  -5.601  0.00  0.00     0.003 A 
ATOM      6  C4  PXY d   1       3.423   4.838  -5.095  0.00  0.00    -0.082 A 
ATOM      7  C5  PXY d   1       3.789   5.051  -3.813  0.00  0.00     0.003 A 
ATOM      8  C6  PXY d   1       4.180   3.968  -3.031  0.00  0.00     0.003 A 
ENDROOT
TORSDOF 0
ENDMDL
