MODEL 1
REMARK minimizedAffinity 5.42038774
REMARK minimizedRMSD -1
REMARK  0 active torsions:
REMARK  status: ('A' for Active; 'I' for Inactive)
ROOT
ATOM      1  C4' PXY d   1      -3.131  -5.999  -1.854  0.00  0.00     0.077 C 
ATOM      2  C1' PXY d   1      -3.070  -0.219  -1.865  0.00  0.00     0.077 C 
ATOM      3  C1  PXY d   1      -3.092  -1.735  -1.874  0.00  0.00    -0.082 A 
ATOM      4  C2  PXY d   1      -3.076  -2.396  -0.728  0.00  0.00     0.003 A 
ATOM      5  C3  PXY d   1      -3.063  -3.767  -0.718  0.00  0.00     0.003 A 
ATOM      6  C4  PXY d   1      -3.120  -4.468  -1.893  0.00  0.00    -0.082 A 
ATOM      7  C5  PXY d   1      -3.147  -3.801  -3.066  0.00  0.00     0.003 A 
ATOM      8  C6  PXY d   1      -3.118  -2.410  -3.055  0.00  0.00     0.003 A 
ENDROOT
TORSDOF 0
ENDMDL
