MODEL 1
REMARK minimizedAffinity 0.784036219
REMARK minimizedRMSD -1
REMARK  0 active torsions:
REMARK  status: ('A' for Active; 'I' for Inactive)
ROOT
ATOM      1  C4' PXY d   1       2.311   1.935   0.831  0.00  0.00     0.077 C 
ATOM      2  C1' PXY d   1      -2.805   1.847   3.520  0.00  0.00     0.077 C 
ATOM      3  C1  PXY d   1      -1.458   1.864   2.826  0.00  0.00    -0.082 A 
ATOM      4  C2  PXY d   1      -1.234   2.735   1.855  0.00  0.00     0.003 A 
ATOM      5  C3  PXY d   1      -0.032   2.743   1.194  0.00  0.00     0.003 A 
ATOM      6  C4  PXY d   1       0.969   1.887   1.567  0.00  0.00    -0.082 A 
ATOM      7  C5  PXY d   1       0.752   1.003   2.564  0.00  0.00     0.003 A 
ATOM      8  C6  PXY d   1      -0.489   0.983   3.194  0.00  0.00     0.003 A 
ENDROOT
TORSDOF 0
ENDMDL
