MODEL 1
REMARK minimizedAffinity 11.3206511
REMARK minimizedRMSD -1
REMARK  0 active torsions:
REMARK  status: ('A' for Active; 'I' for Inactive)
ROOT
ATOM      1  C4' PXY d   1       1.535   2.995  -2.996  0.00  0.00     0.077 C 
ATOM      2  C1' PXY d   1       5.468   5.984  -6.000  0.00  0.00     0.077 C 
ATOM      3  C1  PXY d   1       4.438   5.190  -5.220  0.00  0.00    -0.082 A 
ATOM      4  C2  PXY d   1       3.534   5.827  -4.494  0.00  0.00     0.003 A 
ATOM      5  C3  PXY d   1       2.615   5.124  -3.757  0.00  0.00     0.003 A 
ATOM      6  C4  PXY d   1       2.588   3.756  -3.807  0.00  0.00    -0.082 A 
ATOM      7  C5  PXY d   1       3.501   3.099  -4.554  0.00  0.00     0.003 A 
ATOM      8  C6  PXY d   1       4.451   3.830  -5.262  0.00  0.00     0.003 A 
ENDROOT
TORSDOF 0
ENDMDL
