MODEL 1
REMARK minimizedAffinity 5.25048113
REMARK minimizedRMSD -1
REMARK  0 active torsions:
REMARK  status: ('A' for Active; 'I' for Inactive)
ROOT
ATOM      1  C4' PXY d   1      -0.164  -5.638   0.224  0.00  0.00     0.077 C 
ATOM      2  C1' PXY d   1      -4.180  -1.747  -1.244  0.00  0.00     0.077 C 
ATOM      3  C1  PXY d   1      -3.117  -2.758  -0.858  0.00  0.00    -0.082 A 
ATOM      4  C2  PXY d   1      -3.267  -4.027  -1.201  0.00  0.00     0.003 A 
ATOM      5  C3  PXY d   1      -2.332  -4.960  -0.833  0.00  0.00     0.003 A 
ATOM      6  C4  PXY d   1      -1.206  -4.581  -0.152  0.00  0.00    -0.082 A 
ATOM      7  C5  PXY d   1      -1.041  -3.286   0.192  0.00  0.00     0.003 A 
ATOM      8  C6  PXY d   1      -2.022  -2.362  -0.155  0.00  0.00     0.003 A 
ENDROOT
TORSDOF 0
ENDMDL
