MODEL 1
REMARK minimizedAffinity 4.3779211
REMARK minimizedRMSD -1
REMARK  0 active torsions:
REMARK  status: ('A' for Active; 'I' for Inactive)
ROOT
ATOM      1  C4' PXY d   1      -4.622   2.610   4.252  0.00  0.00     0.077 C 
ATOM      2  C1' PXY d   1      -0.875  -1.386   2.405  0.00  0.00     0.077 C 
ATOM      3  C1  PXY d   1      -1.848  -0.329   2.890  0.00  0.00    -0.082 A 
ATOM      4  C2  PXY d   1      -2.945  -0.695   3.534  0.00  0.00     0.003 A 
ATOM      5  C3  PXY d   1      -3.851   0.245   3.951  0.00  0.00     0.003 A 
ATOM      6  C4  PXY d   1      -3.607   1.578   3.753  0.00  0.00    -0.082 A 
ATOM      7  C5  PXY d   1      -2.485   1.960   3.107  0.00  0.00     0.003 A 
ATOM      8  C6  PXY d   1      -1.598   0.988   2.655  0.00  0.00     0.003 A 
ENDROOT
TORSDOF 0
ENDMDL
