MODEL 1
REMARK minimizedAffinity -4.9745779
REMARK minimizedRMSD -1
REMARK  0 active torsions:
REMARK  status: ('A' for Active; 'I' for Inactive)
ROOT
ATOM      1  C4' PXY d   1       1.501   0.850   0.722  0.00  0.00     0.077 C 
ATOM      2  C1' PXY d   1      -3.652   1.114   3.329  0.00  0.00     0.077 C 
ATOM      3  C1  PXY d   1      -2.300   1.057   2.644  0.00  0.00    -0.082 A 
ATOM      4  C2  PXY d   1      -1.924  -0.052   2.028  0.00  0.00     0.003 A 
ATOM      5  C3  PXY d   1      -0.693  -0.131   1.431  0.00  0.00     0.003 A 
ATOM      6  C4  PXY d   1       0.142   0.955   1.418  0.00  0.00    -0.082 A 
ATOM      7  C5  PXY d   1      -0.239   2.094   2.035  0.00  0.00     0.003 A 
ATOM      8  C6  PXY d   1      -1.476   2.140   2.670  0.00  0.00     0.003 A 
ENDROOT
TORSDOF 0
ENDMDL
