MODEL 1
REMARK minimizedAffinity 4.87627506
REMARK minimizedRMSD -1
REMARK  0 active torsions:
REMARK  status: ('A' for Active; 'I' for Inactive)
ROOT
ATOM      1  C4' PXY d   1       1.408   3.812   0.401  0.00  0.00     0.077 C 
ATOM      2  C1' PXY d   1      -3.196   1.621   3.125  0.00  0.00     0.077 C 
ATOM      3  C1  PXY d   1      -1.996   2.200   2.401  0.00  0.00    -0.082 A 
ATOM      4  C2  PXY d   1      -0.795   1.687   2.611  0.00  0.00     0.003 A 
ATOM      5  C3  PXY d   1       0.305   2.219   1.990  0.00  0.00     0.003 A 
ATOM      6  C4  PXY d   1       0.167   3.253   1.103  0.00  0.00    -0.082 A 
ATOM      7  C5  PXY d   1      -1.057   3.775   0.875  0.00  0.00     0.003 A 
ATOM      8  C6  PXY d   1      -2.155   3.248   1.547  0.00  0.00     0.003 A 
ENDROOT
TORSDOF 0
ENDMDL
