MODEL 1
REMARK minimizedAffinity 8.09735107
REMARK minimizedRMSD -1
REMARK  0 active torsions:
REMARK  status: ('A' for Active; 'I' for Inactive)
ROOT
ATOM      1  C4' PXY d   1       0.613  -1.088   3.796  0.00  0.00     0.077 C 
ATOM      2  C1' PXY d   1      -1.946   3.605   1.596  0.00  0.00     0.077 C 
ATOM      3  C1  PXY d   1      -1.286   2.371   2.179  0.00  0.00    -0.082 A 
ATOM      4  C2  PXY d   1       0.030   2.332   2.306  0.00  0.00     0.003 A 
ATOM      5  C3  PXY d   1       0.646   1.211   2.802  0.00  0.00     0.003 A 
ATOM      6  C4  PXY d   1      -0.097   0.140   3.221  0.00  0.00    -0.082 A 
ATOM      7  C5  PXY d   1      -1.441   0.177   3.104  0.00  0.00     0.003 A 
ATOM      8  C6  PXY d   1      -2.044   1.307   2.560  0.00  0.00     0.003 A 
ENDROOT
TORSDOF 0
ENDMDL
