MODEL 1
REMARK minimizedAffinity 1.46612442
REMARK minimizedRMSD -1
REMARK  0 active torsions:
REMARK  status: ('A' for Active; 'I' for Inactive)
ROOT
ATOM      1  C4' PXY d   1       1.588   0.364   2.320  0.00  0.00     0.077 C 
ATOM      2  C1' PXY d   1      -4.020   1.411   3.252  0.00  0.00     0.077 C 
ATOM      3  C1  PXY d   1      -2.548   1.148   3.002  0.00  0.00    -0.082 A 
ATOM      4  C2  PXY d   1      -2.101  -0.097   2.977  0.00  0.00     0.003 A 
ATOM      5  C3  PXY d   1      -0.768  -0.352   2.783  0.00  0.00     0.003 A 
ATOM      6  C4  PXY d   1       0.109   0.676   2.560  0.00  0.00    -0.082 A 
ATOM      7  C5  PXY d   1      -0.341   1.949   2.573  0.00  0.00     0.003 A 
ATOM      8  C6  PXY d   1      -1.691   2.188   2.813  0.00  0.00     0.003 A 
ENDROOT
TORSDOF 0
ENDMDL
