MODEL 1
REMARK minimizedAffinity 3.39142442
REMARK minimizedRMSD -1
REMARK  0 active torsions:
REMARK  status: ('A' for Active; 'I' for Inactive)
ROOT
ATOM      1  C4' PXY d   1       0.776   3.376   0.993  0.00  0.00     0.077 C 
ATOM      2  C1' PXY d   1      -4.083   1.962   3.786  0.00  0.00     0.077 C 
ATOM      3  C1  PXY d   1      -2.816   2.337   3.043  0.00  0.00    -0.082 A 
ATOM      4  C2  PXY d   1      -1.670   1.765   3.375  0.00  0.00     0.003 A 
ATOM      5  C3  PXY d   1      -0.509   2.116   2.736  0.00  0.00     0.003 A 
ATOM      6  C4  PXY d   1      -0.530   3.022   1.709  0.00  0.00    -0.082 A 
ATOM      7  C5  PXY d   1      -1.698   3.601   1.358  0.00  0.00     0.003 A 
ATOM      8  C6  PXY d   1      -2.858   3.262   2.047  0.00  0.00     0.003 A 
ENDROOT
TORSDOF 0
ENDMDL
