MODEL 1
REMARK minimizedAffinity 6.25826263
REMARK minimizedRMSD -1
REMARK  0 active torsions:
REMARK  status: ('A' for Active; 'I' for Inactive)
ROOT
ATOM      1  C4' PXY d   1       6.000  -1.282  -0.802  0.00  0.00     0.077 C 
ATOM      2  C1' PXY d   1       1.905  -0.378   3.176  0.00  0.00     0.077 C 
ATOM      3  C1  PXY d   1       2.970  -0.622   2.126  0.00  0.00    -0.082 A 
ATOM      4  C2  PXY d   1       4.248  -0.564   2.464  0.00  0.00     0.003 A 
ATOM      5  C3  PXY d   1       5.225  -0.750   1.520  0.00  0.00     0.003 A 
ATOM      6  C4  PXY d   1       4.890  -1.052   0.227  0.00  0.00    -0.082 A 
ATOM      7  C5  PXY d   1       3.588  -1.123  -0.124  0.00  0.00     0.003 A 
ATOM      8  C6  PXY d   1       2.612  -0.890   0.841  0.00  0.00     0.003 A 
ENDROOT
TORSDOF 0
ENDMDL
