MODEL 1
REMARK minimizedAffinity 1.65301573
REMARK minimizedRMSD -1
REMARK  0 active torsions:
REMARK  status: ('A' for Active; 'I' for Inactive)
ROOT
ATOM      1  C4' PXY d   1       2.645   0.700  -3.031  0.00  0.00     0.077 C 
ATOM      2  C1' PXY d   1       4.554  -0.626   2.262  0.00  0.00     0.077 C 
ATOM      3  C1  PXY d   1       4.042  -0.274   0.879  0.00  0.00    -0.082 A 
ATOM      4  C2  PXY d   1       4.585  -0.845  -0.184  0.00  0.00     0.003 A 
ATOM      5  C3  PXY d   1       4.156  -0.515  -1.443  0.00  0.00     0.003 A 
ATOM      6  C4  PXY d   1       3.124   0.368  -1.614  0.00  0.00    -0.082 A 
ATOM      7  C5  PXY d   1       2.557   0.947  -0.534  0.00  0.00     0.003 A 
ATOM      8  C6  PXY d   1       3.035   0.629   0.734  0.00  0.00     0.003 A 
ENDROOT
TORSDOF 0
ENDMDL
