MODEL 1
REMARK minimizedAffinity 5.42315769
REMARK minimizedRMSD -1
REMARK  0 active torsions:
REMARK  status: ('A' for Active; 'I' for Inactive)
ROOT
ATOM      1  C4' PXY d   1      -5.367   2.032   4.983  0.00  0.00     0.077 C 
ATOM      2  C1' PXY d   1      -0.591   2.115   1.727  0.00  0.00     0.077 C 
ATOM      3  C1  PXY d   1      -1.847   2.081   2.575  0.00  0.00    -0.082 A 
ATOM      4  C2  PXY d   1      -2.348   3.212   3.047  0.00  0.00     0.003 A 
ATOM      5  C3  PXY d   1      -3.465   3.197   3.842  0.00  0.00     0.003 A 
ATOM      6  C4  PXY d   1      -4.106   2.018   4.115  0.00  0.00    -0.082 A 
ATOM      7  C5  PXY d   1      -3.607   0.862   3.629  0.00  0.00     0.003 A 
ATOM      8  C6  PXY d   1      -2.449   0.894   2.857  0.00  0.00     0.003 A 
ENDROOT
TORSDOF 0
ENDMDL
