MODEL 1
REMARK minimizedAffinity 1.83623087
REMARK minimizedRMSD -1
REMARK  1 active torsions:
REMARK  status: ('A' for Active; 'I' for Inactive)
REMARK    1  A    between atoms: N_2  and  C1_3 
ROOT
ATOM      1  C1  UNL d   1       1.088   2.487   1.940  0.00  0.00     0.143 A 
ATOM      2  C2  UNL d   1       1.052   1.137   2.305  0.00  0.00    -0.057 A 
ATOM      3  C3  UNL d   1       0.741   0.140   1.373  0.00  0.00     0.033 A 
ATOM      4  C4  UNL d   1       0.430   0.479   0.060  0.00  0.00    -0.042 A 
ATOM      5  C5  UNL d   1       0.435   1.817  -0.320  0.00  0.00     0.033 A 
ATOM      6  C6  UNL d   1       0.753   2.807   0.614  0.00  0.00    -0.057 A 
ENDROOT
BRANCH   1   7
ATOM      7  N   UNL d   1       1.294   3.532   2.843  0.00  0.00    -0.732 N 
ATOM      8  C   UNL d   1       1.966   3.296   4.103  0.00  0.00     0.284 C 
ATOM      9  H3  UNL d   1       1.568   4.396   2.381  0.00  0.00     0.395 HD
ENDBRANCH   1   7
TORSDOF 1
ENDMDL
