MODEL 1
REMARK minimizedAffinity -0.829945683
REMARK minimizedRMSD -1
REMARK  1 active torsions:
REMARK  status: ('A' for Active; 'I' for Inactive)
REMARK    1  A    between atoms: N_2  and  C1_3 
ROOT
ATOM      1  C1  UNL d   1       0.132   0.095   1.811  0.00  0.00     0.143 A 
ATOM      2  C2  UNL d   1      -1.018  -0.136   1.048  0.00  0.00    -0.057 A 
ATOM      3  C3  UNL d   1      -1.326   0.660  -0.061  0.00  0.00     0.033 A 
ATOM      4  C4  UNL d   1      -0.501   1.724  -0.412  0.00  0.00    -0.042 A 
ATOM      5  C5  UNL d   1       0.634   1.988   0.346  0.00  0.00     0.033 A 
ATOM      6  C6  UNL d   1       0.940   1.185   1.449  0.00  0.00    -0.057 A 
ENDROOT
BRANCH   1   7
ATOM      7  N   UNL d   1       0.440  -0.599   2.983  0.00  0.00    -0.732 N 
ATOM      8  C   UNL d   1       1.711  -1.278   3.125  0.00  0.00     0.284 C 
ATOM      9  H3  UNL d   1       0.138  -0.104   3.819  0.00  0.00     0.395 HD
ENDBRANCH   1   7
TORSDOF 1
ENDMDL
