MODEL 1
REMARK minimizedAffinity -2.14782739
REMARK minimizedRMSD -1
REMARK  1 active torsions:
REMARK  status: ('A' for Active; 'I' for Inactive)
REMARK    1  A    between atoms: N_2  and  C1_3 
ROOT
ATOM      1  C1  UNL d   1      -3.889   4.455  -5.118  0.00  0.00     0.143 A 
ATOM      2  C2  UNL d   1      -3.912   3.750  -3.909  0.00  0.00    -0.057 A 
ATOM      3  C3  UNL d   1      -4.943   2.851  -3.613  0.00  0.00     0.033 A 
ATOM      4  C4  UNL d   1      -5.989   2.662  -4.510  0.00  0.00    -0.042 A 
ATOM      5  C5  UNL d   1      -6.000   3.371  -5.706  0.00  0.00     0.033 A 
ATOM      6  C6  UNL d   1      -4.964   4.262  -6.000  0.00  0.00    -0.057 A 
ENDROOT
BRANCH   1   7
ATOM      7  N   UNL d   1      -2.944   5.436  -5.428  0.00  0.00    -0.732 N 
ATOM      8  C   UNL d   1      -1.532   5.187  -5.234  0.00  0.00     0.284 C 
ATOM      9  H3  UNL d   1      -3.165   5.929  -6.291  0.00  0.00     0.395 HD
ENDBRANCH   1   7
TORSDOF 1
ENDMDL
