MODEL 1
REMARK minimizedAffinity 2.32111621
REMARK minimizedRMSD -1
REMARK  1 active torsions:
REMARK  status: ('A' for Active; 'I' for Inactive)
REMARK    1  A    between atoms: N_2  and  C1_3 
ROOT
ATOM      1  C1  UNL d   1       0.441   0.428   2.399  0.00  0.00     0.143 A 
ATOM      2  C2  UNL d   1       0.470   0.309   1.006  0.00  0.00    -0.057 A 
ATOM      3  C3  UNL d   1       0.428   1.439   0.179  0.00  0.00     0.033 A 
ATOM      4  C4  UNL d   1       0.326   2.710   0.734  0.00  0.00    -0.042 A 
ATOM      5  C5  UNL d   1       0.271   2.851   2.116  0.00  0.00     0.033 A 
ATOM      6  C6  UNL d   1       0.320   1.719   2.936  0.00  0.00    -0.057 A 
ENDROOT
BRANCH   1   7
ATOM      7  N   UNL d   1       0.380  -0.662   3.272  0.00  0.00    -0.732 N 
ATOM      8  C   UNL d   1       1.588  -1.346   3.681  0.00  0.00     0.284 C 
ATOM      9  H3  UNL d   1      -0.293  -0.522   4.022  0.00  0.00     0.395 HD
ENDBRANCH   1   7
TORSDOF 1
ENDMDL
