MODEL 1
REMARK minimizedAffinity 3.94475627
REMARK minimizedRMSD -1
REMARK  1 active torsions:
REMARK  status: ('A' for Active; 'I' for Inactive)
REMARK    1  A    between atoms: N_2  and  C1_3 
ROOT
ATOM      1  C1  UNL d   1      -3.560   3.762  -3.772  0.00  0.00     0.143 A 
ATOM      2  C2  UNL d   1      -4.788   3.703  -3.103  0.00  0.00    -0.057 A 
ATOM      3  C3  UNL d   1      -5.998   3.852  -3.792  0.00  0.00     0.033 A 
ATOM      4  C4  UNL d   1      -6.000   4.093  -5.162  0.00  0.00    -0.042 A 
ATOM      5  C5  UNL d   1      -4.791   4.180  -5.843  0.00  0.00     0.033 A 
ATOM      6  C6  UNL d   1      -3.586   4.023  -5.151  0.00  0.00    -0.057 A 
ENDROOT
BRANCH   1   7
ATOM      7  N   UNL d   1      -2.321   3.720  -3.128  0.00  0.00    -0.732 N 
ATOM      8  C   UNL d   1      -2.063   2.745  -2.090  0.00  0.00     0.284 C 
ATOM      9  H3  UNL d   1      -1.545   3.858  -3.771  0.00  0.00     0.395 HD
ENDBRANCH   1   7
TORSDOF 1
ENDMDL
