MODEL 1
REMARK minimizedAffinity -0.414713532
REMARK minimizedRMSD -1
REMARK  1 active torsions:
REMARK  status: ('A' for Active; 'I' for Inactive)
REMARK    1  A    between atoms: N_2  and  C1_3 
ROOT
ATOM      1  C1  UNL d   1      -3.630   4.419  -5.466  0.00  0.00     0.143 A 
ATOM      2  C2  UNL d   1      -3.533   3.266  -4.680  0.00  0.00    -0.057 A 
ATOM      3  C3  UNL d   1      -4.639   2.434  -4.472  0.00  0.00     0.033 A 
ATOM      4  C4  UNL d   1      -5.874   2.756  -5.026  0.00  0.00    -0.042 A 
ATOM      5  C5  UNL d   1      -6.000   3.910  -5.791  0.00  0.00     0.033 A 
ATOM      6  C6  UNL d   1      -4.890   4.734  -6.000  0.00  0.00    -0.057 A 
ENDROOT
BRANCH   1   7
ATOM      7  N   UNL d   1      -2.592   5.339  -5.629  0.00  0.00    -0.732 N 
ATOM      8  C   UNL d   1      -1.244   5.010  -5.219  0.00  0.00     0.284 C 
ATOM      9  H3  UNL d   1      -2.647   5.835  -6.516  0.00  0.00     0.395 HD
ENDBRANCH   1   7
TORSDOF 1
ENDMDL
