MODEL 1
REMARK minimizedAffinity 0.943615139
REMARK minimizedRMSD -1
REMARK  1 active torsions:
REMARK  status: ('A' for Active; 'I' for Inactive)
REMARK    1  A    between atoms: N_2  and  C1_3 
ROOT
ATOM      1  C1  UNL d   1      -3.577   3.741  -5.329  0.00  0.00     0.143 A 
ATOM      2  C2  UNL d   1      -3.587   3.359  -3.984  0.00  0.00    -0.057 A 
ATOM      3  C3  UNL d   1      -4.774   2.985  -3.344  0.00  0.00     0.033 A 
ATOM      4  C4  UNL d   1      -5.982   3.014  -4.033  0.00  0.00    -0.042 A 
ATOM      5  C5  UNL d   1      -6.000   3.414  -5.365  0.00  0.00     0.033 A 
ATOM      6  C6  UNL d   1      -4.810   3.780  -6.000  0.00  0.00    -0.057 A 
ENDROOT
BRANCH   1   7
ATOM      7  N   UNL d   1      -2.445   4.218  -5.994  0.00  0.00    -0.732 N 
ATOM      8  C   UNL d   1      -1.484   5.054  -5.307  0.00  0.00     0.284 C 
ATOM      9  H3  UNL d   1      -2.027   3.517  -6.602  0.00  0.00     0.395 HD
ENDBRANCH   1   7
TORSDOF 1
ENDMDL
