MODEL 1
REMARK minimizedAffinity -1.61687398
REMARK minimizedRMSD -1
REMARK  1 active torsions:
REMARK  status: ('A' for Active; 'I' for Inactive)
REMARK    1  A    between atoms: N_2  and  C1_3 
ROOT
ATOM      1  C1  UNL d   1      -3.665   3.986  -5.403  0.00  0.00     0.143 A 
ATOM      2  C2  UNL d   1      -3.546   2.911  -4.515  0.00  0.00    -0.057 A 
ATOM      3  C3  UNL d   1      -4.623   2.052  -4.266  0.00  0.00     0.033 A 
ATOM      4  C4  UNL d   1      -5.851   2.270  -4.882  0.00  0.00    -0.042 A 
ATOM      5  C5  UNL d   1      -6.000   3.347  -5.749  0.00  0.00     0.033 A 
ATOM      6  C6  UNL d   1      -4.919   4.198  -5.998  0.00  0.00    -0.057 A 
ENDROOT
BRANCH   1   7
ATOM      7  N   UNL d   1      -2.661   4.934  -5.616  0.00  0.00    -0.732 N 
ATOM      8  C   UNL d   1      -1.411   4.859  -4.891  0.00  0.00     0.284 C 
ATOM      9  H3  UNL d   1      -2.558   5.176  -6.599  0.00  0.00     0.395 HD
ENDBRANCH   1   7
TORSDOF 1
ENDMDL
