MODEL 1
REMARK minimizedAffinity 0.821204364
REMARK minimizedRMSD -1
REMARK  1 active torsions:
REMARK  status: ('A' for Active; 'I' for Inactive)
REMARK    1  A    between atoms: N_2  and  C1_3 
ROOT
ATOM      1  C1  UNL d   1      -4.911   3.515  -5.163  0.00  0.00     0.143 A 
ATOM      2  C2  UNL d   1      -4.884   3.574  -3.766  0.00  0.00    -0.057 A 
ATOM      3  C3  UNL d   1      -5.379   2.522  -2.985  0.00  0.00     0.033 A 
ATOM      4  C4  UNL d   1      -5.938   1.401  -3.591  0.00  0.00    -0.042 A 
ATOM      5  C5  UNL d   1      -5.998   1.333  -4.978  0.00  0.00     0.033 A 
ATOM      6  C6  UNL d   1      -5.497   2.383  -5.752  0.00  0.00    -0.057 A 
ENDROOT
BRANCH   1   7
ATOM      7  N   UNL d   1      -4.525   4.570  -5.993  0.00  0.00    -0.732 N 
ATOM      8  C   UNL d   1      -3.158   5.046  -5.994  0.00  0.00     0.284 C 
ATOM      9  H3  UNL d   1      -4.945   4.510  -6.918  0.00  0.00     0.395 HD
ENDBRANCH   1   7
TORSDOF 1
ENDMDL
