MODEL 1
REMARK minimizedAffinity 5.00194597
REMARK minimizedRMSD -1
REMARK  1 active torsions:
REMARK  status: ('A' for Active; 'I' for Inactive)
REMARK    1  A    between atoms: N_2  and  C1_3 
ROOT
ATOM      1  C1  UNL d   1      -4.049   4.672  -5.338  0.00  0.00     0.143 A 
ATOM      2  C2  UNL d   1      -3.618   3.800  -4.332  0.00  0.00    -0.057 A 
ATOM      3  C3  UNL d   1      -4.341   2.645  -4.014  0.00  0.00     0.033 A 
ATOM      4  C4  UNL d   1      -5.528   2.354  -4.679  0.00  0.00    -0.042 A 
ATOM      5  C5  UNL d   1      -5.989   3.220  -5.665  0.00  0.00     0.033 A 
ATOM      6  C6  UNL d   1      -5.258   4.369  -5.983  0.00  0.00    -0.057 A 
ENDROOT
BRANCH   1   7
ATOM      7  N   UNL d   1      -3.427   5.887  -5.634  0.00  0.00    -0.732 N 
ATOM      8  C   UNL d   1      -1.983   5.991  -5.652  0.00  0.00     0.284 C 
ATOM      9  H3  UNL d   1      -3.889   6.387  -6.390  0.00  0.00     0.395 HD
ENDBRANCH   1   7
TORSDOF 1
ENDMDL
