MODEL 1
REMARK minimizedAffinity -0.725291193
REMARK minimizedRMSD -1
REMARK  1 active torsions:
REMARK  status: ('A' for Active; 'I' for Inactive)
REMARK    1  A    between atoms: N_2  and  C1_3 
ROOT
ATOM      1  C1  UNL d   1       0.293   0.280   2.449  0.00  0.00     0.143 A 
ATOM      2  C2  UNL d   1       0.648  -0.044   1.135  0.00  0.00    -0.057 A 
ATOM      3  C3  UNL d   1       0.692   0.933   0.133  0.00  0.00     0.033 A 
ATOM      4  C4  UNL d   1       0.354   2.251   0.422  0.00  0.00    -0.042 A 
ATOM      5  C5  UNL d   1      -0.026   2.591   1.715  0.00  0.00     0.033 A 
ATOM      6  C6  UNL d   1      -0.062   1.612   2.713  0.00  0.00    -0.057 A 
ENDROOT
BRANCH   1   7
ATOM      7  N   UNL d   1       0.135  -0.663   3.467  0.00  0.00    -0.732 N 
ATOM      8  C   UNL d   1       1.271  -1.409   3.964  0.00  0.00     0.284 C 
ATOM      9  H3  UNL d   1      -0.505  -0.348   4.193  0.00  0.00     0.395 HD
ENDBRANCH   1   7
TORSDOF 1
ENDMDL
