MODEL 1
REMARK minimizedAffinity 2.24876142
REMARK minimizedRMSD -1
REMARK  1 active torsions:
REMARK  status: ('A' for Active; 'I' for Inactive)
REMARK    1  A    between atoms: N_2  and  C1_3 
ROOT
ATOM      1  C1  UNL d   1      -3.934   4.173  -4.728  0.00  0.00     0.143 A 
ATOM      2  C2  UNL d   1      -4.859   4.037  -5.769  0.00  0.00    -0.057 A 
ATOM      3  C3  UNL d   1      -5.523   2.825  -5.997  0.00  0.00     0.033 A 
ATOM      4  C4  UNL d   1      -5.251   1.716  -5.202  0.00  0.00    -0.042 A 
ATOM      5  C5  UNL d   1      -4.318   1.822  -4.177  0.00  0.00     0.033 A 
ATOM      6  C6  UNL d   1      -3.663   3.036  -3.951  0.00  0.00    -0.057 A 
ENDROOT
BRANCH   1   7
ATOM      7  N   UNL d   1      -3.169   5.322  -4.512  0.00  0.00    -0.732 N 
ATOM      8  C   UNL d   1      -1.929   5.253  -3.770  0.00  0.00     0.284 C 
ATOM      9  H3  UNL d   1      -3.130   5.922  -5.333  0.00  0.00     0.395 HD
ENDBRANCH   1   7
TORSDOF 1
ENDMDL
