MODEL 1
REMARK minimizedAffinity 0.428604662
REMARK minimizedRMSD -1
REMARK  1 active torsions:
REMARK  status: ('A' for Active; 'I' for Inactive)
REMARK    1  A    between atoms: N_2  and  C1_3 
ROOT
ATOM      1  C1  UNL d   1      -3.749   3.609  -5.145  0.00  0.00     0.143 A 
ATOM      2  C2  UNL d   1      -3.512   2.669  -4.137  0.00  0.00    -0.057 A 
ATOM      3  C3  UNL d   1      -4.304   1.521  -4.013  0.00  0.00     0.033 A 
ATOM      4  C4  UNL d   1      -5.370   1.307  -4.881  0.00  0.00    -0.042 A 
ATOM      5  C5  UNL d   1      -5.639   2.241  -5.876  0.00  0.00     0.033 A 
ATOM      6  C6  UNL d   1      -4.841   3.382  -5.999  0.00  0.00    -0.057 A 
ENDROOT
BRANCH   1   7
ATOM      7  N   UNL d   1      -3.060   4.819  -5.259  0.00  0.00    -0.732 N 
ATOM      8  C   UNL d   1      -1.661   4.906  -4.898  0.00  0.00     0.284 C 
ATOM      9  H3  UNL d   1      -3.302   5.326  -6.107  0.00  0.00     0.395 HD
ENDBRANCH   1   7
TORSDOF 1
ENDMDL
