MODEL 1
REMARK minimizedAffinity 1.53760076
REMARK minimizedRMSD -1
REMARK  1 active torsions:
REMARK  status: ('A' for Active; 'I' for Inactive)
REMARK    1  A    between atoms: N_2  and  C1_3 
ROOT
ATOM      1  C1  UNL d   1      -4.890   3.717  -5.621  0.00  0.00     0.143 A 
ATOM      2  C2  UNL d   1      -5.990   2.911  -5.931  0.00  0.00    -0.057 A 
ATOM      3  C3  UNL d   1      -5.990   1.540  -5.645  0.00  0.00     0.033 A 
ATOM      4  C4  UNL d   1      -4.873   0.945  -5.068  0.00  0.00    -0.042 A 
ATOM      5  C5  UNL d   1      -3.758   1.722  -4.774  0.00  0.00     0.033 A 
ATOM      6  C6  UNL d   1      -3.768   3.092  -5.056  0.00  0.00    -0.057 A 
ENDROOT
BRANCH   1   7
ATOM      7  N   UNL d   1      -4.791   5.067  -5.970  0.00  0.00    -0.732 N 
ATOM      8  C   UNL d   1      -5.966   5.912  -5.987  0.00  0.00     0.284 C 
ATOM      9  H3  UNL d   1      -3.965   5.510  -5.576  0.00  0.00     0.395 HD
ENDBRANCH   1   7
TORSDOF 1
ENDMDL
