MODEL 1
REMARK minimizedAffinity -2.93796301
REMARK minimizedRMSD -1
REMARK  0 active torsions:
REMARK  status: ('A' for Active; 'I' for Inactive)
ROOT
ATOM      1  C   UNL d   1       1.537  -2.228   2.261  0.00  0.00    -0.002 A 
ATOM      2  C1  UNL d   1       0.417  -1.996   3.046  0.00  0.00     0.010 A 
ATOM      3  C2  UNL d   1      -0.535  -1.048   2.664  0.00  0.00     0.041 A 
ATOM      4  C3  UNL d   1      -0.341  -0.333   1.466  0.00  0.00    -0.075 A 
ATOM      5  S   UNL d   1      -1.374   0.875   0.798  0.00  0.00     0.015 SA
ATOM      6  C4  UNL d   1      -0.353   1.110  -0.547  0.00  0.00     0.022 A 
ATOM      7  C5  UNL d   1       0.754   0.296  -0.503  0.00  0.00     0.026 A 
ATOM      8  C6  UNL d   1       0.779  -0.550   0.657  0.00  0.00    -0.082 A 
ATOM      9  C7  UNL d   1       1.726  -1.516   1.073  0.00  0.00     0.045 A 
ENDROOT
TORSDOF 0
ENDMDL
