MODEL 1
REMARK minimizedAffinity -0.648122072
REMARK minimizedRMSD -1
REMARK  0 active torsions:
REMARK  status: ('A' for Active; 'I' for Inactive)
ROOT
ATOM      1  C   UNL d   1       0.185  -2.268   2.880  0.00  0.00    -0.002 A 
ATOM      2  C1  UNL d   1       1.311  -2.767   2.241  0.00  0.00     0.010 A 
ATOM      3  C2  UNL d   1       1.761  -2.199   1.048  0.00  0.00     0.041 A 
ATOM      4  C3  UNL d   1       1.055  -1.108   0.503  0.00  0.00    -0.075 A 
ATOM      5  S   UNL d   1       1.422  -0.252  -0.947  0.00  0.00     0.015 SA
ATOM      6  C4  UNL d   1       0.093   0.798  -0.752  0.00  0.00     0.022 A 
ATOM      7  C5  UNL d   1      -0.624   0.516   0.386  0.00  0.00     0.026 A 
ATOM      8  C6  UNL d   1      -0.081  -0.587   1.129  0.00  0.00    -0.082 A 
ATOM      9  C7  UNL d   1      -0.513  -1.186   2.337  0.00  0.00     0.045 A 
ENDROOT
TORSDOF 0
ENDMDL
