MODEL 1
REMARK minimizedAffinity -3.13231683
REMARK minimizedRMSD -1
REMARK  0 active torsions:
REMARK  status: ('A' for Active; 'I' for Inactive)
ROOT
ATOM      1  C   UNL d   1       0.710  -2.013   3.211  0.00  0.00    -0.002 A 
ATOM      2  C1  UNL d   1      -0.527  -1.390   3.297  0.00  0.00     0.010 A 
ATOM      3  C2  UNL d   1      -0.956  -0.520   2.293  0.00  0.00     0.041 A 
ATOM      4  C3  UNL d   1      -0.113  -0.286   1.189  0.00  0.00    -0.075 A 
ATOM      5  S   UNL d   1      -0.429   0.740  -0.161  0.00  0.00     0.015 SA
ATOM      6  C4  UNL d   1       1.070   0.374  -0.885  0.00  0.00     0.022 A 
ATOM      7  C5  UNL d   1       1.807  -0.507  -0.129  0.00  0.00     0.026 A 
ATOM      8  C6  UNL d   1       1.137  -0.902   1.078  0.00  0.00    -0.082 A 
ATOM      9  C7  UNL d   1       1.543  -1.779   2.114  0.00  0.00     0.045 A 
ENDROOT
TORSDOF 0
ENDMDL
