MODEL 1
REMARK minimizedAffinity -0.993305147
REMARK minimizedRMSD -1
REMARK  0 active torsions:
REMARK  status: ('A' for Active; 'I' for Inactive)
ROOT
ATOM      1  C   UNL d   1      -2.156   2.453  -0.836  0.00  0.00    -0.002 A 
ATOM      2  C1  UNL d   1      -2.357   1.582  -1.897  0.00  0.00     0.010 A 
ATOM      3  C2  UNL d   1      -1.526   0.473  -2.074  0.00  0.00     0.041 A 
ATOM      4  C3  UNL d   1      -0.481   0.252  -1.156  0.00  0.00    -0.075 A 
ATOM      5  S   UNL d   1       0.661  -1.039  -1.173  0.00  0.00     0.015 SA
ATOM      6  C4  UNL d   1       1.443  -0.466   0.229  0.00  0.00     0.022 A 
ATOM      7  C5  UNL d   1       0.860   0.682   0.711  0.00  0.00     0.026 A 
ATOM      8  C6  UNL d   1      -0.258   1.115  -0.079  0.00  0.00    -0.082 A 
ATOM      9  C7  UNL d   1      -1.117   2.230   0.072  0.00  0.00     0.045 A 
ENDROOT
TORSDOF 0
ENDMDL
