MODEL 1
REMARK minimizedAffinity -2.41822481
REMARK minimizedRMSD -1
REMARK  0 active torsions:
REMARK  status: ('A' for Active; 'I' for Inactive)
ROOT
ATOM      1  C   UNL d   1       2.636  -1.125  -0.364  0.00  0.00    -0.002 A 
ATOM      2  C1  UNL d   1       1.912  -1.665   0.690  0.00  0.00     0.010 A 
ATOM      3  C2  UNL d   1       0.614  -1.227   0.958  0.00  0.00     0.041 A 
ATOM      4  C3  UNL d   1       0.048  -0.229   0.140  0.00  0.00    -0.075 A 
ATOM      5  S   UNL d   1      -1.526   0.460   0.279  0.00  0.00     0.015 SA
ATOM      6  C4  UNL d   1      -1.275   1.487  -1.058  0.00  0.00     0.022 A 
ATOM      7  C5  UNL d   1      -0.026   1.321  -1.609  0.00  0.00     0.026 A 
ATOM      8  C6  UNL d   1       0.757   0.329  -0.928  0.00  0.00    -0.082 A 
ATOM      9  C7  UNL d   1       2.072  -0.135  -1.173  0.00  0.00     0.045 A 
ENDROOT
TORSDOF 0
ENDMDL
