MODEL 1
REMARK minimizedAffinity -1.3551172
REMARK minimizedRMSD -1
REMARK  0 active torsions:
REMARK  status: ('A' for Active; 'I' for Inactive)
ROOT
ATOM      1  C   UNL d   1       2.081  -0.587  -0.514  0.00  0.00    -0.002 A 
ATOM      2  C1  UNL d   1       1.163   0.408  -0.818  0.00  0.00     0.010 A 
ATOM      3  C2  UNL d   1       0.000   0.557  -0.059  0.00  0.00     0.041 A 
ATOM      4  C3  UNL d   1      -0.225  -0.319   1.021  0.00  0.00    -0.075 A 
ATOM      5  S   UNL d   1      -1.579  -0.324   2.089  0.00  0.00     0.015 SA
ATOM      6  C4  UNL d   1      -0.969  -1.647   2.975  0.00  0.00     0.022 A 
ATOM      7  C5  UNL d   1       0.236  -2.086   2.481  0.00  0.00     0.026 A 
ATOM      8  C6  UNL d   1       0.685  -1.328   1.347  0.00  0.00    -0.082 A 
ATOM      9  C7  UNL d   1       1.854  -1.454   0.558  0.00  0.00     0.045 A 
ENDROOT
TORSDOF 0
ENDMDL
