MODEL 1
REMARK minimizedAffinity -2.80817127
REMARK minimizedRMSD -1
REMARK  0 active torsions:
REMARK  status: ('A' for Active; 'I' for Inactive)
ROOT
ATOM      1  C   UNL d   1      -0.527   0.636   0.756  0.00  0.00    -0.002 A 
ATOM      2  C1  UNL d   1      -0.648  -0.530   0.013  0.00  0.00     0.010 A 
ATOM      3  C2  UNL d   1      -1.064  -0.483  -1.319  0.00  0.00     0.041 A 
ATOM      4  C3  UNL d   1      -1.358   0.768  -1.898  0.00  0.00    -0.075 A 
ATOM      5  S   UNL d   1      -1.884   1.069  -3.512  0.00  0.00     0.015 SA
ATOM      6  C4  UNL d   1      -1.961   2.752  -3.253  0.00  0.00     0.022 A 
ATOM      7  C5  UNL d   1      -1.597   3.093  -1.971  0.00  0.00     0.026 A 
ATOM      8  C6  UNL d   1      -1.244   1.955  -1.169  0.00  0.00    -0.082 A 
ATOM      9  C7  UNL d   1      -0.820   1.874   0.179  0.00  0.00     0.045 A 
ENDROOT
TORSDOF 0
ENDMDL
