MODEL 1
REMARK minimizedAffinity 1.45953953
REMARK minimizedRMSD -1
REMARK  0 active torsions:
REMARK  status: ('A' for Active; 'I' for Inactive)
ROOT
ATOM      1  C   UNL d   1       2.012  -1.630   0.782  0.00  0.00    -0.002 A 
ATOM      2  C1  UNL d   1       2.411  -0.718  -0.185  0.00  0.00     0.010 A 
ATOM      3  C2  UNL d   1       1.596   0.365  -0.521  0.00  0.00     0.041 A 
ATOM      4  C3  UNL d   1       0.361   0.518   0.140  0.00  0.00    -0.075 A 
ATOM      5  S   UNL d   1      -0.801   1.768  -0.107  0.00  0.00     0.015 SA
ATOM      6  C4  UNL d   1      -1.855   1.121   1.066  0.00  0.00     0.022 A 
ATOM      7  C5  UNL d   1      -1.349  -0.020   1.642  0.00  0.00     0.026 A 
ATOM      8  C6  UNL d   1      -0.063  -0.386   1.117  0.00  0.00    -0.082 A 
ATOM      9  C7  UNL d   1       0.786  -1.474   1.435  0.00  0.00     0.045 A 
ENDROOT
TORSDOF 0
ENDMDL
