MODEL 1
REMARK minimizedAffinity -1.853369
REMARK minimizedRMSD -1
REMARK  0 active torsions:
REMARK  status: ('A' for Active; 'I' for Inactive)
ROOT
ATOM      1  C   UNL d   1      -2.084   1.850  -1.558  0.00  0.00    -0.002 A 
ATOM      2  C1  UNL d   1      -2.481   1.339  -2.786  0.00  0.00     0.010 A 
ATOM      3  C2  UNL d   1      -2.012   1.902  -3.974  0.00  0.00     0.041 A 
ATOM      4  C3  UNL d   1      -1.126   2.995  -3.908  0.00  0.00    -0.075 A 
ATOM      5  S   UNL d   1      -0.421   3.844  -5.232  0.00  0.00     0.015 SA
ATOM      6  C4  UNL d   1       0.425   4.903  -4.199  0.00  0.00     0.022 A 
ATOM      7  C5  UNL d   1       0.187   4.631  -2.873  0.00  0.00     0.026 A 
ATOM      8  C6  UNL d   1      -0.710   3.526  -2.683  0.00  0.00    -0.082 A 
ATOM      9  C7  UNL d   1      -1.205   2.934  -1.496  0.00  0.00     0.045 A 
ENDROOT
TORSDOF 0
ENDMDL
