MODEL 1
REMARK minimizedAffinity 3.34014153
REMARK minimizedRMSD -1
REMARK  1 active torsions:
REMARK  status: ('A' for Active; 'I' for Inactive)
REMARK    1  A    between atoms: C3_4  and  O_7 
ROOT
ATOM      1  C   UNL d   1      -5.278  -1.369   5.611  0.00  0.00    -0.033 A 
ATOM      2  C1  UNL d   1      -5.040  -0.719   4.399  0.00  0.00     0.039 A 
ATOM      3  C2  UNL d   1      -5.279  -1.379   3.192  0.00  0.00    -0.080 A 
ATOM      4  C3  UNL d   1      -5.756  -2.687   3.211  0.00  0.00     0.150 A 
ATOM      5  C4  UNL d   1      -5.999  -3.339   4.415  0.00  0.00    -0.007 A 
ATOM      6  C5  UNL d   1      -5.759  -2.679   5.619  0.00  0.00     0.039 A 
ENDROOT
BRANCH   4   7
ATOM      7  O   UNL d   1      -6.000  -3.373   2.059  0.00  0.00    -0.526 OA
ATOM      8  H5  UNL d   1      -5.759  -2.807   1.307  0.00  0.00     0.418 HD
ENDBRANCH   4   7
TORSDOF 1
ENDMDL
