MODEL 1
REMARK minimizedAffinity -0.204483718
REMARK minimizedRMSD -1
REMARK  1 active torsions:
REMARK  status: ('A' for Active; 'I' for Inactive)
REMARK    1  A    between atoms: C3_4  and  O_7 
ROOT
ATOM      1  C   UNL d   1       0.771   3.242   2.077  0.00  0.00    -0.033 A 
ATOM      2  C1  UNL d   1       0.524   3.855   0.847  0.00  0.00     0.039 A 
ATOM      3  C2  UNL d   1       0.167   3.084  -0.261  0.00  0.00    -0.080 A 
ATOM      4  C3  UNL d   1       0.059   1.702  -0.125  0.00  0.00     0.150 A 
ATOM      5  C4  UNL d   1       0.299   1.086   1.099  0.00  0.00    -0.007 A 
ATOM      6  C5  UNL d   1       0.657   1.858   2.203  0.00  0.00     0.039 A 
ENDROOT
BRANCH   4   7
ATOM      7  O   UNL d   1      -0.282   0.907  -1.178  0.00  0.00    -0.526 OA
ATOM      8  H5  UNL d   1      -0.389   1.468  -1.965  0.00  0.00     0.418 HD
ENDBRANCH   4   7
TORSDOF 1
ENDMDL
