MODEL 1
REMARK minimizedAffinity 4.28524208
REMARK minimizedRMSD -1
REMARK  1 active torsions:
REMARK  status: ('A' for Active; 'I' for Inactive)
REMARK    1  A    between atoms: C3_4  and  O_7 
ROOT
ATOM      1  C   UNL d   1      -6.000  -2.241   5.147  0.00  0.00    -0.033 A 
ATOM      2  C1  UNL d   1      -5.299  -1.100   5.543  0.00  0.00     0.039 A 
ATOM      3  C2  UNL d   1      -4.593  -0.351   4.600  0.00  0.00    -0.080 A 
ATOM      4  C3  UNL d   1      -4.597  -0.752   3.267  0.00  0.00     0.150 A 
ATOM      5  C4  UNL d   1      -5.296  -1.885   2.865  0.00  0.00    -0.007 A 
ATOM      6  C5  UNL d   1      -6.000  -2.633   3.808  0.00  0.00     0.039 A 
ENDROOT
BRANCH   4   7
ATOM      7  O   UNL d   1      -3.918  -0.055   2.311  0.00  0.00    -0.526 OA
ATOM      8  H5  UNL d   1      -3.459   0.687   2.739  0.00  0.00     0.418 HD
ENDBRANCH   4   7
TORSDOF 1
ENDMDL
