MODEL 1
REMARK minimizedAffinity 2.33952928
REMARK minimizedRMSD -1
REMARK  1 active torsions:
REMARK  status: ('A' for Active; 'I' for Inactive)
REMARK    1  A    between atoms: C3_4  and  O_7 
ROOT
ATOM      1  C   UNL d   1      -3.426   3.791  -3.332  0.00  0.00    -0.033 A 
ATOM      2  C1  UNL d   1      -2.168   4.220  -2.902  0.00  0.00     0.039 A 
ATOM      3  C2  UNL d   1      -1.236   3.293  -2.432  0.00  0.00    -0.080 A 
ATOM      4  C3  UNL d   1      -1.572   1.943  -2.398  0.00  0.00     0.150 A 
ATOM      5  C4  UNL d   1      -2.821   1.508  -2.828  0.00  0.00    -0.007 A 
ATOM      6  C5  UNL d   1      -3.751   2.435  -3.297  0.00  0.00     0.039 A 
ENDROOT
BRANCH   4   7
ATOM      7  O   UNL d   1      -0.696   1.002  -1.942  0.00  0.00    -0.526 OA
ATOM      8  H5  UNL d   1       0.115   1.451  -1.652  0.00  0.00     0.418 HD
ENDBRANCH   4   7
TORSDOF 1
ENDMDL
