MODEL 1
REMARK minimizedAffinity 1.05291247
REMARK minimizedRMSD -1
REMARK  1 active torsions:
REMARK  status: ('A' for Active; 'I' for Inactive)
REMARK    1  A    between atoms: C3_4  and  O_7 
ROOT
ATOM      1  C   UNL d   1      -2.062   0.394  -1.476  0.00  0.00    -0.033 A 
ATOM      2  C1  UNL d   1      -3.427   0.294  -1.753  0.00  0.00     0.039 A 
ATOM      3  C2  UNL d   1      -4.110   1.377  -2.310  0.00  0.00    -0.080 A 
ATOM      4  C3  UNL d   1      -3.418   2.553  -2.585  0.00  0.00     0.150 A 
ATOM      5  C4  UNL d   1      -2.057   2.659  -2.315  0.00  0.00    -0.007 A 
ATOM      6  C5  UNL d   1      -1.377   1.576  -1.758  0.00  0.00     0.039 A 
ENDROOT
BRANCH   4   7
ATOM      7  O   UNL d   1      -4.042   3.638  -3.124  0.00  0.00    -0.526 OA
ATOM      8  H5  UNL d   1      -4.986   3.429  -3.229  0.00  0.00     0.418 HD
ENDBRANCH   4   7
TORSDOF 1
ENDMDL
