MODEL 1
REMARK minimizedAffinity 3.78194761
REMARK minimizedRMSD -1
REMARK  1 active torsions:
REMARK  status: ('A' for Active; 'I' for Inactive)
REMARK    1  A    between atoms: C3_4  and  O_7 
ROOT
ATOM      1  C   UNL d   1       4.552  -5.645  -3.130  0.00  0.00    -0.033 A 
ATOM      2  C1  UNL d   1       3.365  -5.305  -3.782  0.00  0.00     0.039 A 
ATOM      3  C2  UNL d   1       2.165  -5.256  -3.069  0.00  0.00    -0.080 A 
ATOM      4  C3  UNL d   1       2.166  -5.547  -1.708  0.00  0.00     0.150 A 
ATOM      5  C4  UNL d   1       3.346  -5.883  -1.052  0.00  0.00    -0.007 A 
ATOM      6  C5  UNL d   1       4.543  -5.933  -1.765  0.00  0.00     0.039 A 
ENDROOT
BRANCH   4   7
ATOM      7  O   UNL d   1       1.019  -5.517  -0.971  0.00  0.00    -0.526 OA
ATOM      8  H5  UNL d   1       0.280  -5.298  -1.563  0.00  0.00     0.418 HD
ENDBRANCH   4   7
TORSDOF 1
ENDMDL
