MODEL 1
REMARK minimizedAffinity 2.88039255
REMARK minimizedRMSD -1
REMARK  1 active torsions:
REMARK  status: ('A' for Active; 'I' for Inactive)
REMARK    1  A    between atoms: C3_4  and  O_7 
ROOT
ATOM      1  C   UNL d   1      -3.569   1.548  -2.432  0.00  0.00    -0.033 A 
ATOM      2  C1  UNL d   1      -2.385   2.232  -2.719  0.00  0.00     0.039 A 
ATOM      3  C2  UNL d   1      -1.151   1.648  -2.425  0.00  0.00    -0.080 A 
ATOM      4  C3  UNL d   1      -1.115   0.383  -1.846  0.00  0.00     0.150 A 
ATOM      5  C4  UNL d   1      -2.289  -0.305  -1.561  0.00  0.00    -0.007 A 
ATOM      6  C5  UNL d   1      -3.521   0.279  -1.854  0.00  0.00     0.039 A 
ENDROOT
BRANCH   4   7
ATOM      7  O   UNL d   1       0.066  -0.226  -1.537  0.00  0.00    -0.526 OA
ATOM      8  H5  UNL d   1       0.792   0.379  -1.764  0.00  0.00     0.418 HD
ENDBRANCH   4   7
TORSDOF 1
ENDMDL
