MODEL 1
REMARK minimizedAffinity 2.60705781
REMARK minimizedRMSD -1
REMARK  1 active torsions:
REMARK  status: ('A' for Active; 'I' for Inactive)
REMARK    1  A    between atoms: C3_4  and  O_7 
ROOT
ATOM      1  C   UNL d   1      -1.201   3.072  -1.328  0.00  0.00    -0.033 A 
ATOM      2  C1  UNL d   1      -1.974   2.268  -2.167  0.00  0.00     0.039 A 
ATOM      3  C2  UNL d   1      -1.631   0.929  -2.364  0.00  0.00    -0.080 A 
ATOM      4  C3  UNL d   1      -0.515   0.407  -1.716  0.00  0.00     0.150 A 
ATOM      5  C4  UNL d   1       0.257   1.202  -0.876  0.00  0.00    -0.007 A 
ATOM      6  C5  UNL d   1      -0.086   2.539  -0.681  0.00  0.00     0.039 A 
ENDROOT
BRANCH   4   7
ATOM      7  O   UNL d   1      -0.138  -0.893  -1.881  0.00  0.00    -0.526 OA
ATOM      8  H5  UNL d   1      -0.748  -1.312  -2.511  0.00  0.00     0.418 HD
ENDBRANCH   4   7
TORSDOF 1
ENDMDL
