MODEL 1
REMARK minimizedAffinity 2.00864291
REMARK minimizedRMSD -1
REMARK  1 active torsions:
REMARK  status: ('A' for Active; 'I' for Inactive)
REMARK    1  A    between atoms: C3_4  and  O_7 
ROOT
ATOM      1  C   UNL d   1      -0.203   0.975   1.080  0.00  0.00    -0.033 A 
ATOM      2  C1  UNL d   1      -0.543   0.907  -0.273  0.00  0.00     0.039 A 
ATOM      3  C2  UNL d   1      -0.346   2.013  -1.101  0.00  0.00    -0.080 A 
ATOM      4  C3  UNL d   1       0.193   3.180  -0.566  0.00  0.00     0.150 A 
ATOM      5  C4  UNL d   1       0.538   3.254   0.779  0.00  0.00    -0.007 A 
ATOM      6  C5  UNL d   1       0.339   2.149   1.605  0.00  0.00     0.039 A 
ENDROOT
BRANCH   4   7
ATOM      7  O   UNL d   1       0.400   4.287  -1.335  0.00  0.00    -0.526 OA
ATOM      8  H5  UNL d   1       0.089   4.098  -2.236  0.00  0.00     0.418 HD
ENDBRANCH   4   7
TORSDOF 1
ENDMDL
