MODEL 1
REMARK minimizedAffinity -4.12682867
REMARK minimizedRMSD -1
REMARK  1 active torsions:
REMARK  status: ('A' for Active; 'I' for Inactive)
REMARK    1  A    between atoms: C3_4  and  O_7 
ROOT
ATOM      1  C   UNL d   1       0.344   3.375   2.125  0.00  0.00    -0.033 A 
ATOM      2  C1  UNL d   1       0.493   4.022   0.896  0.00  0.00     0.039 A 
ATOM      3  C2  UNL d   1       0.370   3.302  -0.293  0.00  0.00    -0.080 A 
ATOM      4  C3  UNL d   1       0.097   1.938  -0.241  0.00  0.00     0.150 A 
ATOM      5  C4  UNL d   1      -0.056   1.287   0.979  0.00  0.00    -0.007 A 
ATOM      6  C5  UNL d   1       0.068   2.008   2.166  0.00  0.00     0.039 A 
ENDROOT
BRANCH   4   7
ATOM      7  O   UNL d   1      -0.027   1.192  -1.375  0.00  0.00    -0.526 OA
ATOM      8  H5  UNL d   1       0.133   1.768  -2.142  0.00  0.00     0.418 HD
ENDBRANCH   4   7
TORSDOF 1
ENDMDL
