MODEL 1
REMARK minimizedAffinity 3.92425942
REMARK minimizedRMSD -1
REMARK  1 active torsions:
REMARK  status: ('A' for Active; 'I' for Inactive)
REMARK    1  A    between atoms: C1_2  and  C2_3 
ROOT
ATOM      1  C2  UNL d   1       4.225   3.779   4.148  0.00  0.00    -0.076 A 
ATOM      2  C3  UNL d   1       4.423   5.056   3.596  0.00  0.00     0.004 A 
ATOM      3  C4  UNL d   1       5.223   6.000   4.239  0.00  0.00    -0.003 A 
ATOM      4  C5  UNL d   1       5.838   5.681   5.445  0.00  0.00     0.000 A 
ATOM      5  C6  UNL d   1       5.666   4.412   5.998  0.00  0.00     0.000 A 
ATOM      6  C7  UNL d   1       4.876   3.444   5.355  0.00  0.00    -0.073 A 
ATOM      7  C8  UNL d   1       4.721   2.094   6.000  0.00  0.00     0.078 C 
ENDROOT
BRANCH   1   8
ATOM      8  C1  UNL d   1       3.325   2.807   3.420  0.00  0.00     0.053 C 
ATOM      9  C   UNL d   1       1.855   3.010   3.753  0.00  0.00     0.018 C 
ENDBRANCH   1   8
TORSDOF 1
ENDMDL
