MODEL 1
REMARK minimizedAffinity 18.7755337
REMARK minimizedRMSD -1
REMARK  1 active torsions:
REMARK  status: ('A' for Active; 'I' for Inactive)
REMARK    1  A    between atoms: C1_2  and  C2_3 
ROOT
ATOM      1  C2  UNL d   1       0.327  -2.463   4.987  0.00  0.00    -0.076 A 
ATOM      2  C3  UNL d   1       0.681  -1.218   5.534  0.00  0.00     0.004 A 
ATOM      3  C4  UNL d   1       0.495  -0.039   4.813  0.00  0.00    -0.003 A 
ATOM      4  C5  UNL d   1      -0.049  -0.087   3.535  0.00  0.00     0.000 A 
ATOM      5  C6  UNL d   1      -0.423  -1.312   2.984  0.00  0.00     0.000 A 
ATOM      6  C7  UNL d   1      -0.257  -2.508   3.703  0.00  0.00    -0.073 A 
ATOM      7  C8  UNL d   1      -0.672  -3.802   3.058  0.00  0.00     0.078 C 
ENDROOT
BRANCH   1   8
ATOM      8  C1  UNL d   1       0.577  -3.711   5.805  0.00  0.00     0.053 C 
ATOM      9  C   UNL d   1      -0.681  -4.543   5.998  0.00  0.00     0.018 C 
ENDBRANCH   1   8
TORSDOF 1
ENDMDL
