MODEL 1
REMARK minimizedAffinity 9.40742588
REMARK minimizedRMSD -1
REMARK  1 active torsions:
REMARK  status: ('A' for Active; 'I' for Inactive)
REMARK    1  A    between atoms: C1_2  and  C2_3 
ROOT
ATOM      1  C2  UNL d   1      -5.797   1.742  -0.795  0.00  0.00    -0.076 A 
ATOM      2  C3  UNL d   1      -5.984   1.766  -2.188  0.00  0.00     0.004 A 
ATOM      3  C4  UNL d   1      -6.000   2.971  -2.889  0.00  0.00    -0.003 A 
ATOM      4  C5  UNL d   1      -5.829   4.171  -2.209  0.00  0.00     0.000 A 
ATOM      5  C6  UNL d   1      -5.626   4.165  -0.829  0.00  0.00     0.000 A 
ATOM      6  C7  UNL d   1      -5.590   2.958  -0.109  0.00  0.00    -0.073 A 
ATOM      7  C8  UNL d   1      -5.373   3.011   1.378  0.00  0.00     0.078 C 
ENDROOT
BRANCH   1   8
ATOM      8  C1  UNL d   1      -5.816   0.408  -0.084  0.00  0.00     0.053 C 
ATOM      9  C   UNL d   1      -4.436  -0.223   0.007  0.00  0.00     0.018 C 
ENDBRANCH   1   8
TORSDOF 1
ENDMDL
