MODEL 1
REMARK minimizedAffinity 18.4746876
REMARK minimizedRMSD -1
REMARK  1 active torsions:
REMARK  status: ('A' for Active; 'I' for Inactive)
REMARK    1  A    between atoms: C1_2  and  C2_3 
ROOT
ATOM      1  C2  UNL d   1       2.862   1.556  -0.811  0.00  0.00    -0.076 A 
ATOM      2  C3  UNL d   1       2.341   2.803  -0.424  0.00  0.00     0.004 A 
ATOM      3  C4  UNL d   1       1.010   2.934  -0.031  0.00  0.00    -0.003 A 
ATOM      4  C5  UNL d   1       0.179   1.820  -0.017  0.00  0.00     0.000 A 
ATOM      5  C6  UNL d   1       0.683   0.571  -0.381  0.00  0.00     0.000 A 
ATOM      6  C7  UNL d   1       2.027   0.419  -0.764  0.00  0.00    -0.073 A 
ATOM      7  C8  UNL d   1       2.516  -0.949  -1.152  0.00  0.00     0.078 C 
ENDROOT
BRANCH   1   8
ATOM      8  C1  UNL d   1       4.306   1.480  -1.254  0.00  0.00     0.053 C 
ATOM      9  C   UNL d   1       4.894   2.849  -1.559  0.00  0.00     0.018 C 
ENDBRANCH   1   8
TORSDOF 1
ENDMDL
