MODEL 1
REMARK minimizedAffinity 11.2469215
REMARK minimizedRMSD -1
REMARK  1 active torsions:
REMARK  status: ('A' for Active; 'I' for Inactive)
REMARK    1  A    between atoms: C1_2  and  C2_3 
ROOT
ATOM      1  C2  UNL d   1      -0.319  -4.189   4.018  0.00  0.00    -0.076 A 
ATOM      2  C3  UNL d   1      -0.603  -4.077   5.390  0.00  0.00     0.004 A 
ATOM      3  C4  UNL d   1      -1.543  -4.907   5.998  0.00  0.00    -0.003 A 
ATOM      4  C5  UNL d   1      -2.214  -5.863   5.244  0.00  0.00     0.000 A 
ATOM      5  C6  UNL d   1      -1.933  -6.000   3.886  0.00  0.00     0.000 A 
ATOM      6  C7  UNL d   1      -0.976  -5.182   3.260  0.00  0.00    -0.073 A 
ATOM      7  C8  UNL d   1      -0.716  -5.369   1.791  0.00  0.00     0.078 C 
ENDROOT
BRANCH   1   8
ATOM      8  C1  UNL d   1       0.691  -3.243   3.408  0.00  0.00     0.053 C 
ATOM      9  C   UNL d   1       0.258  -1.789   3.502  0.00  0.00     0.018 C 
ENDBRANCH   1   8
TORSDOF 1
ENDMDL
