MODEL 1
REMARK minimizedAffinity 5.58053637
REMARK minimizedRMSD -1
REMARK  1 active torsions:
REMARK  status: ('A' for Active; 'I' for Inactive)
REMARK    1  A    between atoms: C1_2  and  C2_3 
ROOT
ATOM      1  C2  UNL d   1       3.482   1.396  -0.457  0.00  0.00    -0.076 A 
ATOM      2  C3  UNL d   1       3.517   2.022   0.801  0.00  0.00     0.004 A 
ATOM      3  C4  UNL d   1       4.492   2.971   1.104  0.00  0.00    -0.003 A 
ATOM      4  C5  UNL d   1       5.448   3.310   0.153  0.00  0.00     0.000 A 
ATOM      5  C6  UNL d   1       5.419   2.712  -1.106  0.00  0.00     0.000 A 
ATOM      6  C7  UNL d   1       4.433   1.765  -1.433  0.00  0.00    -0.073 A 
ATOM      7  C8  UNL d   1       4.452   1.148  -2.805  0.00  0.00     0.078 C 
ENDROOT
BRANCH   1   8
ATOM      8  C1  UNL d   1       2.418   0.355  -0.720  0.00  0.00     0.053 C 
ATOM      9  C   UNL d   1       2.653  -0.929   0.061  0.00  0.00     0.018 C 
ENDBRANCH   1   8
TORSDOF 1
ENDMDL
