MODEL 1
REMARK minimizedAffinity 22.192543
REMARK minimizedRMSD -1
REMARK  1 active torsions:
REMARK  status: ('A' for Active; 'I' for Inactive)
REMARK    1  A    between atoms: C1_2  and  C2_3 
ROOT
ATOM      1  C2  UNL d   1      -3.542   0.914  -4.210  0.00  0.00    -0.076 A 
ATOM      2  C3  UNL d   1      -4.362  -0.143  -3.777  0.00  0.00     0.004 A 
ATOM      3  C4  UNL d   1      -5.580  -0.409  -4.401  0.00  0.00    -0.003 A 
ATOM      4  C5  UNL d   1      -5.997   0.378  -5.469  0.00  0.00     0.000 A 
ATOM      5  C6  UNL d   1      -5.189   1.419  -5.924  0.00  0.00     0.000 A 
ATOM      6  C7  UNL d   1      -3.951   1.690  -5.316  0.00  0.00    -0.073 A 
ATOM      7  C8  UNL d   1      -3.122   2.829  -5.843  0.00  0.00     0.078 C 
ENDROOT
BRANCH   1   8
ATOM      8  C1  UNL d   1      -2.245   1.171  -3.477  0.00  0.00     0.053 C 
ATOM      9  C   UNL d   1      -2.198   0.489  -2.119  0.00  0.00     0.018 C 
ENDBRANCH   1   8
TORSDOF 1
ENDMDL
