MODEL 1
REMARK minimizedAffinity 11.3650198
REMARK minimizedRMSD -1
REMARK  0 active torsions:
REMARK  status: ('A' for Active; 'I' for Inactive)
ROOT
ATOM      1  C1  DEN d   1       1.592   4.074   0.180  0.00  0.00     0.130 A 
ATOM      2  C2  DEN d   1       2.648   4.874   0.795  0.00  0.00    -0.031 A 
ATOM      3  C3  DEN d   1       3.888   4.666   0.021  0.00  0.00     0.027 A 
ATOM      4  C4  DEN d   1       4.274   3.197  -2.063  0.00  0.00     0.027 A 
ATOM      5  C5  DEN d   1       3.679   2.322  -2.945  0.00  0.00    -0.003 A 
ATOM      6  C6  DEN d   1       2.367   1.946  -2.829  0.00  0.00     0.001 A 
ATOM      7  C7  DEN d   1       1.593   2.483  -1.833  0.00  0.00     0.017 A 
ATOM      8  C8  DEN d   1       2.188   3.360  -0.935  0.00  0.00    -0.094 A 
ATOM      9  C9  DEN d   1       3.513   3.736  -1.077  0.00  0.00    -0.072 A 
ENDROOT
TORSDOF 0
ENDMDL
