MODEL 1
REMARK minimizedAffinity 10.0004797
REMARK minimizedRMSD -1
REMARK  0 active torsions:
REMARK  status: ('A' for Active; 'I' for Inactive)
ROOT
ATOM      1  C1  DEN d   1       2.482  -1.264   0.134  0.00  0.00     0.130 A 
ATOM      2  C2  DEN d   1       1.890  -1.558   1.437  0.00  0.00    -0.031 A 
ATOM      3  C3  DEN d   1       0.666  -0.743   1.576  0.00  0.00     0.027 A 
ATOM      4  C4  DEN d   1      -0.366   0.932  -0.091  0.00  0.00     0.027 A 
ATOM      5  C5  DEN d   1      -0.216   1.525  -1.325  0.00  0.00    -0.003 A 
ATOM      6  C6  DEN d   1       0.854   1.258  -2.138  0.00  0.00     0.001 A 
ATOM      7  C7  DEN d   1       1.792   0.340  -1.746  0.00  0.00     0.017 A 
ATOM      8  C8  DEN d   1       1.651  -0.257  -0.500  0.00  0.00    -0.094 A 
ATOM      9  C9  DEN d   1       0.556   0.018   0.302  0.00  0.00    -0.072 A 
ENDROOT
TORSDOF 0
ENDMDL
