MODEL 1
REMARK minimizedAffinity 6.65844107
REMARK minimizedRMSD -1
REMARK  0 active torsions:
REMARK  status: ('A' for Active; 'I' for Inactive)
ROOT
ATOM      1  C1  DEN d   1       3.645  -2.815  -3.663  0.00  0.00     0.130 A 
ATOM      2  C2  DEN d   1       3.380  -2.037  -4.870  0.00  0.00    -0.031 A 
ATOM      3  C3  DEN d   1       4.059  -2.703  -6.000  0.00  0.00     0.027 A 
ATOM      4  C4  DEN d   1       5.483  -4.853  -5.998  0.00  0.00     0.027 A 
ATOM      5  C5  DEN d   1       5.999  -5.857  -5.208  0.00  0.00    -0.003 A 
ATOM      6  C6  DEN d   1       5.797  -5.898  -3.854  0.00  0.00     0.001 A 
ATOM      7  C7  DEN d   1       5.021  -4.941  -3.255  0.00  0.00     0.017 A 
ATOM      8  C8  DEN d   1       4.503  -3.922  -4.043  0.00  0.00    -0.094 A 
ATOM      9  C9  DEN d   1       4.709  -3.905  -5.412  0.00  0.00    -0.072 A 
ENDROOT
TORSDOF 0
ENDMDL
