MODEL 1
REMARK minimizedAffinity 11.7247105
REMARK minimizedRMSD -1
REMARK  0 active torsions:
REMARK  status: ('A' for Active; 'I' for Inactive)
ROOT
ATOM      1  C1  DEN d   1       3.007  -3.316  -4.859  0.00  0.00     0.130 A 
ATOM      2  C2  DEN d   1       3.774  -2.821  -5.999  0.00  0.00    -0.031 A 
ATOM      3  C3  DEN d   1       5.084  -3.503  -5.999  0.00  0.00     0.027 A 
ATOM      4  C4  DEN d   1       5.992  -5.271  -4.356  0.00  0.00     0.027 A 
ATOM      5  C5  DEN d   1       5.709  -5.999  -3.221  0.00  0.00    -0.003 A 
ATOM      6  C6  DEN d   1       4.529  -5.860  -2.539  0.00  0.00     0.001 A 
ATOM      7  C7  DEN d   1       3.569  -5.005  -3.012  0.00  0.00     0.017 A 
ATOM      8  C8  DEN d   1       3.850  -4.262  -4.151  0.00  0.00    -0.094 A 
ATOM      9  C9  DEN d   1       5.043  -4.426  -4.833  0.00  0.00    -0.072 A 
ENDROOT
TORSDOF 0
ENDMDL
