MODEL 1
REMARK minimizedAffinity 5.23127794
REMARK minimizedRMSD -1
REMARK  0 active torsions:
REMARK  status: ('A' for Active; 'I' for Inactive)
ROOT
ATOM      1  C1  DEN d   1       5.725  -5.245  -3.613  0.00  0.00     0.130 A 
ATOM      2  C2  DEN d   1       5.999  -5.999  -4.833  0.00  0.00    -0.031 A 
ATOM      3  C3  DEN d   1       5.665  -5.138  -5.986  0.00  0.00     0.027 A 
ATOM      4  C4  DEN d   1       4.760  -2.723  -5.999  0.00  0.00     0.027 A 
ATOM      5  C5  DEN d   1       4.358  -1.670  -5.207  0.00  0.00    -0.003 A 
ATOM      6  C6  DEN d   1       4.351  -1.747  -3.839  0.00  0.00     0.001 A 
ATOM      7  C7  DEN d   1       4.797  -2.885  -3.221  0.00  0.00     0.017 A 
ATOM      8  C8  DEN d   1       5.197  -3.953  -4.013  0.00  0.00    -0.094 A 
ATOM      9  C9  DEN d   1       5.209  -3.852  -5.394  0.00  0.00    -0.072 A 
ENDROOT
TORSDOF 0
ENDMDL
