MODEL 1
REMARK minimizedAffinity 10.9036989
REMARK minimizedRMSD -1
REMARK  0 active torsions:
REMARK  status: ('A' for Active; 'I' for Inactive)
ROOT
ATOM      1  C1  DEN d   1       5.957  -2.537   2.818  0.00  0.00     0.130 A 
ATOM      2  C2  DEN d   1       5.977  -1.409   3.746  0.00  0.00    -0.031 A 
ATOM      3  C3  DEN d   1       5.991  -0.164   2.951  0.00  0.00     0.027 A 
ATOM      4  C4  DEN d   1       5.978   0.125   0.388  0.00  0.00     0.027 A 
ATOM      5  C5  DEN d   1       5.974  -0.542  -0.817  0.00  0.00    -0.003 A 
ATOM      6  C6  DEN d   1       5.998  -1.909  -0.894  0.00  0.00     0.001 A 
ATOM      7  C7  DEN d   1       5.982  -2.655   0.255  0.00  0.00     0.017 A 
ATOM      8  C8  DEN d   1       5.993  -1.989   1.473  0.00  0.00    -0.094 A 
ATOM      9  C9  DEN d   1       5.956  -0.606   1.531  0.00  0.00    -0.072 A 
ENDROOT
TORSDOF 0
ENDMDL
