MODEL 1
REMARK minimizedAffinity 3.80132151
REMARK minimizedRMSD -1
REMARK  0 active torsions:
REMARK  status: ('A' for Active; 'I' for Inactive)
ROOT
ATOM      1  C1  DEN d   1       2.714  -4.722  -3.043  0.00  0.00     0.130 A 
ATOM      2  C2  DEN d   1       3.248  -5.639  -2.040  0.00  0.00    -0.031 A 
ATOM      3  C3  DEN d   1       4.629  -5.990  -2.430  0.00  0.00     0.027 A 
ATOM      4  C4  DEN d   1       5.985  -5.203  -4.478  0.00  0.00     0.027 A 
ATOM      5  C5  DEN d   1       5.951  -4.431  -5.618  0.00  0.00    -0.003 A 
ATOM      6  C6  DEN d   1       4.833  -3.735  -5.995  0.00  0.00     0.001 A 
ATOM      7  C7  DEN d   1       3.717  -3.760  -5.200  0.00  0.00     0.017 A 
ATOM      8  C8  DEN d   1       3.742  -4.543  -4.053  0.00  0.00    -0.094 A 
ATOM      9  C9  DEN d   1       4.886  -5.230  -3.683  0.00  0.00    -0.072 A 
ENDROOT
TORSDOF 0
ENDMDL
