MODEL 1
REMARK minimizedAffinity 10.5033379
REMARK minimizedRMSD -1
REMARK  0 active torsions:
REMARK  status: ('A' for Active; 'I' for Inactive)
ROOT
ATOM      1  C1  DEN d   1       5.502  -5.592  -2.762  0.00  0.00     0.130 A 
ATOM      2  C2  DEN d   1       5.999  -4.421  -2.045  0.00  0.00    -0.031 A 
ATOM      3  C3  DEN d   1       5.596  -3.218  -2.802  0.00  0.00     0.027 A 
ATOM      4  C4  DEN d   1       4.255  -3.056  -4.999  0.00  0.00     0.027 A 
ATOM      5  C5  DEN d   1       3.627  -3.783  -5.987  0.00  0.00    -0.003 A 
ATOM      6  C6  DEN d   1       3.610  -5.152  -5.987  0.00  0.00     0.001 A 
ATOM      7  C7  DEN d   1       4.194  -5.839  -4.956  0.00  0.00     0.017 A 
ATOM      8  C8  DEN d   1       4.835  -5.114  -3.960  0.00  0.00    -0.094 A 
ATOM      9  C9  DEN d   1       4.831  -3.729  -3.971  0.00  0.00    -0.072 A 
ENDROOT
TORSDOF 0
ENDMDL
