MODEL 1
REMARK minimizedAffinity 6.84539509
REMARK minimizedRMSD -1
REMARK  0 active torsions:
REMARK  status: ('A' for Active; 'I' for Inactive)
ROOT
ATOM      1  C1  DEN d   1       3.004  -4.132  -3.093  0.00  0.00     0.130 A 
ATOM      2  C2  DEN d   1       3.381  -5.379  -2.433  0.00  0.00    -0.031 A 
ATOM      3  C3  DEN d   1       4.592  -5.899  -3.099  0.00  0.00     0.027 A 
ATOM      4  C4  DEN d   1       5.917  -4.896  -5.072  0.00  0.00     0.027 A 
ATOM      5  C5  DEN d   1       5.974  -3.855  -5.972  0.00  0.00    -0.003 A 
ATOM      6  C6  DEN d   1       5.034  -2.859  -5.997  0.00  0.00     0.001 A 
ATOM      7  C7  DEN d   1       4.020  -2.859  -5.075  0.00  0.00     0.017 A 
ATOM      8  C8  DEN d   1       3.951  -3.910  -4.170  0.00  0.00    -0.094 A 
ATOM      9  C9  DEN d   1       4.918  -4.901  -4.153  0.00  0.00    -0.072 A 
ENDROOT
TORSDOF 0
ENDMDL
