MODEL 1
REMARK minimizedAffinity 15.0292797
REMARK minimizedRMSD -1
REMARK  0 active torsions:
REMARK  status: ('A' for Active; 'I' for Inactive)
ROOT
ATOM      1  C1  DEN d   1       2.291  -4.352  -3.713  0.00  0.00     0.130 A 
ATOM      2  C2  DEN d   1       1.718  -3.609  -4.832  0.00  0.00    -0.031 A 
ATOM      3  C3  DEN d   1       2.709  -3.596  -5.927  0.00  0.00     0.027 A 
ATOM      4  C4  DEN d   1       5.060  -4.654  -6.000  0.00  0.00     0.027 A 
ATOM      5  C5  DEN d   1       5.989  -5.376  -5.283  0.00  0.00    -0.003 A 
ATOM      6  C6  DEN d   1       5.766  -5.775  -3.992  0.00  0.00     0.001 A 
ATOM      7  C7  DEN d   1       4.567  -5.493  -3.392  0.00  0.00     0.017 A 
ATOM      8  C8  DEN d   1       3.628  -4.759  -4.106  0.00  0.00    -0.094 A 
ATOM      9  C9  DEN d   1       3.868  -4.375  -5.414  0.00  0.00    -0.072 A 
ENDROOT
TORSDOF 0
ENDMDL
