MODEL 1
REMARK minimizedAffinity 12.2925682
REMARK minimizedRMSD -1
REMARK  0 active torsions:
REMARK  status: ('A' for Active; 'I' for Inactive)
ROOT
ATOM      1  C1  DEN d   1       5.702  -5.070  -5.961  0.00  0.00     0.130 A 
ATOM      2  C2  DEN d   1       5.998  -5.998  -4.873  0.00  0.00    -0.031 A 
ATOM      3  C3  DEN d   1       5.477  -5.415  -3.620  0.00  0.00     0.027 A 
ATOM      4  C4  DEN d   1       4.243  -3.179  -3.261  0.00  0.00     0.027 A 
ATOM      5  C5  DEN d   1       3.771  -2.045  -3.884  0.00  0.00    -0.003 A 
ATOM      6  C6  DEN d   1       3.939  -1.825  -5.226  0.00  0.00     0.001 A 
ATOM      7  C7  DEN d   1       4.555  -2.775  -5.997  0.00  0.00     0.017 A 
ATOM      8  C8  DEN d   1       5.039  -3.918  -5.375  0.00  0.00    -0.094 A 
ATOM      9  C9  DEN d   1       4.850  -4.127  -4.020  0.00  0.00    -0.072 A 
ENDROOT
TORSDOF 0
ENDMDL
