MODEL 1
REMARK minimizedAffinity 12.7411165
REMARK minimizedRMSD -1
REMARK  0 active torsions:
REMARK  status: ('A' for Active; 'I' for Inactive)
ROOT
ATOM      1  C1  DEN d   1       2.828  -3.901  -3.423  0.00  0.00     0.130 A 
ATOM      2  C2  DEN d   1       2.131  -3.340  -4.577  0.00  0.00    -0.031 A 
ATOM      3  C3  DEN d   1       2.867  -3.740  -5.793  0.00  0.00     0.027 A 
ATOM      4  C4  DEN d   1       5.005  -5.169  -6.000  0.00  0.00     0.027 A 
ATOM      5  C5  DEN d   1       5.966  -5.859  -5.295  0.00  0.00    -0.003 A 
ATOM      6  C6  DEN d   1       5.968  -5.916  -3.926  0.00  0.00     0.001 A 
ATOM      7  C7  DEN d   1       4.964  -5.308  -3.220  0.00  0.00     0.017 A 
ATOM      8  C8  DEN d   1       3.995  -4.605  -3.923  0.00  0.00    -0.094 A 
ATOM      9  C9  DEN d   1       4.003  -4.570  -5.308  0.00  0.00    -0.072 A 
ENDROOT
TORSDOF 0
ENDMDL
