MODEL 1
REMARK minimizedAffinity 3.07932878
REMARK minimizedRMSD -1
REMARK  0 active torsions:
REMARK  status: ('A' for Active; 'I' for Inactive)
ROOT
ATOM      1  C1  DEN d   1       4.790  -5.990  -4.916  0.00  0.00     0.130 A 
ATOM      2  C2  DEN d   1       5.826  -5.989  -3.886  0.00  0.00    -0.031 A 
ATOM      3  C3  DEN d   1       5.985  -4.603  -3.400  0.00  0.00     0.027 A 
ATOM      4  C4  DEN d   1       4.731  -2.472  -4.135  0.00  0.00     0.027 A 
ATOM      5  C5  DEN d   1       3.771  -1.972  -4.987  0.00  0.00    -0.003 A 
ATOM      6  C6  DEN d   1       3.113  -2.763  -5.891  0.00  0.00     0.001 A 
ATOM      7  C7  DEN d   1       3.374  -4.107  -5.933  0.00  0.00     0.017 A 
ATOM      8  C8  DEN d   1       4.346  -4.618  -5.082  0.00  0.00    -0.094 A 
ATOM      9  C9  DEN d   1       4.992  -3.804  -4.167  0.00  0.00    -0.072 A 
ENDROOT
TORSDOF 0
ENDMDL
