MODEL 1
REMARK minimizedAffinity 0.212859526
REMARK minimizedRMSD -1
REMARK  0 active torsions:
REMARK  status: ('A' for Active; 'I' for Inactive)
ROOT
ATOM      1  C   UNL d   1       5.961   4.501   4.869  0.00  0.00     0.172 C 
ATOM      2  N   UNL d   1       4.599   4.870   5.179  0.00  0.00    -0.070 N 
ATOM      3  C1  UNL d   1       3.481   4.163   4.826  0.00  0.00    -0.004 A 
ATOM      4  C2  UNL d   1       2.383   4.843   5.307  0.00  0.00    -0.047 A 
ATOM      5  C3  UNL d   1       2.858   5.999   5.970  0.00  0.00    -0.047 A 
ATOM      6  C4  UNL d   1       4.233   5.991   5.875  0.00  0.00    -0.004 A 
ENDROOT
TORSDOF 0
ENDMDL
