MODEL 1
REMARK minimizedAffinity 1.72430861
REMARK minimizedRMSD -1
REMARK  0 active torsions:
REMARK  status: ('A' for Active; 'I' for Inactive)
ROOT
ATOM      1  C   UNL d   1      -0.572  -2.575   3.167  0.00  0.00     0.172 C 
ATOM      2  N   UNL d   1       0.567  -2.950   2.362  0.00  0.00    -0.070 N 
ATOM      3  C1  UNL d   1       0.862  -4.218   1.939  0.00  0.00    -0.004 A 
ATOM      4  C2  UNL d   1       2.023  -4.156   1.198  0.00  0.00    -0.047 A 
ATOM      5  C3  UNL d   1       2.440  -2.804   1.177  0.00  0.00    -0.047 A 
ATOM      6  C4  UNL d   1       1.520  -2.079   1.905  0.00  0.00    -0.004 A 
ENDROOT
TORSDOF 0
ENDMDL
