MODEL 1
REMARK minimizedAffinity -0.159371123
REMARK minimizedRMSD -1
REMARK  0 active torsions:
REMARK  status: ('A' for Active; 'I' for Inactive)
ROOT
ATOM      1  C   UNL d   1      -1.323  -4.064   3.436  0.00  0.00     0.172 C 
ATOM      2  N   UNL d   1      -0.042  -3.931   2.782  0.00  0.00    -0.070 N 
ATOM      3  C1  UNL d   1       0.779  -2.837   2.849  0.00  0.00    -0.004 A 
ATOM      4  C2  UNL d   1       1.900  -3.104   2.093  0.00  0.00    -0.047 A 
ATOM      5  C3  UNL d   1       1.746  -4.402   1.551  0.00  0.00    -0.047 A 
ATOM      6  C4  UNL d   1       0.535  -4.891   1.994  0.00  0.00    -0.004 A 
ENDROOT
TORSDOF 0
ENDMDL
