MODEL 1
REMARK minimizedAffinity 3.56907296
REMARK minimizedRMSD -1
REMARK  0 active torsions:
REMARK  status: ('A' for Active; 'I' for Inactive)
ROOT
ATOM      1  C   UNL d   1       1.496  -2.938   1.514  0.00  0.00     0.172 C 
ATOM      2  N   UNL d   1       0.419  -2.196   2.126  0.00  0.00    -0.070 N 
ATOM      3  C1  UNL d   1      -0.818  -1.985   1.578  0.00  0.00    -0.004 A 
ATOM      4  C2  UNL d   1      -1.553  -1.236   2.471  0.00  0.00    -0.047 A 
ATOM      5  C3  UNL d   1      -0.729  -0.986   3.594  0.00  0.00    -0.047 A 
ATOM      6  C4  UNL d   1       0.486  -1.592   3.354  0.00  0.00    -0.004 A 
ENDROOT
TORSDOF 0
ENDMDL
