MODEL 1
REMARK minimizedAffinity 0.285673022
REMARK minimizedRMSD -1
REMARK  0 active torsions:
REMARK  status: ('A' for Active; 'I' for Inactive)
ROOT
ATOM      1  C   UNL d   1       5.993  -0.759  -0.363  0.00  0.00     0.172 C 
ATOM      2  N   UNL d   1       5.375   0.285   0.420  0.00  0.00    -0.070 N 
ATOM      3  C1  UNL d   1       4.087   0.279   0.883  0.00  0.00    -0.004 A 
ATOM      4  C2  UNL d   1       3.884   1.449   1.583  0.00  0.00    -0.047 A 
ATOM      5  C3  UNL d   1       5.093   2.183   1.539  0.00  0.00    -0.047 A 
ATOM      6  C4  UNL d   1       5.999   1.440   0.812  0.00  0.00    -0.004 A 
ENDROOT
TORSDOF 0
ENDMDL
