MODEL 1
REMARK minimizedAffinity 2.29364634
REMARK minimizedRMSD -1
REMARK  0 active torsions:
REMARK  status: ('A' for Active; 'I' for Inactive)
ROOT
ATOM      1  C   UNL d   1       6.000   2.425   1.202  0.00  0.00     0.172 C 
ATOM      2  N   UNL d   1       5.998   1.160   0.506  0.00  0.00    -0.070 N 
ATOM      3  C1  UNL d   1       5.996  -0.076   1.096  0.00  0.00    -0.004 A 
ATOM      4  C2  UNL d   1       5.995  -1.022   0.094  0.00  0.00    -0.047 A 
ATOM      5  C3  UNL d   1       5.997  -0.331  -1.141  0.00  0.00    -0.047 A 
ATOM      6  C4  UNL d   1       5.999   1.018  -0.856  0.00  0.00    -0.004 A 
ENDROOT
TORSDOF 0
ENDMDL
