MODEL 1
REMARK minimizedAffinity 3.55013132
REMARK minimizedRMSD -1
REMARK  0 active torsions:
REMARK  status: ('A' for Active; 'I' for Inactive)
ROOT
ATOM      1  C   UNL d   1       1.572  -1.874   1.046  0.00  0.00     0.172 C 
ATOM      2  N   UNL d   1       2.332  -3.061   1.357  0.00  0.00    -0.070 N 
ATOM      3  C1  UNL d   1       3.181  -3.209   2.421  0.00  0.00    -0.004 A 
ATOM      4  C2  UNL d   1       3.708  -4.482   2.367  0.00  0.00    -0.047 A 
ATOM      5  C3  UNL d   1       3.158  -5.120   1.230  0.00  0.00    -0.047 A 
ATOM      6  C4  UNL d   1       2.309  -4.218   0.623  0.00  0.00    -0.004 A 
ENDROOT
TORSDOF 0
ENDMDL
