MODEL 1
REMARK minimizedAffinity -0.591025591
REMARK minimizedRMSD -1
REMARK  0 active torsions:
REMARK  status: ('A' for Active; 'I' for Inactive)
ROOT
ATOM      1  C   UNL d   1      -0.173  -1.574   2.733  0.00  0.00     0.172 C 
ATOM      2  N   UNL d   1      -1.426  -0.892   2.510  0.00  0.00    -0.070 N 
ATOM      3  C1  UNL d   1      -2.158  -0.925   1.354  0.00  0.00    -0.004 A 
ATOM      4  C2  UNL d   1      -3.282  -0.150   1.543  0.00  0.00    -0.047 A 
ATOM      5  C3  UNL d   1      -3.223   0.368   2.859  0.00  0.00    -0.047 A 
ATOM      6  C4  UNL d   1      -2.063  -0.107   3.435  0.00  0.00    -0.004 A 
ENDROOT
TORSDOF 0
ENDMDL
