MODEL 1
REMARK minimizedAffinity -4.15356064
REMARK minimizedRMSD -1
REMARK  0 active torsions:
REMARK  status: ('A' for Active; 'I' for Inactive)
ROOT
ATOM      1  C   UNL d   1      -5.995  -4.141  -2.177  0.00  0.00     0.078 C 
ATOM      2  C1  UNL d   1      -5.462  -4.588  -3.505  0.00  0.00    -0.077 A 
ATOM      3  C2  UNL d   1      -4.496  -5.598  -3.592  0.00  0.00    -0.001 A 
ATOM      4  C3  UNL d   1      -4.002  -5.998  -4.834  0.00  0.00     0.003 A 
ATOM      5  C4  UNL d   1      -4.467  -5.392  -6.000  0.00  0.00    -0.005 A 
ATOM      6  C5  UNL d   1      -5.426  -4.384  -5.924  0.00  0.00     0.003 A 
ATOM      7  C6  UNL d   1      -5.922  -3.983  -4.682  0.00  0.00    -0.001 A 
ENDROOT
TORSDOF 0
ENDMDL
