MODEL 1
REMARK minimizedAffinity -1.50169909
REMARK minimizedRMSD -1
REMARK  0 active torsions:
REMARK  status: ('A' for Active; 'I' for Inactive)
ROOT
ATOM      1  C   UNL d   1      -5.434  -3.612  -1.862  0.00  0.00     0.078 C 
ATOM      2  C1  UNL d   1      -5.591  -4.147  -3.254  0.00  0.00    -0.077 A 
ATOM      3  C2  UNL d   1      -5.459  -5.516  -3.519  0.00  0.00    -0.001 A 
ATOM      4  C3  UNL d   1      -5.598  -5.999  -4.821  0.00  0.00     0.003 A 
ATOM      5  C4  UNL d   1      -5.869  -5.121  -5.868  0.00  0.00    -0.005 A 
ATOM      6  C5  UNL d   1      -6.000  -3.757  -5.614  0.00  0.00     0.003 A 
ATOM      7  C6  UNL d   1      -5.861  -3.272  -4.313  0.00  0.00    -0.001 A 
ENDROOT
TORSDOF 0
ENDMDL
