MODEL 1
REMARK minimizedAffinity -2.41534352
REMARK minimizedRMSD -1
REMARK  0 active torsions:
REMARK  status: ('A' for Active; 'I' for Inactive)
ROOT
ATOM      1  C   UNL d   1      -4.510  -4.751  -1.945  0.00  0.00     0.078 C 
ATOM      2  C1  UNL d   1      -5.034  -4.788  -3.350  0.00  0.00    -0.077 A 
ATOM      3  C2  UNL d   1      -5.045  -5.980  -4.085  0.00  0.00    -0.001 A 
ATOM      4  C3  UNL d   1      -5.526  -5.997  -5.395  0.00  0.00     0.003 A 
ATOM      5  C4  UNL d   1      -6.000  -4.825  -5.982  0.00  0.00    -0.005 A 
ATOM      6  C5  UNL d   1      -5.991  -3.634  -5.259  0.00  0.00     0.003 A 
ATOM      7  C6  UNL d   1      -5.510  -3.615  -3.949  0.00  0.00    -0.001 A 
ENDROOT
TORSDOF 0
ENDMDL
