MODEL 1
REMARK minimizedAffinity 2.80578208
REMARK minimizedRMSD -1
REMARK  0 active torsions:
REMARK  status: ('A' for Active; 'I' for Inactive)
ROOT
ATOM      1  C   UNL d   1      -5.519  -2.293  -1.754  0.00  0.00     0.078 C 
ATOM      2  C1  UNL d   1      -5.551  -3.590  -2.506  0.00  0.00    -0.077 A 
ATOM      3  C2  UNL d   1      -5.151  -4.786  -1.898  0.00  0.00    -0.001 A 
ATOM      4  C3  UNL d   1      -5.177  -5.984  -2.614  0.00  0.00     0.003 A 
ATOM      5  C4  UNL d   1      -5.601  -5.998  -3.941  0.00  0.00    -0.005 A 
ATOM      6  C5  UNL d   1      -5.998  -4.812  -4.555  0.00  0.00     0.003 A 
ATOM      7  C6  UNL d   1      -5.973  -3.612  -3.841  0.00  0.00    -0.001 A 
ENDROOT
TORSDOF 0
ENDMDL
