MODEL 1
REMARK minimizedAffinity -2.78639841
REMARK minimizedRMSD -1
REMARK  0 active torsions:
REMARK  status: ('A' for Active; 'I' for Inactive)
ROOT
ATOM      1  C   UNL d   1      -5.905  -3.579  -2.170  0.00  0.00     0.078 C 
ATOM      2  C1  UNL d   1      -5.577  -4.204  -3.493  0.00  0.00    -0.077 A 
ATOM      3  C2  UNL d   1      -6.000  -3.619  -4.693  0.00  0.00    -0.001 A 
ATOM      4  C3  UNL d   1      -5.695  -4.218  -5.916  0.00  0.00     0.003 A 
ATOM      5  C4  UNL d   1      -4.967  -5.405  -5.952  0.00  0.00    -0.005 A 
ATOM      6  C5  UNL d   1      -4.544  -5.996  -4.763  0.00  0.00     0.003 A 
ATOM      7  C6  UNL d   1      -4.848  -5.399  -3.539  0.00  0.00    -0.001 A 
ENDROOT
TORSDOF 0
ENDMDL
