MODEL 1
REMARK minimizedAffinity 0.0774156377
REMARK minimizedRMSD -1
REMARK  0 active torsions:
REMARK  status: ('A' for Active; 'I' for Inactive)
ROOT
ATOM      1  C   UNL d   1      -1.939   2.161  -0.503  0.00  0.00     0.078 C 
ATOM      2  C1  UNL d   1      -0.677   2.972  -0.524  0.00  0.00    -0.077 A 
ATOM      3  C2  UNL d   1       0.308   2.799   0.456  0.00  0.00    -0.001 A 
ATOM      4  C3  UNL d   1       1.473   3.568   0.429  0.00  0.00     0.003 A 
ATOM      5  C4  UNL d   1       1.663   4.515  -0.575  0.00  0.00    -0.005 A 
ATOM      6  C5  UNL d   1       0.688   4.695  -1.554  0.00  0.00     0.003 A 
ATOM      7  C6  UNL d   1      -0.478   3.928  -1.528  0.00  0.00    -0.001 A 
ENDROOT
TORSDOF 0
ENDMDL
