MODEL 1
REMARK minimizedAffinity 7.72880983
REMARK minimizedRMSD -1
REMARK  0 active torsions:
REMARK  status: ('A' for Active; 'I' for Inactive)
ROOT
ATOM      1  C   UNL d   1       6.000   1.009  -6.000  0.00  0.00     0.078 C 
ATOM      2  C1  UNL d   1       5.199   0.336  -4.925  0.00  0.00    -0.077 A 
ATOM      3  C2  UNL d   1       5.763  -0.667  -4.127  0.00  0.00    -0.001 A 
ATOM      4  C3  UNL d   1       5.003  -1.291  -3.137  0.00  0.00     0.003 A 
ATOM      5  C4  UNL d   1       3.674  -0.921  -2.937  0.00  0.00    -0.005 A 
ATOM      6  C5  UNL d   1       3.104   0.075  -3.728  0.00  0.00     0.003 A 
ATOM      7  C6  UNL d   1       3.863   0.700  -4.718  0.00  0.00    -0.001 A 
ENDROOT
TORSDOF 0
ENDMDL
