MODEL 1
REMARK minimizedAffinity -0.465845019
REMARK minimizedRMSD -1
REMARK  0 active torsions:
REMARK  status: ('A' for Active; 'I' for Inactive)
ROOT
ATOM      1  C   UNL d   1       3.924  -2.346  -3.051  0.00  0.00     0.078 C 
ATOM      2  C1  UNL d   1       4.417  -1.379  -4.086  0.00  0.00    -0.077 A 
ATOM      3  C2  UNL d   1       5.546  -1.668  -4.863  0.00  0.00    -0.001 A 
ATOM      4  C3  UNL d   1       6.000  -0.755  -5.816  0.00  0.00     0.003 A 
ATOM      5  C4  UNL d   1       5.332   0.454  -6.000  0.00  0.00    -0.005 A 
ATOM      6  C5  UNL d   1       4.210   0.752  -5.230  0.00  0.00     0.003 A 
ATOM      7  C6  UNL d   1       3.754  -0.160  -4.277  0.00  0.00    -0.001 A 
ENDROOT
TORSDOF 0
ENDMDL
