MODEL 1
REMARK minimizedAffinity -3.01360011
REMARK minimizedRMSD -1
REMARK  0 active torsions:
REMARK  status: ('A' for Active; 'I' for Inactive)
ROOT
ATOM      1  C   UNL d   1      -4.459  -5.541  -6.000  0.00  0.00     0.078 C 
ATOM      2  C1  UNL d   1      -4.676  -5.460  -4.518  0.00  0.00    -0.077 A 
ATOM      3  C2  UNL d   1      -5.815  -4.841  -3.989  0.00  0.00    -0.001 A 
ATOM      4  C3  UNL d   1      -5.999  -4.764  -2.607  0.00  0.00     0.003 A 
ATOM      5  C4  UNL d   1      -5.048  -5.303  -1.744  0.00  0.00    -0.005 A 
ATOM      6  C5  UNL d   1      -3.911  -5.920  -2.261  0.00  0.00     0.003 A 
ATOM      7  C6  UNL d   1      -3.725  -5.998  -3.642  0.00  0.00    -0.001 A 
ENDROOT
TORSDOF 0
ENDMDL
