MODEL 1
REMARK minimizedAffinity -3.72874355
REMARK minimizedRMSD -1
REMARK  0 active torsions:
REMARK  status: ('A' for Active; 'I' for Inactive)
ROOT
ATOM      1  C   UNL d   1      -5.652  -4.111  -1.786  0.00  0.00     0.078 C 
ATOM      2  C1  UNL d   1      -5.712  -4.400  -3.256  0.00  0.00    -0.077 A 
ATOM      3  C2  UNL d   1      -5.908  -3.372  -4.186  0.00  0.00    -0.001 A 
ATOM      4  C3  UNL d   1      -5.971  -3.656  -5.551  0.00  0.00     0.003 A 
ATOM      5  C4  UNL d   1      -5.839  -4.969  -5.999  0.00  0.00    -0.005 A 
ATOM      6  C5  UNL d   1      -5.646  -6.000  -5.081  0.00  0.00     0.003 A 
ATOM      7  C6  UNL d   1      -5.583  -5.717  -3.715  0.00  0.00    -0.001 A 
ENDROOT
TORSDOF 0
ENDMDL
