MODEL 1
REMARK minimizedAffinity 2.14792514
REMARK minimizedRMSD -1
REMARK  0 active torsions:
REMARK  status: ('A' for Active; 'I' for Inactive)
ROOT
ATOM      1  C2' OXE d   1      -0.892  -1.610   1.497  0.00  0.00     0.078 C 
ATOM      2  C1' OXE d   1       1.415  -0.744   2.841  0.00  0.00     0.078 C 
ATOM      3  C1  OXE d   1       1.595  -1.643   1.643  0.00  0.00    -0.078 A 
ATOM      4  C2  OXE d   1       0.458  -2.100   1.020  0.00  0.00    -0.078 A 
ATOM      5  C3  OXE d   1       0.568  -2.887  -0.122  0.00  0.00     0.003 A 
ATOM      6  C4  OXE d   1       1.820  -3.344  -0.551  0.00  0.00    -0.002 A 
ATOM      7  C5  OXE d   1       2.988  -2.923   0.093  0.00  0.00    -0.002 A 
ATOM      8  C6  OXE d   1       2.895  -2.040   1.163  0.00  0.00     0.003 A 
ENDROOT
TORSDOF 0
ENDMDL
