MODEL 1
REMARK minimizedAffinity -1.66496933
REMARK minimizedRMSD -1
REMARK  0 active torsions:
REMARK  status: ('A' for Active; 'I' for Inactive)
ROOT
ATOM      1  C2' OXE d   1       3.122  -4.148   0.123  0.00  0.00     0.078 C 
ATOM      2  C1' OXE d   1       0.625  -4.490  -1.112  0.00  0.00     0.078 C 
ATOM      3  C1  OXE d   1       0.884  -3.187  -0.399  0.00  0.00    -0.078 A 
ATOM      4  C2  OXE d   1       2.091  -3.046   0.242  0.00  0.00    -0.078 A 
ATOM      5  C3  OXE d   1       2.403  -1.843   0.868  0.00  0.00     0.003 A 
ATOM      6  C4  OXE d   1       1.440  -0.833   0.983  0.00  0.00    -0.002 A 
ATOM      7  C5  OXE d   1       0.190  -0.972   0.371  0.00  0.00    -0.002 A 
ATOM      8  C6  OXE d   1      -0.088  -2.122  -0.359  0.00  0.00     0.003 A 
ENDROOT
TORSDOF 0
ENDMDL
