MODEL 1
REMARK minimizedAffinity 0.605264246
REMARK minimizedRMSD -1
REMARK  0 active torsions:
REMARK  status: ('A' for Active; 'I' for Inactive)
ROOT
ATOM      1  C2' OXE d   1       2.440   0.106  -1.139  0.00  0.00     0.078 C 
ATOM      2  C1' OXE d   1       2.606   1.350   1.372  0.00  0.00     0.078 C 
ATOM      3  C1  OXE d   1       1.545   0.296   1.178  0.00  0.00    -0.078 A 
ATOM      4  C2  OXE d   1       1.441  -0.275  -0.068  0.00  0.00    -0.078 A 
ATOM      5  C3  OXE d   1       0.516  -1.291  -0.286  0.00  0.00     0.003 A 
ATOM      6  C4  OXE d   1      -0.411  -1.630   0.707  0.00  0.00    -0.002 A 
ATOM      7  C5  OXE d   1      -0.348  -1.034   1.971  0.00  0.00    -0.002 A 
ATOM      8  C6  OXE d   1       0.649  -0.102   2.235  0.00  0.00     0.003 A 
ENDROOT
TORSDOF 0
ENDMDL
