MODEL 1
REMARK minimizedAffinity -0.242128149
REMARK minimizedRMSD -1
REMARK  0 active torsions:
REMARK  status: ('A' for Active; 'I' for Inactive)
ROOT
ATOM      1  C2' OXE d   1       2.574  -3.595  -0.224  0.00  0.00     0.078 C 
ATOM      2  C1' OXE d   1       3.237  -0.874  -0.038  0.00  0.00     0.078 C 
ATOM      3  C1  OXE d   1       1.824  -1.278   0.303  0.00  0.00    -0.078 A 
ATOM      4  C2  OXE d   1       1.496  -2.605   0.164  0.00  0.00    -0.078 A 
ATOM      5  C3  OXE d   1       0.222  -3.041   0.517  0.00  0.00     0.003 A 
ATOM      6  C4  OXE d   1      -0.771  -2.118   0.865  0.00  0.00    -0.002 A 
ATOM      7  C5  OXE d   1      -0.469  -0.757   0.975  0.00  0.00    -0.002 A 
ATOM      8  C6  OXE d   1       0.832  -0.327   0.739  0.00  0.00     0.003 A 
ENDROOT
TORSDOF 0
ENDMDL
