MODEL 1
REMARK minimizedAffinity 4.23684788
REMARK minimizedRMSD -1
REMARK  0 active torsions:
REMARK  status: ('A' for Active; 'I' for Inactive)
ROOT
ATOM      1  C2' OXE d   1       3.307  -3.955   0.277  0.00  0.00     0.078 C 
ATOM      2  C1' OXE d   1       2.710  -1.419   1.322  0.00  0.00     0.078 C 
ATOM      3  C1  OXE d   1       1.603  -2.172   0.628  0.00  0.00    -0.078 A 
ATOM      4  C2  OXE d   1       1.916  -3.392   0.079  0.00  0.00    -0.078 A 
ATOM      5  C3  OXE d   1       0.919  -4.153  -0.524  0.00  0.00     0.003 A 
ATOM      6  C4  OXE d   1      -0.363  -3.621  -0.712  0.00  0.00    -0.002 A 
ATOM      7  C5  OXE d   1      -0.692  -2.364  -0.196  0.00  0.00    -0.002 A 
ATOM      8  C6  OXE d   1       0.265  -1.646   0.513  0.00  0.00     0.003 A 
ENDROOT
TORSDOF 0
ENDMDL
