MODEL 1
REMARK minimizedAffinity -0.423365414
REMARK minimizedRMSD -1
REMARK  0 active torsions:
REMARK  status: ('A' for Active; 'I' for Inactive)
ROOT
ATOM      1  C2' OXE d   1       1.652  -3.642   0.262  0.00  0.00     0.078 C 
ATOM      2  C1' OXE d   1       2.953  -1.182   0.631  0.00  0.00     0.078 C 
ATOM      3  C1  OXE d   1       1.450  -1.207   0.747  0.00  0.00    -0.078 A 
ATOM      4  C2  OXE d   1       0.818  -2.405   0.519  0.00  0.00    -0.078 A 
ATOM      5  C3  OXE d   1      -0.564  -2.495   0.667  0.00  0.00     0.003 A 
ATOM      6  C4  OXE d   1      -1.329  -1.345   0.894  0.00  0.00    -0.002 A 
ATOM      7  C5  OXE d   1      -0.708  -0.107   1.090  0.00  0.00    -0.002 A 
ATOM      8  C6  OXE d   1       0.680  -0.028   1.062  0.00  0.00     0.003 A 
ENDROOT
TORSDOF 0
ENDMDL
