MODEL 1
REMARK minimizedAffinity 0.145379797
REMARK minimizedRMSD -1
REMARK  0 active torsions:
REMARK  status: ('A' for Active; 'I' for Inactive)
ROOT
ATOM      1  C2' OXE d   1       2.446   0.082   1.235  0.00  0.00     0.078 C 
ATOM      2  C1' OXE d   1      -0.316  -0.410   1.144  0.00  0.00     0.078 C 
ATOM      3  C1  OXE d   1       0.614  -1.577   0.922  0.00  0.00    -0.078 A 
ATOM      4  C2  OXE d   1       1.964  -1.318   0.922  0.00  0.00    -0.078 A 
ATOM      5  C3  OXE d   1       2.867  -2.368   0.776  0.00  0.00     0.003 A 
ATOM      6  C4  OXE d   1       2.412  -3.658   0.477  0.00  0.00    -0.002 A 
ATOM      7  C5  OXE d   1       1.041  -3.935   0.433  0.00  0.00    -0.002 A 
ATOM      8  C6  OXE d   1       0.131  -2.917   0.695  0.00  0.00     0.003 A 
ENDROOT
TORSDOF 0
ENDMDL
