MODEL 1
REMARK minimizedAffinity 3.9350431
REMARK minimizedRMSD -1
REMARK  0 active torsions:
REMARK  status: ('A' for Active; 'I' for Inactive)
ROOT
ATOM      1  C2' OXE d   1       1.044  -3.027   0.557  0.00  0.00     0.078 C 
ATOM      2  C1' OXE d   1       3.105  -1.281  -0.208  0.00  0.00     0.078 C 
ATOM      3  C1  OXE d   1       3.413  -2.757  -0.167  0.00  0.00    -0.078 A 
ATOM      4  C2  OXE d   1       2.412  -3.600   0.253  0.00  0.00    -0.078 A 
ATOM      5  C3  OXE d   1       2.626  -4.975   0.257  0.00  0.00     0.003 A 
ATOM      6  C4  OXE d   1       3.897  -5.496  -0.015  0.00  0.00    -0.002 A 
ATOM      7  C5  OXE d   1       4.941  -4.652  -0.407  0.00  0.00    -0.002 A 
ATOM      8  C6  OXE d   1       4.704  -3.287  -0.528  0.00  0.00     0.003 A 
ENDROOT
TORSDOF 0
ENDMDL
