MODEL 1
REMARK minimizedAffinity -1.92905927
REMARK minimizedRMSD -1
REMARK  0 active torsions:
REMARK  status: ('A' for Active; 'I' for Inactive)
ROOT
ATOM      1  C2' OXE d   1       3.594  -4.481   0.140  0.00  0.00     0.078 C 
ATOM      2  C1' OXE d   1       4.474  -1.827   0.394  0.00  0.00     0.078 C 
ATOM      3  C1  OXE d   1       2.987  -2.073   0.342  0.00  0.00    -0.078 A 
ATOM      4  C2  OXE d   1       2.566  -3.370   0.171  0.00  0.00    -0.078 A 
ATOM      5  C3  OXE d   1       1.204  -3.659   0.171  0.00  0.00     0.003 A 
ATOM      6  C4  OXE d   1       0.260  -2.626   0.189  0.00  0.00    -0.002 A 
ATOM      7  C5  OXE d   1       0.668  -1.294   0.323  0.00  0.00    -0.002 A 
ATOM      8  C6  OXE d   1       2.023  -1.005   0.443  0.00  0.00     0.003 A 
ENDROOT
TORSDOF 0
ENDMDL
