MODEL 1
REMARK minimizedAffinity -4.4668169
REMARK minimizedRMSD -1
REMARK  0 active torsions:
REMARK  status: ('A' for Active; 'I' for Inactive)
ROOT
ATOM      1  C2' OXE d   1       3.015  -1.720   0.302  0.00  0.00     0.078 C 
ATOM      2  C1' OXE d   1       2.005  -4.310  -0.092  0.00  0.00     0.078 C 
ATOM      3  C1  OXE d   1       1.015  -3.176   0.006  0.00  0.00    -0.078 A 
ATOM      4  C2  OXE d   1       1.516  -1.919   0.245  0.00  0.00    -0.078 A 
ATOM      5  C3  OXE d   1       0.651  -0.829   0.290  0.00  0.00     0.003 A 
ATOM      6  C4  OXE d   1      -0.735  -1.023   0.246  0.00  0.00    -0.002 A 
ATOM      7  C5  OXE d   1      -1.268  -2.300   0.043  0.00  0.00    -0.002 A 
ATOM      8  C6  OXE d   1      -0.407  -3.379  -0.122  0.00  0.00     0.003 A 
ENDROOT
TORSDOF 0
ENDMDL
