MODEL 1
REMARK minimizedAffinity -2.291538
REMARK minimizedRMSD -1
REMARK  0 active torsions:
REMARK  status: ('A' for Active; 'I' for Inactive)
ROOT
ATOM      1  C2' OXE d   1       2.796  -3.506   0.026  0.00  0.00     0.078 C 
ATOM      2  C1' OXE d   1       0.139  -3.916  -0.781  0.00  0.00     0.078 C 
ATOM      3  C1  OXE d   1       0.442  -2.691   0.045  0.00  0.00    -0.078 A 
ATOM      4  C2  OXE d   1       1.736  -2.523   0.475  0.00  0.00    -0.078 A 
ATOM      5  C3  OXE d   1       2.081  -1.382   1.194  0.00  0.00     0.003 A 
ATOM      6  C4  OXE d   1       1.093  -0.483   1.613  0.00  0.00    -0.002 A 
ATOM      7  C5  OXE d   1      -0.238  -0.657   1.220  0.00  0.00    -0.002 A 
ATOM      8  C6  OXE d   1      -0.573  -1.730   0.402  0.00  0.00     0.003 A 
ENDROOT
TORSDOF 0
ENDMDL
