MODEL 1
REMARK minimizedAffinity -3.99040866
REMARK minimizedRMSD -1
REMARK  0 active torsions:
REMARK  status: ('A' for Active; 'I' for Inactive)
ROOT
ATOM      1  C2' OXE d   1       3.495  -1.487   0.005  0.00  0.00     0.078 C 
ATOM      2  C1' OXE d   1       2.037  -3.886  -0.020  0.00  0.00     0.078 C 
ATOM      3  C1  OXE d   1       1.308  -2.624   0.368  0.00  0.00    -0.078 A 
ATOM      4  C2  OXE d   1       2.040  -1.462   0.423  0.00  0.00    -0.078 A 
ATOM      5  C3  OXE d   1       1.405  -0.260   0.722  0.00  0.00     0.003 A 
ATOM      6  C4  OXE d   1       0.062  -0.248   1.117  0.00  0.00    -0.002 A 
ATOM      7  C5  OXE d   1      -0.692  -1.426   1.107  0.00  0.00    -0.002 A 
ATOM      8  C6  OXE d   1      -0.097  -2.613   0.695  0.00  0.00     0.003 A 
ENDROOT
TORSDOF 0
ENDMDL
