MODEL 1
REMARK minimizedAffinity 2.3331809
REMARK minimizedRMSD -1
REMARK  0 active torsions:
REMARK  status: ('A' for Active; 'I' for Inactive)
ROOT
ATOM      1  C2' OXE d   1       3.773  -4.855  -0.294  0.00  0.00     0.078 C 
ATOM      2  C1' OXE d   1       4.579  -2.181  -0.011  0.00  0.00     0.078 C 
ATOM      3  C1  OXE d   1       3.103  -2.483   0.067  0.00  0.00    -0.078 A 
ATOM      4  C2  OXE d   1       2.714  -3.787  -0.119  0.00  0.00    -0.078 A 
ATOM      5  C3  OXE d   1       1.370  -4.129  -0.004  0.00  0.00     0.003 A 
ATOM      6  C4  OXE d   1       0.396  -3.134   0.148  0.00  0.00    -0.002 A 
ATOM      7  C5  OXE d   1       0.768  -1.794   0.300  0.00  0.00    -0.002 A 
ATOM      8  C6  OXE d   1       2.117  -1.458   0.304  0.00  0.00     0.003 A 
ENDROOT
TORSDOF 0
ENDMDL
