MODEL 1
REMARK minimizedAffinity -0.758949876
REMARK minimizedRMSD -1
REMARK  0 active torsions:
REMARK  status: ('A' for Active; 'I' for Inactive)
ROOT
ATOM      1  C2' OXE d   1       2.047   0.153   0.716  0.00  0.00     0.078 C 
ATOM      2  C1' OXE d   1      -0.490  -1.027   0.947  0.00  0.00     0.078 C 
ATOM      3  C1  OXE d   1       0.667  -1.915   0.559  0.00  0.00    -0.078 A 
ATOM      4  C2  OXE d   1       1.895  -1.320   0.403  0.00  0.00    -0.078 A 
ATOM      5  C3  OXE d   1       3.006  -2.101   0.099  0.00  0.00     0.003 A 
ATOM      6  C4  OXE d   1       2.856  -3.461  -0.199  0.00  0.00    -0.002 A 
ATOM      7  C5  OXE d   1       1.606  -4.079  -0.085  0.00  0.00    -0.002 A 
ATOM      8  C6  OXE d   1       0.512  -3.331   0.334  0.00  0.00     0.003 A 
ENDROOT
TORSDOF 0
ENDMDL
