MODEL 1
REMARK minimizedAffinity 7.97844076
REMARK minimizedRMSD -1
REMARK  0 active torsions:
REMARK  status: ('A' for Active; 'I' for Inactive)
ROOT
ATOM      1  C2' OXE d   1      -4.111   0.023  -0.910  0.00  0.00     0.078 C 
ATOM      2  C1' OXE d   1      -2.497  -1.320   0.953  0.00  0.00     0.078 C 
ATOM      3  C1  OXE d   1      -2.513   0.187   0.994  0.00  0.00    -0.078 A 
ATOM      4  C2  OXE d   1      -3.269   0.837   0.049  0.00  0.00    -0.078 A 
ATOM      5  C3  OXE d   1      -3.362   2.226   0.076  0.00  0.00     0.003 A 
ATOM      6  C4  OXE d   1      -2.572   2.972   0.959  0.00  0.00    -0.002 A 
ATOM      7  C5  OXE d   1      -1.764   2.330   1.904  0.00  0.00    -0.002 A 
ATOM      8  C6  OXE d   1      -1.756   0.941   1.963  0.00  0.00     0.003 A 
ENDROOT
TORSDOF 0
ENDMDL
