MODEL 1
REMARK minimizedAffinity -4.68874979
REMARK minimizedRMSD -1
REMARK  0 active torsions:
REMARK  status: ('A' for Active; 'I' for Inactive)
ROOT
ATOM      1  C2' OXE d   1       2.531  -3.684  -0.021  0.00  0.00     0.078 C 
ATOM      2  C1' OXE d   1       2.811  -0.948   0.540  0.00  0.00     0.078 C 
ATOM      3  C1  OXE d   1       1.416  -1.520   0.507  0.00  0.00    -0.078 A 
ATOM      4  C2  OXE d   1       1.285  -2.850   0.186  0.00  0.00    -0.078 A 
ATOM      5  C3  OXE d   1       0.025  -3.441   0.196  0.00  0.00     0.003 A 
ATOM      6  C4  OXE d   1      -1.123  -2.660   0.379  0.00  0.00    -0.002 A 
ATOM      7  C5  OXE d   1      -1.015  -1.296   0.668  0.00  0.00    -0.002 A 
ATOM      8  C6  OXE d   1       0.246  -0.721   0.778  0.00  0.00     0.003 A 
ENDROOT
TORSDOF 0
ENDMDL
