MODEL 1
REMARK minimizedAffinity -2.95085955
REMARK minimizedRMSD -1
REMARK  0 active torsions:
REMARK  status: ('A' for Active; 'I' for Inactive)
ROOT
ATOM      1  C2' OXE d   1       1.365  -4.120  -0.245  0.00  0.00     0.078 C 
ATOM      2  C1' OXE d   1       3.041  -1.876  -0.067  0.00  0.00     0.078 C 
ATOM      3  C1  OXE d   1       1.608  -1.720   0.377  0.00  0.00    -0.078 A 
ATOM      4  C2  OXE d   1       0.783  -2.811   0.242  0.00  0.00    -0.078 A 
ATOM      5  C3  OXE d   1      -0.535  -2.738   0.686  0.00  0.00     0.003 A 
ATOM      6  C4  OXE d   1      -1.068  -1.520   1.126  0.00  0.00    -0.002 A 
ATOM      7  C5  OXE d   1      -0.255  -0.387   1.234  0.00  0.00    -0.002 A 
ATOM      8  C6  OXE d   1       1.093  -0.481   0.904  0.00  0.00     0.003 A 
ENDROOT
TORSDOF 0
ENDMDL
