MODEL 1
REMARK minimizedAffinity -2.02356553
REMARK minimizedRMSD -1
REMARK  0 active torsions:
REMARK  status: ('A' for Active; 'I' for Inactive)
ROOT
ATOM      1  C2' OXE d   1       1.866  -3.571  -0.289  0.00  0.00     0.078 C 
ATOM      2  C1' OXE d   1       2.984  -0.997  -0.240  0.00  0.00     0.078 C 
ATOM      3  C1  OXE d   1       1.540  -1.144   0.167  0.00  0.00    -0.078 A 
ATOM      4  C2  OXE d   1       0.988  -2.400   0.095  0.00  0.00    -0.078 A 
ATOM      5  C3  OXE d   1      -0.326  -2.601   0.511  0.00  0.00     0.003 A 
ATOM      6  C4  OXE d   1      -1.135  -1.512   0.855  0.00  0.00    -0.002 A 
ATOM      7  C5  OXE d   1      -0.603  -0.218   0.897  0.00  0.00    -0.002 A 
ATOM      8  C6  OXE d   1       0.740  -0.023   0.597  0.00  0.00     0.003 A 
ENDROOT
TORSDOF 0
ENDMDL
