MODEL 1
REMARK minimizedAffinity 4.18758011
REMARK minimizedRMSD -1
REMARK  0 active torsions:
REMARK  status: ('A' for Active; 'I' for Inactive)
ROOT
ATOM      1  C2' OXE d   1       3.424  -1.184   0.363  0.00  0.00     0.078 C 
ATOM      2  C1' OXE d   1       2.444   0.825   2.061  0.00  0.00     0.078 C 
ATOM      3  C1  OXE d   1       1.442  -0.084   1.396  0.00  0.00    -0.078 A 
ATOM      4  C2  OXE d   1       1.927  -1.035   0.530  0.00  0.00    -0.078 A 
ATOM      5  C3  OXE d   1       1.049  -1.934  -0.069  0.00  0.00     0.003 A 
ATOM      6  C4  OXE d   1      -0.334  -1.782   0.083  0.00  0.00    -0.002 A 
ATOM      7  C5  OXE d   1      -0.851  -0.796   0.929  0.00  0.00    -0.002 A 
ATOM      8  C6  OXE d   1       0.023   0.032   1.625  0.00  0.00     0.003 A 
ENDROOT
TORSDOF 0
ENDMDL
