MODEL 1
REMARK minimizedAffinity 2.07777333
REMARK minimizedRMSD -1
REMARK  0 active torsions:
REMARK  status: ('A' for Active; 'I' for Inactive)
ROOT
ATOM      1  C2' OXE d   1       5.897  -2.631   5.223  0.00  0.00     0.078 C 
ATOM      2  C1' OXE d   1       4.889  -5.133   5.999  0.00  0.00     0.078 C 
ATOM      3  C1  OXE d   1       4.941  -4.823   4.524  0.00  0.00    -0.078 A 
ATOM      4  C2  OXE d   1       5.392  -3.578   4.156  0.00  0.00    -0.078 A 
ATOM      5  C3  OXE d   1       5.511  -3.260   2.806  0.00  0.00     0.003 A 
ATOM      6  C4  OXE d   1       5.033  -4.138   1.826  0.00  0.00    -0.002 A 
ATOM      7  C5  OXE d   1       4.533  -5.395   2.182  0.00  0.00    -0.002 A 
ATOM      8  C6  OXE d   1       4.520  -5.769   3.521  0.00  0.00     0.003 A 
ENDROOT
TORSDOF 0
ENDMDL
