MODEL 1
REMARK minimizedAffinity 9.36606216
REMARK minimizedRMSD -1
REMARK  0 active torsions:
REMARK  status: ('A' for Active; 'I' for Inactive)
ROOT
ATOM      1  C2' OXE d   1       2.637  -2.729   0.476  0.00  0.00     0.078 C 
ATOM      2  C1' OXE d   1       5.185  -1.571   0.255  0.00  0.00     0.078 C 
ATOM      3  C1  OXE d   1       3.986  -0.672   0.083  0.00  0.00    -0.078 A 
ATOM      4  C2  OXE d   1       2.744  -1.256   0.147  0.00  0.00    -0.078 A 
ATOM      5  C3  OXE d   1       1.604  -0.463   0.049  0.00  0.00     0.003 A 
ATOM      6  C4  OXE d   1       1.711   0.897  -0.266  0.00  0.00    -0.002 A 
ATOM      7  C5  OXE d   1       2.967   1.504  -0.374  0.00  0.00    -0.002 A 
ATOM      8  C6  OXE d   1       4.112   0.744  -0.160  0.00  0.00     0.003 A 
ENDROOT
TORSDOF 0
ENDMDL
