MODEL 1
REMARK minimizedAffinity -1.16490352
REMARK minimizedRMSD -1
REMARK  0 active torsions:
REMARK  status: ('A' for Active; 'I' for Inactive)
ROOT
ATOM      1  C2' OXE d   1      -5.233   0.574  -6.000  0.00  0.00     0.078 C 
ATOM      2  C1' OXE d   1      -2.599   1.493  -5.687  0.00  0.00     0.078 C 
ATOM      3  C1  OXE d   1      -3.079   0.404  -4.760  0.00  0.00    -0.078 A 
ATOM      4  C2  OXE d   1      -4.384  -0.007  -4.890  0.00  0.00    -0.078 A 
ATOM      5  C3  OXE d   1      -4.862  -1.046  -4.097  0.00  0.00     0.003 A 
ATOM      6  C4  OXE d   1      -4.073  -1.571  -3.065  0.00  0.00    -0.002 A 
ATOM      7  C5  OXE d   1      -2.754  -1.139  -2.890  0.00  0.00    -0.002 A 
ATOM      8  C6  OXE d   1      -2.229  -0.184  -3.754  0.00  0.00     0.003 A 
ENDROOT
TORSDOF 0
ENDMDL
