MODEL 1
REMARK minimizedAffinity 4.21858215
REMARK minimizedRMSD -1
REMARK  0 active torsions:
REMARK  status: ('A' for Active; 'I' for Inactive)
ROOT
ATOM      1  C2' OXE d   1       4.739  -4.382   1.710  0.00  0.00     0.078 C 
ATOM      2  C1' OXE d   1       6.000  -2.220   0.439  0.00  0.00     0.078 C 
ATOM      3  C1  OXE d   1       4.497  -2.186   0.559  0.00  0.00    -0.078 A 
ATOM      4  C2  OXE d   1       3.884  -3.270   1.140  0.00  0.00    -0.078 A 
ATOM      5  C3  OXE d   1       2.505  -3.265   1.325  0.00  0.00     0.003 A 
ATOM      6  C4  OXE d   1       1.721  -2.237   0.786  0.00  0.00    -0.002 A 
ATOM      7  C5  OXE d   1       2.322  -1.143   0.155  0.00  0.00    -0.002 A 
ATOM      8  C6  OXE d   1       3.708  -1.081   0.071  0.00  0.00     0.003 A 
ENDROOT
TORSDOF 0
ENDMDL
