MODEL 1
REMARK minimizedAffinity -3.09691811
REMARK minimizedRMSD -1
REMARK  0 active torsions:
REMARK  status: ('A' for Active; 'I' for Inactive)
ROOT
ATOM      1  C2' OXE d   1       4.448  -3.464   3.752  0.00  0.00     0.078 C 
ATOM      2  C1' OXE d   1       5.228  -3.556   1.057  0.00  0.00     0.078 C 
ATOM      3  C1  OXE d   1       3.937  -2.852   1.392  0.00  0.00    -0.078 A 
ATOM      4  C2  OXE d   1       3.540  -2.852   2.707  0.00  0.00    -0.078 A 
ATOM      5  C3  OXE d   1       2.385  -2.170   3.079  0.00  0.00     0.003 A 
ATOM      6  C4  OXE d   1       1.545  -1.615   2.105  0.00  0.00    -0.002 A 
ATOM      7  C5  OXE d   1       1.911  -1.638   0.755  0.00  0.00    -0.002 A 
ATOM      8  C6  OXE d   1       3.122  -2.214   0.387  0.00  0.00     0.003 A 
ENDROOT
TORSDOF 0
ENDMDL
