MODEL 1
REMARK minimizedAffinity 7.05132008
REMARK minimizedRMSD -1
REMARK  0 active torsions:
REMARK  status: ('A' for Active; 'I' for Inactive)
ROOT
ATOM      1  C2' OXE d   1       5.249  -3.017   5.735  0.00  0.00     0.078 C 
ATOM      2  C1' OXE d   1       4.890  -5.789   6.000  0.00  0.00     0.078 C 
ATOM      3  C1  OXE d   1       4.780  -5.194   4.618  0.00  0.00    -0.078 A 
ATOM      4  C2  OXE d   1       4.911  -3.831   4.504  0.00  0.00    -0.078 A 
ATOM      5  C3  OXE d   1       4.872  -3.237   3.246  0.00  0.00     0.003 A 
ATOM      6  C4  OXE d   1       4.549  -3.996   2.114  0.00  0.00    -0.002 A 
ATOM      7  C5  OXE d   1       4.373  -5.380   2.214  0.00  0.00    -0.002 A 
ATOM      8  C6  OXE d   1       4.527  -5.999   3.449  0.00  0.00     0.003 A 
ENDROOT
TORSDOF 0
ENDMDL
