MODEL 1
REMARK minimizedAffinity 0.628678203
REMARK minimizedRMSD -1
REMARK  0 active torsions:
REMARK  status: ('A' for Active; 'I' for Inactive)
ROOT
ATOM      1  C2' OXE d   1       3.414   0.009  -0.220  0.00  0.00     0.078 C 
ATOM      2  C1' OXE d   1       1.747  -2.161   0.407  0.00  0.00     0.078 C 
ATOM      3  C1  OXE d   1       3.235  -2.347   0.568  0.00  0.00    -0.078 A 
ATOM      4  C2  OXE d   1       4.046  -1.296   0.214  0.00  0.00    -0.078 A 
ATOM      5  C3  OXE d   1       5.423  -1.396   0.395  0.00  0.00     0.003 A 
ATOM      6  C4  OXE d   1       6.000  -2.609   0.788  0.00  0.00    -0.002 A 
ATOM      7  C5  OXE d   1       5.194  -3.706   1.115  0.00  0.00    -0.002 A 
ATOM      8  C6  OXE d   1       3.811  -3.578   1.051  0.00  0.00     0.003 A 
ENDROOT
TORSDOF 0
ENDMDL
