MODEL 1
REMARK minimizedAffinity -1.28901219
REMARK minimizedRMSD -1
REMARK  0 active torsions:
REMARK  status: ('A' for Active; 'I' for Inactive)
ROOT
ATOM      1  C2' OXE d   1      -4.942   1.429  -5.984  0.00  0.00     0.078 C 
ATOM      2  C1' OXE d   1      -2.215   0.761  -5.997  0.00  0.00     0.078 C 
ATOM      3  C1  OXE d   1      -3.121   0.002  -5.060  0.00  0.00    -0.078 A 
ATOM      4  C2  OXE d   1      -4.445   0.367  -5.026  0.00  0.00    -0.078 A 
ATOM      5  C3  OXE d   1      -5.335  -0.337  -4.220  0.00  0.00     0.003 A 
ATOM      6  C4  OXE d   1      -4.866  -1.311  -3.330  0.00  0.00    -0.002 A 
ATOM      7  C5  OXE d   1      -3.514  -1.671  -3.319  0.00  0.00    -0.002 A 
ATOM      8  C6  OXE d   1      -2.638  -1.056  -4.206  0.00  0.00     0.003 A 
ENDROOT
TORSDOF 0
ENDMDL
