MODEL 1
REMARK minimizedAffinity 2.10380292
REMARK minimizedRMSD -1
REMARK  0 active torsions:
REMARK  status: ('A' for Active; 'I' for Inactive)
ROOT
ATOM      1  C2' OXE d   1      -2.600   5.846   5.958  0.00  0.00     0.078 C 
ATOM      2  C1' OXE d   1      -2.465   4.581   3.455  0.00  0.00     0.078 C 
ATOM      3  C1  OXE d   1      -1.168   4.989   4.109  0.00  0.00    -0.078 A 
ATOM      4  C2  OXE d   1      -1.246   5.649   5.311  0.00  0.00    -0.078 A 
ATOM      5  C3  OXE d   1      -0.078   5.998   5.983  0.00  0.00     0.003 A 
ATOM      6  C4  OXE d   1       1.170   5.821   5.374  0.00  0.00    -0.002 A 
ATOM      7  C5  OXE d   1       1.270   5.186   4.131  0.00  0.00    -0.002 A 
ATOM      8  C6  OXE d   1       0.116   4.727   3.506  0.00  0.00     0.003 A 
ENDROOT
TORSDOF 0
ENDMDL
