MODEL 1
REMARK minimizedAffinity -0.174690604
REMARK minimizedRMSD -1
REMARK  0 active torsions:
REMARK  status: ('A' for Active; 'I' for Inactive)
ROOT
ATOM      1  C2' OXE d   1      -1.651   0.950  -5.487  0.00  0.00     0.078 C 
ATOM      2  C1' OXE d   1      -2.024  -1.501  -4.171  0.00  0.00     0.078 C 
ATOM      3  C1  OXE d   1      -3.252  -0.726  -4.575  0.00  0.00    -0.078 A 
ATOM      4  C2  OXE d   1      -3.060   0.494  -5.177  0.00  0.00    -0.078 A 
ATOM      5  C3  OXE d   1      -4.159   1.225  -5.620  0.00  0.00     0.003 A 
ATOM      6  C4  OXE d   1      -5.460   0.801  -5.321  0.00  0.00    -0.002 A 
ATOM      7  C5  OXE d   1      -5.677  -0.420  -4.673  0.00  0.00    -0.002 A 
ATOM      8  C6  OXE d   1      -4.588  -1.214  -4.333  0.00  0.00     0.003 A 
ENDROOT
TORSDOF 0
ENDMDL
