MODEL 1
REMARK minimizedAffinity -3.57373071
REMARK minimizedRMSD -1
REMARK  1 active torsions:
REMARK  status: ('A' for Active; 'I' for Inactive)
REMARK    1  A    between atoms: N_2  and  C1_3 
ROOT
ATOM      1  C1  UNL d   1       0.437  -0.176  -0.002  0.00  0.00     0.143 A 
ATOM      2  C2  UNL d   1       1.549  -0.594   0.737  0.00  0.00    -0.057 A 
ATOM      3  C3  UNL d   1       1.851  -1.952   0.889  0.00  0.00     0.033 A 
ATOM      4  C4  UNL d   1       1.026  -2.921   0.327  0.00  0.00    -0.042 A 
ATOM      5  C5  UNL d   1      -0.099  -2.530  -0.390  0.00  0.00     0.033 A 
ATOM      6  C6  UNL d   1      -0.391  -1.172  -0.544  0.00  0.00    -0.057 A 
ENDROOT
BRANCH   1   7
ATOM      7  N   UNL d   1       0.028   1.156  -0.107  0.00  0.00    -0.732 N 
ATOM      8  C   UNL d   1      -1.215   1.496  -0.764  0.00  0.00     0.284 C 
ATOM      9  H3  UNL d   1       0.207   1.685   0.743  0.00  0.00     0.395 HD
ENDBRANCH   1   7
TORSDOF 1
ENDMDL
