MODEL 1
REMARK minimizedAffinity -4.29617453
REMARK minimizedRMSD -1
REMARK  1 active torsions:
REMARK  status: ('A' for Active; 'I' for Inactive)
REMARK    1  A    between atoms: N_2  and  C1_3 
ROOT
ATOM      1  C1  UNL d   1       0.129   0.121   0.156  0.00  0.00     0.143 A 
ATOM      2  C2  UNL d   1       1.212  -0.066  -0.709  0.00  0.00    -0.057 A 
ATOM      3  C3  UNL d   1       2.055  -1.177  -0.589  0.00  0.00     0.033 A 
ATOM      4  C4  UNL d   1       1.847  -2.110   0.422  0.00  0.00    -0.042 A 
ATOM      5  C5  UNL d   1       0.791  -1.931   1.310  0.00  0.00     0.033 A 
ATOM      6  C6  UNL d   1      -0.051  -0.823   1.180  0.00  0.00    -0.057 A 
ENDROOT
BRANCH   1   7
ATOM      7  N   UNL d   1      -0.685   1.255   0.149  0.00  0.00    -0.732 N 
ATOM      8  C   UNL d   1      -1.399   1.643  -1.048  0.00  0.00     0.284 C 
ATOM      9  H3  UNL d   1      -1.227   1.350   1.005  0.00  0.00     0.395 HD
ENDBRANCH   1   7
TORSDOF 1
ENDMDL
