MODEL 1
REMARK minimizedAffinity -4.33846235
REMARK minimizedRMSD -1
REMARK  1 active torsions:
REMARK  status: ('A' for Active; 'I' for Inactive)
REMARK    1  A    between atoms: N_2  and  C1_3 
ROOT
ATOM      1  C1  UNL d   1      -0.070  -0.381   0.231  0.00  0.00     0.143 A 
ATOM      2  C2  UNL d   1       1.280  -0.425  -0.134  0.00  0.00    -0.057 A 
ATOM      3  C3  UNL d   1       2.042  -1.587   0.039  0.00  0.00     0.033 A 
ATOM      4  C4  UNL d   1       1.472  -2.721   0.610  0.00  0.00    -0.042 A 
ATOM      5  C5  UNL d   1       0.139  -2.692   1.004  0.00  0.00     0.033 A 
ATOM      6  C6  UNL d   1      -0.618  -1.531   0.822  0.00  0.00    -0.057 A 
ENDROOT
BRANCH   1   7
ATOM      7  N   UNL d   1      -0.854   0.774   0.176  0.00  0.00    -0.732 N 
ATOM      8  C   UNL d   1      -1.192   1.374  -1.097  0.00  0.00     0.284 C 
ATOM      9  H3  UNL d   1      -1.621   0.755   0.843  0.00  0.00     0.395 HD
ENDBRANCH   1   7
TORSDOF 1
ENDMDL
