MODEL 1
REMARK minimizedAffinity -5.36721992
REMARK minimizedRMSD -1
REMARK  1 active torsions:
REMARK  status: ('A' for Active; 'I' for Inactive)
REMARK    1  A    between atoms: N_2  and  C1_3 
ROOT
ATOM      1  C1  UNL d   1      -0.040  -0.241   0.530  0.00  0.00     0.143 A 
ATOM      2  C2  UNL d   1       1.315  -0.467   0.269  0.00  0.00    -0.057 A 
ATOM      3  C3  UNL d   1       1.998  -1.541   0.853  0.00  0.00     0.033 A 
ATOM      4  C4  UNL d   1       1.341  -2.394   1.734  0.00  0.00    -0.042 A 
ATOM      5  C5  UNL d   1       0.000  -2.173   2.028  0.00  0.00     0.033 A 
ATOM      6  C6  UNL d   1      -0.678  -1.103   1.436  0.00  0.00    -0.057 A 
ENDROOT
BRANCH   1   7
ATOM      7  N   UNL d   1      -0.749   0.866   0.057  0.00  0.00    -0.732 N 
ATOM      8  C   UNL d   1      -0.420   1.462  -1.220  0.00  0.00     0.284 C 
ATOM      9  H3  UNL d   1      -1.748   0.793   0.237  0.00  0.00     0.395 HD
ENDBRANCH   1   7
TORSDOF 1
ENDMDL
