MODEL 1
REMARK minimizedAffinity -5.05546713
REMARK minimizedRMSD -1
REMARK  1 active torsions:
REMARK  status: ('A' for Active; 'I' for Inactive)
REMARK    1  A    between atoms: N_2  and  C1_3 
ROOT
ATOM      1  C1  UNL d   1       0.080   0.011  -0.106  0.00  0.00     0.143 A 
ATOM      2  C2  UNL d   1       1.403  -0.164  -0.525  0.00  0.00    -0.057 A 
ATOM      3  C3  UNL d   1       2.119  -1.324  -0.206  0.00  0.00     0.033 A 
ATOM      4  C4  UNL d   1       1.530  -2.322   0.565  0.00  0.00    -0.042 A 
ATOM      5  C5  UNL d   1       0.224  -2.158   1.013  0.00  0.00     0.033 A 
ATOM      6  C6  UNL d   1      -0.487  -1.000   0.686  0.00  0.00    -0.057 A 
ENDROOT
BRANCH   1   7
ATOM      7  N   UNL d   1      -0.652   1.184  -0.307  0.00  0.00    -0.732 N 
ATOM      8  C   UNL d   1      -1.558   1.671   0.710  0.00  0.00     0.284 C 
ATOM      9  H3  UNL d   1      -0.101   1.912  -0.757  0.00  0.00     0.395 HD
ENDBRANCH   1   7
TORSDOF 1
ENDMDL
