MODEL 1
REMARK minimizedAffinity -1.0401417
REMARK minimizedRMSD -1
REMARK  1 active torsions:
REMARK  status: ('A' for Active; 'I' for Inactive)
REMARK    1  A    between atoms: N_2  and  C1_3 
ROOT
ATOM      1  C1  UNL d   1      -0.018   0.302   0.426  0.00  0.00     0.143 A 
ATOM      2  C2  UNL d   1      -0.125  -0.733   1.361  0.00  0.00    -0.057 A 
ATOM      3  C3  UNL d   1       0.898  -1.675   1.523  0.00  0.00     0.033 A 
ATOM      4  C4  UNL d   1       2.039  -1.615   0.728  0.00  0.00    -0.042 A 
ATOM      5  C5  UNL d   1       2.155  -0.610  -0.225  0.00  0.00     0.033 A 
ATOM      6  C6  UNL d   1       1.133   0.332  -0.377  0.00  0.00    -0.057 A 
ENDROOT
BRANCH   1   7
ATOM      7  N   UNL d   1      -1.044   1.209   0.150  0.00  0.00    -0.732 N 
ATOM      8  C   UNL d   1      -1.327   1.609  -1.212  0.00  0.00     0.284 C 
ATOM      9  H3  UNL d   1      -1.873   1.043   0.715  0.00  0.00     0.395 HD
ENDBRANCH   1   7
TORSDOF 1
ENDMDL
