MODEL 1
REMARK minimizedAffinity -2.9548595
REMARK minimizedRMSD -1
REMARK  1 active torsions:
REMARK  status: ('A' for Active; 'I' for Inactive)
REMARK    1  A    between atoms: N_2  and  C1_3 
ROOT
ATOM      1  C1  UNL d   1       0.359  -1.216   0.593  0.00  0.00     0.143 A 
ATOM      2  C2  UNL d   1      -0.880  -0.695   0.980  0.00  0.00    -0.057 A 
ATOM      3  C3  UNL d   1      -1.300   0.572   0.555  0.00  0.00     0.033 A 
ATOM      4  C4  UNL d   1      -0.472   1.353  -0.244  0.00  0.00    -0.042 A 
ATOM      5  C5  UNL d   1       0.774   0.865  -0.621  0.00  0.00     0.033 A 
ATOM      6  C6  UNL d   1       1.184  -0.403  -0.199  0.00  0.00    -0.057 A 
ENDROOT
BRANCH   1   7
ATOM      7  N   UNL d   1       0.874  -2.427   1.062  0.00  0.00    -0.732 N 
ATOM      8  C   UNL d   1       2.056  -2.451   1.897  0.00  0.00     0.284 C 
ATOM      9  H3  UNL d   1       0.144  -3.072   1.356  0.00  0.00     0.395 HD
ENDBRANCH   1   7
TORSDOF 1
ENDMDL
