MODEL 1
REMARK minimizedAffinity -5.07355165
REMARK minimizedRMSD -1
REMARK  1 active torsions:
REMARK  status: ('A' for Active; 'I' for Inactive)
REMARK    1  A    between atoms: N_2  and  C1_3 
ROOT
ATOM      1  C1  UNL d   1       0.338  -0.950   0.298  0.00  0.00     0.143 A 
ATOM      2  C2  UNL d   1       1.338  -1.929   0.305  0.00  0.00    -0.057 A 
ATOM      3  C3  UNL d   1       1.470  -2.823   1.373  0.00  0.00     0.033 A 
ATOM      4  C4  UNL d   1       0.621  -2.735   2.471  0.00  0.00    -0.042 A 
ATOM      5  C5  UNL d   1      -0.363  -1.754   2.498  0.00  0.00     0.033 A 
ATOM      6  C6  UNL d   1      -0.495  -0.868   1.424  0.00  0.00    -0.057 A 
ENDROOT
BRANCH   1   7
ATOM      7  N   UNL d   1       0.218   0.032  -0.690  0.00  0.00    -0.732 N 
ATOM      8  C   UNL d   1      -0.728   1.117  -0.538  0.00  0.00     0.284 C 
ATOM      9  H3  UNL d   1       1.118   0.315  -1.068  0.00  0.00     0.395 HD
ENDBRANCH   1   7
TORSDOF 1
ENDMDL
