MODEL 1
REMARK minimizedAffinity -3.62950826
REMARK minimizedRMSD -1
REMARK  1 active torsions:
REMARK  status: ('A' for Active; 'I' for Inactive)
REMARK    1  A    between atoms: N_2  and  C1_3 
ROOT
ATOM      1  C1  UNL d   1       0.498  -0.966   0.594  0.00  0.00     0.143 A 
ATOM      2  C2  UNL d   1       1.482  -1.955   0.686  0.00  0.00    -0.057 A 
ATOM      3  C3  UNL d   1       1.479  -2.887   1.731  0.00  0.00     0.033 A 
ATOM      4  C4  UNL d   1       0.504  -2.827   2.722  0.00  0.00    -0.042 A 
ATOM      5  C5  UNL d   1      -0.470  -1.837   2.663  0.00  0.00     0.033 A 
ATOM      6  C6  UNL d   1      -0.465  -0.913   1.614  0.00  0.00    -0.057 A 
ENDROOT
BRANCH   1   7
ATOM      7  N   UNL d   1       0.503   0.050  -0.366  0.00  0.00    -0.732 N 
ATOM      8  C   UNL d   1      -0.549   1.043  -0.394  0.00  0.00     0.284 C 
ATOM      9  H3  UNL d   1       1.435   0.426  -0.527  0.00  0.00     0.395 HD
ENDBRANCH   1   7
TORSDOF 1
ENDMDL
