MODEL 1
REMARK minimizedAffinity -5.13872194
REMARK minimizedRMSD -1
REMARK  1 active torsions:
REMARK  status: ('A' for Active; 'I' for Inactive)
REMARK    1  A    between atoms: N_2  and  C1_3 
ROOT
ATOM      1  C1  UNL d   1       0.005  -0.755   0.229  0.00  0.00     0.143 A 
ATOM      2  C2  UNL d   1       1.104  -1.595   0.019  0.00  0.00    -0.057 A 
ATOM      3  C3  UNL d   1       1.469  -2.562   0.964  0.00  0.00     0.033 A 
ATOM      4  C4  UNL d   1       0.757  -2.687   2.152  0.00  0.00    -0.042 A 
ATOM      5  C5  UNL d   1      -0.324  -1.846   2.392  0.00  0.00     0.033 A 
ATOM      6  C6  UNL d   1      -0.688  -0.887   1.443  0.00  0.00    -0.057 A 
ENDROOT
BRANCH   1   7
ATOM      7  N   UNL d   1      -0.349   0.291  -0.627  0.00  0.00    -0.732 N 
ATOM      8  C   UNL d   1      -1.021   1.466  -0.115  0.00  0.00     0.284 C 
ATOM      9  H3  UNL d   1       0.374   0.492  -1.314  0.00  0.00     0.395 HD
ENDBRANCH   1   7
TORSDOF 1
ENDMDL
