MODEL 1
REMARK minimizedAffinity -4.74830198
REMARK minimizedRMSD -1
REMARK  1 active torsions:
REMARK  status: ('A' for Active; 'I' for Inactive)
REMARK    1  A    between atoms: N_2  and  C1_3 
ROOT
ATOM      1  C1  UNL d   1       0.072  -0.184   0.018  0.00  0.00     0.143 A 
ATOM      2  C2  UNL d   1       1.461  -0.189  -0.142  0.00  0.00    -0.057 A 
ATOM      3  C3  UNL d   1       2.227  -1.313   0.193  0.00  0.00     0.033 A 
ATOM      4  C4  UNL d   1       1.617  -2.445   0.721  0.00  0.00    -0.042 A 
ATOM      5  C5  UNL d   1       0.239  -2.454   0.911  0.00  0.00     0.033 A 
ATOM      6  C6  UNL d   1      -0.520  -1.331   0.569  0.00  0.00    -0.057 A 
ENDROOT
BRANCH   1   7
ATOM      7  N   UNL d   1      -0.733   0.936  -0.204  0.00  0.00    -0.732 N 
ATOM      8  C   UNL d   1      -1.615   0.996  -1.350  0.00  0.00     0.284 C 
ATOM      9  H3  UNL d   1      -1.143   1.296   0.655  0.00  0.00     0.395 HD
ENDBRANCH   1   7
TORSDOF 1
ENDMDL
