MODEL 1
REMARK minimizedAffinity -6.07855797
REMARK minimizedRMSD -1
REMARK  2 active torsions:
REMARK  status: ('A' for Active; 'I' for Inactive)
REMARK    1  A    between atoms: C1_2  and  C2_3 
REMARK    2  A    between atoms: C2_3  and  C3_4 
ROOT
ATOM      1  C3  UNL d   1       0.216  -0.046  -0.423  0.00  0.00    -0.075 A 
ATOM      2  C4  UNL d   1       0.870   1.124  -0.008  0.00  0.00     0.002 A 
ATOM      3  C5  UNL d   1       2.196   1.079   0.424  0.00  0.00     0.002 A 
ATOM      4  C6  UNL d   1       2.881  -0.133   0.456  0.00  0.00    -0.004 A 
ATOM      5  C7  UNL d   1       2.236  -1.304   0.061  0.00  0.00     0.002 A 
ATOM      6  C8  UNL d   1       0.911  -1.262  -0.376  0.00  0.00     0.002 A 
ENDROOT
BRANCH   1   7
ATOM      7  C2  UNL d   1      -1.209   0.000  -0.920  0.00  0.00     0.056 C 
BRANCH   7   8
ATOM      8  C1  UNL d   1      -1.421  -0.690  -2.271  0.00  0.00     0.007 C 
ATOM      9  C   UNL d   1      -2.155   0.182  -3.282  0.00  0.00     0.009 C 
ENDBRANCH   7   8
ENDBRANCH   1   7
TORSDOF 2
ENDMDL
