MODEL 1
REMARK minimizedAffinity -5.02921963
REMARK minimizedRMSD -1
REMARK  2 active torsions:
REMARK  status: ('A' for Active; 'I' for Inactive)
REMARK    1  A    between atoms: C1_2  and  C2_3 
REMARK    2  A    between atoms: C2_3  and  C3_4 
ROOT
ATOM      1  C3  UNL d   1      -0.222   0.045   0.083  0.00  0.00    -0.075 A 
ATOM      2  C4  UNL d   1       0.320   1.302  -0.225  0.00  0.00     0.002 A 
ATOM      3  C5  UNL d   1       1.633   1.613   0.129  0.00  0.00     0.002 A 
ATOM      4  C6  UNL d   1       2.416   0.678   0.803  0.00  0.00    -0.004 A 
ATOM      5  C7  UNL d   1       1.883  -0.567   1.129  0.00  0.00     0.002 A 
ATOM      6  C8  UNL d   1       0.571  -0.883   0.772  0.00  0.00     0.002 A 
ENDROOT
BRANCH   1   7
ATOM      7  C2  UNL d   1      -1.632  -0.309  -0.323  0.00  0.00     0.056 C 
BRANCH   7   8
ATOM      8  C1  UNL d   1      -2.107   0.389  -1.602  0.00  0.00     0.007 C 
ATOM      9  C   UNL d   1      -2.362  -0.575  -2.753  0.00  0.00     0.009 C 
ENDBRANCH   7   8
ENDBRANCH   1   7
TORSDOF 2
ENDMDL
