MODEL 1
REMARK minimizedAffinity -6.01685476
REMARK minimizedRMSD -1
REMARK  2 active torsions:
REMARK  status: ('A' for Active; 'I' for Inactive)
REMARK    1  A    between atoms: C1_2  and  C2_3 
REMARK    2  A    between atoms: C2_3  and  C3_4 
ROOT
ATOM      1  C3  UNL d   1       0.016   0.125  -0.091  0.00  0.00    -0.075 A 
ATOM      2  C4  UNL d   1       0.918   1.192   0.025  0.00  0.00     0.002 A 
ATOM      3  C5  UNL d   1       2.218   0.975   0.483  0.00  0.00     0.002 A 
ATOM      4  C6  UNL d   1       2.629  -0.308   0.839  0.00  0.00    -0.004 A 
ATOM      5  C7  UNL d   1       1.737  -1.373   0.743  0.00  0.00     0.002 A 
ATOM      6  C8  UNL d   1       0.437  -1.159   0.281  0.00  0.00     0.002 A 
ENDROOT
BRANCH   1   7
ATOM      7  C2  UNL d   1      -1.383   0.349  -0.613  0.00  0.00     0.056 C 
BRANCH   7   8
ATOM      8  C1  UNL d   1      -1.716  -0.461  -1.871  0.00  0.00     0.007 C 
ATOM      9  C   UNL d   1      -2.581   0.303  -2.865  0.00  0.00     0.009 C 
ENDBRANCH   7   8
ENDBRANCH   1   7
TORSDOF 2
ENDMDL
