MODEL 1
REMARK minimizedAffinity -5.94970322
REMARK minimizedRMSD -1
REMARK  2 active torsions:
REMARK  status: ('A' for Active; 'I' for Inactive)
REMARK    1  A    between atoms: C1_2  and  C2_3 
REMARK    2  A    between atoms: C2_3  and  C3_4 
ROOT
ATOM      1  C3  UNL d   1       0.760  -0.336   0.441  0.00  0.00    -0.075 A 
ATOM      2  C4  UNL d   1       0.550  -1.577   1.059  0.00  0.00     0.002 A 
ATOM      3  C5  UNL d   1       1.550  -2.158   1.840  0.00  0.00     0.002 A 
ATOM      4  C6  UNL d   1       2.773  -1.511   2.005  0.00  0.00    -0.004 A 
ATOM      5  C7  UNL d   1       2.998  -0.285   1.383  0.00  0.00     0.002 A 
ATOM      6  C8  UNL d   1       1.998   0.300   0.604  0.00  0.00     0.002 A 
ENDROOT
BRANCH   1   7
ATOM      7  C2  UNL d   1      -0.328   0.311  -0.382  0.00  0.00     0.056 C 
BRANCH   7   8
ATOM      8  C1  UNL d   1      -1.624  -0.504  -0.454  0.00  0.00     0.007 C 
ATOM      9  C   UNL d   1      -2.486  -0.156  -1.660  0.00  0.00     0.009 C 
ENDBRANCH   7   8
ENDBRANCH   1   7
TORSDOF 2
ENDMDL
