MODEL 1
REMARK minimizedAffinity -4.61312914
REMARK minimizedRMSD -1
REMARK  2 active torsions:
REMARK  status: ('A' for Active; 'I' for Inactive)
REMARK    1  A    between atoms: C1_2  and  C2_3 
REMARK    2  A    between atoms: C2_3  and  C3_4 
ROOT
ATOM      1  C3  UNL d   1      -2.424  -0.474  -1.212  0.00  0.00    -0.075 A 
ATOM      2  C4  UNL d   1      -3.069   0.637  -1.777  0.00  0.00     0.002 A 
ATOM      3  C5  UNL d   1      -3.766   0.515  -2.980  0.00  0.00     0.002 A 
ATOM      4  C6  UNL d   1      -3.820  -0.713  -3.636  0.00  0.00    -0.004 A 
ATOM      5  C7  UNL d   1      -3.170  -1.819  -3.092  0.00  0.00     0.002 A 
ATOM      6  C8  UNL d   1      -2.475  -1.701  -1.887  0.00  0.00     0.002 A 
ENDROOT
BRANCH   1   7
ATOM      7  C2  UNL d   1      -1.693  -0.355   0.104  0.00  0.00     0.056 C 
BRANCH   7   8
ATOM      8  C1  UNL d   1      -0.209  -0.728   0.028  0.00  0.00     0.007 C 
ATOM      9  C   UNL d   1       0.717   0.480   0.079  0.00  0.00     0.009 C 
ENDBRANCH   7   8
ENDBRANCH   1   7
TORSDOF 2
ENDMDL
