MODEL 1
REMARK minimizedAffinity -6.10280895
REMARK minimizedRMSD -1
REMARK  2 active torsions:
REMARK  status: ('A' for Active; 'I' for Inactive)
REMARK    1  A    between atoms: C1_2  and  C2_3 
REMARK    2  A    between atoms: C2_3  and  C3_4 
ROOT
ATOM      1  C3  UNL d   1       0.365  -0.240   0.270  0.00  0.00    -0.075 A 
ATOM      2  C4  UNL d   1       0.847  -1.449   0.793  0.00  0.00     0.002 A 
ATOM      3  C5  UNL d   1       2.136  -1.529   1.320  0.00  0.00     0.002 A 
ATOM      4  C6  UNL d   1       2.962  -0.407   1.322  0.00  0.00    -0.004 A 
ATOM      5  C7  UNL d   1       2.500   0.794   0.790  0.00  0.00     0.002 A 
ATOM      6  C8  UNL d   1       1.209   0.879   0.266  0.00  0.00     0.002 A 
ENDROOT
BRANCH   1   7
ATOM      7  C2  UNL d   1      -1.040  -0.139  -0.275  0.00  0.00     0.056 C 
BRANCH   7   8
ATOM      8  C1  UNL d   1      -1.213  -0.750  -1.669  0.00  0.00     0.007 C 
ATOM      9  C   UNL d   1      -2.410  -0.190  -2.426  0.00  0.00     0.009 C 
ENDBRANCH   7   8
ENDBRANCH   1   7
TORSDOF 2
ENDMDL
