MODEL 1
REMARK minimizedAffinity -4.77582121
REMARK minimizedRMSD -1
REMARK  2 active torsions:
REMARK  status: ('A' for Active; 'I' for Inactive)
REMARK    1  A    between atoms: C1_2  and  C2_3 
REMARK    2  A    between atoms: C2_3  and  C3_4 
ROOT
ATOM      1  C3  UNL d   1      -0.068   0.064  -0.180  0.00  0.00    -0.075 A 
ATOM      2  C4  UNL d   1       0.553  -1.134   0.201  0.00  0.00     0.002 A 
ATOM      3  C5  UNL d   1       1.855  -1.128   0.703  0.00  0.00     0.002 A 
ATOM      4  C6  UNL d   1       2.554   0.071   0.821  0.00  0.00    -0.004 A 
ATOM      5  C7  UNL d   1       1.953   1.265   0.430  0.00  0.00     0.002 A 
ATOM      6  C8  UNL d   1       0.649   1.263  -0.069  0.00  0.00     0.002 A 
ENDROOT
BRANCH   1   7
ATOM      7  C2  UNL d   1      -1.487   0.068  -0.696  0.00  0.00     0.056 C 
BRANCH   7   8
ATOM      8  C1  UNL d   1      -1.678  -0.710  -2.002  0.00  0.00     0.007 C 
ATOM      9  C   UNL d   1      -2.353   0.107  -3.095  0.00  0.00     0.009 C 
ENDBRANCH   7   8
ENDBRANCH   1   7
TORSDOF 2
ENDMDL
