MODEL 1
REMARK minimizedAffinity 7.9607749
REMARK minimizedRMSD -1
REMARK  0 active torsions:
REMARK  status: ('A' for Active; 'I' for Inactive)
ROOT
ATOM      1  O1  BZF d   1      -1.797  -0.112   2.133  0.00  0.00    -0.204 OA
ATOM      2  C2  BZF d   1      -1.708   0.226   0.796  0.00  0.00     0.174 A 
ATOM      3  C3  BZF d   1      -0.429   0.165   0.371  0.00  0.00    -0.012 A 
ATOM      4  C3A BZF d   1       0.316  -0.325   1.490  0.00  0.00    -0.107 A 
ATOM      5  C4  BZF d   1       1.637  -0.614   1.685  0.00  0.00     0.055 A 
ATOM      6  C5  BZF d   1       2.053  -1.005   2.918  0.00  0.00    -0.016 A 
ATOM      7  C6  BZF d   1       1.178  -1.112   3.979  0.00  0.00     0.022 A 
ATOM      8  C7  BZF d   1      -0.142  -0.841   3.834  0.00  0.00     0.029 A 
ATOM      9  C7A BZF d   1      -0.571  -0.478   2.580  0.00  0.00     0.058 A 
ENDROOT
TORSDOF 0
ENDMDL
