MODEL 1
REMARK minimizedAffinity 9.39374352
REMARK minimizedRMSD -1
REMARK  0 active torsions:
REMARK  status: ('A' for Active; 'I' for Inactive)
ROOT
ATOM      1  O1  BZF d   1      -0.779  -1.633   1.615  0.00  0.00    -0.204 OA
ATOM      2  C2  BZF d   1       0.357  -1.410   2.369  0.00  0.00     0.174 A 
ATOM      3  C3  BZF d   1       0.679  -0.101   2.376  0.00  0.00    -0.012 A 
ATOM      4  C3A BZF d   1      -0.372   0.548   1.652  0.00  0.00    -0.107 A 
ATOM      5  C4  BZF d   1      -0.625   1.851   1.332  0.00  0.00     0.055 A 
ATOM      6  C5  BZF d   1      -1.699   2.143   0.552  0.00  0.00    -0.016 A 
ATOM      7  C6  BZF d   1      -2.536   1.157   0.072  0.00  0.00     0.022 A 
ATOM      8  C7  BZF d   1      -2.328  -0.149   0.367  0.00  0.00     0.029 A 
ATOM      9  C7A BZF d   1      -1.263  -0.444   1.182  0.00  0.00     0.058 A 
ENDROOT
TORSDOF 0
ENDMDL
