MODEL 1
REMARK minimizedAffinity 10.0151911
REMARK minimizedRMSD -1
REMARK  0 active torsions:
REMARK  status: ('A' for Active; 'I' for Inactive)
ROOT
ATOM      1  O1  BZF d   1       2.074  -0.176   2.269  0.00  0.00    -0.204 OA
ATOM      2  C2  BZF d   1       2.138  -1.413   2.879  0.00  0.00     0.174 A 
ATOM      3  C3  BZF d   1       0.912  -1.968   2.967  0.00  0.00    -0.012 A 
ATOM      4  C3A BZF d   1       0.038  -1.058   2.291  0.00  0.00    -0.107 A 
ATOM      5  C4  BZF d   1      -1.302  -1.063   2.029  0.00  0.00     0.055 A 
ATOM      6  C5  BZF d   1      -1.858   0.012   1.411  0.00  0.00    -0.016 A 
ATOM      7  C6  BZF d   1      -1.106   1.109   1.046  0.00  0.00     0.022 A 
ATOM      8  C7  BZF d   1       0.228   1.158   1.281  0.00  0.00     0.029 A 
ATOM      9  C7A BZF d   1       0.799   0.059   1.875  0.00  0.00     0.058 A 
ENDROOT
TORSDOF 0
ENDMDL
