MODEL 1
REMARK minimizedAffinity -4.60527468
REMARK minimizedRMSD -1
REMARK  0 active torsions:
REMARK  status: ('A' for Active; 'I' for Inactive)
ROOT
ATOM      1  O1  BZF d   1      -1.123  -2.444   4.238  0.00  0.00    -0.204 OA
ATOM      2  C2  BZF d   1       0.106  -2.792   4.763  0.00  0.00     0.174 A 
ATOM      3  C3  BZF d   1       1.087  -2.042   4.222  0.00  0.00    -0.012 A 
ATOM      4  C3A BZF d   1       0.420  -1.107   3.369  0.00  0.00    -0.107 A 
ATOM      5  C4  BZF d   1       0.854  -0.089   2.570  0.00  0.00     0.055 A 
ATOM      6  C5  BZF d   1      -0.048   0.586   1.810  0.00  0.00    -0.016 A 
ATOM      7  C6  BZF d   1      -1.390   0.266   1.821  0.00  0.00     0.022 A 
ATOM      8  C7  BZF d   1      -1.869  -0.733   2.601  0.00  0.00     0.029 A 
ATOM      9  C7A BZF d   1      -0.965  -1.395   3.395  0.00  0.00     0.058 A 
ENDROOT
TORSDOF 0
ENDMDL
