MODEL 1
REMARK minimizedAffinity 2.22998476
REMARK minimizedRMSD -1
REMARK  0 active torsions:
REMARK  status: ('A' for Active; 'I' for Inactive)
ROOT
ATOM      1  O1  BZF d   1      -0.366  -1.838   4.123  0.00  0.00    -0.204 OA
ATOM      2  C2  BZF d   1       0.897  -2.233   4.521  0.00  0.00     0.174 A 
ATOM      3  C3  BZF d   1       1.839  -1.709   3.711  0.00  0.00    -0.012 A 
ATOM      4  C3A BZF d   1       1.127  -0.865   2.802  0.00  0.00    -0.107 A 
ATOM      5  C4  BZF d   1       1.515  -0.060   1.769  0.00  0.00     0.055 A 
ATOM      6  C5  BZF d   1       0.564   0.574   1.033  0.00  0.00    -0.016 A 
ATOM      7  C6  BZF d   1      -0.781   0.422   1.299  0.00  0.00     0.022 A 
ATOM      8  C7  BZF d   1      -1.213  -0.362   2.316  0.00  0.00     0.029 A 
ATOM      9  C7A BZF d   1      -0.254  -0.978   3.082  0.00  0.00     0.058 A 
ENDROOT
TORSDOF 0
ENDMDL
