MODEL 1
REMARK minimizedAffinity -0.0451988205
REMARK minimizedRMSD -1
REMARK  0 active torsions:
REMARK  status: ('A' for Active; 'I' for Inactive)
ROOT
ATOM      1  O1  BZF d   1       2.285  -1.776   3.684  0.00  0.00    -0.204 OA
ATOM      2  C2  BZF d   1       1.732  -2.059   4.918  0.00  0.00     0.174 A 
ATOM      3  C3  BZF d   1       0.483  -1.558   5.009  0.00  0.00    -0.012 A 
ATOM      4  C3A BZF d   1       0.206  -1.003   3.719  0.00  0.00    -0.107 A 
ATOM      5  C4  BZF d   1      -0.881  -0.375   3.182  0.00  0.00     0.055 A 
ATOM      6  C5  BZF d   1      -0.803   0.112   1.915  0.00  0.00    -0.016 A 
ATOM      7  C6  BZF d   1       0.346  -0.007   1.161  0.00  0.00     0.022 A 
ATOM      8  C7  BZF d   1       1.448  -0.626   1.650  0.00  0.00     0.029 A 
ATOM      9  C7A BZF d   1       1.361  -1.148   2.917  0.00  0.00     0.058 A 
ENDROOT
TORSDOF 0
ENDMDL
