MODEL 1
REMARK minimizedAffinity 6.21264124
REMARK minimizedRMSD -1
REMARK  0 active torsions:
REMARK  status: ('A' for Active; 'I' for Inactive)
ROOT
ATOM      1  O1  BZF d   1      -3.171  -1.042  -0.567  0.00  0.00    -0.204 OA
ATOM      2  C2  BZF d   1      -3.605   0.038  -1.311  0.00  0.00     0.174 A 
ATOM      3  C3  BZF d   1      -3.025   1.178  -0.884  0.00  0.00    -0.012 A 
ATOM      4  C3A BZF d   1      -2.105   0.773   0.135  0.00  0.00    -0.107 A 
ATOM      5  C4  BZF d   1      -1.223   1.451   0.927  0.00  0.00     0.055 A 
ATOM      6  C5  BZF d   1      -0.525   0.768   1.873  0.00  0.00    -0.016 A 
ATOM      7  C6  BZF d   1      -0.689  -0.589   2.058  0.00  0.00     0.022 A 
ATOM      8  C7  BZF d   1      -1.549  -1.305   1.293  0.00  0.00     0.029 A 
ATOM      9  C7A BZF d   1      -2.231  -0.624   0.314  0.00  0.00     0.058 A 
ENDROOT
TORSDOF 0
ENDMDL
