MODEL 1
REMARK minimizedAffinity 2.05842113
REMARK minimizedRMSD -1
REMARK  0 active torsions:
REMARK  status: ('A' for Active; 'I' for Inactive)
ROOT
ATOM      1  O1  BZF d   1      -1.768  -0.947   2.061  0.00  0.00    -0.204 OA
ATOM      2  C2  BZF d   1      -1.192   0.167   1.482  0.00  0.00     0.174 A 
ATOM      3  C3  BZF d   1       0.060   0.355   1.947  0.00  0.00    -0.012 A 
ATOM      4  C3A BZF d   1       0.314  -0.762   2.804  0.00  0.00    -0.107 A 
ATOM      5  C4  BZF d   1       1.393  -1.149   3.548  0.00  0.00     0.055 A 
ATOM      6  C5  BZF d   1       1.292  -2.253   4.333  0.00  0.00    -0.016 A 
ATOM      7  C6  BZF d   1       0.128  -2.990   4.403  0.00  0.00     0.022 A 
ATOM      8  C7  BZF d   1      -0.966  -2.649   3.680  0.00  0.00     0.029 A 
ATOM      9  C7A BZF d   1      -0.857  -1.552   2.861  0.00  0.00     0.058 A 
ENDROOT
TORSDOF 0
ENDMDL
