MODEL 1
REMARK minimizedAffinity 2.63631606
REMARK minimizedRMSD -1
REMARK  0 active torsions:
REMARK  status: ('A' for Active; 'I' for Inactive)
ROOT
ATOM      1  O1  BZF d   1      -0.567   1.491   3.033  0.00  0.00    -0.204 OA
ATOM      2  C2  BZF d   1      -0.700   0.950   1.768  0.00  0.00     0.174 A 
ATOM      3  C3  BZF d   1       0.007  -0.193   1.661  0.00  0.00    -0.012 A 
ATOM      4  C3A BZF d   1       0.546  -0.427   2.965  0.00  0.00    -0.107 A 
ATOM      5  C4  BZF d   1       1.325  -1.415   3.496  0.00  0.00     0.055 A 
ATOM      6  C5  BZF d   1       1.738  -1.309   4.787  0.00  0.00    -0.016 A 
ATOM      7  C6  BZF d   1       1.395  -0.228   5.572  0.00  0.00     0.022 A 
ATOM      8  C7  BZF d   1       0.620   0.774   5.091  0.00  0.00     0.029 A 
ATOM      9  C7A BZF d   1       0.174   0.654   3.798  0.00  0.00     0.058 A 
ENDROOT
TORSDOF 0
ENDMDL
