MODEL 1
REMARK minimizedAffinity 12.2700558
REMARK minimizedRMSD -1
REMARK  0 active torsions:
REMARK  status: ('A' for Active; 'I' for Inactive)
ROOT
ATOM      1  O1  BZF d   1       0.186  -2.285   3.711  0.00  0.00    -0.204 OA
ATOM      2  C2  BZF d   1       1.384  -1.828   4.227  0.00  0.00     0.174 A 
ATOM      3  C3  BZF d   1       1.714  -0.638   3.686  0.00  0.00    -0.012 A 
ATOM      4  C3A BZF d   1       0.611  -0.288   2.845  0.00  0.00    -0.107 A 
ATOM      5  C4  BZF d   1       0.341   0.790   2.051  0.00  0.00     0.055 A 
ATOM      6  C5  BZF d   1      -0.793   0.791   1.302  0.00  0.00    -0.016 A 
ATOM      7  C6  BZF d   1      -1.675  -0.270   1.318  0.00  0.00     0.022 A 
ATOM      8  C7  BZF d   1      -1.452  -1.359   2.094  0.00  0.00     0.029 A 
ATOM      9  C7A BZF d   1      -0.324  -1.348   2.877  0.00  0.00     0.058 A 
ENDROOT
TORSDOF 0
ENDMDL
