MODEL 1
REMARK minimizedAffinity 4.90803862
REMARK minimizedRMSD -1
REMARK  0 active torsions:
REMARK  status: ('A' for Active; 'I' for Inactive)
ROOT
ATOM      1  O1  BZF d   1       0.306  -2.419   3.907  0.00  0.00    -0.204 OA
ATOM      2  C2  BZF d   1       1.562  -2.048   4.346  0.00  0.00     0.174 A 
ATOM      3  C3  BZF d   1       1.960  -0.907   3.749  0.00  0.00    -0.012 A 
ATOM      4  C3A BZF d   1       0.847  -0.491   2.951  0.00  0.00    -0.107 A 
ATOM      5  C4  BZF d   1       0.626   0.580   2.134  0.00  0.00     0.055 A 
ATOM      6  C5  BZF d   1      -0.542   0.653   1.443  0.00  0.00    -0.016 A 
ATOM      7  C6  BZF d   1      -1.506  -0.329   1.540  0.00  0.00     0.022 A 
ATOM      8  C7  BZF d   1      -1.333  -1.408   2.341  0.00  0.00     0.029 A 
ATOM      9  C7A BZF d   1      -0.168  -1.468   3.067  0.00  0.00     0.058 A 
ENDROOT
TORSDOF 0
ENDMDL
