MODEL 1
REMARK minimizedAffinity 2.33449435
REMARK minimizedRMSD -1
REMARK  0 active torsions:
REMARK  status: ('A' for Active; 'I' for Inactive)
ROOT
ATOM      1  O1  BZF d   1      -1.931  -0.017   1.995  0.00  0.00    -0.204 OA
ATOM      2  C2  BZF d   1      -2.004   0.520   0.724  0.00  0.00     0.174 A 
ATOM      3  C3  BZF d   1      -0.784   0.558   0.150  0.00  0.00    -0.012 A 
ATOM      4  C3A BZF d   1       0.092  -0.076   1.087  0.00  0.00    -0.107 A 
ATOM      5  C4  BZF d   1       1.429  -0.357   1.080  0.00  0.00     0.055 A 
ATOM      6  C5  BZF d   1       1.990  -0.920   2.183  0.00  0.00    -0.016 A 
ATOM      7  C6  BZF d   1       1.248  -1.209   3.309  0.00  0.00     0.022 A 
ATOM      8  C7  BZF d   1      -0.082  -0.953   3.360  0.00  0.00     0.029 A 
ATOM      9  C7A BZF d   1      -0.659  -0.415   2.236  0.00  0.00     0.058 A 
ENDROOT
TORSDOF 0
ENDMDL
