MODEL 1
REMARK minimizedAffinity 4.78875065
REMARK minimizedRMSD -1
REMARK  0 active torsions:
REMARK  status: ('A' for Active; 'I' for Inactive)
ROOT
ATOM      1  O1  BZF d   1       0.492  -1.831   3.444  0.00  0.00    -0.204 OA
ATOM      2  C2  BZF d   1       1.730  -1.375   3.033  0.00  0.00     0.174 A 
ATOM      3  C3  BZF d   1       1.599  -0.446   2.065  0.00  0.00    -0.012 A 
ATOM      4  C3A BZF d   1       0.190  -0.245   1.923  0.00  0.00    -0.107 A 
ATOM      5  C4  BZF d   1      -0.568   0.567   1.129  0.00  0.00     0.055 A 
ATOM      6  C5  BZF d   1      -1.922   0.468   1.183  0.00  0.00    -0.016 A 
ATOM      7  C6  BZF d   1      -2.551  -0.436   2.015  0.00  0.00     0.022 A 
ATOM      8  C7  BZF d   1      -1.842  -1.259   2.825  0.00  0.00     0.029 A 
ATOM      9  C7A BZF d   1      -0.474  -1.138   2.796  0.00  0.00     0.058 A 
ENDROOT
TORSDOF 0
ENDMDL
