MODEL 1
REMARK minimizedAffinity 2.65283179
REMARK minimizedRMSD -1
REMARK  0 active torsions:
REMARK  status: ('A' for Active; 'I' for Inactive)
ROOT
ATOM      1  O1  BZF d   1      -1.375  -0.484  -6.000  0.00  0.00    -0.204 OA
ATOM      2  C2  BZF d   1      -0.121   0.029  -5.728  0.00  0.00     0.174 A 
ATOM      3  C3  BZF d   1      -0.157   0.827  -4.642  0.00  0.00    -0.012 A 
ATOM      4  C3A BZF d   1      -1.499   0.739  -4.153  0.00  0.00    -0.107 A 
ATOM      5  C4  BZF d   1      -2.149   1.296  -3.089  0.00  0.00     0.055 A 
ATOM      6  C5  BZF d   1      -3.479   1.066  -2.934  0.00  0.00    -0.016 A 
ATOM      7  C6  BZF d   1      -4.191   0.290  -3.826  0.00  0.00     0.022 A 
ATOM      8  C7  BZF d   1      -3.588  -0.286  -4.894  0.00  0.00     0.029 A 
ATOM      9  C7A BZF d   1      -2.237  -0.083  -5.035  0.00  0.00     0.058 A 
ENDROOT
TORSDOF 0
ENDMDL
