MODEL 1
REMARK minimizedAffinity 1.97795773
REMARK minimizedRMSD -1
REMARK  2 active torsions:
REMARK  status: ('A' for Active; 'I' for Inactive)
REMARK    1  A    between atoms: C1_2  and  C2_3 
REMARK    2  A    between atoms: C2_3  and  C3_4 
ROOT
ATOM      1  C3  UNL d   1       3.779  -5.979  -4.143  0.00  0.00    -0.075 A 
ATOM      2  C4  UNL d   1       2.764  -5.998  -3.175  0.00  0.00     0.002 A 
ATOM      3  C5  UNL d   1       3.079  -5.956  -1.817  0.00  0.00     0.002 A 
ATOM      4  C6  UNL d   1       4.409  -5.905  -1.408  0.00  0.00    -0.004 A 
ATOM      5  C7  UNL d   1       5.427  -5.904  -2.360  0.00  0.00     0.002 A 
ATOM      6  C8  UNL d   1       5.115  -5.941  -3.720  0.00  0.00     0.002 A 
ENDROOT
BRANCH   1   7
ATOM      7  C2  UNL d   1       3.445  -5.995  -5.615  0.00  0.00     0.056 C 
BRANCH   7   8
ATOM      8  C1  UNL d   1       2.243  -5.122  -5.990  0.00  0.00     0.007 C 
ATOM      9  C   UNL d   1       0.921  -5.879  -5.971  0.00  0.00     0.009 C 
ENDBRANCH   7   8
ENDBRANCH   1   7
TORSDOF 2
ENDMDL
