MODEL 1
REMARK minimizedAffinity -0.266962379
REMARK minimizedRMSD -1
REMARK  2 active torsions:
REMARK  status: ('A' for Active; 'I' for Inactive)
REMARK    1  A    between atoms: C1_2  and  C2_3 
REMARK    2  A    between atoms: C2_3  and  C3_4 
ROOT
ATOM      1  C3  UNL d   1       3.282  -5.474  -4.354  0.00  0.00    -0.075 A 
ATOM      2  C4  UNL d   1       3.736  -5.224  -5.657  0.00  0.00     0.002 A 
ATOM      3  C5  UNL d   1       5.086  -5.374  -5.978  0.00  0.00     0.002 A 
ATOM      4  C6  UNL d   1       5.998  -5.765  -5.001  0.00  0.00    -0.004 A 
ATOM      5  C7  UNL d   1       5.561  -6.000  -3.699  0.00  0.00     0.002 A 
ATOM      6  C8  UNL d   1       4.211  -5.855  -3.376  0.00  0.00     0.002 A 
ENDROOT
BRANCH   1   7
ATOM      7  C2  UNL d   1       1.819  -5.342  -4.007  0.00  0.00     0.056 C 
BRANCH   7   8
ATOM      8  C1  UNL d   1       1.501  -5.607  -2.532  0.00  0.00     0.007 C 
ATOM      9  C   UNL d   1       0.008  -5.610  -2.230  0.00  0.00     0.009 C 
ENDBRANCH   7   8
ENDBRANCH   1   7
TORSDOF 2
ENDMDL
