MODEL 1
REMARK minimizedAffinity 0.563127398
REMARK minimizedRMSD -1
REMARK  2 active torsions:
REMARK  status: ('A' for Active; 'I' for Inactive)
REMARK    1  A    between atoms: C1_2  and  C2_3 
REMARK    2  A    between atoms: C2_3  and  C3_4 
ROOT
ATOM      1  C3  UNL d   1       3.463  -5.497  -3.644  0.00  0.00    -0.075 A 
ATOM      2  C4  UNL d   1       4.852  -5.515  -3.450  0.00  0.00     0.002 A 
ATOM      3  C5  UNL d   1       5.713  -5.758  -4.521  0.00  0.00     0.002 A 
ATOM      4  C6  UNL d   1       5.198  -5.996  -5.793  0.00  0.00    -0.004 A 
ATOM      5  C7  UNL d   1       3.819  -5.997  -5.993  0.00  0.00     0.002 A 
ATOM      6  C8  UNL d   1       2.955  -5.749  -4.925  0.00  0.00     0.002 A 
ENDROOT
BRANCH   1   7
ATOM      7  C2  UNL d   1       2.526  -5.205  -2.496  0.00  0.00     0.056 C 
BRANCH   7   8
ATOM      8  C1  UNL d   1       1.118  -4.786  -2.930  0.00  0.00     0.007 C 
ATOM      9  C   UNL d   1       0.238  -4.342  -1.769  0.00  0.00     0.009 C 
ENDBRANCH   7   8
ENDBRANCH   1   7
TORSDOF 2
ENDMDL
