MODEL 1
REMARK minimizedAffinity 0.911722064
REMARK minimizedRMSD -1
REMARK  2 active torsions:
REMARK  status: ('A' for Active; 'I' for Inactive)
REMARK    1  A    between atoms: C1_2  and  C2_3 
REMARK    2  A    between atoms: C2_3  and  C3_4 
ROOT
ATOM      1  C3  UNL d   1       3.481  -5.030  -3.364  0.00  0.00    -0.075 A 
ATOM      2  C4  UNL d   1       2.951  -5.783  -4.422  0.00  0.00     0.002 A 
ATOM      3  C5  UNL d   1       3.589  -5.808  -5.663  0.00  0.00     0.002 A 
ATOM      4  C6  UNL d   1       4.755  -5.074  -5.865  0.00  0.00    -0.004 A 
ATOM      5  C7  UNL d   1       5.282  -4.309  -4.826  0.00  0.00     0.002 A 
ATOM      6  C8  UNL d   1       4.649  -4.286  -3.582  0.00  0.00     0.002 A 
ENDROOT
BRANCH   1   7
ATOM      7  C2  UNL d   1       2.813  -5.022  -2.010  0.00  0.00     0.056 C 
BRANCH   7   8
ATOM      8  C1  UNL d   1       1.703  -3.974  -1.868  0.00  0.00     0.007 C 
ATOM      9  C   UNL d   1       0.423  -4.534  -1.264  0.00  0.00     0.009 C 
ENDBRANCH   7   8
ENDBRANCH   1   7
TORSDOF 2
ENDMDL
