MODEL 1
REMARK minimizedAffinity -3.85888815
REMARK minimizedRMSD -1
REMARK  2 active torsions:
REMARK  status: ('A' for Active; 'I' for Inactive)
REMARK    1  A    between atoms: C1_2  and  C2_3 
REMARK    2  A    between atoms: C2_3  and  C3_4 
ROOT
ATOM      1  C3  UNL d   1       3.915  -5.904  -4.650  0.00  0.00    -0.075 A 
ATOM      2  C4  UNL d   1       4.649  -5.934  -3.455  0.00  0.00     0.002 A 
ATOM      3  C5  UNL d   1       3.995  -5.982  -2.224  0.00  0.00     0.002 A 
ATOM      4  C6  UNL d   1       2.603  -5.990  -2.170  0.00  0.00    -0.004 A 
ATOM      5  C7  UNL d   1       1.864  -5.944  -3.350  0.00  0.00     0.002 A 
ATOM      6  C8  UNL d   1       2.515  -5.900  -4.584  0.00  0.00     0.002 A 
ENDROOT
BRANCH   1   7
ATOM      7  C2  UNL d   1       4.616  -5.882  -5.987  0.00  0.00     0.056 C 
BRANCH   7   8
ATOM      8  C1  UNL d   1       5.919  -5.077  -5.995  0.00  0.00     0.007 C 
ATOM      9  C   UNL d   1       5.982  -4.026  -4.895  0.00  0.00     0.009 C 
ENDBRANCH   7   8
ENDBRANCH   1   7
TORSDOF 2
ENDMDL
