MODEL 1
REMARK minimizedAffinity 0.325974554
REMARK minimizedRMSD -1
REMARK  2 active torsions:
REMARK  status: ('A' for Active; 'I' for Inactive)
REMARK    1  A    between atoms: C1_2  and  C2_3 
REMARK    2  A    between atoms: C2_3  and  C3_4 
ROOT
ATOM      1  C3  UNL d   1       3.872  -5.829  -3.316  0.00  0.00    -0.075 A 
ATOM      2  C4  UNL d   1       5.227  -5.693  -3.646  0.00  0.00     0.002 A 
ATOM      3  C5  UNL d   1       5.635  -5.696  -4.981  0.00  0.00     0.002 A 
ATOM      4  C6  UNL d   1       4.696  -5.846  -5.999  0.00  0.00    -0.004 A 
ATOM      5  C7  UNL d   1       3.348  -5.999  -5.681  0.00  0.00     0.002 A 
ATOM      6  C8  UNL d   1       2.937  -5.992  -4.347  0.00  0.00     0.002 A 
ENDROOT
BRANCH   1   7
ATOM      7  C2  UNL d   1       3.421  -5.797  -1.875  0.00  0.00     0.056 C 
BRANCH   7   8
ATOM      8  C1  UNL d   1       2.900  -4.431  -1.415  0.00  0.00     0.007 C 
ATOM      9  C   UNL d   1       1.385  -4.383  -1.273  0.00  0.00     0.009 C 
ENDBRANCH   7   8
ENDBRANCH   1   7
TORSDOF 2
ENDMDL
