MODEL 1
REMARK minimizedAffinity -2.11490965
REMARK minimizedRMSD -1
REMARK  2 active torsions:
REMARK  status: ('A' for Active; 'I' for Inactive)
REMARK    1  A    between atoms: C1_2  and  C2_3 
REMARK    2  A    between atoms: C2_3  and  C3_4 
ROOT
ATOM      1  C3  UNL d   1       4.305  -5.445  -3.959  0.00  0.00    -0.075 A 
ATOM      2  C4  UNL d   1       3.322  -5.749  -3.006  0.00  0.00     0.002 A 
ATOM      3  C5  UNL d   1       3.675  -5.999  -1.680  0.00  0.00     0.002 A 
ATOM      4  C6  UNL d   1       5.012  -5.959  -1.292  0.00  0.00    -0.004 A 
ATOM      5  C7  UNL d   1       5.999  -5.675  -2.234  0.00  0.00     0.002 A 
ATOM      6  C8  UNL d   1       5.648  -5.420  -3.561  0.00  0.00     0.002 A 
ENDROOT
BRANCH   1   7
ATOM      7  C2  UNL d   1       3.927  -5.145  -5.390  0.00  0.00     0.056 C 
BRANCH   7   8
ATOM      8  C1  UNL d   1       2.767  -5.994  -5.920  0.00  0.00     0.007 C 
ATOM      9  C   UNL d   1       1.422  -5.621  -5.310  0.00  0.00     0.009 C 
ENDBRANCH   7   8
ENDBRANCH   1   7
TORSDOF 2
ENDMDL
