MODEL 1
REMARK minimizedAffinity -1.17308235
REMARK minimizedRMSD -1
REMARK  2 active torsions:
REMARK  status: ('A' for Active; 'I' for Inactive)
REMARK    1  A    between atoms: C1_2  and  C2_3 
REMARK    2  A    between atoms: C2_3  and  C3_4 
ROOT
ATOM      1  C3  UNL d   1       3.603  -5.650  -2.926  0.00  0.00    -0.075 A 
ATOM      2  C4  UNL d   1       4.839  -5.318  -2.353  0.00  0.00     0.002 A 
ATOM      3  C5  UNL d   1       6.000  -5.312  -3.127  0.00  0.00     0.002 A 
ATOM      4  C6  UNL d   1       5.942  -5.649  -4.478  0.00  0.00    -0.004 A 
ATOM      5  C7  UNL d   1       4.722  -5.997  -5.054  0.00  0.00     0.002 A 
ATOM      6  C8  UNL d   1       3.558  -5.999  -4.283  0.00  0.00     0.002 A 
ENDROOT
BRANCH   1   7
ATOM      7  C2  UNL d   1       2.338  -5.629  -2.101  0.00  0.00     0.056 C 
BRANCH   7   8
ATOM      8  C1  UNL d   1       1.132  -5.022  -2.824  0.00  0.00     0.007 C 
ATOM      9  C   UNL d   1       0.063  -4.500  -1.874  0.00  0.00     0.009 C 
ENDBRANCH   7   8
ENDBRANCH   1   7
TORSDOF 2
ENDMDL
