MODEL 1
REMARK minimizedAffinity -0.413797587
REMARK minimizedRMSD -1
REMARK  2 active torsions:
REMARK  status: ('A' for Active; 'I' for Inactive)
REMARK    1  A    between atoms: C1_2  and  C2_3 
REMARK    2  A    between atoms: C2_3  and  C3_4 
ROOT
ATOM      1  C3  UNL d   1       3.248  -5.810  -4.054  0.00  0.00    -0.075 A 
ATOM      2  C4  UNL d   1       1.982  -5.827  -3.449  0.00  0.00     0.002 A 
ATOM      3  C5  UNL d   1       1.861  -5.915  -2.062  0.00  0.00     0.002 A 
ATOM      4  C6  UNL d   1       3.000  -5.999  -1.264  0.00  0.00    -0.004 A 
ATOM      5  C7  UNL d   1       4.262  -6.000  -1.855  0.00  0.00     0.002 A 
ATOM      6  C8  UNL d   1       4.386  -5.907  -3.243  0.00  0.00     0.002 A 
ENDROOT
BRANCH   1   7
ATOM      7  C2  UNL d   1       3.386  -5.685  -5.552  0.00  0.00     0.056 C 
BRANCH   7   8
ATOM      8  C1  UNL d   1       4.598  -4.861  -6.000  0.00  0.00     0.007 C 
ATOM      9  C   UNL d   1       5.899  -5.653  -5.993  0.00  0.00     0.009 C 
ENDBRANCH   7   8
ENDBRANCH   1   7
TORSDOF 2
ENDMDL
