MODEL 1
REMARK minimizedAffinity -2.65455222
REMARK minimizedRMSD -1
REMARK  2 active torsions:
REMARK  status: ('A' for Active; 'I' for Inactive)
REMARK    1  A    between atoms: C1_2  and  C2_3 
REMARK    2  A    between atoms: C2_3  and  C3_4 
ROOT
ATOM      1  C3  UNL d   1       4.707  -5.577  -4.491  0.00  0.00    -0.075 A 
ATOM      2  C4  UNL d   1       4.968  -5.725  -3.121  0.00  0.00     0.002 A 
ATOM      3  C5  UNL d   1       3.922  -5.911  -2.217  0.00  0.00     0.002 A 
ATOM      4  C6  UNL d   1       2.604  -5.940  -2.668  0.00  0.00    -0.004 A 
ATOM      5  C7  UNL d   1       2.332  -5.777  -4.024  0.00  0.00     0.002 A 
ATOM      6  C8  UNL d   1       3.377  -5.596  -4.932  0.00  0.00     0.002 A 
ENDROOT
BRANCH   1   7
ATOM      7  C2  UNL d   1       5.836  -5.405  -5.479  0.00  0.00     0.056 C 
BRANCH   7   8
ATOM      8  C1  UNL d   1       5.998  -3.973  -5.998  0.00  0.00     0.007 C 
ATOM      9  C   UNL d   1       6.000  -2.929  -4.890  0.00  0.00     0.009 C 
ENDBRANCH   7   8
ENDBRANCH   1   7
TORSDOF 2
ENDMDL
