MODEL 1
REMARK minimizedAffinity 0.0213166643
REMARK minimizedRMSD -1
REMARK  2 active torsions:
REMARK  status: ('A' for Active; 'I' for Inactive)
REMARK    1  A    between atoms: C1_2  and  C2_3 
REMARK    2  A    between atoms: C2_3  and  C3_4 
ROOT
ATOM      1  C3  UNL d   1       4.179  -5.935  -4.312  0.00  0.00    -0.075 A 
ATOM      2  C4  UNL d   1       2.786  -5.875  -4.163  0.00  0.00     0.002 A 
ATOM      3  C5  UNL d   1       2.209  -5.855  -2.892  0.00  0.00     0.002 A 
ATOM      4  C6  UNL d   1       3.016  -5.906  -1.757  0.00  0.00    -0.004 A 
ATOM      5  C7  UNL d   1       4.400  -5.983  -1.894  0.00  0.00     0.002 A 
ATOM      6  C8  UNL d   1       4.980  -5.998  -3.163  0.00  0.00     0.002 A 
ENDROOT
BRANCH   1   7
ATOM      7  C2  UNL d   1       4.810  -5.927  -5.683  0.00  0.00     0.056 C 
BRANCH   7   8
ATOM      8  C1  UNL d   1       5.998  -4.968  -5.818  0.00  0.00     0.007 C 
ATOM      9  C   UNL d   1       5.999  -3.864  -4.769  0.00  0.00     0.009 C 
ENDBRANCH   7   8
ENDBRANCH   1   7
TORSDOF 2
ENDMDL
