MODEL 1
REMARK minimizedAffinity 1.47379231
REMARK minimizedRMSD -1
REMARK  2 active torsions:
REMARK  status: ('A' for Active; 'I' for Inactive)
REMARK    1  A    between atoms: C1_2  and  C2_3 
REMARK    2  A    between atoms: C2_3  and  C3_4 
ROOT
ATOM      1  C3  UNL d   1       4.230  -5.685  -3.351  0.00  0.00    -0.075 A 
ATOM      2  C4  UNL d   1       5.499  -5.157  -3.626  0.00  0.00     0.002 A 
ATOM      3  C5  UNL d   1       5.899  -4.924  -4.942  0.00  0.00     0.002 A 
ATOM      4  C6  UNL d   1       5.042  -5.226  -5.998  0.00  0.00    -0.004 A 
ATOM      5  C7  UNL d   1       3.785  -5.767  -5.737  0.00  0.00     0.002 A 
ATOM      6  C8  UNL d   1       3.380  -5.997  -4.421  0.00  0.00     0.002 A 
ENDROOT
BRANCH   1   7
ATOM      7  C2  UNL d   1       3.779  -5.912  -1.927  0.00  0.00     0.056 C 
BRANCH   7   8
ATOM      8  C1  UNL d   1       2.777  -4.871  -1.417  0.00  0.00     0.007 C 
ATOM      9  C   UNL d   1       1.426  -4.945  -2.116  0.00  0.00     0.009 C 
ENDBRANCH   7   8
ENDBRANCH   1   7
TORSDOF 2
ENDMDL
