MODEL 1
REMARK minimizedAffinity -2.79001403
REMARK minimizedRMSD -1
REMARK  2 active torsions:
REMARK  status: ('A' for Active; 'I' for Inactive)
REMARK    1  A    between atoms: C1_2  and  C2_3 
REMARK    2  A    between atoms: C2_3  and  C3_4 
ROOT
ATOM      1  C3  UNL d   1       3.636   2.848   2.398  0.00  0.00    -0.075 A 
ATOM      2  C4  UNL d   1       4.816   2.115   2.588  0.00  0.00     0.002 A 
ATOM      3  C5  UNL d   1       5.989   2.753   2.991  0.00  0.00     0.002 A 
ATOM      4  C6  UNL d   1       6.000   4.131   3.199  0.00  0.00    -0.004 A 
ATOM      5  C7  UNL d   1       4.837   4.871   2.998  0.00  0.00     0.002 A 
ATOM      6  C8  UNL d   1       3.661   4.234   2.598  0.00  0.00     0.002 A 
ENDROOT
BRANCH   1   7
ATOM      7  C2  UNL d   1       2.356   2.158   1.990  0.00  0.00     0.056 C 
BRANCH   7   8
ATOM      8  C1  UNL d   1       1.466   2.993   1.063  0.00  0.00     0.007 C 
ATOM      9  C   UNL d   1      -0.007   2.615   1.144  0.00  0.00     0.009 C 
ENDBRANCH   7   8
ENDBRANCH   1   7
TORSDOF 2
ENDMDL
