MODEL 1
REMARK minimizedAffinity -3.07027841
REMARK minimizedRMSD -1
REMARK  2 active torsions:
REMARK  status: ('A' for Active; 'I' for Inactive)
REMARK    1  A    between atoms: C1_2  and  C2_3 
REMARK    2  A    between atoms: C2_3  and  C3_4 
ROOT
ATOM      1  C3  UNL d   1       4.069  -5.621  -3.506  0.00  0.00    -0.075 A 
ATOM      2  C4  UNL d   1       4.811  -5.775  -4.686  0.00  0.00     0.002 A 
ATOM      3  C5  UNL d   1       4.167  -5.957  -5.910  0.00  0.00     0.002 A 
ATOM      4  C6  UNL d   1       2.775  -5.998  -5.969  0.00  0.00    -0.004 A 
ATOM      5  C7  UNL d   1       2.028  -5.863  -4.801  0.00  0.00     0.002 A 
ATOM      6  C8  UNL d   1       2.671  -5.677  -3.575  0.00  0.00     0.002 A 
ENDROOT
BRANCH   1   7
ATOM      7  C2  UNL d   1       4.760  -5.395  -2.183  0.00  0.00     0.056 C 
BRANCH   7   8
ATOM      8  C1  UNL d   1       5.991  -4.486  -2.270  0.00  0.00     0.007 C 
ATOM      9  C   UNL d   1       5.933  -3.506  -3.434  0.00  0.00     0.009 C 
ENDBRANCH   7   8
ENDBRANCH   1   7
TORSDOF 2
ENDMDL
