MODEL 1
REMARK minimizedAffinity -3.5445683
REMARK minimizedRMSD -1
REMARK  2 active torsions:
REMARK  status: ('A' for Active; 'I' for Inactive)
REMARK    1  A    between atoms: C1_2  and  C2_3 
REMARK    2  A    between atoms: C2_3  and  C3_4 
ROOT
ATOM      1  C3  UNL d   1       3.654   2.229   1.918  0.00  0.00    -0.075 A 
ATOM      2  C4  UNL d   1       4.624   1.567   2.684  0.00  0.00     0.002 A 
ATOM      3  C5  UNL d   1       5.486   2.286   3.512  0.00  0.00     0.002 A 
ATOM      4  C6  UNL d   1       5.397   3.675   3.576  0.00  0.00    -0.004 A 
ATOM      5  C7  UNL d   1       4.449   4.345   2.807  0.00  0.00     0.002 A 
ATOM      6  C8  UNL d   1       3.582   3.627   1.981  0.00  0.00     0.002 A 
ENDROOT
BRANCH   1   7
ATOM      7  C2  UNL d   1       2.699   1.454   1.043  0.00  0.00     0.056 C 
BRANCH   7   8
ATOM      8  C1  UNL d   1       1.415   2.215   0.694  0.00  0.00     0.007 C 
ATOM      9  C   UNL d   1       0.307   2.024   1.721  0.00  0.00     0.009 C 
ENDBRANCH   7   8
ENDBRANCH   1   7
TORSDOF 2
ENDMDL
