MODEL 1
REMARK minimizedAffinity -1.62529206
REMARK minimizedRMSD -1
REMARK  2 active torsions:
REMARK  status: ('A' for Active; 'I' for Inactive)
REMARK    1  A    between atoms: C1_2  and  C2_3 
REMARK    2  A    between atoms: C2_3  and  C3_4 
ROOT
ATOM      1  C3  UNL d   1       3.361   2.613   1.671  0.00  0.00    -0.075 A 
ATOM      2  C4  UNL d   1       4.078   3.794   1.910  0.00  0.00     0.002 A 
ATOM      3  C5  UNL d   1       5.376   3.743   2.421  0.00  0.00     0.002 A 
ATOM      4  C6  UNL d   1       5.967   2.514   2.707  0.00  0.00    -0.004 A 
ATOM      5  C7  UNL d   1       5.257   1.336   2.489  0.00  0.00     0.002 A 
ATOM      6  C8  UNL d   1       3.961   1.383   1.974  0.00  0.00     0.002 A 
ENDROOT
BRANCH   1   7
ATOM      7  C2  UNL d   1       1.967   2.660   1.090  0.00  0.00     0.056 C 
BRANCH   7   8
ATOM      8  C1  UNL d   1       0.979   1.701   1.762  0.00  0.00     0.007 C 
ATOM      9  C   UNL d   1      -0.360   2.350   2.089  0.00  0.00     0.009 C 
ENDBRANCH   7   8
ENDBRANCH   1   7
TORSDOF 2
ENDMDL
