MODEL 1
REMARK minimizedAffinity -2.78786874
REMARK minimizedRMSD -1
REMARK  2 active torsions:
REMARK  status: ('A' for Active; 'I' for Inactive)
REMARK    1  A    between atoms: C1_2  and  C2_3 
REMARK    2  A    between atoms: C2_3  and  C3_4 
ROOT
ATOM      1  C3  UNL d   1       4.326  -5.699  -4.224  0.00  0.00    -0.075 A 
ATOM      2  C4  UNL d   1       3.079  -5.884  -4.839  0.00  0.00     0.002 A 
ATOM      3  C5  UNL d   1       1.899  -5.707  -4.115  0.00  0.00     0.002 A 
ATOM      4  C6  UNL d   1       1.950  -5.354  -2.769  0.00  0.00    -0.004 A 
ATOM      5  C7  UNL d   1       3.184  -5.184  -2.143  0.00  0.00     0.002 A 
ATOM      6  C8  UNL d   1       4.366  -5.356  -2.866  0.00  0.00     0.002 A 
ENDROOT
BRANCH   1   7
ATOM      7  C2  UNL d   1       5.606  -5.860  -5.008  0.00  0.00     0.056 C 
BRANCH   7   8
ATOM      8  C1  UNL d   1       5.995  -4.625  -5.827  0.00  0.00     0.007 C 
ATOM      9  C   UNL d   1       5.999  -3.340  -5.010  0.00  0.00     0.009 C 
ENDBRANCH   7   8
ENDBRANCH   1   7
TORSDOF 2
ENDMDL
