MODEL 1
REMARK minimizedAffinity 8.72099686
REMARK minimizedRMSD -1
REMARK  0 active torsions:
REMARK  status: ('A' for Active; 'I' for Inactive)
ROOT
ATOM      1  C   UNL d   1       0.165   4.591   1.167  0.00  0.00     0.023 A 
ATOM      2  C1  UNL d   1       0.756   5.851   1.278  0.00  0.00     0.003 A 
ATOM      3  C2  UNL d   1       1.963   5.999   1.964  0.00  0.00     0.048 A 
ATOM      4  C3  UNL d   1       2.575   4.885   2.536  0.00  0.00     0.023 A 
ATOM      5  C4  UNL d   1       1.989   3.623   2.427  0.00  0.00     0.048 A 
ATOM      6  C5  UNL d   1       0.781   3.479   1.741  0.00  0.00     0.003 A 
ATOM      7  I   UNL d   1       4.372   5.104   3.557  0.00  0.00    -0.146 I 
ENDROOT
TORSDOF 0
ENDMDL
