MODEL 1
REMARK minimizedAffinity 1.19142866
REMARK minimizedRMSD -1
REMARK  0 active torsions:
REMARK  status: ('A' for Active; 'I' for Inactive)
ROOT
ATOM      1  C   UNL d   1       3.120   0.310   0.013  0.00  0.00     0.023 A 
ATOM      2  C1  UNL d   1       2.868   0.304  -1.359  0.00  0.00     0.003 A 
ATOM      3  C2  UNL d   1       3.651   1.078  -2.218  0.00  0.00     0.048 A 
ATOM      4  C3  UNL d   1       4.686   1.855  -1.698  0.00  0.00     0.023 A 
ATOM      5  C4  UNL d   1       4.942   1.864  -0.326  0.00  0.00     0.048 A 
ATOM      6  C5  UNL d   1       4.155   1.089   0.529  0.00  0.00     0.003 A 
ATOM      7  I   UNL d   1       5.853   3.008  -2.974  0.00  0.00    -0.146 I 
ENDROOT
TORSDOF 0
ENDMDL
