MODEL 1
REMARK minimizedAffinity 1.80916989
REMARK minimizedRMSD -1
REMARK  0 active torsions:
REMARK  status: ('A' for Active; 'I' for Inactive)
ROOT
ATOM      1  C   UNL d   1       3.154   0.371  -0.026  0.00  0.00     0.023 A 
ATOM      2  C1  UNL d   1       2.921   0.372  -1.402  0.00  0.00     0.003 A 
ATOM      3  C2  UNL d   1       3.736   1.126  -2.249  0.00  0.00     0.048 A 
ATOM      4  C3  UNL d   1       4.784   1.875  -1.714  0.00  0.00     0.023 A 
ATOM      5  C4  UNL d   1       5.021   1.876  -0.338  0.00  0.00     0.048 A 
ATOM      6  C5  UNL d   1       4.203   1.122   0.505  0.00  0.00     0.003 A 
ATOM      7  I   UNL d   1       5.999   2.997  -2.972  0.00  0.00    -0.146 I 
ENDROOT
TORSDOF 0
ENDMDL
