MODEL 1
REMARK minimizedAffinity 6.49877691
REMARK minimizedRMSD -1
REMARK  0 active torsions:
REMARK  status: ('A' for Active; 'I' for Inactive)
ROOT
ATOM      1  C   UNL d   1      -1.179   3.732   0.149  0.00  0.00     0.023 A 
ATOM      2  C1  UNL d   1       0.025   3.936   0.822  0.00  0.00     0.003 A 
ATOM      3  C2  UNL d   1       1.073   3.025   0.673  0.00  0.00     0.048 A 
ATOM      4  C3  UNL d   1       0.909   1.913  -0.152  0.00  0.00     0.023 A 
ATOM      5  C4  UNL d   1      -0.294   1.705  -0.829  0.00  0.00     0.048 A 
ATOM      6  C5  UNL d   1      -1.339   2.619  -0.675  0.00  0.00     0.003 A 
ATOM      7  I   UNL d   1       2.467   0.555  -0.377  0.00  0.00    -0.146 I 
ENDROOT
TORSDOF 0
ENDMDL
