MODEL 1
REMARK minimizedAffinity 7.73054743
REMARK minimizedRMSD -1
REMARK  0 active torsions:
REMARK  status: ('A' for Active; 'I' for Inactive)
ROOT
ATOM      1  C   UNL d   1       2.715   0.300  -0.065  0.00  0.00     0.023 A 
ATOM      2  C1  UNL d   1       2.576   0.171  -1.447  0.00  0.00     0.003 A 
ATOM      3  C2  UNL d   1       3.511   0.759  -2.302  0.00  0.00     0.048 A 
ATOM      4  C3  UNL d   1       4.582   1.474  -1.768  0.00  0.00     0.023 A 
ATOM      5  C4  UNL d   1       4.726   1.605  -0.386  0.00  0.00     0.048 A 
ATOM      6  C5  UNL d   1       3.789   1.016   0.465  0.00  0.00     0.003 A 
ATOM      7  I   UNL d   1       5.975   2.350  -3.038  0.00  0.00    -0.146 I 
ENDROOT
TORSDOF 0
ENDMDL
