MODEL 1
REMARK minimizedAffinity 3.51711798
REMARK minimizedRMSD -1
REMARK  0 active torsions:
REMARK  status: ('A' for Active; 'I' for Inactive)
ROOT
ATOM      1  C   UNL d   1      -1.940   3.194   0.117  0.00  0.00     0.023 A 
ATOM      2  C1  UNL d   1      -1.763   2.122  -0.758  0.00  0.00     0.003 A 
ATOM      3  C2  UNL d   1      -0.515   1.504  -0.864  0.00  0.00     0.048 A 
ATOM      4  C3  UNL d   1       0.551   1.963  -0.091  0.00  0.00     0.023 A 
ATOM      5  C4  UNL d   1       0.378   3.035   0.787  0.00  0.00     0.048 A 
ATOM      6  C5  UNL d   1      -0.871   3.649   0.889  0.00  0.00     0.003 A 
ATOM      7  I   UNL d   1       2.409   1.045  -0.246  0.00  0.00    -0.146 I 
ENDROOT
TORSDOF 0
ENDMDL
