MODEL 1
REMARK minimizedAffinity 9.44419098
REMARK minimizedRMSD -1
REMARK  0 active torsions:
REMARK  status: ('A' for Active; 'I' for Inactive)
ROOT
ATOM      1  C   UNL d   1       6.000   2.073  -2.005  0.00  0.00     0.023 A 
ATOM      2  C1  UNL d   1       5.073   1.723  -2.987  0.00  0.00     0.003 A 
ATOM      3  C2  UNL d   1       3.852   1.150  -2.625  0.00  0.00     0.048 A 
ATOM      4  C3  UNL d   1       3.564   0.931  -1.278  0.00  0.00     0.023 A 
ATOM      5  C4  UNL d   1       4.488   1.280  -0.292  0.00  0.00     0.048 A 
ATOM      6  C5  UNL d   1       5.707   1.852  -0.659  0.00  0.00     0.003 A 
ATOM      7  I   UNL d   1       1.748   0.078  -0.736  0.00  0.00    -0.146 I 
ENDROOT
TORSDOF 0
ENDMDL
