MODEL 1
REMARK minimizedAffinity -2.63715982
REMARK minimizedRMSD -1
REMARK  0 active torsions:
REMARK  status: ('A' for Active; 'I' for Inactive)
ROOT
ATOM      1  C   UNL d   1      -5.367   1.391  -5.728  0.00  0.00     0.023 A 
ATOM      2  C1  UNL d   1      -4.042   1.817  -5.815  0.00  0.00     0.003 A 
ATOM      3  C2  UNL d   1      -3.081   1.296  -4.946  0.00  0.00     0.048 A 
ATOM      4  C3  UNL d   1      -3.452   0.347  -3.994  0.00  0.00     0.023 A 
ATOM      5  C4  UNL d   1      -4.777  -0.083  -3.904  0.00  0.00     0.048 A 
ATOM      6  C5  UNL d   1      -5.735   0.442  -4.774  0.00  0.00     0.003 A 
ATOM      7  I   UNL d   1      -2.024  -0.430  -2.699  0.00  0.00    -0.146 I 
ENDROOT
TORSDOF 0
ENDMDL
