MODEL 1
REMARK minimizedAffinity 2.8914113
REMARK minimizedRMSD -1
REMARK  0 active torsions:
REMARK  status: ('A' for Active; 'I' for Inactive)
ROOT
ATOM      1  C   UNL d   1       0.624  -0.912   2.924  0.00  0.00    -0.002 A 
ATOM      2  C1  UNL d   1       0.666   0.455   3.158  0.00  0.00     0.010 A 
ATOM      3  C2  UNL d   1       1.448   1.288   2.356  0.00  0.00     0.041 A 
ATOM      4  C3  UNL d   1       2.193   0.720   1.304  0.00  0.00    -0.075 A 
ATOM      5  S   UNL d   1       3.220   1.545   0.192  0.00  0.00     0.015 SA
ATOM      6  C4  UNL d   1       3.626   0.103  -0.619  0.00  0.00     0.022 A 
ATOM      7  C5  UNL d   1       3.002  -0.992  -0.069  0.00  0.00     0.026 A 
ATOM      8  C6  UNL d   1       2.166  -0.654   1.048  0.00  0.00    -0.082 A 
ATOM      9  C7  UNL d   1       1.364  -1.473   1.880  0.00  0.00     0.045 A 
ENDROOT
TORSDOF 0
ENDMDL
