MODEL 1
REMARK minimizedAffinity 9.65969181
REMARK minimizedRMSD -1
REMARK  0 active torsions:
REMARK  status: ('A' for Active; 'I' for Inactive)
ROOT
ATOM      1  C   UNL d   1      -6.000   0.175  -1.193  0.00  0.00    -0.002 A 
ATOM      2  C1  UNL d   1      -6.000   1.495  -0.765  0.00  0.00     0.010 A 
ATOM      3  C2  UNL d   1      -5.325   2.477  -1.493  0.00  0.00     0.041 A 
ATOM      4  C3  UNL d   1      -4.645   2.107  -2.670  0.00  0.00    -0.075 A 
ATOM      5  S   UNL d   1      -3.751   3.139  -3.722  0.00  0.00     0.015 SA
ATOM      6  C4  UNL d   1      -3.349   1.852  -4.765  0.00  0.00     0.022 A 
ATOM      7  C5  UNL d   1      -3.875   0.657  -4.335  0.00  0.00     0.026 A 
ATOM      8  C6  UNL d   1      -4.631   0.784  -3.121  0.00  0.00    -0.082 A 
ATOM      9  C7  UNL d   1      -5.324  -0.189  -2.361  0.00  0.00     0.045 A 
ENDROOT
TORSDOF 0
ENDMDL
