MODEL 1
REMARK minimizedAffinity 12.0096741
REMARK minimizedRMSD -1
REMARK  0 active torsions:
REMARK  status: ('A' for Active; 'I' for Inactive)
ROOT
ATOM      1  C   UNL d   1      -4.121   0.743  -4.697  0.00  0.00    -0.002 A 
ATOM      2  C1  UNL d   1      -4.357   2.099  -4.522  0.00  0.00     0.010 A 
ATOM      3  C2  UNL d   1      -4.935   2.573  -3.342  0.00  0.00     0.041 A 
ATOM      4  C3  UNL d   1      -5.274   1.652  -2.331  0.00  0.00    -0.075 A 
ATOM      5  S   UNL d   1      -5.990   2.003  -0.803  0.00  0.00     0.015 SA
ATOM      6  C4  UNL d   1      -6.000   0.361  -0.347  0.00  0.00     0.022 A 
ATOM      7  C5  UNL d   1      -5.473  -0.449  -1.324  0.00  0.00     0.026 A 
ATOM      8  C6  UNL d   1      -5.045   0.282  -2.484  0.00  0.00    -0.082 A 
ATOM      9  C7  UNL d   1      -4.458  -0.168  -3.692  0.00  0.00     0.045 A 
ENDROOT
TORSDOF 0
ENDMDL
