MODEL 1
REMARK minimizedAffinity 7.53031063
REMARK minimizedRMSD -1
REMARK  0 active torsions:
REMARK  status: ('A' for Active; 'I' for Inactive)
ROOT
ATOM      1  C   UNL d   1      -5.451  -0.018  -0.019  0.00  0.00    -0.002 A 
ATOM      2  C1  UNL d   1      -5.994   1.248  -0.192  0.00  0.00     0.010 A 
ATOM      3  C2  UNL d   1      -5.999   1.852  -1.451  0.00  0.00     0.041 A 
ATOM      4  C3  UNL d   1      -5.446   1.155  -2.544  0.00  0.00    -0.075 A 
ATOM      5  S   UNL d   1      -5.343   1.697  -4.177  0.00  0.00     0.015 SA
ATOM      6  C4  UNL d   1      -4.576   0.261  -4.683  0.00  0.00     0.022 A 
ATOM      7  C5  UNL d   1      -4.396  -0.621  -3.644  0.00  0.00     0.026 A 
ATOM      8  C6  UNL d   1      -4.894  -0.120  -2.394  0.00  0.00    -0.082 A 
ATOM      9  C7  UNL d   1      -4.903  -0.705  -1.105  0.00  0.00     0.045 A 
ENDROOT
TORSDOF 0
ENDMDL
