MODEL 1
REMARK minimizedAffinity 6.12258577
REMARK minimizedRMSD -1
REMARK  0 active torsions:
REMARK  status: ('A' for Active; 'I' for Inactive)
ROOT
ATOM      1  C   UNL d   1      -0.382  -3.242  -1.393  0.00  0.00    -0.002 A 
ATOM      2  C1  UNL d   1       0.899  -3.336  -0.868  0.00  0.00     0.010 A 
ATOM      3  C2  UNL d   1       1.599  -2.188  -0.492  0.00  0.00     0.041 A 
ATOM      4  C3  UNL d   1       0.982  -0.931  -0.652  0.00  0.00    -0.075 A 
ATOM      5  S   UNL d   1       1.647   0.610  -0.259  0.00  0.00     0.015 SA
ATOM      6  C4  UNL d   1       0.246   1.430  -0.778  0.00  0.00     0.022 A 
ATOM      7  C5  UNL d   1      -0.715   0.564  -1.243  0.00  0.00     0.026 A 
ATOM      8  C6  UNL d   1      -0.307  -0.811  -1.177  0.00  0.00    -0.082 A 
ATOM      9  C7  UNL d   1      -0.990  -1.994  -1.550  0.00  0.00     0.045 A 
ENDROOT
TORSDOF 0
ENDMDL
