MODEL 1
REMARK minimizedAffinity -4.00335026
REMARK minimizedRMSD -1
REMARK  0 active torsions:
REMARK  status: ('A' for Active; 'I' for Inactive)
ROOT
ATOM      1  C   UNL d   1      -0.389  -0.057   3.100  0.00  0.00    -0.002 A 
ATOM      2  C1  UNL d   1      -1.290  -0.869   2.426  0.00  0.00     0.010 A 
ATOM      3  C2  UNL d   1      -1.154  -1.097   1.056  0.00  0.00     0.041 A 
ATOM      4  C3  UNL d   1      -0.085  -0.490   0.367  0.00  0.00    -0.075 A 
ATOM      5  S   UNL d   1       0.281  -0.627  -1.313  0.00  0.00     0.015 SA
ATOM      6  C4  UNL d   1       1.643   0.388  -1.175  0.00  0.00     0.022 A 
ATOM      7  C5  UNL d   1       1.828   0.830   0.113  0.00  0.00     0.026 A 
ATOM      8  C6  UNL d   1       0.836   0.331   1.023  0.00  0.00    -0.082 A 
ATOM      9  C7  UNL d   1       0.671   0.543   2.413  0.00  0.00     0.045 A 
ENDROOT
TORSDOF 0
ENDMDL
