MODEL 1
REMARK minimizedAffinity -2.15691614
REMARK minimizedRMSD -1
REMARK  0 active torsions:
REMARK  status: ('A' for Active; 'I' for Inactive)
ROOT
ATOM      1  C   UNL d   1      -1.120   0.180   3.103  0.00  0.00    -0.002 A 
ATOM      2  C1  UNL d   1      -1.380  -1.156   2.834  0.00  0.00     0.010 A 
ATOM      3  C2  UNL d   1      -1.034  -1.713   1.601  0.00  0.00     0.041 A 
ATOM      4  C3  UNL d   1      -0.414  -0.897   0.634  0.00  0.00    -0.075 A 
ATOM      5  S   UNL d   1       0.099  -1.362  -0.944  0.00  0.00     0.015 SA
ATOM      6  C4  UNL d   1       0.676   0.202  -1.299  0.00  0.00     0.022 A 
ATOM      7  C5  UNL d   1       0.489   1.071  -0.250  0.00  0.00     0.026 A 
ATOM      8  C6  UNL d   1      -0.142   0.452   0.882  0.00  0.00    -0.082 A 
ATOM      9  C7  UNL d   1      -0.506   0.987   2.141  0.00  0.00     0.045 A 
ENDROOT
TORSDOF 0
ENDMDL
