MODEL 1
REMARK minimizedAffinity 0.555107057
REMARK minimizedRMSD -1
REMARK  0 active torsions:
REMARK  status: ('A' for Active; 'I' for Inactive)
ROOT
ATOM      1  C   UNL d   1      -0.086  -0.409   3.163  0.00  0.00    -0.002 A 
ATOM      2  C1  UNL d   1       1.016   0.308   2.719  0.00  0.00     0.010 A 
ATOM      3  C2  UNL d   1       1.333   0.353   1.359  0.00  0.00     0.041 A 
ATOM      4  C3  UNL d   1       0.514  -0.340   0.446  0.00  0.00    -0.075 A 
ATOM      5  S   UNL d   1       0.708  -0.426  -1.265  0.00  0.00     0.015 SA
ATOM      6  C4  UNL d   1      -0.668  -1.416  -1.446  0.00  0.00     0.022 A 
ATOM      7  C5  UNL d   1      -1.272  -1.684  -0.241  0.00  0.00     0.026 A 
ATOM      8  C6  UNL d   1      -0.601  -1.068   0.869  0.00  0.00    -0.082 A 
ATOM      9  C7  UNL d   1      -0.895  -1.095   2.254  0.00  0.00     0.045 A 
ENDROOT
TORSDOF 0
ENDMDL
