MODEL 1
REMARK minimizedAffinity -2.68497443
REMARK minimizedRMSD -1
REMARK  0 active torsions:
REMARK  status: ('A' for Active; 'I' for Inactive)
ROOT
ATOM      1  C   UNL d   1      -0.576  -0.137   1.202  0.00  0.00    -0.002 A 
ATOM      2  C1  UNL d   1       0.477  -0.874   1.723  0.00  0.00     0.010 A 
ATOM      3  C2  UNL d   1       1.372  -1.531   0.875  0.00  0.00     0.041 A 
ATOM      4  C3  UNL d   1       1.189  -1.430  -0.518  0.00  0.00    -0.075 A 
ATOM      5  S   UNL d   1       2.161  -2.149  -1.748  0.00  0.00     0.015 SA
ATOM      6  C4  UNL d   1       1.201  -1.492  -2.994  0.00  0.00     0.022 A 
ATOM      7  C5  UNL d   1       0.160  -0.741  -2.501  0.00  0.00     0.026 A 
ATOM      8  C6  UNL d   1       0.136  -0.692  -1.066  0.00  0.00    -0.082 A 
ATOM      9  C7  UNL d   1      -0.754  -0.039  -0.181  0.00  0.00     0.045 A 
ENDROOT
TORSDOF 0
ENDMDL
