MODEL 1
REMARK minimizedAffinity -5.34728956
REMARK minimizedRMSD -1
REMARK  0 active torsions:
REMARK  status: ('A' for Active; 'I' for Inactive)
ROOT
ATOM      1  C   UNL d   1      -1.211  -0.440   3.377  0.00  0.00    -0.002 A 
ATOM      2  C1  UNL d   1      -2.320  -0.393   2.543  0.00  0.00     0.010 A 
ATOM      3  C2  UNL d   1      -2.189  -0.003   1.209  0.00  0.00     0.041 A 
ATOM      4  C3  UNL d   1      -0.913   0.341   0.721  0.00  0.00    -0.075 A 
ATOM      5  S   UNL d   1      -0.513   0.848  -0.878  0.00  0.00     0.015 SA
ATOM      6  C4  UNL d   1       1.139   1.013  -0.492  0.00  0.00     0.022 A 
ATOM      7  C5  UNL d   1       1.396   0.694   0.820  0.00  0.00     0.026 A 
ATOM      8  C6  UNL d   1       0.218   0.301   1.541  0.00  0.00    -0.082 A 
ATOM      9  C7  UNL d   1       0.053  -0.098   2.889  0.00  0.00     0.045 A 
ENDROOT
TORSDOF 0
ENDMDL
