MODEL 1
REMARK minimizedAffinity -2.88795209
REMARK minimizedRMSD -1
REMARK  0 active torsions:
REMARK  status: ('A' for Active; 'I' for Inactive)
ROOT
ATOM      1  C   UNL d   1       0.696   0.217   2.528  0.00  0.00    -0.002 A 
ATOM      2  C1  UNL d   1      -0.672   0.038   2.379  0.00  0.00     0.010 A 
ATOM      3  C2  UNL d   1      -1.224  -0.202   1.119  0.00  0.00     0.041 A 
ATOM      4  C3  UNL d   1      -0.369  -0.261   0.001  0.00  0.00    -0.075 A 
ATOM      5  S   UNL d   1      -0.820  -0.543  -1.639  0.00  0.00     0.015 SA
ATOM      6  C4  UNL d   1       0.793  -0.434  -2.180  0.00  0.00     0.022 A 
ATOM      7  C5  UNL d   1       1.667  -0.188  -1.148  0.00  0.00     0.026 A 
ATOM      8  C6  UNL d   1       1.012  -0.085   0.126  0.00  0.00    -0.082 A 
ATOM      9  C7  UNL d   1       1.541   0.158   1.417  0.00  0.00     0.045 A 
ENDROOT
TORSDOF 0
ENDMDL
