MODEL 1
REMARK minimizedAffinity -3.71773863
REMARK minimizedRMSD -1
REMARK  0 active torsions:
REMARK  status: ('A' for Active; 'I' for Inactive)
ROOT
ATOM      1  C   UNL d   1      -1.482  -0.821   3.110  0.00  0.00    -0.002 A 
ATOM      2  C1  UNL d   1      -0.144  -1.127   2.904  0.00  0.00     0.010 A 
ATOM      3  C2  UNL d   1       0.521  -0.672   1.763  0.00  0.00     0.041 A 
ATOM      4  C3  UNL d   1      -0.188   0.106   0.826  0.00  0.00    -0.075 A 
ATOM      5  S   UNL d   1       0.421   0.773  -0.643  0.00  0.00     0.015 SA
ATOM      6  C4  UNL d   1      -1.080   1.481  -1.030  0.00  0.00     0.022 A 
ATOM      7  C5  UNL d   1      -2.034   1.225  -0.073  0.00  0.00     0.026 A 
ATOM      8  C6  UNL d   1      -1.535   0.428   1.013  0.00  0.00    -0.082 A 
ATOM      9  C7  UNL d   1      -2.181  -0.049   2.178  0.00  0.00     0.045 A 
ENDROOT
TORSDOF 0
ENDMDL
