MODEL 1
REMARK minimizedAffinity -2.72040749
REMARK minimizedRMSD -1
REMARK  0 active torsions:
REMARK  status: ('A' for Active; 'I' for Inactive)
ROOT
ATOM      1  C   UNL d   1      -0.413  -0.560   3.401  0.00  0.00    -0.002 A 
ATOM      2  C1  UNL d   1      -1.305  -1.364   2.705  0.00  0.00     0.010 A 
ATOM      3  C2  UNL d   1      -1.509  -1.180   1.336  0.00  0.00     0.041 A 
ATOM      4  C3  UNL d   1      -0.793  -0.165   0.671  0.00  0.00    -0.075 A 
ATOM      5  S   UNL d   1      -0.880   0.243  -1.002  0.00  0.00     0.015 SA
ATOM      6  C4  UNL d   1       0.266   1.494  -0.832  0.00  0.00     0.022 A 
ATOM      7  C5  UNL d   1       0.713   1.612   0.462  0.00  0.00     0.026 A 
ATOM      8  C6  UNL d   1       0.111   0.657   1.350  0.00  0.00    -0.082 A 
ATOM      9  C7  UNL d   1       0.295   0.446   2.738  0.00  0.00     0.045 A 
ENDROOT
TORSDOF 0
ENDMDL
