MODEL 1
REMARK minimizedAffinity -1.58930016
REMARK minimizedRMSD -1
REMARK  0 active torsions:
REMARK  status: ('A' for Active; 'I' for Inactive)
ROOT
ATOM      1  C   UNL d   1       0.447  -0.222  -1.839  0.00  0.00    -0.002 A 
ATOM      2  C1  UNL d   1       0.876   1.030  -1.423  0.00  0.00     0.010 A 
ATOM      3  C2  UNL d   1       0.819   1.389  -0.075  0.00  0.00     0.041 A 
ATOM      4  C3  UNL d   1       0.320   0.457   0.857  0.00  0.00    -0.075 A 
ATOM      5  S   UNL d   1       0.158   0.676   2.560  0.00  0.00     0.015 SA
ATOM      6  C4  UNL d   1      -0.483  -0.888   2.775  0.00  0.00     0.022 A 
ATOM      7  C5  UNL d   1      -0.579  -1.574   1.587  0.00  0.00     0.026 A 
ATOM      8  C6  UNL d   1      -0.117  -0.810   0.463  0.00  0.00    -0.082 A 
ATOM      9  C7  UNL d   1      -0.047  -1.143  -0.912  0.00  0.00     0.045 A 
ENDROOT
TORSDOF 0
ENDMDL
