MODEL 1
REMARK minimizedAffinity -1.37877119
REMARK minimizedRMSD -1
REMARK  0 active torsions:
REMARK  status: ('A' for Active; 'I' for Inactive)
ROOT
ATOM      1  C   UNL d   1      -0.836  -0.095   2.572  0.00  0.00    -0.002 A 
ATOM      2  C1  UNL d   1      -1.327  -1.273   2.028  0.00  0.00     0.010 A 
ATOM      3  C2  UNL d   1      -1.087  -1.593   0.691  0.00  0.00     0.041 A 
ATOM      4  C3  UNL d   1      -0.336  -0.700  -0.099  0.00  0.00    -0.075 A 
ATOM      5  S   UNL d   1       0.084  -0.882  -1.761  0.00  0.00     0.015 SA
ATOM      6  C4  UNL d   1       0.926   0.599  -1.788  0.00  0.00     0.022 A 
ATOM      7  C5  UNL d   1       0.897   1.232  -0.568  0.00  0.00     0.026 A 
ATOM      8  C6  UNL d   1       0.170   0.493   0.426  0.00  0.00    -0.082 A 
ATOM      9  C7  UNL d   1      -0.092   0.789   1.786  0.00  0.00     0.045 A 
ENDROOT
TORSDOF 0
ENDMDL
