MODEL 1
REMARK minimizedAffinity 2.96342206
REMARK minimizedRMSD -1
REMARK  0 active torsions:
REMARK  status: ('A' for Active; 'I' for Inactive)
ROOT
ATOM      1  C   UNL d   1      -0.345   0.912   3.587  0.00  0.00    -0.002 A 
ATOM      2  C1  UNL d   1       0.931   0.805   3.051  0.00  0.00     0.010 A 
ATOM      3  C2  UNL d   1       1.113   0.625   1.679  0.00  0.00     0.041 A 
ATOM      4  C3  UNL d   1      -0.020   0.554   0.845  0.00  0.00    -0.075 A 
ATOM      5  S   UNL d   1      -0.040   0.337  -0.865  0.00  0.00     0.015 SA
ATOM      6  C4  UNL d   1      -1.743   0.381  -0.926  0.00  0.00     0.022 A 
ATOM      7  C5  UNL d   1      -2.299   0.556   0.319  0.00  0.00     0.026 A 
ATOM      8  C6  UNL d   1      -1.315   0.659   1.360  0.00  0.00    -0.082 A 
ATOM      9  C7  UNL d   1      -1.466   0.841   2.756  0.00  0.00     0.045 A 
ENDROOT
TORSDOF 0
ENDMDL
