MODEL 1
REMARK minimizedAffinity -2.22381067
REMARK minimizedRMSD -1
REMARK  0 active torsions:
REMARK  status: ('A' for Active; 'I' for Inactive)
ROOT
ATOM      1  C   UNL d   1      -0.119  -0.318  -1.170  0.00  0.00    -0.002 A 
ATOM      2  C1  UNL d   1       0.565   0.850  -0.865  0.00  0.00     0.010 A 
ATOM      3  C2  UNL d   1       0.782   1.220   0.464  0.00  0.00     0.041 A 
ATOM      4  C3  UNL d   1       0.298   0.386   1.491  0.00  0.00    -0.075 A 
ATOM      5  S   UNL d   1       0.447   0.637   3.190  0.00  0.00     0.015 SA
ATOM      6  C4  UNL d   1      -0.392  -0.802   3.552  0.00  0.00     0.022 A 
ATOM      7  C5  UNL d   1      -0.785  -1.469   2.415  0.00  0.00     0.026 A 
ATOM      8  C6  UNL d   1      -0.393  -0.796   1.209  0.00  0.00    -0.082 A 
ATOM      9  C7  UNL d   1      -0.598  -1.142  -0.148  0.00  0.00     0.045 A 
ENDROOT
TORSDOF 0
ENDMDL
