MODEL 1
REMARK minimizedAffinity -1.78575659
REMARK minimizedRMSD -1
REMARK  1 active torsions:
REMARK  status: ('A' for Active; 'I' for Inactive)
REMARK    1  A    between atoms: C1_2  and  C2_3 
ROOT
ATOM      1  C2  UNL d   1       2.194  -0.724   2.354  0.00  0.00    -0.081 A 
ATOM      2  C3  UNL d   1       1.496  -1.540   1.456  0.00  0.00     0.006 A 
ATOM      3  C4  UNL d   1       1.014  -2.787   1.860  0.00  0.00     0.002 A 
ATOM      4  C5  UNL d   1       1.214  -3.235   3.170  0.00  0.00    -0.080 A 
ATOM      5  C6  UNL d   1       0.676  -4.559   3.625  0.00  0.00     0.076 C 
ATOM      6  C7  UNL d   1       1.927  -2.428   4.062  0.00  0.00     0.002 A 
ATOM      7  C8  UNL d   1       2.410  -1.181   3.659  0.00  0.00     0.006 A 
ENDROOT
BRANCH   1   8
ATOM      8  C1  UNL d   1       2.659   0.649   1.940  0.00  0.00     0.054 C 
ATOM      9  C   UNL d   1       3.799   0.568   0.935  0.00  0.00     0.018 C 
ENDBRANCH   1   8
TORSDOF 1
ENDMDL
