MODEL 1
REMARK minimizedAffinity 5.62235451
REMARK minimizedRMSD -1
REMARK  1 active torsions:
REMARK  status: ('A' for Active; 'I' for Inactive)
REMARK    1  A    between atoms: C1_2  and  C2_3 
ROOT
ATOM      1  C2  UNL d   1       3.715  -2.111   4.875  0.00  0.00    -0.081 A 
ATOM      2  C3  UNL d   1       4.138  -1.121   3.980  0.00  0.00     0.006 A 
ATOM      3  C4  UNL d   1       3.281  -0.660   2.977  0.00  0.00     0.002 A 
ATOM      4  C5  UNL d   1       1.986  -1.176   2.857  0.00  0.00    -0.080 A 
ATOM      5  C6  UNL d   1       1.047  -0.669   1.804  0.00  0.00     0.076 C 
ATOM      6  C7  UNL d   1       1.570  -2.178   3.740  0.00  0.00     0.002 A 
ATOM      7  C8  UNL d   1       2.426  -2.639   4.743  0.00  0.00     0.006 A 
ENDROOT
BRANCH   1   8
ATOM      8  C1  UNL d   1       4.613  -2.563   5.998  0.00  0.00     0.054 C 
ATOM      9  C   UNL d   1       6.000  -2.926   5.485  0.00  0.00     0.018 C 
ENDBRANCH   1   8
TORSDOF 1
ENDMDL
