MODEL 1
REMARK minimizedAffinity 16.4633579
REMARK minimizedRMSD -1
REMARK  1 active torsions:
REMARK  status: ('A' for Active; 'I' for Inactive)
REMARK    1  A    between atoms: C1_2  and  C2_3 
ROOT
ATOM      1  C2  UNL d   1       1.408  -2.109   0.822  0.00  0.00    -0.081 A 
ATOM      2  C3  UNL d   1       1.938  -3.117   1.637  0.00  0.00     0.006 A 
ATOM      3  C4  UNL d   1       2.154  -2.887   2.998  0.00  0.00     0.002 A 
ATOM      4  C5  UNL d   1       1.837  -1.649   3.567  0.00  0.00    -0.080 A 
ATOM      5  C6  UNL d   1       2.035  -1.399   5.033  0.00  0.00     0.076 C 
ATOM      6  C7  UNL d   1       1.324  -0.637   2.750  0.00  0.00     0.002 A 
ATOM      7  C8  UNL d   1       1.109  -0.866   1.389  0.00  0.00     0.006 A 
ENDROOT
BRANCH   1   8
ATOM      8  C1  UNL d   1       1.114  -2.375  -0.632  0.00  0.00     0.054 C 
ATOM      9  C   UNL d   1      -0.296  -1.937  -1.000  0.00  0.00     0.018 C 
ENDBRANCH   1   8
TORSDOF 1
ENDMDL
