MODEL 1
REMARK minimizedAffinity 13.0906811
REMARK minimizedRMSD -1
REMARK  1 active torsions:
REMARK  status: ('A' for Active; 'I' for Inactive)
REMARK    1  A    between atoms: C1_2  and  C2_3 
ROOT
ATOM      1  C2  UNL d   1       1.766  -1.744   2.585  0.00  0.00    -0.081 A 
ATOM      2  C3  UNL d   1       0.898  -1.852   3.679  0.00  0.00     0.006 A 
ATOM      3  C4  UNL d   1       0.711  -3.080   4.317  0.00  0.00     0.002 A 
ATOM      4  C5  UNL d   1       1.395  -4.219   3.877  0.00  0.00    -0.080 A 
ATOM      5  C6  UNL d   1       1.226  -5.538   4.571  0.00  0.00     0.076 C 
ATOM      6  C7  UNL d   1       2.248  -4.115   2.773  0.00  0.00     0.002 A 
ATOM      7  C8  UNL d   1       2.435  -2.887   2.135  0.00  0.00     0.006 A 
ENDROOT
BRANCH   1   8
ATOM      8  C1  UNL d   1       2.018  -0.407   1.936  0.00  0.00     0.054 C 
ATOM      9  C   UNL d   1       2.776   0.527   2.869  0.00  0.00     0.018 C 
ENDBRANCH   1   8
TORSDOF 1
ENDMDL
