MODEL 1
REMARK minimizedAffinity 16.7381706
REMARK minimizedRMSD -1
REMARK  1 active torsions:
REMARK  status: ('A' for Active; 'I' for Inactive)
REMARK    1  A    between atoms: C1_2  and  C2_3 
ROOT
ATOM      1  C2  UNL d   1       3.723  -2.286   4.889  0.00  0.00    -0.081 A 
ATOM      2  C3  UNL d   1       4.311  -1.648   3.790  0.00  0.00     0.006 A 
ATOM      3  C4  UNL d   1       3.515  -1.081   2.791  0.00  0.00     0.002 A 
ATOM      4  C5  UNL d   1       2.120  -1.135   2.879  0.00  0.00    -0.080 A 
ATOM      5  C6  UNL d   1       1.255  -0.504   1.830  0.00  0.00     0.076 C 
ATOM      6  C7  UNL d   1       1.533  -1.788   3.968  0.00  0.00     0.002 A 
ATOM      7  C8  UNL d   1       2.328  -2.355   4.967  0.00  0.00     0.006 A 
ENDROOT
BRANCH   1   8
ATOM      8  C1  UNL d   1       4.577  -2.841   6.000  0.00  0.00     0.054 C 
ATOM      9  C   UNL d   1       5.999  -2.304   5.926  0.00  0.00     0.018 C 
ENDBRANCH   1   8
TORSDOF 1
ENDMDL
