MODEL 1
REMARK minimizedAffinity 0.72512877
REMARK minimizedRMSD -1
REMARK  1 active torsions:
REMARK  status: ('A' for Active; 'I' for Inactive)
REMARK    1  A    between atoms: C1_2  and  C2_3 
ROOT
ATOM      1  C2  UNL d   1       2.910  -1.178   3.547  0.00  0.00    -0.081 A 
ATOM      2  C3  UNL d   1       2.645  -1.522   4.878  0.00  0.00     0.006 A 
ATOM      3  C4  UNL d   1       3.638  -2.100   5.671  0.00  0.00     0.002 A 
ATOM      4  C5  UNL d   1       4.915  -2.336   5.150  0.00  0.00    -0.080 A 
ATOM      5  C6  UNL d   1       6.000  -2.929   5.999  0.00  0.00     0.076 C 
ATOM      6  C7  UNL d   1       5.175  -2.009   3.815  0.00  0.00     0.002 A 
ATOM      7  C8  UNL d   1       4.181  -1.431   3.021  0.00  0.00     0.006 A 
ENDROOT
BRANCH   1   8
ATOM      8  C1  UNL d   1       1.860  -0.495   2.708  0.00  0.00     0.054 C 
ATOM      9  C   UNL d   1       2.328   0.877   2.245  0.00  0.00     0.018 C 
ENDBRANCH   1   8
TORSDOF 1
ENDMDL
