MODEL 1
REMARK minimizedAffinity 0.292872906
REMARK minimizedRMSD -1
REMARK  1 active torsions:
REMARK  status: ('A' for Active; 'I' for Inactive)
REMARK    1  A    between atoms: C1_2  and  C2_3 
ROOT
ATOM      1  C2  UNL d   1       3.742  -2.464   4.898  0.00  0.00    -0.081 A 
ATOM      2  C3  UNL d   1       4.244  -1.536   3.977  0.00  0.00     0.006 A 
ATOM      3  C4  UNL d   1       3.397  -0.940   3.040  0.00  0.00     0.002 A 
ATOM      4  C5  UNL d   1       2.034  -1.255   3.012  0.00  0.00    -0.080 A 
ATOM      5  C6  UNL d   1       1.108  -0.600   2.031  0.00  0.00     0.076 C 
ATOM      6  C7  UNL d   1       1.536  -2.196   3.921  0.00  0.00     0.002 A 
ATOM      7  C8  UNL d   1       2.382  -2.793   4.858  0.00  0.00     0.006 A 
ENDROOT
BRANCH   1   8
ATOM      8  C1  UNL d   1       4.640  -3.061   5.952  0.00  0.00     0.054 C 
ATOM      9  C   UNL d   1       5.998  -2.374   5.974  0.00  0.00     0.018 C 
ENDBRANCH   1   8
TORSDOF 1
ENDMDL
