MODEL 1
REMARK minimizedAffinity 15.8783951
REMARK minimizedRMSD -1
REMARK  1 active torsions:
REMARK  status: ('A' for Active; 'I' for Inactive)
REMARK    1  A    between atoms: C1_2  and  C2_3 
ROOT
ATOM      1  C2  UNL d   1       5.280  -1.951   3.614  0.00  0.00    -0.081 A 
ATOM      2  C3  UNL d   1       6.000  -1.386   2.554  0.00  0.00     0.006 A 
ATOM      3  C4  UNL d   1       5.332  -0.763   1.497  0.00  0.00     0.002 A 
ATOM      4  C5  UNL d   1       3.935  -0.687   1.486  0.00  0.00    -0.080 A 
ATOM      5  C6  UNL d   1       3.207   0.007   0.373  0.00  0.00     0.076 C 
ATOM      6  C7  UNL d   1       3.215  -1.266   2.537  0.00  0.00     0.002 A 
ATOM      7  C8  UNL d   1       3.882  -1.890   3.593  0.00  0.00     0.006 A 
ENDROOT
BRANCH   1   8
ATOM      8  C1  UNL d   1       6.000  -2.567   4.786  0.00  0.00     0.054 C 
ATOM      9  C   UNL d   1       5.969  -1.648   5.999  0.00  0.00     0.018 C 
ENDBRANCH   1   8
TORSDOF 1
ENDMDL
