MODEL 1
REMARK minimizedAffinity -4.75228453
REMARK minimizedRMSD -1
REMARK  0 active torsions:
REMARK  status: ('A' for Active; 'I' for Inactive)
ROOT
ATOM      1  C   UNL d   1       0.106   2.250  -1.112  0.00  0.00     0.078 C 
ATOM      2  C1  UNL d   1      -0.545   1.697   0.121  0.00  0.00    -0.077 A 
ATOM      3  C2  UNL d   1      -1.095   0.409   0.130  0.00  0.00    -0.001 A 
ATOM      4  C3  UNL d   1      -1.706  -0.089   1.282  0.00  0.00     0.003 A 
ATOM      5  C4  UNL d   1      -1.776   0.694   2.432  0.00  0.00    -0.005 A 
ATOM      6  C5  UNL d   1      -1.234   1.978   2.431  0.00  0.00     0.003 A 
ATOM      7  C6  UNL d   1      -0.622   2.478   1.281  0.00  0.00    -0.001 A 
ENDROOT
TORSDOF 0
ENDMDL
