MODEL 1
REMARK minimizedAffinity -4.36679602
REMARK minimizedRMSD -1
REMARK  0 active torsions:
REMARK  status: ('A' for Active; 'I' for Inactive)
ROOT
ATOM      1  C   UNL d   1      -0.066  -1.497  -0.057  0.00  0.00     0.078 C 
ATOM      2  C1  UNL d   1      -0.465  -0.188   0.555  0.00  0.00    -0.077 A 
ATOM      3  C2  UNL d   1       0.085   1.018   0.103  0.00  0.00    -0.001 A 
ATOM      4  C3  UNL d   1      -0.289   2.228   0.689  0.00  0.00     0.003 A 
ATOM      5  C4  UNL d   1      -1.214   2.245   1.731  0.00  0.00    -0.005 A 
ATOM      6  C5  UNL d   1      -1.765   1.050   2.189  0.00  0.00     0.003 A 
ATOM      7  C6  UNL d   1      -1.393  -0.161   1.604  0.00  0.00    -0.001 A 
ENDROOT
TORSDOF 0
ENDMDL
