MODEL 1
REMARK minimizedAffinity -2.76430607
REMARK minimizedRMSD -1
REMARK  0 active torsions:
REMARK  status: ('A' for Active; 'I' for Inactive)
ROOT
ATOM      1  C   UNL d   1      -2.720  -0.356   2.572  0.00  0.00     0.078 C 
ATOM      2  C1  UNL d   1      -1.771   0.597   1.909  0.00  0.00    -0.077 A 
ATOM      3  C2  UNL d   1      -1.517   1.860   2.457  0.00  0.00    -0.001 A 
ATOM      4  C3  UNL d   1      -0.638   2.740   1.824  0.00  0.00     0.003 A 
ATOM      5  C4  UNL d   1      -0.008   2.368   0.638  0.00  0.00    -0.005 A 
ATOM      6  C5  UNL d   1      -0.256   1.114   0.084  0.00  0.00     0.003 A 
ATOM      7  C6  UNL d   1      -1.134   0.232   0.716  0.00  0.00    -0.001 A 
ENDROOT
TORSDOF 0
ENDMDL
