MODEL 1
REMARK minimizedAffinity -4.44473028
REMARK minimizedRMSD -1
REMARK  0 active torsions:
REMARK  status: ('A' for Active; 'I' for Inactive)
ROOT
ATOM      1  C   UNL d   1      -0.418   1.188   0.127  0.00  0.00     0.078 C 
ATOM      2  C1  UNL d   1       0.610   0.738  -0.868  0.00  0.00    -0.077 A 
ATOM      3  C2  UNL d   1       0.981   1.556  -1.942  0.00  0.00    -0.001 A 
ATOM      4  C3  UNL d   1       1.932   1.120  -2.866  0.00  0.00     0.003 A 
ATOM      5  C4  UNL d   1       2.519  -0.136  -2.726  0.00  0.00    -0.005 A 
ATOM      6  C5  UNL d   1       2.155  -0.957  -1.661  0.00  0.00     0.003 A 
ATOM      7  C6  UNL d   1       1.204  -0.523  -0.736  0.00  0.00    -0.001 A 
ENDROOT
TORSDOF 0
ENDMDL
