MODEL 1
REMARK minimizedAffinity -1.70788348
REMARK minimizedRMSD -1
REMARK  0 active torsions:
REMARK  status: ('A' for Active; 'I' for Inactive)
ROOT
ATOM      1  C   UNL d   1      -0.172   1.572  -1.169  0.00  0.00     0.078 C 
ATOM      2  C1  UNL d   1       0.365   0.186  -0.964  0.00  0.00    -0.077 A 
ATOM      3  C2  UNL d   1      -0.185  -0.664   0.003  0.00  0.00    -0.001 A 
ATOM      4  C3  UNL d   1       0.331  -1.948   0.189  0.00  0.00     0.003 A 
ATOM      5  C4  UNL d   1       1.400  -2.391  -0.586  0.00  0.00    -0.005 A 
ATOM      6  C5  UNL d   1       1.956  -1.551  -1.549  0.00  0.00     0.003 A 
ATOM      7  C6  UNL d   1       1.441  -0.268  -1.737  0.00  0.00    -0.001 A 
ENDROOT
TORSDOF 0
ENDMDL
