MODEL 1
REMARK minimizedAffinity -4.46601868
REMARK minimizedRMSD -1
REMARK  0 active torsions:
REMARK  status: ('A' for Active; 'I' for Inactive)
ROOT
ATOM      1  C   UNL d   1       1.881  -1.346  -1.712  0.00  0.00     0.078 C 
ATOM      2  C1  UNL d   1       1.116  -0.315  -0.937  0.00  0.00    -0.077 A 
ATOM      3  C2  UNL d   1       0.521  -0.630   0.291  0.00  0.00    -0.001 A 
ATOM      4  C3  UNL d   1      -0.196   0.337   0.996  0.00  0.00     0.003 A 
ATOM      5  C4  UNL d   1      -0.326   1.626   0.482  0.00  0.00    -0.005 A 
ATOM      6  C5  UNL d   1       0.261   1.948  -0.740  0.00  0.00     0.003 A 
ATOM      7  C6  UNL d   1       0.978   0.982  -1.447  0.00  0.00    -0.001 A 
ENDROOT
TORSDOF 0
ENDMDL
