MODEL 1
REMARK minimizedAffinity -5.02515793
REMARK minimizedRMSD -1
REMARK  0 active torsions:
REMARK  status: ('A' for Active; 'I' for Inactive)
ROOT
ATOM      1  C   UNL d   1      -0.372   2.096  -0.893  0.00  0.00     0.078 C 
ATOM      2  C1  UNL d   1       0.180   0.704  -0.809  0.00  0.00    -0.077 A 
ATOM      3  C2  UNL d   1       1.300   0.327  -1.560  0.00  0.00    -0.001 A 
ATOM      4  C3  UNL d   1       1.798  -0.975  -1.480  0.00  0.00     0.003 A 
ATOM      5  C4  UNL d   1       1.181  -1.910  -0.651  0.00  0.00    -0.005 A 
ATOM      6  C5  UNL d   1       0.065  -1.544   0.098  0.00  0.00     0.003 A 
ATOM      7  C6  UNL d   1      -0.434  -0.243   0.019  0.00  0.00    -0.001 A 
ENDROOT
TORSDOF 0
ENDMDL
