MODEL 1
REMARK minimizedAffinity -3.89708972
REMARK minimizedRMSD -1
REMARK  0 active torsions:
REMARK  status: ('A' for Active; 'I' for Inactive)
ROOT
ATOM      1  C   UNL d   1      -0.943   0.631   0.958  0.00  0.00     0.078 C 
ATOM      2  C1  UNL d   1      -0.012  -0.077   0.020  0.00  0.00    -0.077 A 
ATOM      3  C2  UNL d   1       0.524  -1.329   0.343  0.00  0.00    -0.001 A 
ATOM      4  C3  UNL d   1       1.397  -1.972  -0.536  0.00  0.00     0.003 A 
ATOM      5  C4  UNL d   1       1.742  -1.370  -1.744  0.00  0.00    -0.005 A 
ATOM      6  C5  UNL d   1       1.216  -0.123  -2.074  0.00  0.00     0.003 A 
ATOM      7  C6  UNL d   1       0.343   0.522  -1.196  0.00  0.00    -0.001 A 
ENDROOT
TORSDOF 0
ENDMDL
