MODEL 1
REMARK minimizedAffinity -4.6849823
REMARK minimizedRMSD -1
REMARK  0 active torsions:
REMARK  status: ('A' for Active; 'I' for Inactive)
ROOT
ATOM      1  C   UNL d   1      -1.462   0.470   3.047  0.00  0.00     0.078 C 
ATOM      2  C1  UNL d   1      -1.220   0.829   1.612  0.00  0.00    -0.077 A 
ATOM      3  C2  UNL d   1       0.059   0.734   1.050  0.00  0.00    -0.001 A 
ATOM      4  C3  UNL d   1       0.272   1.081  -0.285  0.00  0.00     0.003 A 
ATOM      5  C4  UNL d   1      -0.790   1.527  -1.069  0.00  0.00    -0.005 A 
ATOM      6  C5  UNL d   1      -2.066   1.628  -0.519  0.00  0.00     0.003 A 
ATOM      7  C6  UNL d   1      -2.280   1.281   0.816  0.00  0.00    -0.001 A 
ENDROOT
TORSDOF 0
ENDMDL
