MODEL 1
REMARK minimizedAffinity -3.45736361
REMARK minimizedRMSD -1
REMARK  0 active torsions:
REMARK  status: ('A' for Active; 'I' for Inactive)
ROOT
ATOM      1  C   UNL d   1       4.491   2.893   2.596  0.00  0.00     0.078 C 
ATOM      2  C1  UNL d   1       4.883   2.074   3.790  0.00  0.00    -0.077 A 
ATOM      3  C2  UNL d   1       5.633   2.632   4.832  0.00  0.00    -0.001 A 
ATOM      4  C3  UNL d   1       6.000   1.855   5.932  0.00  0.00     0.003 A 
ATOM      5  C4  UNL d   1       5.622   0.516   6.000  0.00  0.00    -0.005 A 
ATOM      6  C5  UNL d   1       4.878  -0.049   4.966  0.00  0.00     0.003 A 
ATOM      7  C6  UNL d   1       4.510   0.726   3.865  0.00  0.00    -0.001 A 
ENDROOT
TORSDOF 0
ENDMDL
