MODEL 1
REMARK minimizedAffinity -4.73213577
REMARK minimizedRMSD -1
REMARK  0 active torsions:
REMARK  status: ('A' for Active; 'I' for Inactive)
ROOT
ATOM      1  C   UNL d   1      -0.326  -1.009  -0.316  0.00  0.00     0.078 C 
ATOM      2  C1  UNL d   1      -0.797   0.122   0.549  0.00  0.00    -0.077 A 
ATOM      3  C2  UNL d   1      -1.635  -0.111   1.647  0.00  0.00    -0.001 A 
ATOM      4  C3  UNL d   1      -2.074   0.952   2.437  0.00  0.00     0.003 A 
ATOM      5  C4  UNL d   1      -1.682   2.256   2.138  0.00  0.00    -0.005 A 
ATOM      6  C5  UNL d   1      -0.850   2.497   1.047  0.00  0.00     0.003 A 
ATOM      7  C6  UNL d   1      -0.410   1.435   0.255  0.00  0.00    -0.001 A 
ENDROOT
TORSDOF 0
ENDMDL
