MODEL 1
REMARK minimizedAffinity -4.84338045
REMARK minimizedRMSD -1
REMARK  0 active torsions:
REMARK  status: ('A' for Active; 'I' for Inactive)
ROOT
ATOM      1  C   UNL d   1       0.065   1.913  -1.048  0.00  0.00     0.078 C 
ATOM      2  C1  UNL d   1      -0.633   1.525   0.221  0.00  0.00    -0.077 A 
ATOM      3  C2  UNL d   1      -1.238   0.270   0.356  0.00  0.00    -0.001 A 
ATOM      4  C3  UNL d   1      -1.893  -0.074   1.540  0.00  0.00     0.003 A 
ATOM      5  C4  UNL d   1      -1.949   0.832   2.597  0.00  0.00    -0.005 A 
ATOM      6  C5  UNL d   1      -1.351   2.085   2.471  0.00  0.00     0.003 A 
ATOM      7  C6  UNL d   1      -0.696   2.430   1.288  0.00  0.00    -0.001 A 
ENDROOT
TORSDOF 0
ENDMDL
