MODEL 1
REMARK minimizedAffinity -5.68633032
REMARK minimizedRMSD -1
REMARK  0 active torsions:
REMARK  status: ('A' for Active; 'I' for Inactive)
ROOT
ATOM      1  C   UNL d   1       0.694   2.182   0.589  0.00  0.00     0.078 C 
ATOM      2  C1  UNL d   1       1.008   0.833   0.015  0.00  0.00    -0.077 A 
ATOM      3  C2  UNL d   1       2.326   0.465  -0.283  0.00  0.00    -0.001 A 
ATOM      4  C3  UNL d   1       2.602  -0.790  -0.826  0.00  0.00     0.003 A 
ATOM      5  C4  UNL d   1       1.566  -1.687  -1.078  0.00  0.00    -0.005 A 
ATOM      6  C5  UNL d   1       0.251  -1.329  -0.787  0.00  0.00     0.003 A 
ATOM      7  C6  UNL d   1      -0.027  -0.074  -0.243  0.00  0.00    -0.001 A 
ENDROOT
TORSDOF 0
ENDMDL
