MODEL 1
REMARK minimizedAffinity -4.70476675
REMARK minimizedRMSD -1
REMARK  0 active torsions:
REMARK  status: ('A' for Active; 'I' for Inactive)
ROOT
ATOM      1  C   UNL d   1      -0.029   2.536  -1.176  0.00  0.00     0.078 C 
ATOM      2  C1  UNL d   1      -0.666   2.013   0.076  0.00  0.00    -0.077 A 
ATOM      3  C2  UNL d   1      -1.352   0.792   0.080  0.00  0.00    -0.001 A 
ATOM      4  C3  UNL d   1      -1.949   0.322   1.251  0.00  0.00     0.003 A 
ATOM      5  C4  UNL d   1      -1.868   1.067   2.426  0.00  0.00    -0.005 A 
ATOM      6  C5  UNL d   1      -1.189   2.284   2.431  0.00  0.00     0.003 A 
ATOM      7  C6  UNL d   1      -0.592   2.756   1.261  0.00  0.00    -0.001 A 
ENDROOT
TORSDOF 0
ENDMDL
