MODEL 1
REMARK minimizedAffinity -2.16689515
REMARK minimizedRMSD -1
REMARK  0 active torsions:
REMARK  status: ('A' for Active; 'I' for Inactive)
ROOT
ATOM      1  C   UNL d   1      -1.567   0.448   3.938  0.00  0.00     0.078 C 
ATOM      2  C1  UNL d   1      -1.074   0.684   2.542  0.00  0.00    -0.077 A 
ATOM      3  C2  UNL d   1      -0.406   1.867   2.202  0.00  0.00    -0.001 A 
ATOM      4  C3  UNL d   1       0.039   2.076   0.896  0.00  0.00     0.003 A 
ATOM      5  C4  UNL d   1      -0.180   1.108  -0.081  0.00  0.00    -0.005 A 
ATOM      6  C5  UNL d   1      -0.846  -0.072   0.246  0.00  0.00     0.003 A 
ATOM      7  C6  UNL d   1      -1.291  -0.283   1.552  0.00  0.00    -0.001 A 
ENDROOT
TORSDOF 0
ENDMDL
