MODEL 1
REMARK minimizedAffinity -2.47046638
REMARK minimizedRMSD -1
REMARK  0 active torsions:
REMARK  status: ('A' for Active; 'I' for Inactive)
ROOT
ATOM      1  C   UNL d   1       2.056  -1.668  -1.807  0.00  0.00     0.078 C 
ATOM      2  C1  UNL d   1       0.993  -0.964  -1.017  0.00  0.00    -0.077 A 
ATOM      3  C2  UNL d   1       0.292  -1.625  -0.001  0.00  0.00    -0.001 A 
ATOM      4  C3  UNL d   1      -0.701  -0.959   0.720  0.00  0.00     0.003 A 
ATOM      5  C4  UNL d   1      -1.002   0.370   0.431  0.00  0.00    -0.005 A 
ATOM      6  C5  UNL d   1      -0.312   1.036  -0.579  0.00  0.00     0.003 A 
ATOM      7  C6  UNL d   1       0.682   0.372  -1.301  0.00  0.00    -0.001 A 
ENDROOT
TORSDOF 0
ENDMDL
