MODEL 1
REMARK minimizedAffinity -5.10018635
REMARK minimizedRMSD -1
REMARK  0 active torsions:
REMARK  status: ('A' for Active; 'I' for Inactive)
ROOT
ATOM      1  C   UNL d   1       3.358  -0.666  -1.073  0.00  0.00     0.078 C 
ATOM      2  C1  UNL d   1       1.976  -0.462  -0.527  0.00  0.00    -0.077 A 
ATOM      3  C2  UNL d   1       1.103  -1.542  -0.353  0.00  0.00    -0.001 A 
ATOM      4  C3  UNL d   1      -0.184  -1.336   0.146  0.00  0.00     0.003 A 
ATOM      5  C4  UNL d   1      -0.610  -0.051   0.475  0.00  0.00    -0.005 A 
ATOM      6  C5  UNL d   1       0.251   1.031   0.303  0.00  0.00     0.003 A 
ATOM      7  C6  UNL d   1       1.538   0.827  -0.197  0.00  0.00    -0.001 A 
ENDROOT
TORSDOF 0
ENDMDL
