MODEL 1
REMARK minimizedAffinity 11.3384924
REMARK minimizedRMSD -1
REMARK  0 active torsions:
REMARK  status: ('A' for Active; 'I' for Inactive)
ROOT
ATOM      1  C   UNL d   1      -2.443   0.203   2.681  0.00  0.00    -0.002 A 
ATOM      2  C1  UNL d   1      -1.210   0.038   3.296  0.00  0.00     0.010 A 
ATOM      3  C2  UNL d   1      -0.049  -0.105   2.533  0.00  0.00     0.041 A 
ATOM      4  C3  UNL d   1      -0.149  -0.077   1.128  0.00  0.00    -0.075 A 
ATOM      5  S   UNL d   1       1.138  -0.232  -0.008  0.00  0.00     0.015 SA
ATOM      6  C4  UNL d   1       0.082  -0.081  -1.337  0.00  0.00     0.022 A 
ATOM      7  C5  UNL d   1      -1.225   0.084  -0.942  0.00  0.00     0.026 A 
ATOM      8  C6  UNL d   1      -1.379   0.089   0.486  0.00  0.00    -0.082 A 
ATOM      9  C7  UNL d   1      -2.538   0.230   1.287  0.00  0.00     0.045 A 
ENDROOT
TORSDOF 0
ENDMDL
