MODEL 1
REMARK minimizedAffinity 17.2880917
REMARK minimizedRMSD -1
REMARK  0 active torsions:
REMARK  status: ('A' for Active; 'I' for Inactive)
ROOT
ATOM      1  C   UNL d   1       4.250   2.251   0.079  0.00  0.00    -0.002 A 
ATOM      2  C1  UNL d   1       3.685   2.894   1.172  0.00  0.00     0.010 A 
ATOM      3  C2  UNL d   1       2.401   2.560   1.606  0.00  0.00     0.041 A 
ATOM      4  C3  UNL d   1       1.687   1.559   0.918  0.00  0.00    -0.075 A 
ATOM      5  S   UNL d   1       0.100   0.984   1.271  0.00  0.00     0.015 SA
ATOM      6  C4  UNL d   1       0.135  -0.128  -0.019  0.00  0.00     0.022 A 
ATOM      7  C5  UNL d   1       1.321  -0.076  -0.713  0.00  0.00     0.026 A 
ATOM      8  C6  UNL d   1       2.235   0.897  -0.184  0.00  0.00    -0.082 A 
ATOM      9  C7  UNL d   1       3.539   1.258  -0.600  0.00  0.00     0.045 A 
ENDROOT
TORSDOF 0
ENDMDL
