MODEL 1
REMARK minimizedAffinity 7.2783432
REMARK minimizedRMSD -1
REMARK  0 active torsions:
REMARK  status: ('A' for Active; 'I' for Inactive)
ROOT
ATOM      1  C   UNL d   1      -2.764  -0.830   3.682  0.00  0.00    -0.002 A 
ATOM      2  C1  UNL d   1      -1.473  -1.170   4.059  0.00  0.00     0.010 A 
ATOM      3  C2  UNL d   1      -0.401  -0.965   3.189  0.00  0.00     0.041 A 
ATOM      4  C3  UNL d   1      -0.651  -0.404   1.921  0.00  0.00    -0.075 A 
ATOM      5  S   UNL d   1       0.506  -0.061   0.689  0.00  0.00     0.015 SA
ATOM      6  C4  UNL d   1      -0.686   0.546  -0.366  0.00  0.00     0.022 A 
ATOM      7  C5  UNL d   1      -1.942   0.495   0.191  0.00  0.00     0.026 A 
ATOM      8  C6  UNL d   1      -1.942  -0.053   1.518  0.00  0.00    -0.082 A 
ATOM      9  C7  UNL d   1      -3.008  -0.275   2.423  0.00  0.00     0.045 A 
ENDROOT
TORSDOF 0
ENDMDL
