MODEL 1
REMARK minimizedAffinity 22.4213276
REMARK minimizedRMSD -1
REMARK  0 active torsions:
REMARK  status: ('A' for Active; 'I' for Inactive)
ROOT
ATOM      1  C   UNL d   1       3.471   2.264   0.435  0.00  0.00    -0.002 A 
ATOM      2  C1  UNL d   1       3.743   2.277  -0.926  0.00  0.00     0.010 A 
ATOM      3  C2  UNL d   1       2.836   1.733  -1.837  0.00  0.00     0.041 A 
ATOM      4  C3  UNL d   1       1.639   1.170  -1.353  0.00  0.00    -0.075 A 
ATOM      5  S   UNL d   1       0.380   0.446  -2.283  0.00  0.00     0.015 SA
ATOM      6  C4  UNL d   1      -0.548   0.102  -0.895  0.00  0.00     0.022 A 
ATOM      7  C5  UNL d   1       0.072   0.522   0.257  0.00  0.00     0.026 A 
ATOM      8  C6  UNL d   1       1.342   1.145   0.013  0.00  0.00    -0.082 A 
ATOM      9  C7  UNL d   1       2.282   1.704   0.911  0.00  0.00     0.045 A 
ENDROOT
TORSDOF 0
ENDMDL
