MODEL 1
REMARK minimizedAffinity 5.23673153
REMARK minimizedRMSD -1
REMARK  0 active torsions:
REMARK  status: ('A' for Active; 'I' for Inactive)
ROOT
ATOM      1  C   UNL d   1      -2.379   0.572   2.257  0.00  0.00    -0.002 A 
ATOM      2  C1  UNL d   1      -2.976   0.311   1.031  0.00  0.00     0.010 A 
ATOM      3  C2  UNL d   1      -2.197   0.016  -0.090  0.00  0.00     0.041 A 
ATOM      4  C3  UNL d   1      -0.795  -0.014   0.044  0.00  0.00    -0.075 A 
ATOM      5  S   UNL d   1       0.359  -0.353  -1.192  0.00  0.00     0.015 SA
ATOM      6  C4  UNL d   1       1.672  -0.160  -0.122  0.00  0.00     0.022 A 
ATOM      7  C5  UNL d   1       1.258   0.155   1.151  0.00  0.00     0.026 A 
ATOM      8  C6  UNL d   1      -0.171   0.244   1.267  0.00  0.00    -0.082 A 
ATOM      9  C7  UNL d   1      -0.988   0.541   2.385  0.00  0.00     0.045 A 
ENDROOT
TORSDOF 0
ENDMDL
