MODEL 1
REMARK minimizedAffinity 11.1699677
REMARK minimizedRMSD -1
REMARK  0 active torsions:
REMARK  status: ('A' for Active; 'I' for Inactive)
ROOT
ATOM      1  C   UNL d   1      -1.112  -0.514   4.155  0.00  0.00    -0.002 A 
ATOM      2  C1  UNL d   1      -2.091  -0.100   3.263  0.00  0.00     0.010 A 
ATOM      3  C2  UNL d   1      -1.759   0.230   1.947  0.00  0.00     0.041 A 
ATOM      4  C3  UNL d   1      -0.414   0.133   1.539  0.00  0.00    -0.075 A 
ATOM      5  S   UNL d   1       0.225   0.484  -0.024  0.00  0.00     0.015 SA
ATOM      6  C4  UNL d   1       1.813   0.092   0.456  0.00  0.00     0.022 A 
ATOM      7  C5  UNL d   1       1.872  -0.299   1.773  0.00  0.00     0.026 A 
ATOM      8  C6  UNL d   1       0.589  -0.282   2.418  0.00  0.00    -0.082 A 
ATOM      9  C7  UNL d   1       0.221  -0.608   3.746  0.00  0.00     0.045 A 
ENDROOT
TORSDOF 0
ENDMDL
