MODEL 1
REMARK minimizedAffinity 12.6816626
REMARK minimizedRMSD -1
REMARK  0 active torsions:
REMARK  status: ('A' for Active; 'I' for Inactive)
ROOT
ATOM      1  C   UNL d   1      -2.956  -1.428   4.070  0.00  0.00    -0.002 A 
ATOM      2  C1  UNL d   1      -1.576  -1.571   4.081  0.00  0.00     0.010 A 
ATOM      3  C2  UNL d   1      -0.796  -1.013   3.066  0.00  0.00     0.041 A 
ATOM      4  C3  UNL d   1      -1.433  -0.301   2.031  0.00  0.00    -0.075 A 
ATOM      5  S   UNL d   1      -0.682   0.469   0.683  0.00  0.00     0.015 SA
ATOM      6  C4  UNL d   1      -2.175   1.007   0.063  0.00  0.00     0.022 A 
ATOM      7  C5  UNL d   1      -3.232   0.617   0.851  0.00  0.00     0.026 A 
ATOM      8  C6  UNL d   1      -2.821  -0.142   1.999  0.00  0.00    -0.082 A 
ATOM      9  C7  UNL d   1      -3.584  -0.720   3.042  0.00  0.00     0.045 A 
ENDROOT
TORSDOF 0
ENDMDL
