MODEL 1
REMARK minimizedAffinity 1.15432394
REMARK minimizedRMSD -1
REMARK  0 active torsions:
REMARK  status: ('A' for Active; 'I' for Inactive)
ROOT
ATOM      1  C   UNL d   1      -1.586  -0.406   1.699  0.00  0.00    -0.002 A 
ATOM      2  C1  UNL d   1      -0.388  -0.365   1.000  0.00  0.00     0.010 A 
ATOM      3  C2  UNL d   1       0.807  -0.741   1.617  0.00  0.00     0.041 A 
ATOM      4  C3  UNL d   1       0.777  -1.165   2.960  0.00  0.00    -0.075 A 
ATOM      5  S   UNL d   1       2.115  -1.673   3.920  0.00  0.00     0.015 SA
ATOM      6  C4  UNL d   1       1.128  -1.958   5.280  0.00  0.00     0.022 A 
ATOM      7  C5  UNL d   1      -0.194  -1.677   5.025  0.00  0.00     0.026 A 
ATOM      8  C6  UNL d   1      -0.418  -1.216   3.684  0.00  0.00    -0.082 A 
ATOM      9  C7  UNL d   1      -1.612  -0.828   3.031  0.00  0.00     0.045 A 
ENDROOT
TORSDOF 0
ENDMDL
