MODEL 1
REMARK minimizedAffinity -1.40392423
REMARK minimizedRMSD -1
REMARK  2 active torsions:
REMARK  status: ('A' for Active; 'I' for Inactive)
REMARK    1  A    between atoms: C2'_3  and  C1'_4 
REMARK    2  A    between atoms: C1'_4  and  C1_5 
ROOT
ATOM      1  C1  I4B d   1      -3.736  -3.485  -5.551  0.00  0.00    -0.075 A 
ATOM      2  C2  I4B d   1      -5.082  -3.742  -5.637  0.00  0.00     0.003 A 
ATOM      3  C3  I4B d   1      -5.994  -2.689  -5.890  0.00  0.00     0.002 A 
ATOM      4  C4  I4B d   1      -5.525  -1.395  -5.999  0.00  0.00    -0.004 A 
ATOM      5  C5  I4B d   1      -4.158  -1.140  -5.935  0.00  0.00     0.002 A 
ATOM      6  C6  I4B d   1      -3.256  -2.193  -5.722  0.00  0.00     0.003 A 
ENDROOT
BRANCH   1   7
ATOM      7  C1' I4B d   1      -2.804  -4.616  -5.251  0.00  0.00     0.060 C 
BRANCH   7   8
ATOM      8  C2' I4B d   1      -1.451  -4.027  -4.906  0.00  0.00    -0.013 C 
ATOM      9  C4' I4B d   1      -1.529  -3.169  -3.671  0.00  0.00     0.013 C 
ATOM     10  C3' I4B d   1      -0.487  -5.161  -4.718  0.00  0.00     0.013 C 
ENDBRANCH   7   8
ENDBRANCH   1   7
TORSDOF 2
ENDMDL
