MODEL 1
REMARK minimizedAffinity 9.6913662
REMARK minimizedRMSD -1
REMARK  2 active torsions:
REMARK  status: ('A' for Active; 'I' for Inactive)
REMARK    1  A    between atoms: C2'_3  and  C1'_4 
REMARK    2  A    between atoms: C1'_4  and  C1_5 
ROOT
ATOM      1  C1  I4B d   1      -3.718  -3.220  -4.976  0.00  0.00    -0.075 A 
ATOM      2  C2  I4B d   1      -4.848  -2.501  -5.277  0.00  0.00     0.003 A 
ATOM      3  C3  I4B d   1      -6.000  -3.158  -5.773  0.00  0.00     0.002 A 
ATOM      4  C4  I4B d   1      -5.962  -4.519  -5.999  0.00  0.00    -0.004 A 
ATOM      5  C5  I4B d   1      -4.823  -5.249  -5.672  0.00  0.00     0.002 A 
ATOM      6  C6  I4B d   1      -3.698  -4.598  -5.145  0.00  0.00     0.003 A 
ENDROOT
BRANCH   1   7
ATOM      7  C1' I4B d   1      -2.509  -2.489  -4.485  0.00  0.00     0.060 C 
BRANCH   7   8
ATOM      8  C2' I4B d   1      -1.871  -3.323  -3.392  0.00  0.00    -0.013 C 
ATOM      9  C4' I4B d   1      -0.863  -4.287  -3.959  0.00  0.00     0.013 C 
ATOM     10  C3' I4B d   1      -1.233  -2.388  -2.409  0.00  0.00     0.013 C 
ENDBRANCH   7   8
ENDBRANCH   1   7
TORSDOF 2
ENDMDL
