MODEL 1
REMARK minimizedAffinity -2.63640261
REMARK minimizedRMSD -1
REMARK  2 active torsions:
REMARK  status: ('A' for Active; 'I' for Inactive)
REMARK    1  A    between atoms: C2'_3  and  C1'_4 
REMARK    2  A    between atoms: C1'_4  and  C1_5 
ROOT
ATOM      1  C1  I4B d   1      -2.871  -3.540  -4.326  0.00  0.00    -0.075 A 
ATOM      2  C2  I4B d   1      -3.028  -4.824  -4.785  0.00  0.00     0.003 A 
ATOM      3  C3  I4B d   1      -1.900  -5.663  -4.953  0.00  0.00     0.002 A 
ATOM      4  C4  I4B d   1      -0.638  -5.165  -4.701  0.00  0.00    -0.004 A 
ATOM      5  C5  I4B d   1      -0.483  -3.870  -4.214  0.00  0.00     0.002 A 
ATOM      6  C6  I4B d   1      -1.607  -3.056  -4.013  0.00  0.00     0.003 A 
ENDROOT
BRANCH   1   7
ATOM      7  C1' I4B d   1      -4.080  -2.670  -4.191  0.00  0.00     0.060 C 
BRANCH   7   8
ATOM      8  C2' I4B d   1      -4.586  -2.354  -5.584  0.00  0.00    -0.013 C 
ATOM      9  C4' I4B d   1      -5.672  -3.310  -5.999  0.00  0.00     0.013 C 
ATOM     10  C3' I4B d   1      -5.080  -0.938  -5.586  0.00  0.00     0.013 C 
ENDBRANCH   7   8
ENDBRANCH   1   7
TORSDOF 2
ENDMDL
