MODEL 1
REMARK minimizedAffinity 6.46349764
REMARK minimizedRMSD -1
REMARK  2 active torsions:
REMARK  status: ('A' for Active; 'I' for Inactive)
REMARK    1  A    between atoms: C2'_3  and  C1'_4 
REMARK    2  A    between atoms: C1'_4  and  C1_5 
ROOT
ATOM      1  C1  I4B d   1       5.087  -1.690  -3.391  0.00  0.00    -0.075 A 
ATOM      2  C2  I4B d   1       4.458  -0.970  -4.376  0.00  0.00     0.003 A 
ATOM      3  C3  I4B d   1       4.394  -1.474  -5.697  0.00  0.00     0.002 A 
ATOM      4  C4  I4B d   1       5.012  -2.670  -5.999  0.00  0.00    -0.004 A 
ATOM      5  C5  I4B d   1       5.630  -3.410  -4.995  0.00  0.00     0.002 A 
ATOM      6  C6  I4B d   1       5.657  -2.923  -3.680  0.00  0.00     0.003 A 
ENDROOT
BRANCH   1   7
ATOM      7  C1' I4B d   1       5.165  -1.113  -2.014  0.00  0.00     0.060 C 
BRANCH   7   8
ATOM      8  C2' I4B d   1       4.587   0.287  -2.061  0.00  0.00    -0.013 C 
ATOM      9  C4' I4B d   1       3.322   0.383  -1.249  0.00  0.00     0.013 C 
ATOM     10  C3' I4B d   1       5.631   1.236  -1.551  0.00  0.00     0.013 C 
ENDBRANCH   7   8
ENDBRANCH   1   7
TORSDOF 2
ENDMDL
