MODEL 1
REMARK minimizedAffinity 0.177421808
REMARK minimizedRMSD -1
REMARK  2 active torsions:
REMARK  status: ('A' for Active; 'I' for Inactive)
REMARK    1  A    between atoms: C2'_3  and  C1'_4 
REMARK    2  A    between atoms: C1'_4  and  C1_5 
ROOT
ATOM      1  C1  I4B d   1      -0.787  -1.620  -1.963  0.00  0.00    -0.075 A 
ATOM      2  C2  I4B d   1      -0.710  -0.522  -2.783  0.00  0.00     0.003 A 
ATOM      3  C3  I4B d   1      -0.020   0.639  -2.357  0.00  0.00     0.002 A 
ATOM      4  C4  I4B d   1       0.531   0.676  -1.092  0.00  0.00    -0.004 A 
ATOM      5  C5  I4B d   1       0.471  -0.446  -0.271  0.00  0.00     0.002 A 
ATOM      6  C6  I4B d   1      -0.181  -1.606  -0.714  0.00  0.00     0.003 A 
ENDROOT
BRANCH   1   7
ATOM      7  C1' I4B d   1      -1.552  -2.817  -2.432  0.00  0.00     0.060 C 
BRANCH   7   8
ATOM      8  C2' I4B d   1      -1.376  -2.925  -3.933  0.00  0.00    -0.013 C 
ATOM      9  C4' I4B d   1      -0.657  -4.194  -4.308  0.00  0.00     0.013 C 
ATOM     10  C3' I4B d   1      -2.735  -2.866  -4.564  0.00  0.00     0.013 C 
ENDBRANCH   7   8
ENDBRANCH   1   7
TORSDOF 2
ENDMDL
