MODEL 1
REMARK minimizedAffinity -1.41254056
REMARK minimizedRMSD -1
REMARK  2 active torsions:
REMARK  status: ('A' for Active; 'I' for Inactive)
REMARK    1  A    between atoms: C2'_3  and  C1'_4 
REMARK    2  A    between atoms: C1'_4  and  C1_5 
ROOT
ATOM      1  C1  I4B d   1      -2.885  -3.044  -4.608  0.00  0.00    -0.075 A 
ATOM      2  C2  I4B d   1      -2.304  -2.022  -5.317  0.00  0.00     0.003 A 
ATOM      3  C3  I4B d   1      -3.110  -1.077  -5.997  0.00  0.00     0.002 A 
ATOM      4  C4  I4B d   1      -4.483  -1.221  -5.984  0.00  0.00    -0.004 A 
ATOM      5  C5  I4B d   1      -5.071  -2.244  -5.246  0.00  0.00     0.002 A 
ATOM      6  C6  I4B d   1      -4.268  -3.154  -4.543  0.00  0.00     0.003 A 
ENDROOT
BRANCH   1   7
ATOM      7  C1' I4B d   1      -2.003  -4.042  -3.929  0.00  0.00     0.060 C 
BRANCH   7   8
ATOM      8  C2' I4B d   1      -1.635  -5.106  -4.944  0.00  0.00    -0.013 C 
ATOM      9  C4' I4B d   1      -0.430  -5.891  -4.498  0.00  0.00     0.013 C 
ATOM     10  C3' I4B d   1      -2.825  -6.000  -5.130  0.00  0.00     0.013 C 
ENDBRANCH   7   8
ENDBRANCH   1   7
TORSDOF 2
ENDMDL
