MODEL 1
REMARK minimizedAffinity 7.81471729
REMARK minimizedRMSD -1
REMARK  2 active torsions:
REMARK  status: ('A' for Active; 'I' for Inactive)
REMARK    1  A    between atoms: C2'_3  and  C1'_4 
REMARK    2  A    between atoms: C1'_4  and  C1_5 
ROOT
ATOM      1  C1  I4B d   1       0.264   0.571  -1.345  0.00  0.00    -0.075 A 
ATOM      2  C2  I4B d   1       0.906   1.770  -1.530  0.00  0.00     0.003 A 
ATOM      3  C3  I4B d   1       1.694   2.324  -0.492  0.00  0.00     0.002 A 
ATOM      4  C4  I4B d   1       1.770   1.675   0.723  0.00  0.00    -0.004 A 
ATOM      5  C5  I4B d   1       1.137   0.448   0.901  0.00  0.00     0.002 A 
ATOM      6  C6  I4B d   1       0.389  -0.114  -0.144  0.00  0.00     0.003 A 
ENDROOT
BRANCH   1   7
ATOM      7  C1' I4B d   1      -0.586   0.031  -2.451  0.00  0.00     0.060 C 
BRANCH   7   8
ATOM      8  C2' I4B d   1      -0.914  -1.412  -2.126  0.00  0.00    -0.013 C 
ATOM      9  C4' I4B d   1      -1.963  -1.503  -1.049  0.00  0.00     0.013 C 
ATOM     10  C3' I4B d   1      -1.375  -2.077  -3.388  0.00  0.00     0.013 C 
ENDBRANCH   7   8
ENDBRANCH   1   7
TORSDOF 2
ENDMDL
