MODEL 1
REMARK minimizedAffinity -1.32990885
REMARK minimizedRMSD -1
REMARK  2 active torsions:
REMARK  status: ('A' for Active; 'I' for Inactive)
REMARK    1  A    between atoms: C2'_3  and  C1'_4 
REMARK    2  A    between atoms: C1'_4  and  C1_5 
ROOT
ATOM      1  C1  I4B d   1       2.187   2.259   2.214  0.00  0.00    -0.075 A 
ATOM      2  C2  I4B d   1       1.602   3.495   2.090  0.00  0.00     0.003 A 
ATOM      3  C3  I4B d   1       2.208   4.632   2.677  0.00  0.00     0.002 A 
ATOM      4  C4  I4B d   1       3.364   4.482   3.416  0.00  0.00    -0.004 A 
ATOM      5  C5  I4B d   1       3.968   3.232   3.521  0.00  0.00     0.002 A 
ATOM      6  C6  I4B d   1       3.382   2.116   2.906  0.00  0.00     0.003 A 
ENDROOT
BRANCH   1   7
ATOM      7  C1' I4B d   1       1.503   1.074   1.610  0.00  0.00     0.060 C 
BRANCH   7   8
ATOM      8  C2' I4B d   1       1.405   1.303   0.116  0.00  0.00    -0.013 C 
ATOM      9  C4' I4B d   1       2.766   1.281  -0.529  0.00  0.00     0.013 C 
ATOM     10  C3' I4B d   1       0.516   0.240  -0.458  0.00  0.00     0.013 C 
ENDBRANCH   7   8
ENDBRANCH   1   7
TORSDOF 2
ENDMDL
