MODEL 1
REMARK minimizedAffinity 3.2137351
REMARK minimizedRMSD -1
REMARK  2 active torsions:
REMARK  status: ('A' for Active; 'I' for Inactive)
REMARK    1  A    between atoms: C2'_3  and  C1'_4 
REMARK    2  A    between atoms: C1'_4  and  C1_5 
ROOT
ATOM      1  C1  I4B d   1      -3.388  -2.360  -5.236  0.00  0.00    -0.075 A 
ATOM      2  C2  I4B d   1      -3.664  -3.643  -5.639  0.00  0.00     0.003 A 
ATOM      3  C3  I4B d   1      -4.984  -4.008  -5.998  0.00  0.00     0.002 A 
ATOM      4  C4  I4B d   1      -5.999  -3.080  -5.892  0.00  0.00    -0.004 A 
ATOM      5  C5  I4B d   1      -5.713  -1.774  -5.505  0.00  0.00     0.002 A 
ATOM      6  C6  I4B d   1      -4.398  -1.408  -5.187  0.00  0.00     0.003 A 
ENDROOT
BRANCH   1   7
ATOM      7  C1' I4B d   1      -1.989  -2.017  -4.832  0.00  0.00     0.060 C 
BRANCH   7   8
ATOM      8  C2' I4B d   1      -1.615  -2.894  -3.655  0.00  0.00    -0.013 C 
ATOM      9  C4' I4B d   1      -0.764  -4.058  -4.091  0.00  0.00     0.013 C 
ATOM     10  C3' I4B d   1      -0.894  -2.042  -2.653  0.00  0.00     0.013 C 
ENDBRANCH   7   8
ENDBRANCH   1   7
TORSDOF 2
ENDMDL
