MODEL 1
REMARK minimizedAffinity 5.16923952
REMARK minimizedRMSD -1
REMARK  2 active torsions:
REMARK  status: ('A' for Active; 'I' for Inactive)
REMARK    1  A    between atoms: C2'_3  and  C1'_4 
REMARK    2  A    between atoms: C1'_4  and  C1_5 
ROOT
ATOM      1  C1  I4B d   1      -3.477  -2.264  -4.833  0.00  0.00    -0.075 A 
ATOM      2  C2  I4B d   1      -3.610  -3.428  -5.547  0.00  0.00     0.003 A 
ATOM      3  C3  I4B d   1      -4.886  -3.847  -5.998  0.00  0.00     0.002 A 
ATOM      4  C4  I4B d   1      -6.000  -3.101  -5.670  0.00  0.00    -0.004 A 
ATOM      5  C5  I4B d   1      -5.860  -1.909  -4.966  0.00  0.00     0.002 A 
ATOM      6  C6  I4B d   1      -4.589  -1.481  -4.555  0.00  0.00     0.003 A 
ENDROOT
BRANCH   1   7
ATOM      7  C1' I4B d   1      -2.119  -1.869  -4.345  0.00  0.00     0.060 C 
BRANCH   7   8
ATOM      8  C2' I4B d   1      -1.661  -2.911  -3.345  0.00  0.00    -0.013 C 
ATOM      9  C4' I4B d   1      -0.553  -3.760  -3.911  0.00  0.00     0.013 C 
ATOM     10  C3' I4B d   1      -1.217  -2.198  -2.103  0.00  0.00     0.013 C 
ENDBRANCH   7   8
ENDBRANCH   1   7
TORSDOF 2
ENDMDL
