MODEL 1
REMARK minimizedAffinity 4.01097393
REMARK minimizedRMSD -1
REMARK  0 active torsions:
REMARK  status: ('A' for Active; 'I' for Inactive)
ROOT
ATOM      1  C   UNL d   1      -5.995   2.601  -0.105  0.00  0.00    -0.002 A 
ATOM      2  C1  UNL d   1      -5.996   1.326   0.442  0.00  0.00     0.010 A 
ATOM      3  C2  UNL d   1      -5.999   0.199  -0.382  0.00  0.00     0.041 A 
ATOM      4  C3  UNL d   1      -5.998   0.376  -1.780  0.00  0.00    -0.075 A 
ATOM      5  S   UNL d   1      -6.000  -0.857  -2.984  0.00  0.00     0.015 SA
ATOM      6  C4  UNL d   1      -5.998   0.279  -4.254  0.00  0.00     0.022 A 
ATOM      7  C5  UNL d   1      -5.997   1.573  -3.789  0.00  0.00     0.026 A 
ATOM      8  C6  UNL d   1      -5.996   1.650  -2.355  0.00  0.00    -0.082 A 
ATOM      9  C7  UNL d   1      -5.995   2.773  -1.492  0.00  0.00     0.045 A 
ENDROOT
TORSDOF 0
ENDMDL
