MODEL 1
REMARK minimizedAffinity 12.3079453
REMARK minimizedRMSD -1
REMARK  0 active torsions:
REMARK  status: ('A' for Active; 'I' for Inactive)
ROOT
ATOM      1  C   UNL d   1       0.799   3.006  -2.371  0.00  0.00    -0.002 A 
ATOM      2  C1  UNL d   1       2.073   3.413  -2.740  0.00  0.00     0.010 A 
ATOM      3  C2  UNL d   1       2.257   4.280  -3.819  0.00  0.00     0.041 A 
ATOM      4  C3  UNL d   1       1.128   4.738  -4.526  0.00  0.00    -0.075 A 
ATOM      5  S   UNL d   1       1.111   5.805  -5.880  0.00  0.00     0.015 SA
ATOM      6  C4  UNL d   1      -0.588   5.747  -5.999  0.00  0.00     0.022 A 
ATOM      7  C5  UNL d   1      -1.145   4.938  -5.038  0.00  0.00     0.026 A 
ATOM      8  C6  UNL d   1      -0.166   4.343  -4.173  0.00  0.00    -0.082 A 
ATOM      9  C7  UNL d   1      -0.319   3.462  -3.075  0.00  0.00     0.045 A 
ENDROOT
TORSDOF 0
ENDMDL
