MODEL 1
REMARK minimizedAffinity 10.301631
REMARK minimizedRMSD -1
REMARK  0 active torsions:
REMARK  status: ('A' for Active; 'I' for Inactive)
ROOT
ATOM      1  C   UNL d   1       2.541   3.969  -3.739  0.00  0.00    -0.002 A 
ATOM      2  C1  UNL d   1       1.688   3.722  -2.673  0.00  0.00     0.010 A 
ATOM      3  C2  UNL d   1       0.355   4.135  -2.720  0.00  0.00     0.041 A 
ATOM      4  C3  UNL d   1      -0.111   4.805  -3.868  0.00  0.00    -0.075 A 
ATOM      5  S   UNL d   1      -1.704   5.402  -4.148  0.00  0.00     0.015 SA
ATOM      6  C4  UNL d   1      -1.290   5.998  -5.691  0.00  0.00     0.022 A 
ATOM      7  C5  UNL d   1       0.028   5.756  -6.000  0.00  0.00     0.026 A 
ATOM      8  C6  UNL d   1       0.729   5.064  -4.955  0.00  0.00    -0.082 A 
ATOM      9  C7  UNL d   1       2.075   4.633  -4.877  0.00  0.00     0.045 A 
ENDROOT
TORSDOF 0
ENDMDL
