MODEL 1
REMARK minimizedAffinity 12.332736
REMARK minimizedRMSD -1
REMARK  0 active torsions:
REMARK  status: ('A' for Active; 'I' for Inactive)
ROOT
ATOM      1  C   UNL d   1      -4.903  -5.847   2.596  0.00  0.00    -0.002 A 
ATOM      2  C1  UNL d   1      -5.246  -4.592   3.081  0.00  0.00     0.010 A 
ATOM      3  C2  UNL d   1      -4.506  -3.465   2.719  0.00  0.00     0.041 A 
ATOM      4  C3  UNL d   1      -3.407  -3.620   1.852  0.00  0.00    -0.075 A 
ATOM      5  S   UNL d   1      -2.357  -2.382   1.272  0.00  0.00     0.015 SA
ATOM      6  C4  UNL d   1      -1.429  -3.488   0.367  0.00  0.00     0.022 A 
ATOM      7  C5  UNL d   1      -1.895  -4.776   0.493  0.00  0.00     0.026 A 
ATOM      8  C6  UNL d   1      -3.043  -4.873   1.350  0.00  0.00    -0.082 A 
ATOM      9  C7  UNL d   1      -3.812  -5.997   1.737  0.00  0.00     0.045 A 
ENDROOT
TORSDOF 0
ENDMDL
