MODEL 1
REMARK minimizedAffinity 4.20884466
REMARK minimizedRMSD -1
REMARK  0 active torsions:
REMARK  status: ('A' for Active; 'I' for Inactive)
ROOT
ATOM      1  C   UNL d   1       1.242   3.512  -2.205  0.00  0.00    -0.002 A 
ATOM      2  C1  UNL d   1       2.440   3.928  -2.767  0.00  0.00     0.010 A 
ATOM      3  C2  UNL d   1       2.449   4.678  -3.946  0.00  0.00     0.041 A 
ATOM      4  C3  UNL d   1       1.221   5.006  -4.554  0.00  0.00    -0.075 A 
ATOM      5  S   UNL d   1       0.988   5.915  -6.000  0.00  0.00     0.015 SA
ATOM      6  C4  UNL d   1      -0.707   5.773  -5.905  0.00  0.00     0.022 A 
ATOM      7  C5  UNL d   1      -1.103   5.053  -4.803  0.00  0.00     0.026 A 
ATOM      8  C6  UNL d   1       0.002   4.599  -4.006  0.00  0.00    -0.082 A 
ATOM      9  C7  UNL d   1       0.026   3.840  -2.811  0.00  0.00     0.045 A 
ENDROOT
TORSDOF 0
ENDMDL
