MODEL 1
REMARK minimizedAffinity 4.63321781
REMARK minimizedRMSD -1
REMARK  0 active torsions:
REMARK  status: ('A' for Active; 'I' for Inactive)
ROOT
ATOM      1  C   UNL d   1      -5.231   4.381  -0.508  0.00  0.00    -0.002 A 
ATOM      2  C1  UNL d   1      -5.374   3.386   0.449  0.00  0.00     0.010 A 
ATOM      3  C2  UNL d   1      -5.615   2.064   0.069  0.00  0.00     0.041 A 
ATOM      4  C3  UNL d   1      -5.709   1.756  -1.303  0.00  0.00    -0.075 A 
ATOM      5  S   UNL d   1      -5.999   0.207  -2.002  0.00  0.00     0.015 SA
ATOM      6  C4  UNL d   1      -5.938   0.829  -3.588  0.00  0.00     0.022 A 
ATOM      7  C5  UNL d   1      -5.704   2.183  -3.602  0.00  0.00     0.026 A 
ATOM      8  C6  UNL d   1      -5.568   2.740  -2.285  0.00  0.00    -0.082 A 
ATOM      9  C7  UNL d   1      -5.325   4.071  -1.868  0.00  0.00     0.045 A 
ENDROOT
TORSDOF 0
ENDMDL
