MODEL 1
REMARK minimizedAffinity 9.8277092
REMARK minimizedRMSD -1
REMARK  0 active torsions:
REMARK  status: ('A' for Active; 'I' for Inactive)
ROOT
ATOM      1  C   UNL d   1      -5.967  -0.956  -2.379  0.00  0.00    -0.002 A 
ATOM      2  C1  UNL d   1      -5.968   0.188  -1.592  0.00  0.00     0.010 A 
ATOM      3  C2  UNL d   1      -5.975   1.454  -2.181  0.00  0.00     0.041 A 
ATOM      4  C3  UNL d   1      -5.983   1.553  -3.586  0.00  0.00    -0.075 A 
ATOM      5  S   UNL d   1      -5.994   2.998  -4.526  0.00  0.00     0.015 SA
ATOM      6  C4  UNL d   1      -5.998   2.131  -5.994  0.00  0.00     0.022 A 
ATOM      7  C5  UNL d   1      -5.992   0.772  -5.790  0.00  0.00     0.026 A 
ATOM      8  C6  UNL d   1      -5.983   0.416  -4.399  0.00  0.00    -0.082 A 
ATOM      9  C7  UNL d   1      -5.975  -0.854  -3.772  0.00  0.00     0.045 A 
ENDROOT
TORSDOF 0
ENDMDL
