MODEL 1
REMARK minimizedAffinity 12.2541971
REMARK minimizedRMSD -1
REMARK  0 active torsions:
REMARK  status: ('A' for Active; 'I' for Inactive)
ROOT
ATOM      1  C   UNL d   1      -5.978   3.037  -3.394  0.00  0.00    -0.002 A 
ATOM      2  C1  UNL d   1      -5.981   2.237  -2.261  0.00  0.00     0.010 A 
ATOM      3  C2  UNL d   1      -5.988   0.846  -2.374  0.00  0.00     0.041 A 
ATOM      4  C3  UNL d   1      -5.992   0.266  -3.658  0.00  0.00    -0.075 A 
ATOM      5  S   UNL d   1      -6.000  -1.415  -4.039  0.00  0.00     0.015 SA
ATOM      6  C4  UNL d   1      -5.999  -1.111  -5.716  0.00  0.00     0.022 A 
ATOM      7  C5  UNL d   1      -5.993   0.235  -5.996  0.00  0.00     0.026 A 
ATOM      8  C6  UNL d   1      -5.988   1.051  -4.814  0.00  0.00    -0.082 A 
ATOM      9  C7  UNL d   1      -5.981   2.459  -4.666  0.00  0.00     0.045 A 
ENDROOT
TORSDOF 0
ENDMDL
