MODEL 1
REMARK minimizedAffinity 6.41130877
REMARK minimizedRMSD -1
REMARK  0 active torsions:
REMARK  status: ('A' for Active; 'I' for Inactive)
ROOT
ATOM      1  C   UNL d   1       2.321   3.996  -3.406  0.00  0.00    -0.002 A 
ATOM      2  C1  UNL d   1       1.270   3.381  -2.739  0.00  0.00     0.010 A 
ATOM      3  C2  UNL d   1      -0.052   3.627  -3.117  0.00  0.00     0.041 A 
ATOM      4  C3  UNL d   1      -0.302   4.508  -4.188  0.00  0.00    -0.075 A 
ATOM      5  S   UNL d   1      -1.839   4.958  -4.825  0.00  0.00     0.015 SA
ATOM      6  C4  UNL d   1      -1.138   5.976  -5.999  0.00  0.00     0.022 A 
ATOM      7  C5  UNL d   1       0.235   5.984  -5.920  0.00  0.00     0.026 A 
ATOM      8  C6  UNL d   1       0.739   5.138  -4.875  0.00  0.00    -0.082 A 
ATOM      9  C7  UNL d   1       2.068   4.869  -4.468  0.00  0.00     0.045 A 
ENDROOT
TORSDOF 0
ENDMDL
