MODEL 1
REMARK minimizedAffinity 10.6689606
REMARK minimizedRMSD -1
REMARK  0 active torsions:
REMARK  status: ('A' for Active; 'I' for Inactive)
ROOT
ATOM      1  C   UNL d   1      -2.481  -3.180   0.873  0.00  0.00    -0.002 A 
ATOM      2  C1  UNL d   1      -2.521  -1.851   1.272  0.00  0.00     0.010 A 
ATOM      3  C2  UNL d   1      -1.480  -1.304   2.023  0.00  0.00     0.041 A 
ATOM      4  C3  UNL d   1      -0.386  -2.121   2.368  0.00  0.00    -0.075 A 
ATOM      5  S   UNL d   1       1.004  -1.667   3.282  0.00  0.00     0.015 SA
ATOM      6  C4  UNL d   1       1.684  -3.225   3.163  0.00  0.00     0.022 A 
ATOM      7  C5  UNL d   1       0.884  -4.084   2.447  0.00  0.00     0.026 A 
ATOM      8  C6  UNL d   1      -0.322  -3.462   1.977  0.00  0.00    -0.082 A 
ATOM      9  C7  UNL d   1      -1.394  -3.987   1.217  0.00  0.00     0.045 A 
ENDROOT
TORSDOF 0
ENDMDL
