MODEL 1
REMARK minimizedAffinity 17.084837
REMARK minimizedRMSD -1
REMARK  0 active torsions:
REMARK  status: ('A' for Active; 'I' for Inactive)
ROOT
ATOM      1  C   UNL d   1       0.134  -3.487   1.529  0.00  0.00    -0.002 A 
ATOM      2  C1  UNL d   1      -0.887  -3.702   0.614  0.00  0.00     0.010 A 
ATOM      3  C2  UNL d   1      -1.910  -2.765   0.458  0.00  0.00     0.041 A 
ATOM      4  C3  UNL d   1      -1.889  -1.595   1.244  0.00  0.00    -0.075 A 
ATOM      5  S   UNL d   1      -3.035  -0.308   1.223  0.00  0.00     0.015 SA
ATOM      6  C4  UNL d   1      -2.197   0.557   2.428  0.00  0.00     0.022 A 
ATOM      7  C5  UNL d   1      -1.068  -0.105   2.848  0.00  0.00     0.026 A 
ATOM      8  C6  UNL d   1      -0.871  -1.356   2.171  0.00  0.00    -0.082 A 
ATOM      9  C7  UNL d   1       0.151  -2.326   2.307  0.00  0.00     0.045 A 
ENDROOT
TORSDOF 0
ENDMDL
