MODEL 1
REMARK minimizedAffinity 8.84190464
REMARK minimizedRMSD -1
REMARK  0 active torsions:
REMARK  status: ('A' for Active; 'I' for Inactive)
ROOT
ATOM      1  C   UNL d   1      -3.576  -1.270   0.758  0.00  0.00    -0.002 A 
ATOM      2  C1  UNL d   1      -4.856  -0.813   1.035  0.00  0.00     0.010 A 
ATOM      3  C2  UNL d   1      -5.167  -0.287   2.290  0.00  0.00     0.041 A 
ATOM      4  C3  UNL d   1      -4.158  -0.225   3.272  0.00  0.00    -0.075 A 
ATOM      5  S   UNL d   1      -4.308   0.380   4.879  0.00  0.00     0.015 SA
ATOM      6  C4  UNL d   1      -2.675   0.047   5.236  0.00  0.00     0.022 A 
ATOM      7  C5  UNL d   1      -2.017  -0.512   4.167  0.00  0.00     0.026 A 
ATOM      8  C6  UNL d   1      -2.861  -0.678   3.017  0.00  0.00    -0.082 A 
ATOM      9  C7  UNL d   1      -2.578  -1.207   1.734  0.00  0.00     0.045 A 
ENDROOT
TORSDOF 0
ENDMDL
