MODEL 1
REMARK minimizedAffinity 15.9896832
REMARK minimizedRMSD -1
REMARK  1 active torsions:
REMARK  status: ('A' for Active; 'I' for Inactive)
REMARK    1  A    between atoms: C1_2  and  C2_3 
ROOT
ATOM      1  C2  UNL d   1       0.400   2.235  -4.951  0.00  0.00    -0.081 A 
ATOM      2  C3  UNL d   1       0.522   2.543  -3.590  0.00  0.00     0.006 A 
ATOM      3  C4  UNL d   1       0.385   1.545  -2.623  0.00  0.00     0.002 A 
ATOM      4  C5  UNL d   1       0.131   0.222  -2.999  0.00  0.00    -0.080 A 
ATOM      5  C6  UNL d   1       0.012  -0.865  -1.973  0.00  0.00     0.076 C 
ATOM      6  C7  UNL d   1      -0.008  -0.083  -4.358  0.00  0.00     0.002 A 
ATOM      7  C8  UNL d   1       0.129   0.914  -5.325  0.00  0.00     0.006 A 
ENDROOT
BRANCH   1   8
ATOM      8  C1  UNL d   1       0.612   3.297  -5.999  0.00  0.00     0.054 C 
ATOM      9  C   UNL d   1      -0.526   4.308  -6.000  0.00  0.00     0.018 C 
ENDBRANCH   1   8
TORSDOF 1
ENDMDL
