MODEL 1
REMARK minimizedAffinity 5.33432484
REMARK minimizedRMSD -1
REMARK  1 active torsions:
REMARK  status: ('A' for Active; 'I' for Inactive)
REMARK    1  A    between atoms: C1_2  and  C2_3 
ROOT
ATOM      1  C2  UNL d   1       2.756   1.016  -3.677  0.00  0.00    -0.081 A 
ATOM      2  C3  UNL d   1       3.034   0.203  -2.572  0.00  0.00     0.006 A 
ATOM      3  C4  UNL d   1       2.002  -0.460  -1.903  0.00  0.00     0.002 A 
ATOM      4  C5  UNL d   1       0.677  -0.328  -2.333  0.00  0.00    -0.080 A 
ATOM      5  C6  UNL d   1      -0.436  -1.059  -1.643  0.00  0.00     0.076 C 
ATOM      6  C7  UNL d   1       0.397   0.497  -3.427  0.00  0.00     0.002 A 
ATOM      7  C8  UNL d   1       1.428   1.161  -4.096  0.00  0.00     0.006 A 
ENDROOT
BRANCH   1   8
ATOM      8  C1  UNL d   1       3.873   1.681  -4.440  0.00  0.00     0.054 C 
ATOM      9  C   UNL d   1       5.151   0.856  -4.381  0.00  0.00     0.018 C 
ENDBRANCH   1   8
TORSDOF 1
ENDMDL
