MODEL 1
REMARK minimizedAffinity 16.6037102
REMARK minimizedRMSD -1
REMARK  1 active torsions:
REMARK  status: ('A' for Active; 'I' for Inactive)
REMARK    1  A    between atoms: C1_2  and  C2_3 
ROOT
ATOM      1  C2  UNL d   1       3.245  -5.846   3.604  0.00  0.00    -0.081 A 
ATOM      2  C3  UNL d   1       1.966  -5.848   4.174  0.00  0.00     0.006 A 
ATOM      3  C4  UNL d   1       0.830  -5.774   3.364  0.00  0.00     0.002 A 
ATOM      4  C5  UNL d   1       0.954  -5.705   1.973  0.00  0.00    -0.080 A 
ATOM      5  C6  UNL d   1      -0.259  -5.655   1.091  0.00  0.00     0.076 C 
ATOM      6  C7  UNL d   1       2.232  -5.685   1.404  0.00  0.00     0.002 A 
ATOM      7  C8  UNL d   1       3.368  -5.759   2.213  0.00  0.00     0.006 A 
ENDROOT
BRANCH   1   8
ATOM      8  C1  UNL d   1       4.470  -5.991   4.470  0.00  0.00     0.054 C 
ATOM      9  C   UNL d   1       5.745  -5.942   3.639  0.00  0.00     0.018 C 
ENDBRANCH   1   8
TORSDOF 1
ENDMDL
