MODEL 1
REMARK minimizedAffinity 13.1411047
REMARK minimizedRMSD -1
REMARK  1 active torsions:
REMARK  status: ('A' for Active; 'I' for Inactive)
REMARK    1  A    between atoms: C1_2  and  C2_3 
ROOT
ATOM      1  C2  UNL d   1      -3.468   2.834   3.173  0.00  0.00    -0.081 A 
ATOM      2  C3  UNL d   1      -2.221   2.923   3.803  0.00  0.00     0.006 A 
ATOM      3  C4  UNL d   1      -1.957   3.954   4.708  0.00  0.00     0.002 A 
ATOM      4  C5  UNL d   1      -2.938   4.906   5.006  0.00  0.00    -0.080 A 
ATOM      5  C6  UNL d   1      -2.677   6.000   5.999  0.00  0.00     0.076 C 
ATOM      6  C7  UNL d   1      -4.178   4.827   4.364  0.00  0.00     0.002 A 
ATOM      7  C8  UNL d   1      -4.442   3.797   3.457  0.00  0.00     0.006 A 
ENDROOT
BRANCH   1   8
ATOM      8  C1  UNL d   1      -3.778   1.687   2.245  0.00  0.00     0.054 C 
ATOM      9  C   UNL d   1      -3.001   0.437   2.632  0.00  0.00     0.018 C 
ENDBRANCH   1   8
TORSDOF 1
ENDMDL
