MODEL 1
REMARK minimizedAffinity 11.947607
REMARK minimizedRMSD -1
REMARK  1 active torsions:
REMARK  status: ('A' for Active; 'I' for Inactive)
REMARK    1  A    between atoms: C1_2  and  C2_3 
ROOT
ATOM      1  C2  UNL d   1      -0.165   0.825  -1.718  0.00  0.00    -0.081 A 
ATOM      2  C3  UNL d   1       0.308   0.524  -3.001  0.00  0.00     0.006 A 
ATOM      3  C4  UNL d   1       1.679   0.413  -3.242  0.00  0.00     0.002 A 
ATOM      4  C5  UNL d   1       2.599   0.593  -2.203  0.00  0.00    -0.080 A 
ATOM      5  C6  UNL d   1       4.073   0.446  -2.441  0.00  0.00     0.076 C 
ATOM      6  C7  UNL d   1       2.127   0.911  -0.925  0.00  0.00     0.002 A 
ATOM      7  C8  UNL d   1       0.756   1.023  -0.684  0.00  0.00     0.006 A 
ENDROOT
BRANCH   1   8
ATOM      8  C1  UNL d   1      -1.646   0.882  -1.441  0.00  0.00     0.054 C 
ATOM      9  C   UNL d   1      -2.017   0.030  -0.236  0.00  0.00     0.018 C 
ENDBRANCH   1   8
TORSDOF 1
ENDMDL
