MODEL 1
REMARK minimizedAffinity 2.26730704
REMARK minimizedRMSD -1
REMARK  1 active torsions:
REMARK  status: ('A' for Active; 'I' for Inactive)
REMARK    1  A    between atoms: C1_2  and  C2_3 
ROOT
ATOM      1  C2  UNL d   1       1.653   1.454  -1.319  0.00  0.00    -0.081 A 
ATOM      2  C3  UNL d   1       2.196   2.571  -1.965  0.00  0.00     0.006 A 
ATOM      3  C4  UNL d   1       2.316   2.596  -3.357  0.00  0.00     0.002 A 
ATOM      4  C5  UNL d   1       1.889   1.508  -4.126  0.00  0.00    -0.080 A 
ATOM      5  C6  UNL d   1       1.985   1.534  -5.622  0.00  0.00     0.076 C 
ATOM      6  C7  UNL d   1       1.363   0.385  -3.479  0.00  0.00     0.002 A 
ATOM      7  C8  UNL d   1       1.242   0.359  -2.088  0.00  0.00     0.006 A 
ENDROOT
BRANCH   1   8
ATOM      8  C1  UNL d   1       1.462   1.450   0.176  0.00  0.00     0.054 C 
ATOM      9  C   UNL d   1       2.590   2.191   0.879  0.00  0.00     0.018 C 
ENDBRANCH   1   8
TORSDOF 1
ENDMDL
