MODEL 1
REMARK minimizedAffinity 13.1242323
REMARK minimizedRMSD -1
REMARK  1 active torsions:
REMARK  status: ('A' for Active; 'I' for Inactive)
REMARK    1  A    between atoms: C1_2  and  C2_3 
ROOT
ATOM      1  C2  UNL d   1       1.045  -0.787  -2.559  0.00  0.00    -0.081 A 
ATOM      2  C3  UNL d   1       0.688   0.029  -3.639  0.00  0.00     0.006 A 
ATOM      3  C4  UNL d   1       1.176   1.335  -3.732  0.00  0.00     0.002 A 
ATOM      4  C5  UNL d   1       2.034   1.843  -2.752  0.00  0.00    -0.080 A 
ATOM      5  C6  UNL d   1       2.589   3.232  -2.855  0.00  0.00     0.076 C 
ATOM      6  C7  UNL d   1       2.378   1.033  -1.663  0.00  0.00     0.002 A 
ATOM      7  C8  UNL d   1       1.890  -0.272  -1.570  0.00  0.00     0.006 A 
ENDROOT
BRANCH   1   8
ATOM      8  C1  UNL d   1       0.573  -2.217  -2.490  0.00  0.00     0.054 C 
ATOM      9  C   UNL d   1       1.492  -3.062  -1.619  0.00  0.00     0.018 C 
ENDBRANCH   1   8
TORSDOF 1
ENDMDL
