MODEL 1
REMARK minimizedAffinity 8.18174934
REMARK minimizedRMSD -1
REMARK  1 active torsions:
REMARK  status: ('A' for Active; 'I' for Inactive)
REMARK    1  A    between atoms: C1_2  and  C2_3 
ROOT
ATOM      1  C2  UNL d   1       1.679   0.817  -3.689  0.00  0.00    -0.081 A 
ATOM      2  C3  UNL d   1       3.040   0.493  -3.621  0.00  0.00     0.006 A 
ATOM      3  C4  UNL d   1       3.601   0.039  -2.425  0.00  0.00     0.002 A 
ATOM      4  C5  UNL d   1       2.811  -0.106  -1.280  0.00  0.00    -0.080 A 
ATOM      5  C6  UNL d   1       3.394  -0.621   0.002  0.00  0.00     0.076 C 
ATOM      6  C7  UNL d   1       1.455   0.234  -1.343  0.00  0.00     0.002 A 
ATOM      7  C8  UNL d   1       0.893   0.688  -2.538  0.00  0.00     0.006 A 
ENDROOT
BRANCH   1   8
ATOM      8  C1  UNL d   1       1.057   1.244  -4.994  0.00  0.00     0.054 C 
ATOM      9  C   UNL d   1       2.116   1.696  -5.989  0.00  0.00     0.018 C 
ENDBRANCH   1   8
TORSDOF 1
ENDMDL
