MODEL 1
REMARK minimizedAffinity 17.1929798
REMARK minimizedRMSD -1
REMARK  1 active torsions:
REMARK  status: ('A' for Active; 'I' for Inactive)
REMARK    1  A    between atoms: C1_2  and  C2_3 
ROOT
ATOM      1  C2  UNL d   1       2.593   2.096  -3.206  0.00  0.00    -0.081 A 
ATOM      2  C3  UNL d   1       2.796   1.532  -1.940  0.00  0.00     0.006 A 
ATOM      3  C4  UNL d   1       2.308   0.257  -1.647  0.00  0.00     0.002 A 
ATOM      4  C5  UNL d   1       1.617  -0.479  -2.615  0.00  0.00    -0.080 A 
ATOM      5  C6  UNL d   1       1.115  -1.862  -2.323  0.00  0.00     0.076 C 
ATOM      6  C7  UNL d   1       1.399   0.090  -3.874  0.00  0.00     0.002 A 
ATOM      7  C8  UNL d   1       1.886   1.366  -4.168  0.00  0.00     0.006 A 
ENDROOT
BRANCH   1   8
ATOM      8  C1  UNL d   1       3.174   3.445  -3.546  0.00  0.00     0.054 C 
ATOM      9  C   UNL d   1       4.008   3.994  -2.398  0.00  0.00     0.018 C 
ENDBRANCH   1   8
TORSDOF 1
ENDMDL
