MODEL 1
REMARK minimizedAffinity 8.58900547
REMARK minimizedRMSD -1
REMARK  1 active torsions:
REMARK  status: ('A' for Active; 'I' for Inactive)
REMARK    1  A    between atoms: C1_2  and  C2_3 
ROOT
ATOM      1  C2  UNL d   1       1.932  -2.153  -1.990  0.00  0.00    -0.081 A 
ATOM      2  C3  UNL d   1       1.820  -1.202  -3.012  0.00  0.00     0.006 A 
ATOM      3  C4  UNL d   1       2.627  -0.063  -3.011  0.00  0.00     0.002 A 
ATOM      4  C5  UNL d   1       3.566   0.141  -1.994  0.00  0.00    -0.080 A 
ATOM      5  C6  UNL d   1       4.460   1.345  -1.998  0.00  0.00     0.076 C 
ATOM      6  C7  UNL d   1       3.667  -0.800  -0.964  0.00  0.00     0.002 A 
ATOM      7  C8  UNL d   1       2.859  -1.939  -0.964  0.00  0.00     0.006 A 
ENDROOT
BRANCH   1   8
ATOM      8  C1  UNL d   1       1.108  -3.415  -2.023  0.00  0.00     0.054 C 
ATOM      9  C   UNL d   1       1.087  -4.026  -3.417  0.00  0.00     0.018 C 
ENDBRANCH   1   8
TORSDOF 1
ENDMDL
