MODEL 1
REMARK minimizedAffinity 13.0611296
REMARK minimizedRMSD -1
REMARK  1 active torsions:
REMARK  status: ('A' for Active; 'I' for Inactive)
REMARK    1  A    between atoms: C1_2  and  C2_3 
ROOT
ATOM      1  C2  UNL d   1       0.540   1.583  -2.490  0.00  0.00    -0.081 A 
ATOM      2  C3  UNL d   1       1.392   0.875  -1.633  0.00  0.00     0.006 A 
ATOM      3  C4  UNL d   1       2.203   1.554  -0.721  0.00  0.00     0.002 A 
ATOM      4  C5  UNL d   1       2.170   2.950  -0.644  0.00  0.00    -0.080 A 
ATOM      5  C6  UNL d   1       3.014   3.689   0.352  0.00  0.00     0.076 C 
ATOM      6  C7  UNL d   1       1.332   3.659  -1.511  0.00  0.00     0.002 A 
ATOM      7  C8  UNL d   1       0.521   2.981  -2.424  0.00  0.00     0.006 A 
ENDROOT
BRANCH   1   8
ATOM      8  C1  UNL d   1      -0.384   0.851  -3.430  0.00  0.00     0.054 C 
ATOM      9  C   UNL d   1      -0.266   1.386  -4.849  0.00  0.00     0.018 C 
ENDBRANCH   1   8
TORSDOF 1
ENDMDL
