MODEL 1
REMARK minimizedAffinity 8.61644459
REMARK minimizedRMSD -1
REMARK  1 active torsions:
REMARK  status: ('A' for Active; 'I' for Inactive)
REMARK    1  A    between atoms: C1_2  and  C2_3 
ROOT
ATOM      1  C2  UNL d   1       0.163   1.012  -2.999  0.00  0.00    -0.081 A 
ATOM      2  C3  UNL d   1       0.406   0.067  -1.995  0.00  0.00     0.006 A 
ATOM      3  C4  UNL d   1       1.139   0.414  -0.858  0.00  0.00     0.002 A 
ATOM      4  C5  UNL d   1       1.633   1.713  -0.701  0.00  0.00    -0.080 A 
ATOM      5  C6  UNL d   1       2.395   2.107   0.530  0.00  0.00     0.076 C 
ATOM      6  C7  UNL d   1       1.405   2.653  -1.711  0.00  0.00     0.002 A 
ATOM      7  C8  UNL d   1       0.673   2.307  -2.849  0.00  0.00     0.006 A 
ENDROOT
BRANCH   1   8
ATOM      8  C1  UNL d   1      -0.682   0.659  -4.196  0.00  0.00     0.054 C 
ATOM      9  C   UNL d   1      -0.202   1.385  -5.445  0.00  0.00     0.018 C 
ENDBRANCH   1   8
TORSDOF 1
ENDMDL
