MODEL 1
REMARK minimizedAffinity 6.69448805
REMARK minimizedRMSD -1
REMARK  1 active torsions:
REMARK  status: ('A' for Active; 'I' for Inactive)
REMARK    1  A    between atoms: C1_2  and  C2_3 
ROOT
ATOM      1  C2  UNL d   1       2.093  -2.232  -0.791  0.00  0.00    -0.081 A 
ATOM      2  C3  UNL d   1       1.802  -0.917  -1.171  0.00  0.00     0.006 A 
ATOM      3  C4  UNL d   1       0.590  -0.612  -1.795  0.00  0.00     0.002 A 
ATOM      4  C5  UNL d   1      -0.353  -1.615  -2.042  0.00  0.00    -0.080 A 
ATOM      5  C6  UNL d   1      -1.671  -1.295  -2.684  0.00  0.00     0.076 C 
ATOM      6  C7  UNL d   1      -0.055  -2.932  -1.679  0.00  0.00     0.002 A 
ATOM      7  C8  UNL d   1       1.157  -3.238  -1.055  0.00  0.00     0.006 A 
ENDROOT
BRANCH   1   8
ATOM      8  C1  UNL d   1       3.372  -2.554  -0.060  0.00  0.00     0.054 C 
ATOM      9  C   UNL d   1       4.498  -1.620  -0.479  0.00  0.00     0.018 C 
ENDBRANCH   1   8
TORSDOF 1
ENDMDL
