MODEL 1
REMARK minimizedAffinity 11.5322723
REMARK minimizedRMSD -1
REMARK  1 active torsions:
REMARK  status: ('A' for Active; 'I' for Inactive)
REMARK    1  A    between atoms: C1_2  and  C2_3 
ROOT
ATOM      1  C2  UNL d   1      -2.023  -1.007  -1.862  0.00  0.00    -0.081 A 
ATOM      2  C3  UNL d   1      -2.246   0.375  -1.836  0.00  0.00     0.006 A 
ATOM      3  C4  UNL d   1      -3.273   0.912  -1.056  0.00  0.00     0.002 A 
ATOM      4  C5  UNL d   1      -4.088   0.077  -0.283  0.00  0.00    -0.080 A 
ATOM      5  C6  UNL d   1      -5.174   0.643   0.582  0.00  0.00     0.076 C 
ATOM      6  C7  UNL d   1      -3.876  -1.305  -0.322  0.00  0.00     0.002 A 
ATOM      7  C8  UNL d   1      -2.850  -1.842  -1.103  0.00  0.00     0.006 A 
ENDROOT
BRANCH   1   8
ATOM      8  C1  UNL d   1      -0.875  -1.583  -2.651  0.00  0.00     0.054 C 
ATOM      9  C   UNL d   1      -1.335  -2.077  -4.016  0.00  0.00     0.018 C 
ENDBRANCH   1   8
TORSDOF 1
ENDMDL
