MODEL 1
REMARK minimizedAffinity 12.0361185
REMARK minimizedRMSD -1
REMARK  1 active torsions:
REMARK  status: ('A' for Active; 'I' for Inactive)
REMARK    1  A    between atoms: C1_2  and  C2_3 
ROOT
ATOM      1  C2  UNL d   1      -0.387  -0.406  -1.546  0.00  0.00    -0.081 A 
ATOM      2  C3  UNL d   1       0.370  -0.845  -2.639  0.00  0.00     0.006 A 
ATOM      3  C4  UNL d   1      -0.245  -1.498  -3.710  0.00  0.00     0.002 A 
ATOM      4  C5  UNL d   1      -1.626  -1.717  -3.709  0.00  0.00    -0.080 A 
ATOM      5  C6  UNL d   1      -2.303  -2.390  -4.866  0.00  0.00     0.076 C 
ATOM      6  C7  UNL d   1      -2.381  -1.294  -2.610  0.00  0.00     0.002 A 
ATOM      7  C8  UNL d   1      -1.767  -0.641  -1.538  0.00  0.00     0.006 A 
ENDROOT
BRANCH   1   8
ATOM      8  C1  UNL d   1       0.263   0.356  -0.420  0.00  0.00     0.054 C 
ATOM      9  C   UNL d   1      -0.295   1.768  -0.313  0.00  0.00     0.018 C 
ENDBRANCH   1   8
TORSDOF 1
ENDMDL
