MODEL 1
REMARK minimizedAffinity 8.07945824
REMARK minimizedRMSD -1
REMARK  1 active torsions:
REMARK  status: ('A' for Active; 'I' for Inactive)
REMARK    1  A    between atoms: C1_2  and  C2_3 
ROOT
ATOM      1  C2  UNL d   1      -0.538   3.088   0.378  0.00  0.00    -0.081 A 
ATOM      2  C3  UNL d   1       0.737   3.014   0.951  0.00  0.00     0.006 A 
ATOM      3  C4  UNL d   1       0.967   2.204   2.066  0.00  0.00     0.002 A 
ATOM      4  C5  UNL d   1      -0.072   1.450   2.622  0.00  0.00    -0.080 A 
ATOM      5  C6  UNL d   1       0.168   0.554   3.800  0.00  0.00     0.076 C 
ATOM      6  C7  UNL d   1      -1.351   1.537   2.060  0.00  0.00     0.002 A 
ATOM      7  C8  UNL d   1      -1.581   2.347   0.946  0.00  0.00     0.006 A 
ENDROOT
BRANCH   1   8
ATOM      8  C1  UNL d   1      -0.774   3.909  -0.863  0.00  0.00     0.054 C 
ATOM      9  C   UNL d   1      -0.832   5.396  -0.540  0.00  0.00     0.018 C 
ENDBRANCH   1   8
TORSDOF 1
ENDMDL
