MODEL 1
REMARK minimizedAffinity 6.19389868
REMARK minimizedRMSD -1
REMARK  1 active torsions:
REMARK  status: ('A' for Active; 'I' for Inactive)
REMARK    1  A    between atoms: C1_2  and  C2_3 
ROOT
ATOM      1  C2  UNL d   1       0.025   3.184   1.830  0.00  0.00    -0.081 A 
ATOM      2  C3  UNL d   1      -0.096   2.438   0.651  0.00  0.00     0.006 A 
ATOM      3  C4  UNL d   1      -0.347   3.074  -0.567  0.00  0.00     0.002 A 
ATOM      4  C5  UNL d   1      -0.473   4.466  -0.628  0.00  0.00    -0.080 A 
ATOM      5  C6  UNL d   1      -0.711   5.165  -1.934  0.00  0.00     0.076 C 
ATOM      6  C7  UNL d   1      -0.369   5.210   0.552  0.00  0.00     0.002 A 
ATOM      7  C8  UNL d   1      -0.120   4.574   1.771  0.00  0.00     0.006 A 
ENDROOT
BRANCH   1   8
ATOM      8  C1  UNL d   1       0.359   2.507   3.134  0.00  0.00     0.054 C 
ATOM      9  C   UNL d   1       1.526   3.192   3.830  0.00  0.00     0.018 C 
ENDBRANCH   1   8
TORSDOF 1
ENDMDL
