MODEL 1
REMARK minimizedAffinity -5.77503538
REMARK minimizedRMSD -1
REMARK  1 active torsions:
REMARK  status: ('A' for Active; 'I' for Inactive)
REMARK    1  A    between atoms: C1_2  and  C2_3 
ROOT
ATOM      1  C2  UNL d   1      -0.492   0.010   1.483  0.00  0.00    -0.077 A 
ATOM      2  C3  UNL d   1      -1.721   0.117   0.818  0.00  0.00     0.002 A 
ATOM      3  C4  UNL d   1      -2.911   0.206   1.543  0.00  0.00     0.002 A 
ATOM      4  C5  UNL d   1      -2.883   0.194   2.936  0.00  0.00    -0.004 A 
ATOM      5  C6  UNL d   1      -1.665   0.086   3.607  0.00  0.00     0.002 A 
ATOM      6  C7  UNL d   1      -0.475  -0.004   2.884  0.00  0.00     0.002 A 
ENDROOT
BRANCH   1   7
ATOM      7  C1  UNL d   1       0.797  -0.036   0.704  0.00  0.00     0.055 C 
ATOM      8  C   UNL d   1       0.555   0.200  -0.780  0.00  0.00     0.019 C 
ENDBRANCH   1   7
TORSDOF 1
ENDMDL
