MODEL 1
REMARK minimizedAffinity -3.81280756
REMARK minimizedRMSD -1
REMARK  1 active torsions:
REMARK  status: ('A' for Active; 'I' for Inactive)
REMARK    1  A    between atoms: C1_2  and  C2_3 
ROOT
ATOM      1  C2  UNL d   1      -0.592  -0.057   0.554  0.00  0.00    -0.077 A 
ATOM      2  C3  UNL d   1      -1.301  -1.090   1.183  0.00  0.00     0.002 A 
ATOM      3  C4  UNL d   1      -0.951  -1.507   2.468  0.00  0.00     0.002 A 
ATOM      4  C5  UNL d   1       0.107  -0.894   3.137  0.00  0.00    -0.004 A 
ATOM      5  C6  UNL d   1       0.820   0.133   2.519  0.00  0.00     0.002 A 
ATOM      6  C7  UNL d   1       0.471   0.550   1.234  0.00  0.00     0.002 A 
ENDROOT
BRANCH   1   7
ATOM      7  C1  UNL d   1      -1.000   0.427  -0.813  0.00  0.00     0.055 C 
ATOM      8  C   UNL d   1      -2.499   0.678  -0.886  0.00  0.00     0.019 C 
ENDBRANCH   1   7
TORSDOF 1
ENDMDL
