MODEL 1
REMARK minimizedAffinity -4.40340519
REMARK minimizedRMSD -1
REMARK  1 active torsions:
REMARK  status: ('A' for Active; 'I' for Inactive)
REMARK    1  A    between atoms: C1_2  and  C2_3 
ROOT
ATOM      1  C2  UNL d   1       0.435   0.320   1.753  0.00  0.00    -0.077 A 
ATOM      2  C3  UNL d   1       1.657   1.004   1.815  0.00  0.00     0.002 A 
ATOM      3  C4  UNL d   1       2.363   1.296   0.646  0.00  0.00     0.002 A 
ATOM      4  C5  UNL d   1       1.853   0.913  -0.592  0.00  0.00    -0.004 A 
ATOM      5  C6  UNL d   1       0.639   0.231  -0.664  0.00  0.00     0.002 A 
ATOM      6  C7  UNL d   1      -0.068  -0.063   0.503  0.00  0.00     0.002 A 
ENDROOT
BRANCH   1   7
ATOM      7  C1  UNL d   1      -0.352   0.048   3.008  0.00  0.00     0.055 C 
ATOM      8  C   UNL d   1      -1.774   0.578   2.897  0.00  0.00     0.019 C 
ENDBRANCH   1   7
TORSDOF 1
ENDMDL
