MODEL 1
REMARK minimizedAffinity -2.64362907
REMARK minimizedRMSD -1
REMARK  1 active torsions:
REMARK  status: ('A' for Active; 'I' for Inactive)
REMARK    1  A    between atoms: C1_2  and  C2_3 
ROOT
ATOM      1  C2  UNL d   1      -0.028   0.326   0.007  0.00  0.00    -0.077 A 
ATOM      2  C3  UNL d   1      -1.175   0.039   0.760  0.00  0.00     0.002 A 
ATOM      3  C4  UNL d   1      -1.070  -0.268   2.118  0.00  0.00     0.002 A 
ATOM      4  C5  UNL d   1       0.179  -0.287   2.735  0.00  0.00    -0.004 A 
ATOM      5  C6  UNL d   1       1.326  -0.004   1.994  0.00  0.00     0.002 A 
ATOM      6  C7  UNL d   1       1.223   0.302   0.636  0.00  0.00     0.002 A 
ENDROOT
BRANCH   1   7
ATOM      7  C1  UNL d   1      -0.145   0.706  -1.446  0.00  0.00     0.055 C 
ATOM      8  C   UNL d   1       0.915   0.010  -2.287  0.00  0.00     0.019 C 
ENDBRANCH   1   7
TORSDOF 1
ENDMDL
