MODEL 1
REMARK minimizedAffinity 1.55886507
REMARK minimizedRMSD -1
REMARK  1 active torsions:
REMARK  status: ('A' for Active; 'I' for Inactive)
REMARK    1  A    between atoms: C1_2  and  C2_3 
ROOT
ATOM      1  C2  UNL d   1      -1.472  -0.030   2.207  0.00  0.00    -0.077 A 
ATOM      2  C3  UNL d   1      -0.563   0.943   1.769  0.00  0.00     0.002 A 
ATOM      3  C4  UNL d   1       0.775   0.888   2.164  0.00  0.00     0.002 A 
ATOM      4  C5  UNL d   1       1.216  -0.139   2.995  0.00  0.00    -0.004 A 
ATOM      5  C6  UNL d   1       0.320  -1.111   3.438  0.00  0.00     0.002 A 
ATOM      6  C7  UNL d   1      -1.018  -1.057   3.045  0.00  0.00     0.002 A 
ENDROOT
BRANCH   1   7
ATOM      7  C1  UNL d   1      -2.905  -0.001   1.743  0.00  0.00     0.055 C 
ATOM      8  C   UNL d   1      -3.000   0.330   0.261  0.00  0.00     0.019 C 
ENDBRANCH   1   7
TORSDOF 1
ENDMDL
