MODEL 1
REMARK minimizedAffinity 2.0201869
REMARK minimizedRMSD -1
REMARK  1 active torsions:
REMARK  status: ('A' for Active; 'I' for Inactive)
REMARK    1  A    between atoms: C1_2  and  C2_3 
ROOT
ATOM      1  C2  UNL d   1       0.203   0.681   1.657  0.00  0.00    -0.077 A 
ATOM      2  C3  UNL d   1      -0.447   0.372   0.454  0.00  0.00     0.002 A 
ATOM      3  C4  UNL d   1      -0.153   1.084  -0.711  0.00  0.00     0.002 A 
ATOM      4  C5  UNL d   1       0.793   2.106  -0.685  0.00  0.00    -0.004 A 
ATOM      5  C6  UNL d   1       1.444   2.423   0.507  0.00  0.00     0.002 A 
ATOM      6  C7  UNL d   1       1.151   1.713   1.672  0.00  0.00     0.002 A 
ENDROOT
BRANCH   1   7
ATOM      7  C1  UNL d   1      -0.076  -0.118   2.903  0.00  0.00     0.055 C 
ATOM      8  C   UNL d   1       1.103  -1.010   3.263  0.00  0.00     0.019 C 
ENDBRANCH   1   7
TORSDOF 1
ENDMDL
