MODEL 1
REMARK minimizedAffinity -3.51037478
REMARK minimizedRMSD -1
REMARK  1 active torsions:
REMARK  status: ('A' for Active; 'I' for Inactive)
REMARK    1  A    between atoms: C1_2  and  C2_3 
ROOT
ATOM      1  C2  UNL d   1      -0.170   0.177   0.045  0.00  0.00    -0.077 A 
ATOM      2  C3  UNL d   1      -1.039  -0.836   0.475  0.00  0.00     0.002 A 
ATOM      3  C4  UNL d   1      -1.074  -1.214   1.818  0.00  0.00     0.002 A 
ATOM      4  C5  UNL d   1      -0.245  -0.583   2.743  0.00  0.00    -0.004 A 
ATOM      5  C6  UNL d   1       0.625   0.424   2.326  0.00  0.00     0.002 A 
ATOM      6  C7  UNL d   1       0.661   0.803   0.983  0.00  0.00     0.002 A 
ENDROOT
BRANCH   1   7
ATOM      7  C1  UNL d   1      -0.167   0.620  -1.394  0.00  0.00     0.055 C 
ATOM      8  C   UNL d   1       0.691  -0.296  -2.254  0.00  0.00     0.019 C 
ENDBRANCH   1   7
TORSDOF 1
ENDMDL
