MODEL 1
REMARK minimizedAffinity -5.22281647
REMARK minimizedRMSD -1
REMARK  1 active torsions:
REMARK  status: ('A' for Active; 'I' for Inactive)
REMARK    1  A    between atoms: C1_2  and  C2_3 
ROOT
ATOM      1  C2  UNL d   1      -0.001   0.278  -0.144  0.00  0.00    -0.077 A 
ATOM      2  C3  UNL d   1       1.273   0.566   0.365  0.00  0.00     0.002 A 
ATOM      3  C4  UNL d   1       1.607   0.211   1.673  0.00  0.00     0.002 A 
ATOM      4  C5  UNL d   1       0.675  -0.438   2.481  0.00  0.00    -0.004 A 
ATOM      5  C6  UNL d   1      -0.595  -0.727   1.984  0.00  0.00     0.002 A 
ATOM      6  C7  UNL d   1      -0.931  -0.372   0.677  0.00  0.00     0.002 A 
ENDROOT
BRANCH   1   7
ATOM      7  C1  UNL d   1      -0.347   0.615  -1.571  0.00  0.00     0.055 C 
ATOM      8  C   UNL d   1       0.539  -0.141  -2.550  0.00  0.00     0.019 C 
ENDBRANCH   1   7
TORSDOF 1
ENDMDL
