MODEL 1
REMARK minimizedAffinity -3.52585483
REMARK minimizedRMSD -1
REMARK  1 active torsions:
REMARK  status: ('A' for Active; 'I' for Inactive)
REMARK    1  A    between atoms: C1_2  and  C2_3 
ROOT
ATOM      1  C2  UNL d   1      -0.748  -0.075   0.587  0.00  0.00    -0.077 A 
ATOM      2  C3  UNL d   1      -1.916   0.215  -0.133  0.00  0.00     0.002 A 
ATOM      3  C4  UNL d   1      -3.123   0.429   0.536  0.00  0.00     0.002 A 
ATOM      4  C5  UNL d   1      -3.172   0.359   1.927  0.00  0.00    -0.004 A 
ATOM      5  C6  UNL d   1      -2.016   0.069   2.651  0.00  0.00     0.002 A 
ATOM      6  C7  UNL d   1      -0.810  -0.146   1.984  0.00  0.00     0.002 A 
ENDROOT
BRANCH   1   7
ATOM      7  C1  UNL d   1       0.565  -0.257  -0.130  0.00  0.00     0.055 C 
ATOM      8  C   UNL d   1       0.536   0.387  -1.509  0.00  0.00     0.019 C 
ENDBRANCH   1   7
TORSDOF 1
ENDMDL
