MODEL 1
REMARK minimizedAffinity 0.64806366
REMARK minimizedRMSD -1
REMARK  1 active torsions:
REMARK  status: ('A' for Active; 'I' for Inactive)
REMARK    1  A    between atoms: C1_2  and  C2_3 
ROOT
ATOM      1  C2  UNL d   1      -1.336  -0.665  -0.037  0.00  0.00    -0.077 A 
ATOM      2  C3  UNL d   1      -1.588  -0.330   1.300  0.00  0.00     0.002 A 
ATOM      3  C4  UNL d   1      -2.209  -1.245   2.153  0.00  0.00     0.002 A 
ATOM      4  C5  UNL d   1      -2.579  -2.502   1.678  0.00  0.00    -0.004 A 
ATOM      5  C6  UNL d   1      -2.334  -2.844   0.349  0.00  0.00     0.002 A 
ATOM      6  C7  UNL d   1      -1.714  -1.930  -0.505  0.00  0.00     0.002 A 
ENDROOT
BRANCH   1   7
ATOM      7  C1  UNL d   1      -0.622   0.302  -0.945  0.00  0.00     0.055 C 
ATOM      8  C   UNL d   1       0.866   0.362  -0.630  0.00  0.00     0.019 C 
ENDBRANCH   1   7
TORSDOF 1
ENDMDL
