MODEL 1
REMARK minimizedAffinity -4.49250412
REMARK minimizedRMSD -1
REMARK  1 active torsions:
REMARK  status: ('A' for Active; 'I' for Inactive)
REMARK    1  A    between atoms: C1_2  and  C2_3 
ROOT
ATOM      1  C2  UNL d   1      -0.031  -0.120   0.310  0.00  0.00    -0.077 A 
ATOM      2  C3  UNL d   1       0.780   0.003   1.447  0.00  0.00     0.002 A 
ATOM      3  C4  UNL d   1       0.241  -0.185   2.722  0.00  0.00     0.002 A 
ATOM      4  C5  UNL d   1      -1.108  -0.500   2.870  0.00  0.00    -0.004 A 
ATOM      5  C6  UNL d   1      -1.923  -0.622   1.745  0.00  0.00     0.002 A 
ATOM      6  C7  UNL d   1      -1.386  -0.434   0.471  0.00  0.00     0.002 A 
ENDROOT
BRANCH   1   7
ATOM      7  C1  UNL d   1       0.559   0.033  -1.068  0.00  0.00     0.055 C 
ATOM      8  C   UNL d   1      -0.354   0.846  -1.974  0.00  0.00     0.019 C 
ENDBRANCH   1   7
TORSDOF 1
ENDMDL
