MODEL 1
REMARK minimizedAffinity 14.9312363
REMARK minimizedRMSD -1
REMARK  1 active torsions:
REMARK  status: ('A' for Active; 'I' for Inactive)
REMARK    1  A    between atoms: C1_2  and  C2_3 
ROOT
ATOM      1  C2  UNL d   1       2.515  -0.295  -0.765  0.00  0.00    -0.076 A 
ATOM      2  C3  UNL d   1       2.493  -0.125  -2.160  0.00  0.00     0.004 A 
ATOM      3  C4  UNL d   1       2.325  -1.215  -3.013  0.00  0.00    -0.003 A 
ATOM      4  C5  UNL d   1       2.176  -2.492  -2.484  0.00  0.00     0.000 A 
ATOM      5  C6  UNL d   1       2.177  -2.677  -1.102  0.00  0.00     0.000 A 
ATOM      6  C7  UNL d   1       2.329  -1.587  -0.228  0.00  0.00    -0.073 A 
ATOM      7  C8  UNL d   1       2.330  -1.844   1.254  0.00  0.00     0.078 C 
ENDROOT
BRANCH   1   8
ATOM      8  C1  UNL d   1       2.728   0.920   0.109  0.00  0.00     0.053 C 
ATOM      9  C   UNL d   1       3.366   2.076  -0.645  0.00  0.00     0.018 C 
ENDBRANCH   1   8
TORSDOF 1
ENDMDL
