MODEL 1
REMARK minimizedAffinity 7.71401453
REMARK minimizedRMSD -1
REMARK  1 active torsions:
REMARK  status: ('A' for Active; 'I' for Inactive)
REMARK    1  A    between atoms: C1_2  and  C2_3 
ROOT
ATOM      1  C2  UNL d   1       2.532  -0.736  -1.024  0.00  0.00    -0.076 A 
ATOM      2  C3  UNL d   1       2.492  -0.623  -2.425  0.00  0.00     0.004 A 
ATOM      3  C4  UNL d   1       2.036  -1.675  -3.217  0.00  0.00    -0.003 A 
ATOM      4  C5  UNL d   1       1.611  -2.858  -2.621  0.00  0.00     0.000 A 
ATOM      5  C6  UNL d   1       1.627  -2.981  -1.232  0.00  0.00     0.000 A 
ATOM      6  C7  UNL d   1       2.069  -1.924  -0.418  0.00  0.00    -0.073 A 
ATOM      7  C8  UNL d   1       2.070  -2.114   1.074  0.00  0.00     0.078 C 
ENDROOT
BRANCH   1   8
ATOM      8  C1  UNL d   1       3.062   0.428  -0.218  0.00  0.00     0.053 C 
ATOM      9  C   UNL d   1       3.403   1.630  -1.085  0.00  0.00     0.018 C 
ENDBRANCH   1   8
TORSDOF 1
ENDMDL
