MODEL 1
REMARK minimizedAffinity 7.68170929
REMARK minimizedRMSD -1
REMARK  1 active torsions:
REMARK  status: ('A' for Active; 'I' for Inactive)
REMARK    1  A    between atoms: C1_2  and  C2_3 
ROOT
ATOM      1  C2  UNL d   1       2.949  -0.440   0.097  0.00  0.00    -0.076 A 
ATOM      2  C3  UNL d   1       2.235   0.375  -0.800  0.00  0.00     0.004 A 
ATOM      3  C4  UNL d   1       2.792   1.551  -1.299  0.00  0.00    -0.003 A 
ATOM      4  C5  UNL d   1       4.072   1.931  -0.910  0.00  0.00     0.000 A 
ATOM      5  C6  UNL d   1       4.801   1.126  -0.035  0.00  0.00     0.000 A 
ATOM      6  C7  UNL d   1       4.260  -0.072   0.464  0.00  0.00    -0.073 A 
ATOM      7  C8  UNL d   1       5.088  -0.899   1.409  0.00  0.00     0.078 C 
ENDROOT
BRANCH   1   8
ATOM      8  C1  UNL d   1       2.283  -1.690   0.626  0.00  0.00     0.053 C 
ATOM      9  C   UNL d   1       1.820  -2.619  -0.486  0.00  0.00     0.018 C 
ENDBRANCH   1   8
TORSDOF 1
ENDMDL
