MODEL 1
REMARK minimizedAffinity -1.26869929
REMARK minimizedRMSD -1
REMARK  3 active torsions:
REMARK  status: ('A' for Active; 'I' for Inactive)
REMARK    1  A    between atoms: C3'_2  and  C2'_3 
REMARK    2  A    between atoms: C2'_3  and  C1'_4 
REMARK    3  A    between atoms: C1'_4  and  C1_5 
ROOT
ATOM      1  C1  N4B d   1       4.866  -4.645   3.453  0.00  0.00    -0.075 A 
ATOM      2  C2  N4B d   1       4.561  -5.438   4.581  0.00  0.00     0.002 A 
ATOM      3  C3  N4B d   1       4.652  -4.901   5.842  0.00  0.00     0.002 A 
ATOM      4  C4  N4B d   1       5.061  -3.586   6.000  0.00  0.00    -0.004 A 
ATOM      5  C5  N4B d   1       5.329  -2.819   4.904  0.00  0.00     0.002 A 
ATOM      6  C6  N4B d   1       5.239  -3.344   3.630  0.00  0.00     0.002 A 
ENDROOT
BRANCH   1   7
ATOM      7  C1' N4B d   1       4.865  -5.212   2.059  0.00  0.00     0.057 C 
BRANCH   7   8
ATOM      8  C2' N4B d   1       4.520  -4.104   1.068  0.00  0.00     0.009 C 
BRANCH   8   9
ATOM      9  C3' N4B d   1       3.027  -4.022   0.804  0.00  0.00     0.004 C 
ATOM     10  C4' N4B d   1       2.505  -2.617   0.853  0.00  0.00     0.003 C 
ENDBRANCH   8   9
ENDBRANCH   7   8
ENDBRANCH   1   7
TORSDOF 3
ENDMDL
