MODEL 1
REMARK minimizedAffinity 3.81413937
REMARK minimizedRMSD -1
REMARK  3 active torsions:
REMARK  status: ('A' for Active; 'I' for Inactive)
REMARK    1  A    between atoms: C3'_2  and  C2'_3 
REMARK    2  A    between atoms: C2'_3  and  C1'_4 
REMARK    3  A    between atoms: C1'_4  and  C1_5 
ROOT
ATOM      1  C1  N4B d   1      -4.358  -0.193  -4.607  0.00  0.00    -0.075 A 
ATOM      2  C2  N4B d   1      -4.625   1.169  -4.869  0.00  0.00     0.002 A 
ATOM      3  C3  N4B d   1      -3.716   1.924  -5.568  0.00  0.00     0.002 A 
ATOM      4  C4  N4B d   1      -2.530   1.348  -5.997  0.00  0.00    -0.004 A 
ATOM      5  C5  N4B d   1      -2.291   0.025  -5.763  0.00  0.00     0.002 A 
ATOM      6  C6  N4B d   1      -3.197  -0.748  -5.065  0.00  0.00     0.002 A 
ENDROOT
BRANCH   1   7
ATOM      7  C1' N4B d   1      -5.282  -1.038  -3.773  0.00  0.00     0.057 C 
BRANCH   7   8
ATOM      8  C2' N4B d   1      -4.513  -1.588  -2.575  0.00  0.00     0.009 C 
BRANCH   8   9
ATOM      9  C3' N4B d   1      -3.294  -0.743  -2.246  0.00  0.00     0.004 C 
ATOM     10  C4' N4B d   1      -3.653   0.597  -1.676  0.00  0.00     0.003 C 
ENDBRANCH   8   9
ENDBRANCH   7   8
ENDBRANCH   1   7
TORSDOF 3
ENDMDL
