MODEL 1
REMARK minimizedAffinity -3.36796379
REMARK minimizedRMSD -1
REMARK  3 active torsions:
REMARK  status: ('A' for Active; 'I' for Inactive)
REMARK    1  A    between atoms: C3'_2  and  C2'_3 
REMARK    2  A    between atoms: C2'_3  and  C1'_4 
REMARK    3  A    between atoms: C1'_4  and  C1_5 
ROOT
ATOM      1  C1  N4B d   1       4.717  -3.925   3.725  0.00  0.00    -0.075 A 
ATOM      2  C2  N4B d   1       4.901  -4.783   4.831  0.00  0.00     0.002 A 
ATOM      3  C3  N4B d   1       5.531  -4.321   5.961  0.00  0.00     0.002 A 
ATOM      4  C4  N4B d   1       6.000  -3.016   6.000  0.00  0.00    -0.004 A 
ATOM      5  C5  N4B d   1       5.795  -2.187   4.937  0.00  0.00     0.002 A 
ATOM      6  C6  N4B d   1       5.160  -2.636   3.796  0.00  0.00     0.002 A 
ENDROOT
BRANCH   1   7
ATOM      7  C1' N4B d   1       4.111  -4.410   2.436  0.00  0.00     0.057 C 
BRANCH   7   8
ATOM      8  C2' N4B d   1       4.105  -3.268   1.425  0.00  0.00     0.009 C 
BRANCH   8   9
ATOM      9  C3' N4B d   1       2.712  -2.999   0.879  0.00  0.00     0.004 C 
ATOM     10  C4' N4B d   1       1.844  -2.251   1.847  0.00  0.00     0.003 C 
ENDBRANCH   8   9
ENDBRANCH   7   8
ENDBRANCH   1   7
TORSDOF 3
ENDMDL
