MODEL 1
REMARK minimizedAffinity 10.8100929
REMARK minimizedRMSD -1
REMARK  3 active torsions:
REMARK  status: ('A' for Active; 'I' for Inactive)
REMARK    1  A    between atoms: C3'_2  and  C2'_3 
REMARK    2  A    between atoms: C2'_3  and  C1'_4 
REMARK    3  A    between atoms: C1'_4  and  C1_5 
ROOT
ATOM      1  C1  N4B d   1      -4.621   1.937  -4.982  0.00  0.00    -0.075 A 
ATOM      2  C2  N4B d   1      -3.523   2.485  -4.284  0.00  0.00     0.002 A 
ATOM      3  C3  N4B d   1      -3.523   3.814  -3.938  0.00  0.00     0.002 A 
ATOM      4  C4  N4B d   1      -4.597   4.615  -4.295  0.00  0.00    -0.004 A 
ATOM      5  C5  N4B d   1      -5.666   4.073  -4.947  0.00  0.00     0.002 A 
ATOM      6  C6  N4B d   1      -5.681   2.737  -5.297  0.00  0.00     0.002 A 
ENDROOT
BRANCH   1   7
ATOM      7  C1' N4B d   1      -4.629   0.509  -5.456  0.00  0.00     0.057 C 
BRANCH   7   8
ATOM      8  C2' N4B d   1      -3.243   0.150  -5.986  0.00  0.00     0.009 C 
BRANCH   8   9
ATOM      9  C3' N4B d   1      -2.723  -1.143  -5.384  0.00  0.00     0.004 C 
ATOM     10  C4' N4B d   1      -3.066  -1.288  -3.932  0.00  0.00     0.003 C 
ENDBRANCH   8   9
ENDBRANCH   7   8
ENDBRANCH   1   7
TORSDOF 3
ENDMDL
