MODEL 1
REMARK minimizedAffinity 10.3169909
REMARK minimizedRMSD -1
REMARK  1 active torsions:
REMARK  status: ('A' for Active; 'I' for Inactive)
REMARK    1  A    between atoms: C1_2  and  C2_3 
ROOT
ATOM      1  C2  UNL d   1      -3.869   0.314   3.482  0.00  0.00    -0.081 A 
ATOM      2  C3  UNL d   1      -2.661   0.043   4.137  0.00  0.00     0.006 A 
ATOM      3  C4  UNL d   1      -1.454   0.064   3.434  0.00  0.00     0.002 A 
ATOM      4  C5  UNL d   1      -1.434   0.363   2.067  0.00  0.00    -0.080 A 
ATOM      5  C6  UNL d   1      -0.142   0.418   1.308  0.00  0.00     0.076 C 
ATOM      6  C7  UNL d   1      -2.642   0.616   1.409  0.00  0.00     0.002 A 
ATOM      7  C8  UNL d   1      -3.849   0.595   2.111  0.00  0.00     0.006 A 
ENDROOT
BRANCH   1   8
ATOM      8  C1  UNL d   1      -5.165   0.356   4.250  0.00  0.00     0.054 C 
ATOM      9  C   UNL d   1      -5.130   1.423   5.335  0.00  0.00     0.018 C 
ENDBRANCH   1   8
TORSDOF 1
ENDMDL
