MODEL 1
REMARK minimizedAffinity 19.3429985
REMARK minimizedRMSD -1
REMARK  1 active torsions:
REMARK  status: ('A' for Active; 'I' for Inactive)
REMARK    1  A    between atoms: C1_2  and  C2_3 
ROOT
ATOM      1  C2  UNL d   1      -1.854  -2.679  -5.949  0.00  0.00    -0.081 A 
ATOM      2  C3  UNL d   1      -2.043  -1.292  -5.969  0.00  0.00     0.006 A 
ATOM      3  C4  UNL d   1      -3.331  -0.753  -5.995  0.00  0.00     0.002 A 
ATOM      4  C5  UNL d   1      -4.451  -1.592  -5.994  0.00  0.00    -0.080 A 
ATOM      5  C6  UNL d   1      -5.840  -1.026  -5.992  0.00  0.00     0.076 C 
ATOM      6  C7  UNL d   1      -4.262  -2.978  -5.993  0.00  0.00     0.002 A 
ATOM      7  C8  UNL d   1      -2.974  -3.517  -5.967  0.00  0.00     0.006 A 
ENDROOT
BRANCH   1   8
ATOM      8  C1  UNL d   1      -0.467  -3.263  -5.856  0.00  0.00     0.054 C 
ATOM      9  C   UNL d   1      -0.504  -4.784  -5.866  0.00  0.00     0.018 C 
ENDBRANCH   1   8
TORSDOF 1
ENDMDL
