MODEL 1
REMARK minimizedAffinity 10.5248861
REMARK minimizedRMSD -1
REMARK  1 active torsions:
REMARK  status: ('A' for Active; 'I' for Inactive)
REMARK    1  A    between atoms: C1_2  and  C2_3 
ROOT
ATOM      1  C2  UNL d   1      -2.078  -1.148  -5.820  0.00  0.00    -0.081 A 
ATOM      2  C3  UNL d   1      -3.471  -1.048  -5.929  0.00  0.00     0.006 A 
ATOM      3  C4  UNL d   1      -4.261  -2.198  -5.997  0.00  0.00     0.002 A 
ATOM      4  C5  UNL d   1      -3.673  -3.466  -5.949  0.00  0.00    -0.080 A 
ATOM      5  C6  UNL d   1      -4.512  -4.709  -5.991  0.00  0.00     0.076 C 
ATOM      6  C7  UNL d   1      -2.281  -3.567  -5.858  0.00  0.00     0.002 A 
ATOM      7  C8  UNL d   1      -1.490  -2.418  -5.791  0.00  0.00     0.006 A 
ENDROOT
BRANCH   1   8
ATOM      8  C1  UNL d   1      -1.229   0.089  -5.681  0.00  0.00     0.054 C 
ATOM      9  C   UNL d   1       0.239  -0.266  -5.492  0.00  0.00     0.018 C 
ENDBRANCH   1   8
TORSDOF 1
ENDMDL
