MODEL 1
REMARK minimizedAffinity 6.50056458
REMARK minimizedRMSD -1
REMARK  1 active torsions:
REMARK  status: ('A' for Active; 'I' for Inactive)
REMARK    1  A    between atoms: C1_2  and  C2_3 
ROOT
ATOM      1  C2  UNL d   1      -3.561  -3.467  -5.986  0.00  0.00    -0.081 A 
ATOM      2  C3  UNL d   1      -2.471  -4.347  -5.998  0.00  0.00     0.006 A 
ATOM      3  C4  UNL d   1      -1.164  -3.855  -5.998  0.00  0.00     0.002 A 
ATOM      4  C5  UNL d   1      -0.924  -2.477  -5.979  0.00  0.00    -0.080 A 
ATOM      5  C6  UNL d   1       0.475  -1.936  -5.949  0.00  0.00     0.076 C 
ATOM      6  C7  UNL d   1      -2.012  -1.598  -5.986  0.00  0.00     0.002 A 
ATOM      7  C8  UNL d   1      -3.319  -2.089  -5.986  0.00  0.00     0.006 A 
ENDROOT
BRANCH   1   8
ATOM      8  C1  UNL d   1      -4.971  -3.995  -5.920  0.00  0.00     0.054 C 
ATOM      9  C   UNL d   1      -4.996  -5.516  -5.971  0.00  0.00     0.018 C 
ENDBRANCH   1   8
TORSDOF 1
ENDMDL
