MODEL 1
REMARK minimizedAffinity 14.262888
REMARK minimizedRMSD -1
REMARK  1 active torsions:
REMARK  status: ('A' for Active; 'I' for Inactive)
REMARK    1  A    between atoms: C1_2  and  C2_3 
ROOT
ATOM      1  C2  UNL d   1      -5.661   1.688   4.784  0.00  0.00    -0.081 A 
ATOM      2  C3  UNL d   1      -5.996   2.438   3.650  0.00  0.00     0.006 A 
ATOM      3  C4  UNL d   1      -5.963   3.834   3.690  0.00  0.00     0.002 A 
ATOM      4  C5  UNL d   1      -5.589   4.502   4.861  0.00  0.00    -0.080 A 
ATOM      5  C6  UNL d   1      -5.521   6.000   4.909  0.00  0.00     0.076 C 
ATOM      6  C7  UNL d   1      -5.271   3.753   5.999  0.00  0.00     0.002 A 
ATOM      7  C8  UNL d   1      -5.304   2.357   5.959  0.00  0.00     0.006 A 
ENDROOT
BRANCH   1   8
ATOM      8  C1  UNL d   1      -5.632   0.182   4.724  0.00  0.00     0.054 C 
ATOM      9  C   UNL d   1      -4.425  -0.378   5.463  0.00  0.00     0.018 C 
ENDBRANCH   1   8
TORSDOF 1
ENDMDL
