MODEL 1
REMARK minimizedAffinity 9.79010296
REMARK minimizedRMSD -1
REMARK  1 active torsions:
REMARK  status: ('A' for Active; 'I' for Inactive)
REMARK    1  A    between atoms: C1_2  and  C2_3 
ROOT
ATOM      1  C2  UNL d   1       1.780  -4.407   1.901  0.00  0.00    -0.081 A 
ATOM      2  C3  UNL d   1       2.702  -3.366   2.067  0.00  0.00     0.006 A 
ATOM      3  C4  UNL d   1       4.066  -3.641   2.183  0.00  0.00     0.002 A 
ATOM      4  C5  UNL d   1       4.532  -4.959   2.127  0.00  0.00    -0.080 A 
ATOM      5  C6  UNL d   1       5.998  -5.265   2.220  0.00  0.00     0.076 C 
ATOM      6  C7  UNL d   1       3.609  -6.000   1.980  0.00  0.00     0.002 A 
ATOM      7  C8  UNL d   1       2.245  -5.726   1.864  0.00  0.00     0.006 A 
ENDROOT
BRANCH   1   8
ATOM      8  C1  UNL d   1       0.314  -4.110   1.711  0.00  0.00     0.054 C 
ATOM      9  C   UNL d   1       0.018  -3.680   0.281  0.00  0.00     0.018 C 
ENDBRANCH   1   8
TORSDOF 1
ENDMDL
