MODEL 1
REMARK minimizedAffinity 9.57565784
REMARK minimizedRMSD -1
REMARK  1 active torsions:
REMARK  status: ('A' for Active; 'I' for Inactive)
REMARK    1  A    between atoms: C1_2  and  C2_3 
ROOT
ATOM      1  C2  UNL d   1      -0.332   2.023   2.293  0.00  0.00    -0.081 A 
ATOM      2  C3  UNL d   1      -1.412   2.710   1.724  0.00  0.00     0.006 A 
ATOM      3  C4  UNL d   1      -2.687   2.139   1.713  0.00  0.00     0.002 A 
ATOM      4  C5  UNL d   1      -2.905   0.877   2.275  0.00  0.00    -0.080 A 
ATOM      5  C6  UNL d   1      -4.275   0.266   2.297  0.00  0.00     0.076 C 
ATOM      6  C7  UNL d   1      -1.823   0.183   2.828  0.00  0.00     0.002 A 
ATOM      7  C8  UNL d   1      -0.548   0.753   2.839  0.00  0.00     0.006 A 
ENDROOT
BRANCH   1   8
ATOM      8  C1  UNL d   1       1.031   2.663   2.365  0.00  0.00     0.054 C 
ATOM      9  C   UNL d   1       1.601   2.593   3.774  0.00  0.00     0.018 C 
ENDBRANCH   1   8
TORSDOF 1
ENDMDL
