MODEL 1
REMARK minimizedAffinity 11.0517597
REMARK minimizedRMSD -1
REMARK  1 active torsions:
REMARK  status: ('A' for Active; 'I' for Inactive)
REMARK    1  A    between atoms: C1_2  and  C2_3 
ROOT
ATOM      1  C2  UNL d   1       0.649  -0.909  -4.897  0.00  0.00    -0.081 A 
ATOM      2  C3  UNL d   1      -0.376   0.019  -4.677  0.00  0.00     0.006 A 
ATOM      3  C4  UNL d   1      -1.691  -0.279  -5.043  0.00  0.00     0.002 A 
ATOM      4  C5  UNL d   1      -2.003  -1.510  -5.628  0.00  0.00    -0.080 A 
ATOM      5  C6  UNL d   1      -3.416  -1.854  -5.998  0.00  0.00     0.076 C 
ATOM      6  C7  UNL d   1      -0.976  -2.430  -5.864  0.00  0.00     0.002 A 
ATOM      7  C8  UNL d   1       0.339  -2.133  -5.499  0.00  0.00     0.006 A 
ENDROOT
BRANCH   1   8
ATOM      8  C1  UNL d   1       2.057  -0.617  -4.444  0.00  0.00     0.054 C 
ATOM      9  C   UNL d   1       2.084  -0.115  -3.008  0.00  0.00     0.018 C 
ENDBRANCH   1   8
TORSDOF 1
ENDMDL
