MODEL 1
REMARK minimizedAffinity 6.06694937
REMARK minimizedRMSD -1
REMARK  1 active torsions:
REMARK  status: ('A' for Active; 'I' for Inactive)
REMARK    1  A    between atoms: C1_2  and  C2_3 
ROOT
ATOM      1  C2  UNL d   1      -1.874   0.113   2.805  0.00  0.00    -0.081 A 
ATOM      2  C3  UNL d   1      -1.991   0.437   1.448  0.00  0.00     0.006 A 
ATOM      3  C4  UNL d   1      -3.203   0.906   0.935  0.00  0.00     0.002 A 
ATOM      4  C5  UNL d   1      -4.313   1.066   1.770  0.00  0.00    -0.080 A 
ATOM      5  C6  UNL d   1      -5.611   1.597   1.237  0.00  0.00     0.076 C 
ATOM      6  C7  UNL d   1      -4.201   0.726   3.122  0.00  0.00     0.002 A 
ATOM      7  C8  UNL d   1      -2.990   0.256   3.636  0.00  0.00     0.006 A 
ENDROOT
BRANCH   1   8
ATOM      8  C1  UNL d   1      -0.551  -0.332   3.375  0.00  0.00     0.054 C 
ATOM      9  C   UNL d   1       0.525   0.724   3.166  0.00  0.00     0.018 C 
ENDBRANCH   1   8
TORSDOF 1
ENDMDL
