MODEL 1
REMARK minimizedAffinity 12.5687246
REMARK minimizedRMSD -1
REMARK  1 active torsions:
REMARK  status: ('A' for Active; 'I' for Inactive)
REMARK    1  A    between atoms: C1_2  and  C2_3 
ROOT
ATOM      1  C2  UNL d   1      -1.579   0.888   1.981  0.00  0.00    -0.081 A 
ATOM      2  C3  UNL d   1      -1.208  -0.255   2.699  0.00  0.00     0.006 A 
ATOM      3  C4  UNL d   1       0.104  -0.412   3.153  0.00  0.00     0.002 A 
ATOM      4  C5  UNL d   1       1.064   0.575   2.905  0.00  0.00    -0.080 A 
ATOM      5  C6  UNL d   1       2.467   0.433   3.414  0.00  0.00     0.076 C 
ATOM      6  C7  UNL d   1       0.698   1.710   2.173  0.00  0.00     0.002 A 
ATOM      7  C8  UNL d   1      -0.613   1.867   1.718  0.00  0.00     0.006 A 
ENDROOT
BRANCH   1   8
ATOM      8  C1  UNL d   1      -3.008   1.090   1.546  0.00  0.00     0.054 C 
ATOM      9  C   UNL d   1      -3.980   0.759   2.669  0.00  0.00     0.018 C 
ENDBRANCH   1   8
TORSDOF 1
ENDMDL
