MODEL 1
REMARK minimizedAffinity 4.60697937
REMARK minimizedRMSD -1
REMARK  1 active torsions:
REMARK  status: ('A' for Active; 'I' for Inactive)
REMARK    1  A    between atoms: C1_2  and  C2_3 
ROOT
ATOM      1  C2  UNL d   1       1.637   0.804   2.571  0.00  0.00    -0.081 A 
ATOM      2  C3  UNL d   1       0.498   0.371   1.883  0.00  0.00     0.006 A 
ATOM      3  C4  UNL d   1      -0.768   0.839   2.243  0.00  0.00     0.002 A 
ATOM      4  C5  UNL d   1      -0.915   1.753   3.292  0.00  0.00    -0.080 A 
ATOM      5  C6  UNL d   1      -2.265   2.286   3.670  0.00  0.00     0.076 C 
ATOM      6  C7  UNL d   1       0.222   2.173   3.991  0.00  0.00     0.002 A 
ATOM      7  C8  UNL d   1       1.488   1.705   3.632  0.00  0.00     0.006 A 
ENDROOT
BRANCH   1   8
ATOM      8  C1  UNL d   1       3.010   0.352   2.142  0.00  0.00     0.054 C 
ATOM      9  C   UNL d   1       3.248   0.630   0.665  0.00  0.00     0.018 C 
ENDBRANCH   1   8
TORSDOF 1
ENDMDL
