MODEL 1
REMARK minimizedAffinity 4.73779631
REMARK minimizedRMSD -1
REMARK  0 active torsions:
REMARK  status: ('A' for Active; 'I' for Inactive)
ROOT
ATOM      1  C2' OXE d   1       2.320  -2.097   3.303  0.00  0.00     0.078 C 
ATOM      2  C1' OXE d   1       2.432  -4.602   2.042  0.00  0.00     0.078 C 
ATOM      3  C1  OXE d   1       1.381  -3.626   1.576  0.00  0.00    -0.078 A 
ATOM      4  C2  OXE d   1       1.303  -2.420   2.231  0.00  0.00    -0.078 A 
ATOM      5  C3  OXE d   1       0.387  -1.463   1.805  0.00  0.00     0.003 A 
ATOM      6  C4  OXE d   1      -0.557  -1.774   0.818  0.00  0.00    -0.002 A 
ATOM      7  C5  OXE d   1      -0.521  -3.011   0.166  0.00  0.00    -0.002 A 
ATOM      8  C6  OXE d   1       0.467  -3.930   0.503  0.00  0.00     0.003 A 
ENDROOT
TORSDOF 0
ENDMDL
