MODEL 1
REMARK minimizedAffinity 9.46084118
REMARK minimizedRMSD -1
REMARK  0 active torsions:
REMARK  status: ('A' for Active; 'I' for Inactive)
ROOT
ATOM      1  C2' OXE d   1       3.117  -5.884  -2.235  0.00  0.00     0.078 C 
ATOM      2  C1' OXE d   1       1.658  -5.773  -4.631  0.00  0.00     0.078 C 
ATOM      3  C1  OXE d   1       3.164  -5.782  -4.724  0.00  0.00    -0.078 A 
ATOM      4  C2  OXE d   1       3.870  -5.790  -3.545  0.00  0.00    -0.078 A 
ATOM      5  C3  OXE d   1       5.260  -5.855  -3.574  0.00  0.00     0.003 A 
ATOM      6  C4  OXE d   1       5.948  -5.757  -4.789  0.00  0.00    -0.002 A 
ATOM      7  C5  OXE d   1       5.249  -5.709  -6.000  0.00  0.00    -0.002 A 
ATOM      8  C6  OXE d   1       3.860  -5.764  -5.987  0.00  0.00     0.003 A 
ENDROOT
TORSDOF 0
ENDMDL
