MODEL 1
REMARK minimizedAffinity 12.6602564
REMARK minimizedRMSD -1
REMARK  0 active torsions:
REMARK  status: ('A' for Active; 'I' for Inactive)
ROOT
ATOM      1  C2' OXE d   1       2.082  -1.123   1.607  0.00  0.00     0.078 C 
ATOM      2  C1' OXE d   1       2.208  -2.532  -0.818  0.00  0.00     0.078 C 
ATOM      3  C1  OXE d   1       0.861  -2.024  -0.369  0.00  0.00    -0.078 A 
ATOM      4  C2  OXE d   1       0.801  -1.376   0.841  0.00  0.00    -0.078 A 
ATOM      5  C3  OXE d   1      -0.407  -0.838   1.277  0.00  0.00     0.003 A 
ATOM      6  C4  OXE d   1      -1.589  -1.085   0.568  0.00  0.00    -0.002 A 
ATOM      7  C5  OXE d   1      -1.557  -1.777  -0.647  0.00  0.00    -0.002 A 
ATOM      8  C6  OXE d   1      -0.336  -2.215  -1.150  0.00  0.00     0.003 A 
ENDROOT
TORSDOF 0
ENDMDL
