MODEL 1
REMARK minimizedAffinity 9.1820755
REMARK minimizedRMSD -1
REMARK  0 active torsions:
REMARK  status: ('A' for Active; 'I' for Inactive)
ROOT
ATOM      1  C2' OXE d   1       2.568   2.899   4.505  0.00  0.00     0.078 C 
ATOM      2  C1' OXE d   1       2.612   2.149   1.800  0.00  0.00     0.078 C 
ATOM      3  C1  OXE d   1       2.467   1.057   2.831  0.00  0.00    -0.078 A 
ATOM      4  C2  OXE d   1       2.492   1.429   4.153  0.00  0.00    -0.078 A 
ATOM      5  C3  OXE d   1       2.307   0.468   5.143  0.00  0.00     0.003 A 
ATOM      6  C4  OXE d   1       2.248  -0.891   4.810  0.00  0.00    -0.002 A 
ATOM      7  C5  OXE d   1       2.260  -1.294   3.470  0.00  0.00    -0.002 A 
ATOM      8  C6  OXE d   1       2.326  -0.331   2.469  0.00  0.00     0.003 A 
ENDROOT
TORSDOF 0
ENDMDL
