MODEL 1
REMARK minimizedAffinity -2.70451093
REMARK minimizedRMSD -1
REMARK  0 active torsions:
REMARK  status: ('A' for Active; 'I' for Inactive)
ROOT
ATOM      1  C2' OXE d   1       5.931  -2.261   5.991  0.00  0.00     0.078 C 
ATOM      2  C1' OXE d   1       5.998  -1.492   3.292  0.00  0.00     0.078 C 
ATOM      3  C1  OXE d   1       4.647  -1.709   3.928  0.00  0.00    -0.078 A 
ATOM      4  C2  OXE d   1       4.625  -2.131   5.236  0.00  0.00    -0.078 A 
ATOM      5  C3  OXE d   1       3.406  -2.294   5.887  0.00  0.00     0.003 A 
ATOM      6  C4  OXE d   1       2.203  -2.181   5.179  0.00  0.00    -0.002 A 
ATOM      7  C5  OXE d   1       2.205  -1.791   3.836  0.00  0.00    -0.002 A 
ATOM      8  C6  OXE d   1       3.414  -1.511   3.209  0.00  0.00     0.003 A 
ENDROOT
TORSDOF 0
ENDMDL
