MODEL 1
REMARK minimizedAffinity 3.81168389
REMARK minimizedRMSD -1
REMARK  0 active torsions:
REMARK  status: ('A' for Active; 'I' for Inactive)
ROOT
ATOM      1  C2' OXE d   1       4.276  -3.471   5.998  0.00  0.00     0.078 C 
ATOM      2  C1' OXE d   1       5.988  -1.715   4.633  0.00  0.00     0.078 C 
ATOM      3  C1  OXE d   1       4.533  -1.728   4.237  0.00  0.00    -0.078 A 
ATOM      4  C2  OXE d   1       3.711  -2.624   4.878  0.00  0.00    -0.078 A 
ATOM      5  C3  OXE d   1       2.349  -2.639   4.590  0.00  0.00     0.003 A 
ATOM      6  C4  OXE d   1       1.837  -1.859   3.546  0.00  0.00    -0.002 A 
ATOM      7  C5  OXE d   1       2.664  -0.968   2.853  0.00  0.00    -0.002 A 
ATOM      8  C6  OXE d   1       4.003  -0.860   3.214  0.00  0.00     0.003 A 
ENDROOT
TORSDOF 0
ENDMDL
