MODEL 1
REMARK minimizedAffinity 14.0183668
REMARK minimizedRMSD -1
REMARK  0 active torsions:
REMARK  status: ('A' for Active; 'I' for Inactive)
ROOT
ATOM      1  C2' OXE d   1      -2.924   3.936  -0.666  0.00  0.00     0.078 C 
ATOM      2  C1' OXE d   1      -5.639   4.647  -0.631  0.00  0.00     0.078 C 
ATOM      3  C1  OXE d   1      -5.112   3.827   0.520  0.00  0.00    -0.078 A 
ATOM      4  C2  OXE d   1      -3.793   3.444   0.471  0.00  0.00    -0.078 A 
ATOM      5  C3  OXE d   1      -3.242   2.732   1.533  0.00  0.00     0.003 A 
ATOM      6  C4  OXE d   1      -4.055   2.272   2.576  0.00  0.00    -0.002 A 
ATOM      7  C5  OXE d   1      -5.410   2.617   2.625  0.00  0.00    -0.002 A 
ATOM      8  C6  OXE d   1      -5.943   3.428   1.629  0.00  0.00     0.003 A 
ENDROOT
TORSDOF 0
ENDMDL
