MODEL 1
REMARK minimizedAffinity 8.47259426
REMARK minimizedRMSD -1
REMARK  0 active torsions:
REMARK  status: ('A' for Active; 'I' for Inactive)
ROOT
ATOM      1  C2' OXE d   1       5.175  -2.568   5.884  0.00  0.00     0.078 C 
ATOM      2  C1' OXE d   1       5.997  -1.864   3.294  0.00  0.00     0.078 C 
ATOM      3  C1  OXE d   1       4.518  -1.868   3.585  0.00  0.00    -0.078 A 
ATOM      4  C2  OXE d   1       4.122  -2.260   4.842  0.00  0.00    -0.078 A 
ATOM      5  C3  OXE d   1       2.772  -2.230   5.180  0.00  0.00     0.003 A 
ATOM      6  C4  OXE d   1       1.804  -1.953   4.207  0.00  0.00    -0.002 A 
ATOM      7  C5  OXE d   1       2.183  -1.590   2.911  0.00  0.00    -0.002 A 
ATOM      8  C6  OXE d   1       3.535  -1.502   2.596  0.00  0.00     0.003 A 
ENDROOT
TORSDOF 0
ENDMDL
