MODEL 1
REMARK minimizedAffinity 6.23706198
REMARK minimizedRMSD -1
REMARK  0 active torsions:
REMARK  status: ('A' for Active; 'I' for Inactive)
ROOT
ATOM      1  C2' OXE d   1       2.245  -0.898   4.011  0.00  0.00     0.078 C 
ATOM      2  C1' OXE d   1       4.687  -2.057   4.769  0.00  0.00     0.078 C 
ATOM      3  C1  OXE d   1       3.466  -2.942   4.744  0.00  0.00    -0.078 A 
ATOM      4  C2  OXE d   1       2.267  -2.356   4.417  0.00  0.00    -0.078 A 
ATOM      5  C3  OXE d   1       1.119  -3.139   4.325  0.00  0.00     0.003 A 
ATOM      6  C4  OXE d   1       1.146  -4.484   4.712  0.00  0.00    -0.002 A 
ATOM      7  C5  OXE d   1       2.350  -5.091   5.087  0.00  0.00    -0.002 A 
ATOM      8  C6  OXE d   1       3.524  -4.346   5.067  0.00  0.00     0.003 A 
ENDROOT
TORSDOF 0
ENDMDL
