MODEL 1
REMARK minimizedAffinity 8.65474319
REMARK minimizedRMSD -1
REMARK  0 active torsions:
REMARK  status: ('A' for Active; 'I' for Inactive)
ROOT
ATOM      1  C2' OXE d   1      -6.000  -1.144  -2.659  0.00  0.00     0.078 C 
ATOM      2  C1' OXE d   1      -5.821  -1.076  -5.460  0.00  0.00     0.078 C 
ATOM      3  C1  OXE d   1      -5.864   0.241  -4.725  0.00  0.00    -0.078 A 
ATOM      4  C2  OXE d   1      -5.999   0.199  -3.359  0.00  0.00    -0.078 A 
ATOM      5  C3  OXE d   1      -5.989   1.383  -2.628  0.00  0.00     0.003 A 
ATOM      6  C4  OXE d   1      -5.998   2.620  -3.283  0.00  0.00    -0.002 A 
ATOM      7  C5  OXE d   1      -5.902   2.686  -4.677  0.00  0.00    -0.002 A 
ATOM      8  C6  OXE d   1      -5.791   1.509  -5.409  0.00  0.00     0.003 A 
ENDROOT
TORSDOF 0
ENDMDL
