MODEL 1
REMARK minimizedAffinity 10.2295876
REMARK minimizedRMSD -1
REMARK  0 active torsions:
REMARK  status: ('A' for Active; 'I' for Inactive)
ROOT
ATOM      1  C2' OXE d   1       1.214   3.169  -0.695  0.00  0.00     0.078 C 
ATOM      2  C1' OXE d   1      -0.314   4.031   1.496  0.00  0.00     0.078 C 
ATOM      3  C1  OXE d   1       0.967   3.287   1.781  0.00  0.00    -0.078 A 
ATOM      4  C2  OXE d   1       1.684   2.828   0.703  0.00  0.00    -0.078 A 
ATOM      5  C3  OXE d   1       2.901   2.184   0.908  0.00  0.00     0.003 A 
ATOM      6  C4  OXE d   1       3.324   1.864   2.204  0.00  0.00    -0.002 A 
ATOM      7  C5  OXE d   1       2.588   2.287   3.315  0.00  0.00    -0.002 A 
ATOM      8  C6  OXE d   1       1.432   3.035   3.123  0.00  0.00     0.003 A 
ENDROOT
TORSDOF 0
ENDMDL
