MODEL 1
REMARK minimizedAffinity 2.80247998
REMARK minimizedRMSD -1
REMARK  0 active torsions:
REMARK  status: ('A' for Active; 'I' for Inactive)
ROOT
ATOM      1  C   UNL d   1       1.823  -3.798   4.031  0.00  0.00     0.020 A 
ATOM      2  C1  UNL d   1       1.943  -2.965   5.143  0.00  0.00     0.020 A 
ATOM      3  C2  UNL d   1       1.891  -1.579   4.985  0.00  0.00     0.034 A 
ATOM      4  C3  UNL d   1       1.719  -1.021   3.713  0.00  0.00     0.017 A 
ATOM      5  C4  UNL d   1       1.599  -1.858   2.598  0.00  0.00     0.017 A 
ATOM      6  C5  UNL d   1       1.651  -3.245   2.761  0.00  0.00     0.034 A 
ATOM      7 Cl   UNL d   1       1.384  -1.243   0.997  0.00  0.00    -0.070 Cl
ATOM      8 Cl1  UNL d   1       1.664   0.702   3.592  0.00  0.00    -0.070 Cl
ENDROOT
TORSDOF 0
ENDMDL
