MODEL 1
REMARK minimizedAffinity 4.64242935
REMARK minimizedRMSD -1
REMARK  0 active torsions:
REMARK  status: ('A' for Active; 'I' for Inactive)
ROOT
ATOM      1  C   UNL d   1       1.296  -1.444   2.603  0.00  0.00     0.020 A 
ATOM      2  C1  UNL d   1       2.073  -1.061   3.695  0.00  0.00     0.020 A 
ATOM      3  C2  UNL d   1       2.798  -2.020   4.406  0.00  0.00     0.034 A 
ATOM      4  C3  UNL d   1       2.747  -3.366   4.025  0.00  0.00     0.017 A 
ATOM      5  C4  UNL d   1       1.967  -3.749   2.928  0.00  0.00     0.017 A 
ATOM      6  C5  UNL d   1       1.243  -2.784   2.220  0.00  0.00     0.034 A 
ATOM      7 Cl   UNL d   1       1.854  -5.390   2.398  0.00  0.00    -0.070 Cl
ATOM      8 Cl1  UNL d   1       3.669  -4.498   4.949  0.00  0.00    -0.070 Cl
ENDROOT
TORSDOF 0
ENDMDL
