MODEL 1
REMARK minimizedAffinity -2.16316009
REMARK minimizedRMSD -1
REMARK  0 active torsions:
REMARK  status: ('A' for Active; 'I' for Inactive)
ROOT
ATOM      1  C   UNL d   1       1.731  -5.983  -5.883  0.00  0.00     0.020 A 
ATOM      2  C1  UNL d   1       3.121  -5.984  -5.989  0.00  0.00     0.020 A 
ATOM      3  C2  UNL d   1       3.909  -5.989  -4.836  0.00  0.00     0.034 A 
ATOM      4  C3  UNL d   1       3.307  -5.993  -3.572  0.00  0.00     0.017 A 
ATOM      5  C4  UNL d   1       1.911  -5.992  -3.467  0.00  0.00     0.017 A 
ATOM      6  C5  UNL d   1       1.127  -5.987  -4.625  0.00  0.00     0.034 A 
ATOM      7 Cl   UNL d   1       1.096  -5.997  -1.943  0.00  0.00    -0.070 Cl
ATOM      8 Cl1  UNL d   1       4.342  -5.999  -2.189  0.00  0.00    -0.070 Cl
ENDROOT
TORSDOF 0
ENDMDL
