MODEL 1
REMARK minimizedAffinity 10.976737
REMARK minimizedRMSD -1
REMARK  0 active torsions:
REMARK  status: ('A' for Active; 'I' for Inactive)
ROOT
ATOM      1  C   UNL d   1       1.121  -1.575   2.105  0.00  0.00     0.020 A 
ATOM      2  C1  UNL d   1       2.386  -0.994   2.183  0.00  0.00     0.020 A 
ATOM      3  C2  UNL d   1       3.360  -1.550   3.015  0.00  0.00     0.034 A 
ATOM      4  C3  UNL d   1       3.071  -2.691   3.772  0.00  0.00     0.017 A 
ATOM      5  C4  UNL d   1       1.801  -3.273   3.694  0.00  0.00     0.017 A 
ATOM      6  C5  UNL d   1       0.830  -2.713   2.859  0.00  0.00     0.034 A 
ATOM      7 Cl   UNL d   1       1.370  -4.682   4.598  0.00  0.00    -0.070 Cl
ATOM      8 Cl1  UNL d   1       4.324  -3.325   4.780  0.00  0.00    -0.070 Cl
ENDROOT
TORSDOF 0
ENDMDL
