MODEL 1
REMARK minimizedAffinity 2.0167017
REMARK minimizedRMSD -1
REMARK  0 active torsions:
REMARK  status: ('A' for Active; 'I' for Inactive)
ROOT
ATOM      1  C   UNL d   1       4.766  -5.998  -1.994  0.00  0.00     0.020 A 
ATOM      2  C1  UNL d   1       3.422  -5.997  -1.620  0.00  0.00     0.020 A 
ATOM      3  C2  UNL d   1       2.425  -5.998  -2.598  0.00  0.00     0.034 A 
ATOM      4  C3  UNL d   1       2.769  -5.999  -3.954  0.00  0.00     0.017 A 
ATOM      5  C4  UNL d   1       4.118  -5.999  -4.329  0.00  0.00     0.017 A 
ATOM      6  C5  UNL d   1       5.112  -5.999  -3.346  0.00  0.00     0.034 A 
ATOM      7 Cl   UNL d   1       4.620  -6.000  -5.983  0.00  0.00    -0.070 Cl
ATOM      8 Cl1  UNL d   1       1.484  -5.999  -5.109  0.00  0.00    -0.070 Cl
ENDROOT
TORSDOF 0
ENDMDL
