MODEL 1
REMARK minimizedAffinity 6.68467236
REMARK minimizedRMSD -1
REMARK  0 active torsions:
REMARK  status: ('A' for Active; 'I' for Inactive)
ROOT
ATOM      1  C   UNL d   1       1.614  -4.427   3.903  0.00  0.00     0.020 A 
ATOM      2  C1  UNL d   1       2.757  -5.031   4.425  0.00  0.00     0.020 A 
ATOM      3  C2  UNL d   1       3.989  -4.378   4.348  0.00  0.00     0.034 A 
ATOM      4  C3  UNL d   1       4.081  -3.117   3.747  0.00  0.00     0.017 A 
ATOM      5  C4  UNL d   1       2.933  -2.511   3.224  0.00  0.00     0.017 A 
ATOM      6  C5  UNL d   1       1.702  -3.169   3.304  0.00  0.00     0.034 A 
ATOM      7 Cl   UNL d   1       2.967  -0.957   2.469  0.00  0.00    -0.070 Cl
ATOM      8 Cl1  UNL d   1       5.636  -2.368   3.687  0.00  0.00    -0.070 Cl
ENDROOT
TORSDOF 0
ENDMDL
