MODEL 1
REMARK minimizedAffinity 4.56502342
REMARK minimizedRMSD -1
REMARK  0 active torsions:
REMARK  status: ('A' for Active; 'I' for Inactive)
ROOT
ATOM      1  C   UNL d   1       2.436  -1.372   2.679  0.00  0.00     0.020 A 
ATOM      2  C1  UNL d   1       2.278  -1.099   4.037  0.00  0.00     0.020 A 
ATOM      3  C2  UNL d   1       1.947  -2.127   4.922  0.00  0.00     0.034 A 
ATOM      4  C3  UNL d   1       1.773  -3.433   4.449  0.00  0.00     0.017 A 
ATOM      5  C4  UNL d   1       1.932  -3.706   3.086  0.00  0.00     0.017 A 
ATOM      6  C5  UNL d   1       2.264  -2.673   2.204  0.00  0.00     0.034 A 
ATOM      7 Cl   UNL d   1       1.734  -5.292   2.429  0.00  0.00    -0.070 Cl
ATOM      8 Cl1  UNL d   1       1.364  -4.656   5.600  0.00  0.00    -0.070 Cl
ENDROOT
TORSDOF 0
ENDMDL
