MODEL 1
REMARK minimizedAffinity 10.367424
REMARK minimizedRMSD -1
REMARK  0 active torsions:
REMARK  status: ('A' for Active; 'I' for Inactive)
ROOT
ATOM      1  C   UNL d   1      -5.050   3.749   1.137  0.00  0.00     0.020 A 
ATOM      2  C1  UNL d   1      -6.000   3.934   0.133  0.00  0.00     0.020 A 
ATOM      3  C2  UNL d   1      -5.808   3.356  -1.124  0.00  0.00     0.034 A 
ATOM      4  C3  UNL d   1      -4.664   2.592  -1.380  0.00  0.00     0.017 A 
ATOM      5  C4  UNL d   1      -3.712   2.407  -0.372  0.00  0.00     0.017 A 
ATOM      6  C5  UNL d   1      -3.909   2.987   0.885  0.00  0.00     0.034 A 
ATOM      7 Cl   UNL d   1      -2.275   1.476  -0.613  0.00  0.00    -0.070 Cl
ATOM      8 Cl1  UNL d   1      -4.492   1.907  -2.957  0.00  0.00    -0.070 Cl
ENDROOT
TORSDOF 0
ENDMDL
