MODEL 1
REMARK minimizedAffinity 2.98515534
REMARK minimizedRMSD -1
REMARK  0 active torsions:
REMARK  status: ('A' for Active; 'I' for Inactive)
ROOT
ATOM      1  C   UNL d   1       3.141  -5.992  -2.013  0.00  0.00     0.020 A 
ATOM      2  C1  UNL d   1       4.535  -5.992  -2.052  0.00  0.00     0.020 A 
ATOM      3  C2  UNL d   1       5.200  -5.995  -3.280  0.00  0.00     0.034 A 
ATOM      4  C3  UNL d   1       4.471  -5.997  -4.475  0.00  0.00     0.017 A 
ATOM      5  C4  UNL d   1       3.072  -5.996  -4.435  0.00  0.00     0.017 A 
ATOM      6  C5  UNL d   1       2.411  -5.994  -3.202  0.00  0.00     0.034 A 
ATOM      7 Cl   UNL d   1       2.104  -5.999  -5.867  0.00  0.00    -0.070 Cl
ATOM      8 Cl1  UNL d   1       5.358  -5.999  -5.957  0.00  0.00    -0.070 Cl
ENDROOT
TORSDOF 0
ENDMDL
