MODEL 1
REMARK minimizedAffinity -4.30674267
REMARK minimizedRMSD -1
REMARK  0 active torsions:
REMARK  status: ('A' for Active; 'I' for Inactive)
ROOT
ATOM      1  C   UNL d   1      -1.590  -5.107  -5.272  0.00  0.00     0.077 C 
ATOM      2  C1  UNL d   1      -2.938  -4.451  -5.245  0.00  0.00    -0.074 A 
ATOM      3  C2  UNL d   1      -4.092  -5.166  -5.580  0.00  0.00    -0.005 A 
ATOM      4  C3  UNL d   1      -5.341  -4.545  -5.542  0.00  0.00     0.006 A 
ATOM      5  C4  UNL d   1      -5.448  -3.205  -5.169  0.00  0.00    -0.005 A 
ATOM      6  C5  UNL d   1      -4.305  -2.473  -4.830  0.00  0.00    -0.074 A 
ATOM      7  C6  UNL d   1      -4.403  -1.035  -4.418  0.00  0.00     0.077 C 
ATOM      8  C7  UNL d   1      -3.055  -3.106  -4.864  0.00  0.00    -0.001 A 
ENDROOT
TORSDOF 0
ENDMDL
