MODEL 1
REMARK minimizedAffinity -2.78837323
REMARK minimizedRMSD -1
REMARK  0 active torsions:
REMARK  status: ('A' for Active; 'I' for Inactive)
ROOT
ATOM      1  C   UNL d   1      -5.683  -1.795  -5.225  0.00  0.00     0.077 C 
ATOM      2  C1  UNL d   1      -5.365  -3.259  -5.154  0.00  0.00    -0.074 A 
ATOM      3  C2  UNL d   1      -6.000  -4.174  -6.000  0.00  0.00    -0.005 A 
ATOM      4  C3  UNL d   1      -5.688  -5.531  -5.929  0.00  0.00     0.006 A 
ATOM      5  C4  UNL d   1      -4.739  -5.987  -5.012  0.00  0.00    -0.005 A 
ATOM      6  C5  UNL d   1      -4.094  -5.086  -4.158  0.00  0.00    -0.074 A 
ATOM      7  C6  UNL d   1      -3.065  -5.558  -3.174  0.00  0.00     0.077 C 
ATOM      8  C7  UNL d   1      -4.408  -3.723  -4.241  0.00  0.00    -0.001 A 
ENDROOT
TORSDOF 0
ENDMDL
