MODEL 1
REMARK minimizedAffinity -3.28063226
REMARK minimizedRMSD -1
REMARK  0 active torsions:
REMARK  status: ('A' for Active; 'I' for Inactive)
ROOT
ATOM      1  C   UNL d   1      -4.124  -1.871  -5.999  0.00  0.00     0.077 C 
ATOM      2  C1  UNL d   1      -3.698  -3.229  -5.527  0.00  0.00    -0.074 A 
ATOM      3  C2  UNL d   1      -4.513  -3.983  -4.676  0.00  0.00    -0.005 A 
ATOM      4  C3  UNL d   1      -4.108  -5.248  -4.253  0.00  0.00     0.006 A 
ATOM      5  C4  UNL d   1      -2.886  -5.773  -4.676  0.00  0.00    -0.005 A 
ATOM      6  C5  UNL d   1      -2.058  -5.034  -5.528  0.00  0.00    -0.074 A 
ATOM      7  C6  UNL d   1      -0.746  -5.587  -6.000  0.00  0.00     0.077 C 
ATOM      8  C7  UNL d   1      -2.476  -3.766  -5.954  0.00  0.00    -0.001 A 
ENDROOT
TORSDOF 0
ENDMDL
