MODEL 1
REMARK minimizedAffinity -2.7350924
REMARK minimizedRMSD -1
REMARK  0 active torsions:
REMARK  status: ('A' for Active; 'I' for Inactive)
ROOT
ATOM      1  C   UNL d   1      -5.982  -2.312  -5.266  0.00  0.00     0.077 C 
ATOM      2  C1  UNL d   1      -5.215  -3.577  -5.511  0.00  0.00    -0.074 A 
ATOM      3  C2  UNL d   1      -5.874  -4.805  -5.636  0.00  0.00    -0.005 A 
ATOM      4  C3  UNL d   1      -5.149  -5.972  -5.873  0.00  0.00     0.006 A 
ATOM      5  C4  UNL d   1      -3.759  -5.924  -5.988  0.00  0.00    -0.005 A 
ATOM      6  C5  UNL d   1      -3.082  -4.706  -5.867  0.00  0.00    -0.074 A 
ATOM      7  C6  UNL d   1      -1.590  -4.635  -5.998  0.00  0.00     0.077 C 
ATOM      8  C7  UNL d   1      -3.819  -3.536  -5.636  0.00  0.00    -0.001 A 
ENDROOT
TORSDOF 0
ENDMDL
