MODEL 1
REMARK minimizedAffinity -3.61412334
REMARK minimizedRMSD -1
REMARK  0 active torsions:
REMARK  status: ('A' for Active; 'I' for Inactive)
ROOT
ATOM      1  C   UNL d   1      -2.932  -5.238  -5.969  0.00  0.00     0.077 C 
ATOM      2  C1  UNL d   1      -3.981  -4.458  -5.234  0.00  0.00    -0.074 A 
ATOM      3  C2  UNL d   1      -4.452  -4.884  -3.988  0.00  0.00    -0.005 A 
ATOM      4  C3  UNL d   1      -5.422  -4.143  -3.311  0.00  0.00     0.006 A 
ATOM      5  C4  UNL d   1      -5.929  -2.971  -3.873  0.00  0.00    -0.005 A 
ATOM      6  C5  UNL d   1      -5.469  -2.528  -5.118  0.00  0.00    -0.074 A 
ATOM      7  C6  UNL d   1      -5.996  -1.265  -5.731  0.00  0.00     0.077 C 
ATOM      8  C7  UNL d   1      -4.490  -3.275  -5.788  0.00  0.00    -0.001 A 
ENDROOT
TORSDOF 0
ENDMDL
