MODEL 1
REMARK minimizedAffinity -1.65234184
REMARK minimizedRMSD -1
REMARK  0 active torsions:
REMARK  status: ('A' for Active; 'I' for Inactive)
ROOT
ATOM      1  C   UNL d   1      -1.117  -4.850  -3.597  0.00  0.00     0.077 C 
ATOM      2  C1  UNL d   1      -2.367  -4.881  -4.426  0.00  0.00    -0.074 A 
ATOM      3  C2  UNL d   1      -2.664  -5.980  -5.238  0.00  0.00    -0.005 A 
ATOM      4  C3  UNL d   1      -3.835  -5.999  -5.996  0.00  0.00     0.006 A 
ATOM      5  C4  UNL d   1      -4.719  -4.921  -5.949  0.00  0.00    -0.005 A 
ATOM      6  C5  UNL d   1      -4.440  -3.813  -5.142  0.00  0.00    -0.074 A 
ATOM      7  C6  UNL d   1      -5.385  -2.651  -5.072  0.00  0.00     0.077 C 
ATOM      8  C7  UNL d   1      -3.265  -3.805  -4.378  0.00  0.00    -0.001 A 
ENDROOT
TORSDOF 0
ENDMDL
