MODEL 1
REMARK minimizedAffinity 8.24428272
REMARK minimizedRMSD -1
REMARK  0 active torsions:
REMARK  status: ('A' for Active; 'I' for Inactive)
ROOT
ATOM      1  C   UNL d   1      -3.046  -3.396  -1.151  0.00  0.00     0.077 C 
ATOM      2  C1  UNL d   1      -3.302  -3.901  -2.540  0.00  0.00    -0.074 A 
ATOM      3  C2  UNL d   1      -4.488  -3.588  -3.211  0.00  0.00    -0.005 A 
ATOM      4  C3  UNL d   1      -4.708  -4.058  -4.506  0.00  0.00     0.006 A 
ATOM      5  C4  UNL d   1      -3.746  -4.843  -5.142  0.00  0.00    -0.005 A 
ATOM      6  C5  UNL d   1      -2.553  -5.165  -4.487  0.00  0.00    -0.074 A 
ATOM      7  C6  UNL d   1      -1.504  -6.000  -5.160  0.00  0.00     0.077 C 
ATOM      8  C7  UNL d   1      -2.336  -4.684  -3.188  0.00  0.00    -0.001 A 
ENDROOT
TORSDOF 0
ENDMDL
