MODEL 1
REMARK minimizedAffinity -1.42121756
REMARK minimizedRMSD -1
REMARK  0 active torsions:
REMARK  status: ('A' for Active; 'I' for Inactive)
ROOT
ATOM      1  C   UNL d   1       1.096  -2.420   2.928  0.00  0.00     0.077 C 
ATOM      2  C1  UNL d   1      -0.178  -1.992   2.262  0.00  0.00    -0.074 A 
ATOM      3  C2  UNL d   1      -0.379  -2.201   0.894  0.00  0.00    -0.005 A 
ATOM      4  C3  UNL d   1      -1.573  -1.806   0.290  0.00  0.00     0.006 A 
ATOM      5  C4  UNL d   1      -2.576  -1.199   1.047  0.00  0.00    -0.005 A 
ATOM      6  C5  UNL d   1      -2.393  -0.984   2.417  0.00  0.00    -0.074 A 
ATOM      7  C6  UNL d   1      -3.465  -0.342   3.247  0.00  0.00     0.077 C 
ATOM      8  C7  UNL d   1      -1.194  -1.389   3.018  0.00  0.00    -0.001 A 
ENDROOT
TORSDOF 0
ENDMDL
