MODEL 1
REMARK minimizedAffinity -1.8052572
REMARK minimizedRMSD -1
REMARK  0 active torsions:
REMARK  status: ('A' for Active; 'I' for Inactive)
ROOT
ATOM      1  C   UNL d   1      -2.548  -5.470  -3.280  0.00  0.00     0.077 C 
ATOM      2  C1  UNL d   1      -3.746  -5.008  -4.056  0.00  0.00    -0.074 A 
ATOM      3  C2  UNL d   1      -4.334  -5.826  -5.025  0.00  0.00    -0.005 A 
ATOM      4  C3  UNL d   1      -5.453  -5.386  -5.732  0.00  0.00     0.006 A 
ATOM      5  C4  UNL d   1      -5.994  -4.126  -5.477  0.00  0.00    -0.005 A 
ATOM      6  C5  UNL d   1      -5.420  -3.294  -4.510  0.00  0.00    -0.074 A 
ATOM      7  C6  UNL d   1      -5.995  -1.940  -4.217  0.00  0.00     0.077 C 
ATOM      8  C7  UNL d   1      -4.300  -3.746  -3.800  0.00  0.00    -0.001 A 
ENDROOT
TORSDOF 0
ENDMDL
