MODEL 1
REMARK minimizedAffinity 0.661298633
REMARK minimizedRMSD -1
REMARK  0 active torsions:
REMARK  status: ('A' for Active; 'I' for Inactive)
ROOT
ATOM      1  C   UNL d   1      -5.800  -2.442  -4.879  0.00  0.00     0.077 C 
ATOM      2  C1  UNL d   1      -4.571  -3.302  -4.877  0.00  0.00    -0.074 A 
ATOM      3  C2  UNL d   1      -4.222  -4.060  -5.999  0.00  0.00    -0.005 A 
ATOM      4  C3  UNL d   1      -3.070  -4.847  -5.986  0.00  0.00     0.006 A 
ATOM      5  C4  UNL d   1      -2.258  -4.885  -4.852  0.00  0.00    -0.005 A 
ATOM      6  C5  UNL d   1      -2.590  -4.133  -3.721  0.00  0.00    -0.074 A 
ATOM      7  C6  UNL d   1      -1.723  -4.154  -2.497  0.00  0.00     0.077 C 
ATOM      8  C7  UNL d   1      -3.745  -3.339  -3.744  0.00  0.00    -0.001 A 
ENDROOT
TORSDOF 0
ENDMDL
