MODEL 1
REMARK minimizedAffinity -3.76324415
REMARK minimizedRMSD -1
REMARK  0 active torsions:
REMARK  status: ('A' for Active; 'I' for Inactive)
ROOT
ATOM      1  C   UNL d   1      -4.656  -1.675  -5.481  0.00  0.00     0.077 C 
ATOM      2  C1  UNL d   1      -4.480  -3.163  -5.537  0.00  0.00    -0.074 A 
ATOM      3  C2  UNL d   1      -5.581  -4.012  -5.691  0.00  0.00    -0.005 A 
ATOM      4  C3  UNL d   1      -5.401  -5.393  -5.751  0.00  0.00     0.006 A 
ATOM      5  C4  UNL d   1      -4.121  -5.940  -5.658  0.00  0.00    -0.005 A 
ATOM      6  C5  UNL d   1      -3.008  -5.107  -5.504  0.00  0.00    -0.074 A 
ATOM      7  C6  UNL d   1      -1.624  -5.677  -5.412  0.00  0.00     0.077 C 
ATOM      8  C7  UNL d   1      -3.196  -3.719  -5.452  0.00  0.00    -0.001 A 
ENDROOT
TORSDOF 0
ENDMDL
