MODEL 1
REMARK minimizedAffinity 6.46931648
REMARK minimizedRMSD -1
REMARK  0 active torsions:
REMARK  status: ('A' for Active; 'I' for Inactive)
ROOT
ATOM      1  C   UNL d   1      -1.866  -4.123  -4.158  0.00  0.00     0.077 C 
ATOM      2  C1  UNL d   1      -3.306  -3.978  -4.554  0.00  0.00    -0.074 A 
ATOM      3  C2  UNL d   1      -4.010  -5.051  -5.109  0.00  0.00    -0.005 A 
ATOM      4  C3  UNL d   1      -5.351  -4.903  -5.463  0.00  0.00     0.006 A 
ATOM      5  C4  UNL d   1      -6.000  -3.684  -5.266  0.00  0.00    -0.005 A 
ATOM      6  C5  UNL d   1      -5.312  -2.600  -4.712  0.00  0.00    -0.074 A 
ATOM      7  C6  UNL d   1      -5.996  -1.285  -4.485  0.00  0.00     0.077 C 
ATOM      8  C7  UNL d   1      -3.966  -2.758  -4.352  0.00  0.00    -0.001 A 
ENDROOT
TORSDOF 0
ENDMDL
