MODEL 1
REMARK minimizedAffinity 2.93381166
REMARK minimizedRMSD -1
REMARK  0 active torsions:
REMARK  status: ('A' for Active; 'I' for Inactive)
ROOT
ATOM      1  C   UNL d   1      -1.956  -4.471  -4.114  0.00  0.00     0.077 C 
ATOM      2  C1  UNL d   1      -3.364  -4.258  -4.587  0.00  0.00    -0.074 A 
ATOM      3  C2  UNL d   1      -4.057  -5.270  -5.258  0.00  0.00    -0.005 A 
ATOM      4  C3  UNL d   1      -5.369  -5.061  -5.683  0.00  0.00     0.006 A 
ATOM      5  C4  UNL d   1      -6.000  -3.841  -5.441  0.00  0.00    -0.005 A 
ATOM      6  C5  UNL d   1      -5.323  -2.817  -4.770  0.00  0.00    -0.074 A 
ATOM      7  C6  UNL d   1      -5.989  -1.503  -4.494  0.00  0.00     0.077 C 
ATOM      8  C7  UNL d   1      -4.007  -3.037  -4.340  0.00  0.00    -0.001 A 
ENDROOT
TORSDOF 0
ENDMDL
