MODEL 1
REMARK minimizedAffinity -3.54020476
REMARK minimizedRMSD -1
REMARK  0 active torsions:
REMARK  status: ('A' for Active; 'I' for Inactive)
ROOT
ATOM      1  C   UNL d   1      -6.000  -2.652  -4.484  0.00  0.00     0.077 C 
ATOM      2  C1  UNL d   1      -5.149  -3.825  -4.867  0.00  0.00    -0.074 A 
ATOM      3  C2  UNL d   1      -5.681  -4.891  -5.600  0.00  0.00    -0.005 A 
ATOM      4  C3  UNL d   1      -4.875  -5.971  -5.957  0.00  0.00     0.006 A 
ATOM      5  C4  UNL d   1      -3.530  -5.998  -5.586  0.00  0.00    -0.005 A 
ATOM      6  C5  UNL d   1      -2.980  -4.941  -4.853  0.00  0.00    -0.074 A 
ATOM      7  C6  UNL d   1      -1.534  -4.949  -4.454  0.00  0.00     0.077 C 
ATOM      8  C7  UNL d   1      -3.795  -3.856  -4.504  0.00  0.00    -0.001 A 
ENDROOT
TORSDOF 0
ENDMDL
