MODEL 1
REMARK minimizedAffinity -2.83887935
REMARK minimizedRMSD -1
REMARK  0 active torsions:
REMARK  status: ('A' for Active; 'I' for Inactive)
ROOT
ATOM      1  C   UNL d   1      -1.404  -4.879  -4.668  0.00  0.00     0.077 C 
ATOM      2  C1  UNL d   1      -2.873  -4.931  -4.962  0.00  0.00    -0.074 A 
ATOM      3  C2  UNL d   1      -3.414  -5.959  -5.741  0.00  0.00    -0.005 A 
ATOM      4  C3  UNL d   1      -4.785  -6.000  -5.999  0.00  0.00     0.006 A 
ATOM      5  C4  UNL d   1      -5.627  -5.015  -5.480  0.00  0.00    -0.005 A 
ATOM      6  C5  UNL d   1      -5.104  -3.981  -4.698  0.00  0.00    -0.074 A 
ATOM      7  C6  UNL d   1      -5.996  -2.920  -4.124  0.00  0.00     0.077 C 
ATOM      8  C7  UNL d   1      -3.727  -3.950  -4.438  0.00  0.00    -0.001 A 
ENDROOT
TORSDOF 0
ENDMDL
