MODEL 1
REMARK minimizedAffinity -0.495740205
REMARK minimizedRMSD -1
REMARK  0 active torsions:
REMARK  status: ('A' for Active; 'I' for Inactive)
ROOT
ATOM      1  O1  BZF d   1      -0.374   1.339  -1.502  0.00  0.00    -0.204 OA
ATOM      2  C2  BZF d   1      -0.330   2.651  -1.070  0.00  0.00     0.174 A 
ATOM      3  C3  BZF d   1       0.510   2.782  -0.023  0.00  0.00    -0.012 A 
ATOM      4  C3A BZF d   1       1.093   1.487   0.156  0.00  0.00    -0.107 A 
ATOM      5  C4  BZF d   1       2.016   0.986   1.028  0.00  0.00     0.055 A 
ATOM      6  C5  BZF d   1       2.314  -0.339   0.985  0.00  0.00    -0.016 A 
ATOM      7  C6  BZF d   1       1.705  -1.192   0.087  0.00  0.00     0.022 A 
ATOM      8  C7  BZF d   1       0.787  -0.739  -0.801  0.00  0.00     0.029 A 
ATOM      9  C7A BZF d   1       0.508   0.605  -0.782  0.00  0.00     0.058 A 
ENDROOT
TORSDOF 0
ENDMDL
