MODEL 1
REMARK minimizedAffinity 0.59959209
REMARK minimizedRMSD -1
REMARK  0 active torsions:
REMARK  status: ('A' for Active; 'I' for Inactive)
ROOT
ATOM      1  O1  BZF d   1       0.486  -0.423  -2.218  0.00  0.00    -0.204 OA
ATOM      2  C2  BZF d   1      -0.786   0.115  -2.205  0.00  0.00     0.174 A 
ATOM      3  C3  BZF d   1      -1.145   0.465  -0.953  0.00  0.00    -0.012 A 
ATOM      4  C3A BZF d   1       0.008   0.209  -0.145  0.00  0.00    -0.107 A 
ATOM      5  C4  BZF d   1       0.278   0.370   1.184  0.00  0.00     0.055 A 
ATOM      6  C5  BZF d   1       1.478  -0.046   1.669  0.00  0.00    -0.016 A 
ATOM      7  C6  BZF d   1       2.427  -0.630   0.856  0.00  0.00     0.022 A 
ATOM      8  C7  BZF d   1       2.207  -0.805  -0.470  0.00  0.00     0.029 A 
ATOM      9  C7A BZF d   1       1.008  -0.357  -0.970  0.00  0.00     0.058 A 
ENDROOT
TORSDOF 0
ENDMDL
