MODEL 1
REMARK minimizedAffinity 2.5559597
REMARK minimizedRMSD -1
REMARK  0 active torsions:
REMARK  status: ('A' for Active; 'I' for Inactive)
ROOT
ATOM      1  O1  BZF d   1      -0.107   1.556  -1.656  0.00  0.00    -0.204 OA
ATOM      2  C2  BZF d   1      -0.405   2.678  -0.907  0.00  0.00     0.174 A 
ATOM      3  C3  BZF d   1      -0.012   2.516   0.373  0.00  0.00    -0.012 A 
ATOM      4  C3A BZF d   1       0.650   1.248   0.406  0.00  0.00    -0.107 A 
ATOM      5  C4  BZF d   1       1.272   0.540   1.394  0.00  0.00     0.055 A 
ATOM      6  C5  BZF d   1       1.753  -0.700   1.115  0.00  0.00    -0.016 A 
ATOM      7  C6  BZF d   1       1.626  -1.263  -0.138  0.00  0.00     0.022 A 
ATOM      8  C7  BZF d   1       1.021  -0.596  -1.151  0.00  0.00     0.029 A 
ATOM      9  C7A BZF d   1       0.563   0.670  -0.881  0.00  0.00     0.058 A 
ENDROOT
TORSDOF 0
ENDMDL
