MODEL 1
REMARK minimizedAffinity -5.23593426
REMARK minimizedRMSD -1
REMARK  0 active torsions:
REMARK  status: ('A' for Active; 'I' for Inactive)
ROOT
ATOM      1  O1  BZF d   1      -0.379   0.501  -0.756  0.00  0.00    -0.204 OA
ATOM      2  C2  BZF d   1      -1.605  -0.134  -0.786  0.00  0.00     0.174 A 
ATOM      3  C3  BZF d   1      -1.739  -0.968   0.266  0.00  0.00    -0.012 A 
ATOM      4  C3A BZF d   1      -0.557  -0.777   1.049  0.00  0.00    -0.107 A 
ATOM      5  C4  BZF d   1      -0.113  -1.312   2.224  0.00  0.00     0.055 A 
ATOM      6  C5  BZF d   1       1.119  -0.968   2.683  0.00  0.00    -0.016 A 
ATOM      7  C6  BZF d   1       1.935  -0.097   1.991  0.00  0.00     0.022 A 
ATOM      8  C7  BZF d   1       1.536   0.463   0.823  0.00  0.00     0.029 A 
ATOM      9  C7A BZF d   1       0.278   0.143   0.374  0.00  0.00     0.058 A 
ENDROOT
TORSDOF 0
ENDMDL
