MODEL 1
REMARK minimizedAffinity -3.69115996
REMARK minimizedRMSD -1
REMARK  0 active torsions:
REMARK  status: ('A' for Active; 'I' for Inactive)
ROOT
ATOM      1  O1  BZF d   1      -1.093  -0.394  -0.250  0.00  0.00    -0.204 OA
ATOM      2  C2  BZF d   1      -0.636  -0.514  -1.548  0.00  0.00     0.174 A 
ATOM      3  C3  BZF d   1       0.712  -0.510  -1.583  0.00  0.00    -0.012 A 
ATOM      4  C3A BZF d   1       1.124  -0.472  -0.214  0.00  0.00    -0.107 A 
ATOM      5  C4  BZF d   1       2.344  -0.465   0.400  0.00  0.00     0.055 A 
ATOM      6  C5  BZF d   1       2.402  -0.349   1.753  0.00  0.00    -0.016 A 
ATOM      7  C6  BZF d   1       1.263  -0.233   2.521  0.00  0.00     0.022 A 
ATOM      8  C7  BZF d   1       0.030  -0.239   1.958  0.00  0.00     0.029 A 
ATOM      9  C7A BZF d   1      -0.034  -0.389   0.594  0.00  0.00     0.058 A 
ENDROOT
TORSDOF 0
ENDMDL
