MODEL 1
REMARK minimizedAffinity 4.91324425
REMARK minimizedRMSD -1
REMARK  0 active torsions:
REMARK  status: ('A' for Active; 'I' for Inactive)
ROOT
ATOM      1  O1  BZF d   1      -0.438   0.204  -1.491  0.00  0.00    -0.204 OA
ATOM      2  C2  BZF d   1      -1.149   0.943  -0.565  0.00  0.00     0.174 A 
ATOM      3  C3  BZF d   1      -0.552   0.898   0.643  0.00  0.00    -0.012 A 
ATOM      4  C3A BZF d   1       0.654   0.155   0.439  0.00  0.00    -0.107 A 
ATOM      5  C4  BZF d   1       1.680  -0.214   1.262  0.00  0.00     0.055 A 
ATOM      6  C5  BZF d   1       2.673  -0.999   0.768  0.00  0.00    -0.016 A 
ATOM      7  C6  BZF d   1       2.669  -1.438  -0.540  0.00  0.00     0.022 A 
ATOM      8  C7  BZF d   1       1.675  -1.093  -1.396  0.00  0.00     0.029 A 
ATOM      9  C7A BZF d   1       0.688  -0.273  -0.908  0.00  0.00     0.058 A 
ENDROOT
TORSDOF 0
ENDMDL
