MODEL 1
REMARK minimizedAffinity -0.401479095
REMARK minimizedRMSD -1
REMARK  0 active torsions:
REMARK  status: ('A' for Active; 'I' for Inactive)
ROOT
ATOM      1  O1  BZF d   1       1.068   0.944  -0.897  0.00  0.00    -0.204 OA
ATOM      2  C2  BZF d   1      -0.189   1.130  -1.438  0.00  0.00     0.174 A 
ATOM      3  C3  BZF d   1      -1.130   0.533  -0.679  0.00  0.00    -0.012 A 
ATOM      4  C3A BZF d   1      -0.426   0.015   0.454  0.00  0.00    -0.107 A 
ATOM      5  C4  BZF d   1      -0.817  -0.669   1.570  0.00  0.00     0.055 A 
ATOM      6  C5  BZF d   1       0.128  -1.093   2.449  0.00  0.00    -0.016 A 
ATOM      7  C6  BZF d   1       1.471  -0.855   2.242  0.00  0.00     0.022 A 
ATOM      8  C7  BZF d   1       1.907  -0.176   1.153  0.00  0.00     0.029 A 
ATOM      9  C7A BZF d   1       0.951   0.282   0.279  0.00  0.00     0.058 A 
ENDROOT
TORSDOF 0
ENDMDL
