MODEL 1
REMARK minimizedAffinity -2.26249671
REMARK minimizedRMSD -1
REMARK  0 active torsions:
REMARK  status: ('A' for Active; 'I' for Inactive)
ROOT
ATOM      1  O1  BZF d   1       0.430  -0.213  -2.397  0.00  0.00    -0.204 OA
ATOM      2  C2  BZF d   1       0.112  -0.168  -1.053  0.00  0.00     0.174 A 
ATOM      3  C3  BZF d   1      -0.179   1.092  -0.672  0.00  0.00    -0.012 A 
ATOM      4  C3A BZF d   1      -0.124   1.870  -1.871  0.00  0.00    -0.107 A 
ATOM      5  C4  BZF d   1      -0.334   3.192  -2.143  0.00  0.00     0.055 A 
ATOM      6  C5  BZF d   1      -0.128   3.647  -3.407  0.00  0.00    -0.016 A 
ATOM      7  C6  BZF d   1       0.293   2.811  -4.420  0.00  0.00     0.022 A 
ATOM      8  C7  BZF d   1       0.510   1.491  -4.200  0.00  0.00     0.029 A 
ATOM      9  C7A BZF d   1       0.271   1.022  -2.931  0.00  0.00     0.058 A 
ENDROOT
TORSDOF 0
ENDMDL
