MODEL 1
REMARK minimizedAffinity -3.41405678
REMARK minimizedRMSD -1
REMARK  2 active torsions:
REMARK  status: ('A' for Active; 'I' for Inactive)
REMARK    1  A    between atoms: C2'_3  and  C1'_4 
REMARK    2  A    between atoms: C1'_4  and  C1_5 
ROOT
ATOM      1  C1  I4B d   1      -0.611   0.773   0.545  0.00  0.00    -0.075 A 
ATOM      2  C2  I4B d   1      -0.147   1.787  -0.255  0.00  0.00     0.003 A 
ATOM      3  C3  I4B d   1      -0.205   3.130   0.189  0.00  0.00     0.002 A 
ATOM      4  C4  I4B d   1      -0.777   3.417   1.412  0.00  0.00    -0.004 A 
ATOM      5  C5  I4B d   1      -1.226   2.385   2.232  0.00  0.00     0.002 A 
ATOM      6  C6  I4B d   1      -1.131   1.054   1.802  0.00  0.00     0.003 A 
ENDROOT
BRANCH   1   7
ATOM      7  C1' I4B d   1      -0.564  -0.631   0.031  0.00  0.00     0.060 C 
BRANCH   7   8
ATOM      8  C2' I4B d   1       0.499  -0.698  -1.046  0.00  0.00    -0.013 C 
ATOM      9  C4' I4B d   1       1.822  -1.142  -0.480  0.00  0.00     0.013 C 
ATOM     10  C3' I4B d   1       0.022  -1.642  -2.110  0.00  0.00     0.013 C 
ENDBRANCH   7   8
ENDBRANCH   1   7
TORSDOF 2
ENDMDL
