MODEL 1
REMARK minimizedAffinity -4.69725847
REMARK minimizedRMSD -1
REMARK  2 active torsions:
REMARK  status: ('A' for Active; 'I' for Inactive)
REMARK    1  A    between atoms: C2'_3  and  C1'_4 
REMARK    2  A    between atoms: C1'_4  and  C1_5 
ROOT
ATOM      1  C1  I4B d   1       0.217  -0.055   0.056  0.00  0.00    -0.075 A 
ATOM      2  C2  I4B d   1      -0.074  -0.712   1.226  0.00  0.00     0.003 A 
ATOM      3  C3  I4B d   1      -0.997  -0.156   2.144  0.00  0.00     0.002 A 
ATOM      4  C4  I4B d   1      -1.564   1.074   1.878  0.00  0.00    -0.004 A 
ATOM      5  C5  I4B d   1      -1.285   1.727   0.681  0.00  0.00     0.002 A 
ATOM      6  C6  I4B d   1      -0.399   1.153  -0.242  0.00  0.00     0.003 A 
ENDROOT
BRANCH   1   7
ATOM      7  C1' I4B d   1       1.222  -0.655  -0.877  0.00  0.00     0.060 C 
BRANCH   7   8
ATOM      8  C2' I4B d   1       0.860  -2.113  -1.077  0.00  0.00    -0.013 C 
ATOM      9  C4' I4B d   1      -0.033  -2.293  -2.276  0.00  0.00     0.013 C 
ATOM     10  C3' I4B d   1       2.134  -2.888  -1.230  0.00  0.00     0.013 C 
ENDBRANCH   7   8
ENDBRANCH   1   7
TORSDOF 2
ENDMDL
