MODEL 1
REMARK minimizedAffinity -2.60985661
REMARK minimizedRMSD -1
REMARK  2 active torsions:
REMARK  status: ('A' for Active; 'I' for Inactive)
REMARK    1  A    between atoms: C2'_3  and  C1'_4 
REMARK    2  A    between atoms: C1'_4  and  C1_5 
ROOT
ATOM      1  C1  I4B d   1       0.106   0.028   0.125  0.00  0.00    -0.075 A 
ATOM      2  C2  I4B d   1      -0.435  -0.542   1.251  0.00  0.00     0.003 A 
ATOM      3  C3  I4B d   1      -1.389   0.166   2.021  0.00  0.00     0.002 A 
ATOM      4  C4  I4B d   1      -1.733   1.453   1.660  0.00  0.00    -0.004 A 
ATOM      5  C5  I4B d   1      -1.201   2.020   0.505  0.00  0.00     0.002 A 
ATOM      6  C6  I4B d   1      -0.285   1.299  -0.274  0.00  0.00     0.003 A 
ENDROOT
BRANCH   1   7
ATOM      7  C1' I4B d   1       1.135  -0.736  -0.646  0.00  0.00     0.060 C 
BRANCH   7   8
ATOM      8  C2' I4B d   1       0.488  -2.007  -1.157  0.00  0.00    -0.013 C 
ATOM      9  C4' I4B d   1      -0.015  -1.835  -2.566  0.00  0.00     0.013 C 
ATOM     10  C3' I4B d   1       1.502  -3.109  -1.074  0.00  0.00     0.013 C 
ENDBRANCH   7   8
ENDBRANCH   1   7
TORSDOF 2
ENDMDL
