MODEL 1
REMARK minimizedAffinity -5.546875
REMARK minimizedRMSD -1
REMARK  2 active torsions:
REMARK  status: ('A' for Active; 'I' for Inactive)
REMARK    1  A    between atoms: C2'_3  and  C1'_4 
REMARK    2  A    between atoms: C1'_4  and  C1_5 
ROOT
ATOM      1  C1  I4B d   1      -0.097  -0.538  -0.413  0.00  0.00    -0.075 A 
ATOM      2  C2  I4B d   1       1.177  -1.049  -0.443  0.00  0.00     0.003 A 
ATOM      3  C3  I4B d   1       1.533  -2.020  -1.410  0.00  0.00     0.002 A 
ATOM      4  C4  I4B d   1       0.578  -2.485  -2.290  0.00  0.00    -0.004 A 
ATOM      5  C5  I4B d   1      -0.707  -1.950  -2.273  0.00  0.00     0.002 A 
ATOM      6  C6  I4B d   1      -1.044  -0.961  -1.337  0.00  0.00     0.003 A 
ENDROOT
BRANCH   1   7
ATOM      7  C1' I4B d   1      -0.448   0.461   0.643  0.00  0.00     0.060 C 
BRANCH   7   8
ATOM      8  C2' I4B d   1      -1.575  -0.116   1.476  0.00  0.00    -0.013 C 
ATOM      9  C4' I4B d   1      -1.137  -0.350   2.898  0.00  0.00     0.013 C 
ATOM     10  C3' I4B d   1      -2.731   0.837   1.415  0.00  0.00     0.013 C 
ENDBRANCH   7   8
ENDBRANCH   1   7
TORSDOF 2
ENDMDL
