MODEL 1
REMARK minimizedAffinity -5.7067728
REMARK minimizedRMSD -1
REMARK  2 active torsions:
REMARK  status: ('A' for Active; 'I' for Inactive)
REMARK    1  A    between atoms: C2'_3  and  C1'_4 
REMARK    2  A    between atoms: C1'_4  and  C1_5 
ROOT
ATOM      1  C1  I4B d   1      -0.726   0.955   0.438  0.00  0.00    -0.075 A 
ATOM      2  C2  I4B d   1      -0.467   2.082  -0.303  0.00  0.00     0.003 A 
ATOM      3  C3  I4B d   1      -1.304   3.218  -0.189  0.00  0.00     0.002 A 
ATOM      4  C4  I4B d   1      -2.411   3.167   0.634  0.00  0.00    -0.004 A 
ATOM      5  C5  I4B d   1      -2.659   2.032   1.401  0.00  0.00     0.002 A 
ATOM      6  C6  I4B d   1      -1.805   0.924   1.312  0.00  0.00     0.003 A 
ENDROOT
BRANCH   1   7
ATOM      7  C1' I4B d   1       0.159  -0.238   0.268  0.00  0.00     0.060 C 
BRANCH   7   8
ATOM      8  C2' I4B d   1       0.600  -0.291  -1.181  0.00  0.00    -0.013 C 
ATOM      9  C4' I4B d   1       2.029   0.161  -1.332  0.00  0.00     0.013 C 
ATOM     10  C3' I4B d   1       0.421  -1.697  -1.668  0.00  0.00     0.013 C 
ENDBRANCH   7   8
ENDBRANCH   1   7
TORSDOF 2
ENDMDL
