MODEL 1
REMARK minimizedAffinity -3.05971599
REMARK minimizedRMSD -1
REMARK  2 active torsions:
REMARK  status: ('A' for Active; 'I' for Inactive)
REMARK    1  A    between atoms: C2'_3  and  C1'_4 
REMARK    2  A    between atoms: C1'_4  and  C1_5 
ROOT
ATOM      1  C1  I4B d   1       0.338  -1.469  -1.100  0.00  0.00    -0.075 A 
ATOM      2  C2  I4B d   1       1.614  -1.913  -1.342  0.00  0.00     0.003 A 
ATOM      3  C3  I4B d   1       1.830  -3.209  -1.870  0.00  0.00     0.002 A 
ATOM      4  C4  I4B d   1       0.751  -4.041  -2.091  0.00  0.00    -0.004 A 
ATOM      5  C5  I4B d   1      -0.543  -3.580  -1.867  0.00  0.00     0.002 A 
ATOM      6  C6  I4B d   1      -0.752  -2.282  -1.380  0.00  0.00     0.003 A 
ENDROOT
BRANCH   1   7
ATOM      7  C1' I4B d   1       0.149  -0.107  -0.512  0.00  0.00     0.060 C 
BRANCH   7   8
ATOM      8  C2' I4B d   1      -0.499  -0.271   0.848  0.00  0.00    -0.013 C 
ATOM      9  C4' I4B d   1       0.430  -0.957   1.815  0.00  0.00     0.013 C 
ATOM     10  C3' I4B d   1      -0.889   1.089   1.343  0.00  0.00     0.013 C 
ENDBRANCH   7   8
ENDBRANCH   1   7
TORSDOF 2
ENDMDL
