MODEL 1
REMARK minimizedAffinity -3.15301085
REMARK minimizedRMSD -1
REMARK  2 active torsions:
REMARK  status: ('A' for Active; 'I' for Inactive)
REMARK    1  A    between atoms: C2'_3  and  C1'_4 
REMARK    2  A    between atoms: C1'_4  and  C1_5 
ROOT
ATOM      1  C1  I4B d   1       0.442  -0.085   0.079  0.00  0.00    -0.075 A 
ATOM      2  C2  I4B d   1      -0.040   1.190  -0.084  0.00  0.00     0.003 A 
ATOM      3  C3  I4B d   1      -0.857   1.775   0.913  0.00  0.00     0.002 A 
ATOM      4  C4  I4B d   1      -1.206   1.037   2.026  0.00  0.00    -0.004 A 
ATOM      5  C5  I4B d   1      -0.698  -0.247   2.200  0.00  0.00     0.002 A 
ATOM      6  C6  I4B d   1       0.141  -0.808   1.226  0.00  0.00     0.003 A 
ENDROOT
BRANCH   1   7
ATOM      7  C1' I4B d   1       1.275  -0.685  -1.009  0.00  0.00     0.060 C 
BRANCH   7   8
ATOM      8  C2' I4B d   1       0.701  -2.048  -1.340  0.00  0.00    -0.013 C 
ATOM      9  C4' I4B d   1       0.190  -2.095  -2.756  0.00  0.00     0.013 C 
ATOM     10  C3' I4B d   1       1.775  -3.070  -1.117  0.00  0.00     0.013 C 
ENDBRANCH   7   8
ENDBRANCH   1   7
TORSDOF 2
ENDMDL
