MODEL 1
REMARK minimizedAffinity -5.57532883
REMARK minimizedRMSD -1
REMARK  2 active torsions:
REMARK  status: ('A' for Active; 'I' for Inactive)
REMARK    1  A    between atoms: C2'_3  and  C1'_4 
REMARK    2  A    between atoms: C1'_4  and  C1_5 
ROOT
ATOM      1  C1  I4B d   1      -1.001   1.511   0.346  0.00  0.00    -0.075 A 
ATOM      2  C2  I4B d   1      -1.935   2.051   1.196  0.00  0.00     0.003 A 
ATOM      3  C3  I4B d   1      -2.090   3.455   1.284  0.00  0.00     0.002 A 
ATOM      4  C4  I4B d   1      -1.262   4.278   0.548  0.00  0.00    -0.004 A 
ATOM      5  C5  I4B d   1      -0.332   3.729  -0.330  0.00  0.00     0.002 A 
ATOM      6  C6  I4B d   1      -0.209   2.336  -0.441  0.00  0.00     0.003 A 
ENDROOT
BRANCH   1   7
ATOM      7  C1' I4B d   1      -0.842   0.024   0.302  0.00  0.00     0.060 C 
BRANCH   7   8
ATOM      8  C2' I4B d   1       0.618  -0.296   0.550  0.00  0.00    -0.013 C 
ATOM      9  C4' I4B d   1       0.831  -0.831   1.942  0.00  0.00     0.013 C 
ATOM     10  C3' I4B d   1       1.057  -1.289  -0.485  0.00  0.00     0.013 C 
ENDBRANCH   7   8
ENDBRANCH   1   7
TORSDOF 2
ENDMDL
