MODEL 1
REMARK minimizedAffinity -5.88515854
REMARK minimizedRMSD -1
REMARK  2 active torsions:
REMARK  status: ('A' for Active; 'I' for Inactive)
REMARK    1  A    between atoms: C2'_3  and  C1'_4 
REMARK    2  A    between atoms: C1'_4  and  C1_5 
ROOT
ATOM      1  C1  I4B d   1      -0.266   0.676   0.434  0.00  0.00    -0.075 A 
ATOM      2  C2  I4B d   1      -0.979   0.889   1.588  0.00  0.00     0.003 A 
ATOM      3  C3  I4B d   1      -1.547   2.159   1.850  0.00  0.00     0.002 A 
ATOM      4  C4  I4B d   1      -1.336   3.195   0.963  0.00  0.00    -0.004 A 
ATOM      5  C5  I4B d   1      -0.633   2.971  -0.217  0.00  0.00     0.002 A 
ATOM      6  C6  I4B d   1      -0.105   1.700  -0.490  0.00  0.00     0.003 A 
ENDROOT
BRANCH   1   7
ATOM      7  C1' I4B d   1       0.348  -0.668   0.204  0.00  0.00     0.060 C 
BRANCH   7   8
ATOM      8  C2' I4B d   1       0.830  -0.722  -1.231  0.00  0.00    -0.013 C 
ATOM      9  C4' I4B d   1       2.156  -0.026  -1.387  0.00  0.00     0.013 C 
ATOM     10  C3' I4B d   1       0.925  -2.163  -1.634  0.00  0.00     0.013 C 
ENDBRANCH   7   8
ENDBRANCH   1   7
TORSDOF 2
ENDMDL
