MODEL 1
REMARK minimizedAffinity -5.33387661
REMARK minimizedRMSD -1
REMARK  2 active torsions:
REMARK  status: ('A' for Active; 'I' for Inactive)
REMARK    1  A    between atoms: C2'_3  and  C1'_4 
REMARK    2  A    between atoms: C1'_4  and  C1_5 
ROOT
ATOM      1  C1  I4B d   1       0.118   0.006  -0.234  0.00  0.00    -0.075 A 
ATOM      2  C2  I4B d   1      -0.245  -0.558   0.963  0.00  0.00     0.003 A 
ATOM      3  C3  I4B d   1      -1.115   0.132   1.841  0.00  0.00     0.002 A 
ATOM      4  C4  I4B d   1      -1.556   1.396   1.507  0.00  0.00    -0.004 A 
ATOM      5  C5  I4B d   1      -1.205   1.957   0.283  0.00  0.00     0.002 A 
ATOM      6  C6  I4B d   1      -0.373   1.253  -0.599  0.00  0.00     0.003 A 
ENDROOT
BRANCH   1   7
ATOM      7  C1' I4B d   1       1.066  -0.736  -1.123  0.00  0.00     0.060 C 
BRANCH   7   8
ATOM      8  C2' I4B d   1       0.433  -2.068  -1.471  0.00  0.00    -0.013 C 
ATOM      9  C4' I4B d   1       0.053  -2.127  -2.927  0.00  0.00     0.013 C 
ATOM     10  C3' I4B d   1       1.410  -3.150  -1.122  0.00  0.00     0.013 C 
ENDBRANCH   7   8
ENDBRANCH   1   7
TORSDOF 2
ENDMDL
