MODEL 1
REMARK minimizedAffinity 13.0361032
REMARK minimizedRMSD -1
REMARK  1 active torsions:
REMARK  status: ('A' for Active; 'I' for Inactive)
REMARK    1  A    between atoms: C1_2  and  C2_3 
ROOT
ATOM      1  C2  UNL d   1       5.508  -2.116  -4.918  0.00  0.00    -0.081 A 
ATOM      2  C3  UNL d   1       4.593  -1.100  -5.220  0.00  0.00     0.006 A 
ATOM      3  C4  UNL d   1       4.185  -0.199  -4.234  0.00  0.00     0.002 A 
ATOM      4  C5  UNL d   1       4.689  -0.294  -2.932  0.00  0.00    -0.080 A 
ATOM      5  C6  UNL d   1       4.282   0.685  -1.872  0.00  0.00     0.076 C 
ATOM      6  C7  UNL d   1       5.589  -1.321  -2.626  0.00  0.00     0.002 A 
ATOM      7  C8  UNL d   1       5.998  -2.222  -3.612  0.00  0.00     0.006 A 
ENDROOT
BRANCH   1   8
ATOM      8  C1  UNL d   1       6.000  -3.049  -5.995  0.00  0.00     0.054 C 
ATOM      9  C   UNL d   1       5.970  -4.498  -5.528  0.00  0.00     0.018 C 
ENDBRANCH   1   8
TORSDOF 1
ENDMDL
