MODEL 1
REMARK minimizedAffinity 21.3154144
REMARK minimizedRMSD -1
REMARK  1 active torsions:
REMARK  status: ('A' for Active; 'I' for Inactive)
REMARK    1  A    between atoms: C1_2  and  C2_3 
ROOT
ATOM      1  C2  UNL d   1       1.475  -0.686   2.559  0.00  0.00    -0.081 A 
ATOM      2  C3  UNL d   1       0.150  -0.317   2.823  0.00  0.00     0.006 A 
ATOM      3  C4  UNL d   1      -0.909  -1.110   2.374  0.00  0.00     0.002 A 
ATOM      4  C5  UNL d   1      -0.661  -2.288   1.661  0.00  0.00    -0.080 A 
ATOM      5  C6  UNL d   1      -1.788  -3.164   1.199  0.00  0.00     0.076 C 
ATOM      6  C7  UNL d   1       0.662  -2.647   1.381  0.00  0.00     0.002 A 
ATOM      7  C8  UNL d   1       1.721  -1.854   1.829  0.00  0.00     0.006 A 
ENDROOT
BRANCH   1   8
ATOM      8  C1  UNL d   1       2.620   0.133   3.097  0.00  0.00     0.054 C 
ATOM      9  C   UNL d   1       3.794   0.147   2.128  0.00  0.00     0.018 C 
ENDBRANCH   1   8
TORSDOF 1
ENDMDL
