MODEL 1
REMARK minimizedAffinity 15.9868383
REMARK minimizedRMSD -1
REMARK  1 active torsions:
REMARK  status: ('A' for Active; 'I' for Inactive)
REMARK    1  A    between atoms: C1_2  and  C2_3 
ROOT
ATOM      1  C2  UNL d   1      -0.303  -1.945   2.703  0.00  0.00    -0.081 A 
ATOM      2  C3  UNL d   1       0.154  -0.871   3.477  0.00  0.00     0.006 A 
ATOM      3  C4  UNL d   1       1.351  -0.226   3.156  0.00  0.00     0.002 A 
ATOM      4  C5  UNL d   1       2.107  -0.639   2.053  0.00  0.00    -0.080 A 
ATOM      5  C6  UNL d   1       3.378   0.064   1.681  0.00  0.00     0.076 C 
ATOM      6  C7  UNL d   1       1.659  -1.723   1.290  0.00  0.00     0.002 A 
ATOM      7  C8  UNL d   1       0.463  -2.368   1.611  0.00  0.00     0.006 A 
ENDROOT
BRANCH   1   8
ATOM      8  C1  UNL d   1      -1.625  -2.601   3.007  0.00  0.00     0.054 C 
ATOM      9  C   UNL d   1      -2.143  -3.384   1.809  0.00  0.00     0.018 C 
ENDBRANCH   1   8
TORSDOF 1
ENDMDL
