MODEL 1
REMARK minimizedAffinity 15.1111689
REMARK minimizedRMSD -1
REMARK  1 active torsions:
REMARK  status: ('A' for Active; 'I' for Inactive)
REMARK    1  A    between atoms: C1_2  and  C2_3 
ROOT
ATOM      1  C2  UNL d   1       4.611  -0.517  -4.026  0.00  0.00    -0.081 A 
ATOM      2  C3  UNL d   1       4.152  -0.862  -5.303  0.00  0.00     0.006 A 
ATOM      3  C4  UNL d   1       4.606  -2.026  -5.928  0.00  0.00     0.002 A 
ATOM      4  C5  UNL d   1       5.520  -2.867  -5.284  0.00  0.00    -0.080 A 
ATOM      5  C6  UNL d   1       5.993  -4.135  -5.931  0.00  0.00     0.076 C 
ATOM      6  C7  UNL d   1       5.992  -2.513  -4.016  0.00  0.00     0.002 A 
ATOM      7  C8  UNL d   1       5.539  -1.349  -3.391  0.00  0.00     0.006 A 
ENDROOT
BRANCH   1   8
ATOM      8  C1  UNL d   1       4.074   0.703  -3.323  0.00  0.00     0.054 C 
ATOM      9  C   UNL d   1       4.627   1.983  -3.934  0.00  0.00     0.018 C 
ENDBRANCH   1   8
TORSDOF 1
ENDMDL
