MODEL 1
REMARK minimizedAffinity 11.0046854
REMARK minimizedRMSD -1
REMARK  1 active torsions:
REMARK  status: ('A' for Active; 'I' for Inactive)
REMARK    1  A    between atoms: C1_2  and  C2_3 
ROOT
ATOM      1  C2  UNL d   1       1.011  -0.638   3.293  0.00  0.00    -0.081 A 
ATOM      2  C3  UNL d   1       2.316  -0.151   3.435  0.00  0.00     0.006 A 
ATOM      3  C4  UNL d   1       3.281  -0.417   2.460  0.00  0.00     0.002 A 
ATOM      4  C5  UNL d   1       2.956  -1.167   1.325  0.00  0.00    -0.080 A 
ATOM      5  C6  UNL d   1       3.974  -1.434   0.257  0.00  0.00     0.076 C 
ATOM      6  C7  UNL d   1       1.657  -1.668   1.192  0.00  0.00     0.002 A 
ATOM      7  C8  UNL d   1       0.691  -1.403   2.166  0.00  0.00     0.006 A 
ENDROOT
BRANCH   1   8
ATOM      8  C1  UNL d   1      -0.049  -0.298   4.309  0.00  0.00     0.054 C 
ATOM      9  C   UNL d   1      -1.440  -0.346   3.695  0.00  0.00     0.018 C 
ENDBRANCH   1   8
TORSDOF 1
ENDMDL
