MODEL 1
REMARK minimizedAffinity 13.5779753
REMARK minimizedRMSD -1
REMARK  1 active torsions:
REMARK  status: ('A' for Active; 'I' for Inactive)
REMARK    1  A    between atoms: C1_2  and  C2_3 
ROOT
ATOM      1  C2  UNL d   1       1.593  -0.552   1.906  0.00  0.00    -0.081 A 
ATOM      2  C3  UNL d   1       1.261  -1.722   1.212  0.00  0.00     0.006 A 
ATOM      3  C4  UNL d   1       0.240  -2.555   1.675  0.00  0.00     0.002 A 
ATOM      4  C5  UNL d   1      -0.471  -2.228   2.835  0.00  0.00    -0.080 A 
ATOM      5  C6  UNL d   1      -1.590  -3.098   3.326  0.00  0.00     0.076 C 
ATOM      6  C7  UNL d   1      -0.129  -1.068   3.538  0.00  0.00     0.002 A 
ATOM      7  C8  UNL d   1       0.893  -0.235   3.075  0.00  0.00     0.006 A 
ENDROOT
BRANCH   1   8
ATOM      8  C1  UNL d   1       2.650   0.382   1.374  0.00  0.00     0.054 C 
ATOM      9  C   UNL d   1       3.866   0.421   2.288  0.00  0.00     0.018 C 
ENDBRANCH   1   8
TORSDOF 1
ENDMDL
