MODEL 1
REMARK minimizedAffinity 15.349555
REMARK minimizedRMSD -1
REMARK  1 active torsions:
REMARK  status: ('A' for Active; 'I' for Inactive)
REMARK    1  A    between atoms: C1_2  and  C2_3 
ROOT
ATOM      1  C2  UNL d   1       2.446  -0.779   2.520  0.00  0.00    -0.081 A 
ATOM      2  C3  UNL d   1       1.255  -1.183   1.904  0.00  0.00     0.006 A 
ATOM      3  C4  UNL d   1       0.038  -1.081   2.582  0.00  0.00     0.002 A 
ATOM      4  C5  UNL d   1      -0.010  -0.567   3.883  0.00  0.00    -0.080 A 
ATOM      5  C6  UNL d   1      -1.314  -0.424   4.610  0.00  0.00     0.076 C 
ATOM      6  C7  UNL d   1       1.182  -0.180   4.504  0.00  0.00     0.002 A 
ATOM      7  C8  UNL d   1       2.400  -0.283   3.827  0.00  0.00     0.006 A 
ENDROOT
BRANCH   1   8
ATOM      8  C1  UNL d   1       3.752  -0.828   1.768  0.00  0.00     0.054 C 
ATOM      9  C   UNL d   1       4.871  -0.168   2.561  0.00  0.00     0.018 C 
ENDBRANCH   1   8
TORSDOF 1
ENDMDL
