MODEL 1
REMARK minimizedAffinity 8.15411377
REMARK minimizedRMSD -1
REMARK  1 active torsions:
REMARK  status: ('A' for Active; 'I' for Inactive)
REMARK    1  A    between atoms: C1_2  and  C2_3 
ROOT
ATOM      1  C2  UNL d   1      -0.479  -2.392   2.742  0.00  0.00    -0.081 A 
ATOM      2  C3  UNL d   1      -0.159  -1.188   3.381  0.00  0.00     0.006 A 
ATOM      3  C4  UNL d   1       0.985  -0.474   3.013  0.00  0.00     0.002 A 
ATOM      4  C5  UNL d   1       1.821  -0.948   1.997  0.00  0.00    -0.080 A 
ATOM      5  C6  UNL d   1       3.035  -0.176   1.573  0.00  0.00     0.076 C 
ATOM      6  C7  UNL d   1       1.510  -2.160   1.372  0.00  0.00     0.002 A 
ATOM      7  C8  UNL d   1       0.368  -2.874   1.739  0.00  0.00     0.006 A 
ENDROOT
BRANCH   1   8
ATOM      8  C1  UNL d   1      -1.746  -3.131   3.091  0.00  0.00     0.054 C 
ATOM      9  C   UNL d   1      -2.510  -3.542   1.841  0.00  0.00     0.018 C 
ENDBRANCH   1   8
TORSDOF 1
ENDMDL
