MODEL 1
REMARK minimizedAffinity 13.5264044
REMARK minimizedRMSD -1
REMARK  0 active torsions:
REMARK  status: ('A' for Active; 'I' for Inactive)
ROOT
ATOM      1  C1  DEN d   1      -3.326   3.435  -2.370  0.00  0.00     0.130 A 
ATOM      2  C2  DEN d   1      -4.595   3.004  -2.950  0.00  0.00    -0.031 A 
ATOM      3  C3  DEN d   1      -4.425   1.623  -3.447  0.00  0.00     0.027 A 
ATOM      4  C4  DEN d   1      -2.332   0.118  -3.370  0.00  0.00     0.027 A 
ATOM      5  C5  DEN d   1      -1.011   0.051  -2.985  0.00  0.00    -0.003 A 
ATOM      6  C6  DEN d   1      -0.365   1.110  -2.404  0.00  0.00     0.001 A 
ATOM      7  C7  DEN d   1      -1.052   2.267  -2.150  0.00  0.00     0.017 A 
ATOM      8  C8  DEN d   1      -2.382   2.345  -2.542  0.00  0.00    -0.094 A 
ATOM      9  C9  DEN d   1      -3.021   1.260  -3.117  0.00  0.00    -0.072 A 
ENDROOT
TORSDOF 0
ENDMDL
