MODEL 1
REMARK minimizedAffinity 10.9088221
REMARK minimizedRMSD -1
REMARK  0 active torsions:
REMARK  status: ('A' for Active; 'I' for Inactive)
ROOT
ATOM      1  C1  DEN d   1      -0.683   1.870  -2.280  0.00  0.00     0.130 A 
ATOM      2  C2  DEN d   1      -0.168   0.511  -2.423  0.00  0.00    -0.031 A 
ATOM      3  C3  DEN d   1      -1.280  -0.355  -2.863  0.00  0.00     0.027 A 
ATOM      4  C4  DEN d   1      -3.736   0.273  -3.337  0.00  0.00     0.027 A 
ATOM      5  C5  DEN d   1      -4.650   1.304  -3.343  0.00  0.00    -0.003 A 
ATOM      6  C6  DEN d   1      -4.317   2.578  -2.966  0.00  0.00     0.001 A 
ATOM      7  C7  DEN d   1      -3.026   2.864  -2.609  0.00  0.00     0.017 A 
ATOM      8  C8  DEN d   1      -2.100   1.828  -2.593  0.00  0.00    -0.094 A 
ATOM      9  C9  DEN d   1      -2.454   0.550  -2.990  0.00  0.00    -0.072 A 
ENDROOT
TORSDOF 0
ENDMDL
