MODEL 1
REMARK minimizedAffinity 17.0266571
REMARK minimizedRMSD -1
REMARK  0 active torsions:
REMARK  status: ('A' for Active; 'I' for Inactive)
ROOT
ATOM      1  C1  DEN d   1      -3.723   3.821  -4.559  0.00  0.00     0.130 A 
ATOM      2  C2  DEN d   1      -4.765   4.541  -3.831  0.00  0.00    -0.031 A 
ATOM      3  C3  DEN d   1      -5.061   3.789  -2.595  0.00  0.00     0.027 A 
ATOM      4  C4  DEN d   1      -4.011   1.594  -1.740  0.00  0.00     0.027 A 
ATOM      5  C5  DEN d   1      -3.094   0.604  -2.020  0.00  0.00    -0.003 A 
ATOM      6  C6  DEN d   1      -2.354   0.600  -3.172  0.00  0.00     0.001 A 
ATOM      7  C7  DEN d   1      -2.484   1.629  -4.067  0.00  0.00     0.017 A 
ATOM      8  C8  DEN d   1      -3.411   2.626  -3.795  0.00  0.00    -0.094 A 
ATOM      9  C9  DEN d   1      -4.142   2.619  -2.619  0.00  0.00    -0.072 A 
ENDROOT
TORSDOF 0
ENDMDL
