MODEL 1
REMARK minimizedAffinity 5.69356203
REMARK minimizedRMSD -1
REMARK  0 active torsions:
REMARK  status: ('A' for Active; 'I' for Inactive)
ROOT
ATOM      1  C1  DEN d   1       4.137  -5.050  -3.922  0.00  0.00     0.130 A 
ATOM      2  C2  DEN d   1       4.482  -5.980  -4.994  0.00  0.00    -0.031 A 
ATOM      3  C3  DEN d   1       5.274  -5.244  -6.000  0.00  0.00     0.027 A 
ATOM      4  C4  DEN d   1       6.000  -2.769  -6.000  0.00  0.00     0.027 A 
ATOM      5  C5  DEN d   1       5.935  -1.580  -5.307  0.00  0.00    -0.003 A 
ATOM      6  C6  DEN d   1       5.243  -1.457  -4.131  0.00  0.00     0.001 A 
ATOM      7  C7  DEN d   1       4.626  -2.553  -3.589  0.00  0.00     0.017 A 
ATOM      8  C8  DEN d   1       4.681  -3.754  -4.285  0.00  0.00    -0.094 A 
ATOM      9  C9  DEN d   1       5.396  -3.861  -5.466  0.00  0.00    -0.072 A 
ENDROOT
TORSDOF 0
ENDMDL
