MODEL 1
REMARK minimizedAffinity 2.9510169
REMARK minimizedRMSD -1
REMARK  0 active torsions:
REMARK  status: ('A' for Active; 'I' for Inactive)
ROOT
ATOM      1  C1  DEN d   1       2.571  -4.023  -3.820  0.00  0.00     0.130 A 
ATOM      2  C2  DEN d   1       2.449  -2.600  -4.124  0.00  0.00    -0.031 A 
ATOM      3  C3  DEN d   1       3.570  -2.224  -5.010  0.00  0.00     0.027 A 
ATOM      4  C4  DEN d   1       5.469  -3.702  -5.939  0.00  0.00     0.027 A 
ATOM      5  C5  DEN d   1       6.000  -4.973  -5.949  0.00  0.00    -0.003 A 
ATOM      6  C6  DEN d   1       5.449  -6.000  -5.229  0.00  0.00     0.001 A 
ATOM      7  C7  DEN d   1       4.307  -5.784  -4.503  0.00  0.00     0.017 A 
ATOM      8  C8  DEN d   1       3.770  -4.504  -4.483  0.00  0.00    -0.094 A 
ATOM      9  C9  DEN d   1       4.334  -3.482  -5.227  0.00  0.00    -0.072 A 
ENDROOT
TORSDOF 0
ENDMDL
