MODEL 1
REMARK minimizedAffinity 8.65072155
REMARK minimizedRMSD -1
REMARK  0 active torsions:
REMARK  status: ('A' for Active; 'I' for Inactive)
ROOT
ATOM      1  C1  DEN d   1      -5.556   3.365  -3.909  0.00  0.00     0.130 A 
ATOM      2  C2  DEN d   1      -5.641   4.065  -2.631  0.00  0.00    -0.031 A 
ATOM      3  C3  DEN d   1      -4.639   3.476  -1.720  0.00  0.00     0.027 A 
ATOM      4  C4  DEN d   1      -2.970   1.560  -2.164  0.00  0.00     0.027 A 
ATOM      5  C5  DEN d   1      -2.532   0.647  -3.098  0.00  0.00    -0.003 A 
ATOM      6  C6  DEN d   1      -3.089   0.554  -4.346  0.00  0.00     0.001 A 
ATOM      7  C7  DEN d   1      -4.087   1.419  -4.710  0.00  0.00     0.017 A 
ATOM      8  C8  DEN d   1      -4.539   2.338  -3.771  0.00  0.00    -0.094 A 
ATOM      9  C9  DEN d   1      -3.955   2.424  -2.519  0.00  0.00    -0.072 A 
ENDROOT
TORSDOF 0
ENDMDL
