MODEL 1
REMARK minimizedAffinity 16.7745724
REMARK minimizedRMSD -1
REMARK  0 active torsions:
REMARK  status: ('A' for Active; 'I' for Inactive)
ROOT
ATOM      1  C1  DEN d   1      -3.886   3.929  -2.451  0.00  0.00     0.130 A 
ATOM      2  C2  DEN d   1      -4.612   3.793  -3.711  0.00  0.00    -0.031 A 
ATOM      3  C3  DEN d   1      -4.339   2.446  -4.252  0.00  0.00     0.027 A 
ATOM      4  C4  DEN d   1      -2.875   0.567  -3.263  0.00  0.00     0.027 A 
ATOM      5  C5  DEN d   1      -2.049   0.219  -2.217  0.00  0.00    -0.003 A 
ATOM      6  C6  DEN d   1      -1.754   1.089  -1.200  0.00  0.00     0.001 A 
ATOM      7  C7  DEN d   1      -2.324   2.335  -1.185  0.00  0.00     0.017 A 
ATOM      8  C8  DEN d   1      -3.151   2.694  -2.241  0.00  0.00    -0.094 A 
ATOM      9  C9  DEN d   1      -3.447   1.797  -3.253  0.00  0.00    -0.072 A 
ENDROOT
TORSDOF 0
ENDMDL
