MODEL 1
REMARK minimizedAffinity 4.54591131
REMARK minimizedRMSD -1
REMARK  2 active torsions:
REMARK  status: ('A' for Active; 'I' for Inactive)
REMARK    1  A    between atoms: C1_2  and  C2_3 
REMARK    2  A    between atoms: C2_3  and  C3_4 
ROOT
ATOM      1  C3  UNL d   1      -5.397  -4.103  -3.766  0.00  0.00    -0.075 A 
ATOM      2  C4  UNL d   1      -5.492  -2.770  -3.339  0.00  0.00     0.002 A 
ATOM      3  C5  UNL d   1      -5.570  -2.466  -1.980  0.00  0.00     0.002 A 
ATOM      4  C6  UNL d   1      -5.564  -3.487  -1.033  0.00  0.00    -0.004 A 
ATOM      5  C7  UNL d   1      -5.486  -4.815  -1.446  0.00  0.00     0.002 A 
ATOM      6  C8  UNL d   1      -5.404  -5.123  -2.805  0.00  0.00     0.002 A 
ENDROOT
BRANCH   1   7
ATOM      7  C2  UNL d   1      -5.283  -4.438  -5.234  0.00  0.00     0.056 C 
BRANCH   7   8
ATOM      8  C1  UNL d   1      -4.853  -5.882  -5.513  0.00  0.00     0.007 C 
ATOM      9  C   UNL d   1      -3.407  -6.000  -5.974  0.00  0.00     0.009 C 
ENDBRANCH   7   8
ENDBRANCH   1   7
TORSDOF 2
ENDMDL
