MODEL 1
REMARK minimizedAffinity 5.6802063
REMARK minimizedRMSD -1
REMARK  2 active torsions:
REMARK  status: ('A' for Active; 'I' for Inactive)
REMARK    1  A    between atoms: C1_2  and  C2_3 
REMARK    2  A    between atoms: C2_3  and  C3_4 
ROOT
ATOM      1  C3  UNL d   1       4.115  -0.719  -3.829  0.00  0.00    -0.075 A 
ATOM      2  C4  UNL d   1       3.417   0.424  -4.245  0.00  0.00     0.002 A 
ATOM      3  C5  UNL d   1       3.873   1.178  -5.327  0.00  0.00     0.002 A 
ATOM      4  C6  UNL d   1       5.034   0.805  -6.000  0.00  0.00    -0.004 A 
ATOM      5  C7  UNL d   1       5.745  -0.320  -5.586  0.00  0.00     0.002 A 
ATOM      6  C8  UNL d   1       5.289  -1.078  -4.506  0.00  0.00     0.002 A 
ENDROOT
BRANCH   1   7
ATOM      7  C2  UNL d   1       3.612  -1.556  -2.677  0.00  0.00     0.056 C 
BRANCH   7   8
ATOM      8  C1  UNL d   1       2.113  -1.868  -2.741  0.00  0.00     0.007 C 
ATOM      9  C   UNL d   1       1.784  -3.310  -2.381  0.00  0.00     0.009 C 
ENDBRANCH   7   8
ENDBRANCH   1   7
TORSDOF 2
ENDMDL
