MODEL 1
REMARK minimizedAffinity 1.48165369
REMARK minimizedRMSD -1
REMARK  2 active torsions:
REMARK  status: ('A' for Active; 'I' for Inactive)
REMARK    1  A    between atoms: C1_2  and  C2_3 
REMARK    2  A    between atoms: C2_3  and  C3_4 
ROOT
ATOM      1  C3  UNL d   1       4.433  -1.077  -3.810  0.00  0.00    -0.075 A 
ATOM      2  C4  UNL d   1       5.570  -1.450  -4.542  0.00  0.00     0.002 A 
ATOM      3  C5  UNL d   1       5.999  -0.683  -5.625  0.00  0.00     0.002 A 
ATOM      4  C6  UNL d   1       5.292   0.459  -5.996  0.00  0.00    -0.004 A 
ATOM      5  C7  UNL d   1       4.151   0.829  -5.287  0.00  0.00     0.002 A 
ATOM      6  C8  UNL d   1       3.723   0.066  -4.200  0.00  0.00     0.002 A 
ENDROOT
BRANCH   1   7
ATOM      7  C2  UNL d   1       3.982  -1.887  -2.618  0.00  0.00     0.056 C 
BRANCH   7   8
ATOM      8  C1  UNL d   1       2.500  -2.276  -2.653  0.00  0.00     0.007 C 
ATOM      9  C   UNL d   1       2.274  -3.782  -2.669  0.00  0.00     0.009 C 
ENDBRANCH   7   8
ENDBRANCH   1   7
TORSDOF 2
ENDMDL
