MODEL 1
REMARK minimizedAffinity 0.504767954
REMARK minimizedRMSD -1
REMARK  2 active torsions:
REMARK  status: ('A' for Active; 'I' for Inactive)
REMARK    1  A    between atoms: C1_2  and  C2_3 
REMARK    2  A    between atoms: C2_3  and  C3_4 
ROOT
ATOM      1  C3  UNL d   1       4.248  -1.028  -3.663  0.00  0.00    -0.075 A 
ATOM      2  C4  UNL d   1       3.409  -0.055  -4.226  0.00  0.00     0.002 A 
ATOM      3  C5  UNL d   1       3.858   0.746  -5.276  0.00  0.00     0.002 A 
ATOM      4  C6  UNL d   1       5.152   0.592  -5.769  0.00  0.00    -0.004 A 
ATOM      5  C7  UNL d   1       6.000  -0.360  -5.206  0.00  0.00     0.002 A 
ATOM      6  C8  UNL d   1       5.551  -1.166  -4.158  0.00  0.00     0.002 A 
ENDROOT
BRANCH   1   7
ATOM      7  C2  UNL d   1       3.757  -1.918  -2.546  0.00  0.00     0.056 C 
BRANCH   7   8
ATOM      8  C1  UNL d   1       2.264  -2.252  -2.625  0.00  0.00     0.007 C 
ATOM      9  C   UNL d   1       1.982  -3.749  -2.614  0.00  0.00     0.009 C 
ENDBRANCH   7   8
ENDBRANCH   1   7
TORSDOF 2
ENDMDL
