MODEL 1
REMARK minimizedAffinity 2.95088267
REMARK minimizedRMSD -1
REMARK  2 active torsions:
REMARK  status: ('A' for Active; 'I' for Inactive)
REMARK    1  A    between atoms: C1_2  and  C2_3 
REMARK    2  A    between atoms: C2_3  and  C3_4 
ROOT
ATOM      1  C3  UNL d   1      -5.920  -4.606  -3.205  0.00  0.00    -0.075 A 
ATOM      2  C4  UNL d   1      -5.862  -5.872  -3.805  0.00  0.00     0.002 A 
ATOM      3  C5  UNL d   1      -5.845  -5.997  -5.195  0.00  0.00     0.002 A 
ATOM      4  C6  UNL d   1      -5.896  -4.861  -6.000  0.00  0.00    -0.004 A 
ATOM      5  C7  UNL d   1      -5.970  -3.599  -5.414  0.00  0.00     0.002 A 
ATOM      6  C8  UNL d   1      -5.983  -3.471  -4.024  0.00  0.00     0.002 A 
ENDROOT
BRANCH   1   7
ATOM      7  C2  UNL d   1      -5.909  -4.463  -1.701  0.00  0.00     0.056 C 
BRANCH   7   8
ATOM      8  C1  UNL d   1      -5.438  -3.091  -1.209  0.00  0.00     0.007 C 
ATOM      9  C   UNL d   1      -4.053  -3.122  -0.577  0.00  0.00     0.009 C 
ENDBRANCH   7   8
ENDBRANCH   1   7
TORSDOF 2
ENDMDL
