MODEL 1
REMARK minimizedAffinity 9.40041733
REMARK minimizedRMSD -1
REMARK  2 active torsions:
REMARK  status: ('A' for Active; 'I' for Inactive)
REMARK    1  A    between atoms: C1_2  and  C2_3 
REMARK    2  A    between atoms: C2_3  and  C3_4 
ROOT
ATOM      1  C3  UNL d   1       1.418  -0.648   2.050  0.00  0.00    -0.075 A 
ATOM      2  C4  UNL d   1       1.651  -1.255   3.293  0.00  0.00     0.002 A 
ATOM      3  C5  UNL d   1       1.155  -2.531   3.562  0.00  0.00     0.002 A 
ATOM      4  C6  UNL d   1       0.413  -3.211   2.599  0.00  0.00    -0.004 A 
ATOM      5  C7  UNL d   1       0.161  -2.611   1.367  0.00  0.00     0.002 A 
ATOM      6  C8  UNL d   1       0.660  -1.336   1.093  0.00  0.00     0.002 A 
ENDROOT
BRANCH   1   7
ATOM      7  C2  UNL d   1       1.977   0.721   1.742  0.00  0.00     0.056 C 
BRANCH   7   8
ATOM      8  C1  UNL d   1       1.606   1.792   2.772  0.00  0.00     0.007 C 
ATOM      9  C   UNL d   1       2.779   2.682   3.162  0.00  0.00     0.009 C 
ENDBRANCH   7   8
ENDBRANCH   1   7
TORSDOF 2
ENDMDL
