MODEL 1
REMARK minimizedAffinity 2.27789092
REMARK minimizedRMSD -1
REMARK  2 active torsions:
REMARK  status: ('A' for Active; 'I' for Inactive)
REMARK    1  A    between atoms: C1_2  and  C2_3 
REMARK    2  A    between atoms: C2_3  and  C3_4 
ROOT
ATOM      1  C3  UNL d   1       4.481  -0.679  -3.751  0.00  0.00    -0.075 A 
ATOM      2  C4  UNL d   1       5.568  -1.131  -4.513  0.00  0.00     0.002 A 
ATOM      3  C5  UNL d   1       6.000  -0.410  -5.627  0.00  0.00     0.002 A 
ATOM      4  C6  UNL d   1       5.345   0.762  -5.999  0.00  0.00    -0.004 A 
ATOM      5  C7  UNL d   1       4.254   1.211  -5.259  0.00  0.00     0.002 A 
ATOM      6  C8  UNL d   1       3.823   0.495  -4.141  0.00  0.00     0.002 A 
ENDROOT
BRANCH   1   7
ATOM      7  C2  UNL d   1       4.027  -1.438  -2.526  0.00  0.00     0.056 C 
BRANCH   7   8
ATOM      8  C1  UNL d   1       2.578  -1.930  -2.599  0.00  0.00     0.007 C 
ATOM      9  C   UNL d   1       2.458  -3.448  -2.602  0.00  0.00     0.009 C 
ENDBRANCH   7   8
ENDBRANCH   1   7
TORSDOF 2
ENDMDL
