MODEL 1
REMARK minimizedAffinity -2.28875637
REMARK minimizedRMSD -1
REMARK  2 active torsions:
REMARK  status: ('A' for Active; 'I' for Inactive)
REMARK    1  A    between atoms: C1_2  and  C2_3 
REMARK    2  A    between atoms: C2_3  and  C3_4 
ROOT
ATOM      1  C3  UNL d   1       4.618  -0.453  -4.056  0.00  0.00    -0.075 A 
ATOM      2  C4  UNL d   1       5.805  -0.398  -4.801  0.00  0.00     0.002 A 
ATOM      3  C5  UNL d   1       5.992   0.595  -5.764  0.00  0.00     0.002 A 
ATOM      4  C6  UNL d   1       4.993   1.537  -6.000  0.00  0.00    -0.004 A 
ATOM      5  C7  UNL d   1       3.803   1.482  -5.277  0.00  0.00     0.002 A 
ATOM      6  C8  UNL d   1       3.616   0.492  -4.310  0.00  0.00     0.002 A 
ENDROOT
BRANCH   1   7
ATOM      7  C2  UNL d   1       4.422  -1.507  -2.993  0.00  0.00     0.056 C 
BRANCH   7   8
ATOM      8  C1  UNL d   1       2.953  -1.812  -2.681  0.00  0.00     0.007 C 
ATOM      9  C   UNL d   1       2.581  -3.271  -2.913  0.00  0.00     0.009 C 
ENDBRANCH   7   8
ENDBRANCH   1   7
TORSDOF 2
ENDMDL
