MODEL 1
REMARK minimizedAffinity 5.26172972
REMARK minimizedRMSD -1
REMARK  2 active torsions:
REMARK  status: ('A' for Active; 'I' for Inactive)
REMARK    1  A    between atoms: C1_2  and  C2_3 
REMARK    2  A    between atoms: C2_3  and  C3_4 
ROOT
ATOM      1  C3  UNL d   1      -5.102  -5.098  -3.698  0.00  0.00    -0.075 A 
ATOM      2  C4  UNL d   1      -5.512  -5.784  -4.850  0.00  0.00     0.002 A 
ATOM      3  C5  UNL d   1      -5.892  -5.083  -5.995  0.00  0.00     0.002 A 
ATOM      4  C6  UNL d   1      -5.878  -3.690  -6.000  0.00  0.00    -0.004 A 
ATOM      5  C7  UNL d   1      -5.488  -2.998  -4.856  0.00  0.00     0.002 A 
ATOM      6  C8  UNL d   1      -5.103  -3.696  -3.710  0.00  0.00     0.002 A 
ENDROOT
BRANCH   1   7
ATOM      7  C2  UNL d   1      -4.662  -5.851  -2.466  0.00  0.00     0.056 C 
BRANCH   7   8
ATOM      8  C1  UNL d   1      -5.278  -5.330  -1.163  0.00  0.00     0.007 C 
ATOM      9  C   UNL d   1      -5.998  -3.998  -1.330  0.00  0.00     0.009 C 
ENDBRANCH   7   8
ENDBRANCH   1   7
TORSDOF 2
ENDMDL
