MODEL 1
REMARK minimizedAffinity -2.72074485
REMARK minimizedRMSD -1
REMARK  1 active torsions:
REMARK  status: ('A' for Active; 'I' for Inactive)
REMARK    1  A    between atoms: C1_2  and  C2_3 
ROOT
ATOM      1  C2  UNL d   1      -0.245  -0.334  -0.168  0.00  0.00    -0.081 A 
ATOM      2  C3  UNL d   1      -0.836  -0.367   1.101  0.00  0.00     0.006 A 
ATOM      3  C4  UNL d   1      -0.070  -0.665   2.231  0.00  0.00     0.002 A 
ATOM      4  C5  UNL d   1       1.299  -0.927   2.111  0.00  0.00    -0.080 A 
ATOM      5  C6  UNL d   1       2.138  -1.218   3.320  0.00  0.00     0.076 C 
ATOM      6  C7  UNL d   1       1.886  -0.911   0.841  0.00  0.00     0.002 A 
ATOM      7  C8  UNL d   1       1.120  -0.614  -0.289  0.00  0.00     0.006 A 
ENDROOT
BRANCH   1   8
ATOM      8  C1  UNL d   1      -1.055   0.050  -1.381  0.00  0.00     0.054 C 
ATOM      9  C   UNL d   1      -0.718   1.459  -1.847  0.00  0.00     0.018 C 
ENDBRANCH   1   8
TORSDOF 1
ENDMDL
