MODEL 1
REMARK minimizedAffinity -3.75530934
REMARK minimizedRMSD -1
REMARK  1 active torsions:
REMARK  status: ('A' for Active; 'I' for Inactive)
REMARK    1  A    between atoms: C1_2  and  C2_3 
ROOT
ATOM      1  C2  UNL d   1      -0.301  -0.431   1.349  0.00  0.00    -0.081 A 
ATOM      2  C3  UNL d   1      -1.114  -0.894   0.307  0.00  0.00     0.006 A 
ATOM      3  C4  UNL d   1      -1.226  -0.167  -0.881  0.00  0.00     0.002 A 
ATOM      4  C5  UNL d   1      -0.522   1.030  -1.049  0.00  0.00    -0.080 A 
ATOM      5  C6  UNL d   1      -0.610   1.806  -2.330  0.00  0.00     0.076 C 
ATOM      6  C7  UNL d   1       0.277   1.502  -0.001  0.00  0.00     0.002 A 
ATOM      7  C8  UNL d   1       0.389   0.775   1.186  0.00  0.00     0.006 A 
ENDROOT
BRANCH   1   8
ATOM      8  C1  UNL d   1      -0.127  -1.246   2.605  0.00  0.00     0.054 C 
ATOM      9  C   UNL d   1       1.343  -1.522   2.886  0.00  0.00     0.018 C 
ENDBRANCH   1   8
TORSDOF 1
ENDMDL
