MODEL 1
REMARK minimizedAffinity -4.18426323
REMARK minimizedRMSD -1
REMARK  1 active torsions:
REMARK  status: ('A' for Active; 'I' for Inactive)
REMARK    1  A    between atoms: C1_2  and  C2_3 
ROOT
ATOM      1  C2  UNL d   1       0.236   0.668  -1.099  0.00  0.00    -0.081 A 
ATOM      2  C3  UNL d   1      -0.749   1.000  -0.160  0.00  0.00     0.006 A 
ATOM      3  C4  UNL d   1      -0.835   0.309   1.050  0.00  0.00     0.002 A 
ATOM      4  C5  UNL d   1       0.066  -0.719   1.346  0.00  0.00    -0.080 A 
ATOM      5  C6  UNL d   1       0.003  -1.449   2.655  0.00  0.00     0.076 C 
ATOM      6  C7  UNL d   1       1.038  -1.064   0.401  0.00  0.00     0.002 A 
ATOM      7  C8  UNL d   1       1.124  -0.374  -0.810  0.00  0.00     0.006 A 
ENDROOT
BRANCH   1   8
ATOM      8  C1  UNL d   1       0.372   1.454  -2.378  0.00  0.00     0.054 C 
ATOM      9  C   UNL d   1      -0.785   2.427  -2.555  0.00  0.00     0.018 C 
ENDBRANCH   1   8
TORSDOF 1
ENDMDL
