MODEL 1
REMARK minimizedAffinity -4.21485996
REMARK minimizedRMSD -1
REMARK  1 active torsions:
REMARK  status: ('A' for Active; 'I' for Inactive)
REMARK    1  A    between atoms: C1_2  and  C2_3 
ROOT
ATOM      1  C2  UNL d   1      -0.201  -0.621  -0.285  0.00  0.00    -0.081 A 
ATOM      2  C3  UNL d   1      -0.754  -0.693   0.999  0.00  0.00     0.006 A 
ATOM      3  C4  UNL d   1       0.019  -1.124   2.080  0.00  0.00     0.002 A 
ATOM      4  C5  UNL d   1       1.359  -1.481   1.896  0.00  0.00    -0.080 A 
ATOM      5  C6  UNL d   1       2.209  -1.916   3.053  0.00  0.00     0.076 C 
ATOM      6  C7  UNL d   1       1.907  -1.425   0.610  0.00  0.00     0.002 A 
ATOM      7  C8  UNL d   1       1.134  -0.996  -0.471  0.00  0.00     0.006 A 
ENDROOT
BRANCH   1   8
ATOM      8  C1  UNL d   1      -1.014  -0.096  -1.441  0.00  0.00     0.054 C 
ATOM      9  C   UNL d   1      -0.680   1.360  -1.736  0.00  0.00     0.018 C 
ENDBRANCH   1   8
TORSDOF 1
ENDMDL
