MODEL 1
REMARK minimizedAffinity 2.35653734
REMARK minimizedRMSD -1
REMARK  0 active torsions:
REMARK  status: ('A' for Active; 'I' for Inactive)
ROOT
ATOM      1  C   UNL d   1       2.225  -2.340   1.090  0.00  0.00     0.078 C 
ATOM      2  C1  UNL d   1       1.003  -2.426   1.955  0.00  0.00    -0.077 A 
ATOM      3  C2  UNL d   1       0.423  -3.662   2.263  0.00  0.00    -0.001 A 
ATOM      4  C3  UNL d   1      -0.720  -3.727   3.062  0.00  0.00     0.003 A 
ATOM      5  C4  UNL d   1      -1.293  -2.558   3.558  0.00  0.00    -0.005 A 
ATOM      6  C5  UNL d   1      -0.725  -1.322   3.255  0.00  0.00     0.003 A 
ATOM      7  C6  UNL d   1       0.418  -1.256   2.456  0.00  0.00    -0.001 A 
ENDROOT
TORSDOF 0
ENDMDL
