MODEL 1
REMARK minimizedAffinity 5.80839634
REMARK minimizedRMSD -1
REMARK  0 active torsions:
REMARK  status: ('A' for Active; 'I' for Inactive)
ROOT
ATOM      1  C   UNL d   1      -5.206   5.337   5.997  0.00  0.00     0.078 C 
ATOM      2  C1  UNL d   1      -4.154   4.400   5.483  0.00  0.00    -0.077 A 
ATOM      3  C2  UNL d   1      -2.852   4.426   5.998  0.00  0.00    -0.001 A 
ATOM      4  C3  UNL d   1      -1.880   3.555   5.503  0.00  0.00     0.003 A 
ATOM      5  C4  UNL d   1      -2.199   2.653   4.490  0.00  0.00    -0.005 A 
ATOM      6  C5  UNL d   1      -3.492   2.621   3.971  0.00  0.00     0.003 A 
ATOM      7  C6  UNL d   1      -4.465   3.491   4.464  0.00  0.00    -0.001 A 
ENDROOT
TORSDOF 0
ENDMDL
