MODEL 1
REMARK minimizedAffinity 2.09498286
REMARK minimizedRMSD -1
REMARK  0 active torsions:
REMARK  status: ('A' for Active; 'I' for Inactive)
ROOT
ATOM      1  C   UNL d   1       0.721  -3.993   0.951  0.00  0.00     0.078 C 
ATOM      2  C1  UNL d   1       0.735  -2.713   1.731  0.00  0.00    -0.077 A 
ATOM      3  C2  UNL d   1       1.832  -1.844   1.672  0.00  0.00    -0.001 A 
ATOM      4  C3  UNL d   1       1.835  -0.660   2.411  0.00  0.00     0.003 A 
ATOM      5  C4  UNL d   1       0.744  -0.334   3.215  0.00  0.00    -0.005 A 
ATOM      6  C5  UNL d   1      -0.350  -1.193   3.282  0.00  0.00     0.003 A 
ATOM      7  C6  UNL d   1      -0.355  -2.378   2.544  0.00  0.00    -0.001 A 
ENDROOT
TORSDOF 0
ENDMDL
