MODEL 1
REMARK minimizedAffinity 0.288300842
REMARK minimizedRMSD -1
REMARK  0 active torsions:
REMARK  status: ('A' for Active; 'I' for Inactive)
ROOT
ATOM      1  C   UNL d   1       2.364   4.504   3.183  0.00  0.00     0.078 C 
ATOM      2  C1  UNL d   1       3.625   5.020   3.810  0.00  0.00    -0.077 A 
ATOM      3  C2  UNL d   1       3.630   5.506   5.123  0.00  0.00    -0.001 A 
ATOM      4  C3  UNL d   1       4.809   5.992   5.691  0.00  0.00     0.003 A 
ATOM      5  C4  UNL d   1       5.991   5.998   4.953  0.00  0.00    -0.005 A 
ATOM      6  C5  UNL d   1       5.995   5.519   3.644  0.00  0.00     0.003 A 
ATOM      7  C6  UNL d   1       4.817   5.032   3.075  0.00  0.00    -0.001 A 
ENDROOT
TORSDOF 0
ENDMDL
