MODEL 1
REMARK minimizedAffinity 10.2587976
REMARK minimizedRMSD -1
REMARK  0 active torsions:
REMARK  status: ('A' for Active; 'I' for Inactive)
ROOT
ATOM      1  C   UNL d   1       2.192  -2.013   1.147  0.00  0.00     0.078 C 
ATOM      2  C1  UNL d   1       0.915  -1.527   1.764  0.00  0.00    -0.077 A 
ATOM      3  C2  UNL d   1      -0.302  -2.168   1.503  0.00  0.00    -0.001 A 
ATOM      4  C3  UNL d   1      -1.484  -1.699   2.077  0.00  0.00     0.003 A 
ATOM      5  C4  UNL d   1      -1.462  -0.585   2.915  0.00  0.00    -0.005 A 
ATOM      6  C5  UNL d   1      -0.256   0.061   3.179  0.00  0.00     0.003 A 
ATOM      7  C6  UNL d   1       0.928  -0.407   2.605  0.00  0.00    -0.001 A 
ENDROOT
TORSDOF 0
ENDMDL
