MODEL 1
REMARK minimizedAffinity 8.36239815
REMARK minimizedRMSD -1
REMARK  0 active torsions:
REMARK  status: ('A' for Active; 'I' for Inactive)
ROOT
ATOM      1  C   UNL d   1      -0.191  -4.763   1.180  0.00  0.00     0.078 C 
ATOM      2  C1  UNL d   1       0.076  -3.353   1.616  0.00  0.00    -0.077 A 
ATOM      3  C2  UNL d   1       1.279  -2.713   1.291  0.00  0.00    -0.001 A 
ATOM      4  C3  UNL d   1       1.518  -1.404   1.712  0.00  0.00     0.003 A 
ATOM      5  C4  UNL d   1       0.559  -0.723   2.460  0.00  0.00    -0.005 A 
ATOM      6  C5  UNL d   1      -0.640  -1.353   2.790  0.00  0.00     0.003 A 
ATOM      7  C6  UNL d   1      -0.880  -2.662   2.370  0.00  0.00    -0.001 A 
ENDROOT
TORSDOF 0
ENDMDL
