MODEL 1
REMARK minimizedAffinity 4.8219924
REMARK minimizedRMSD -1
REMARK  0 active torsions:
REMARK  status: ('A' for Active; 'I' for Inactive)
ROOT
ATOM      1  C   UNL d   1       3.004   3.338   2.724  0.00  0.00     0.078 C 
ATOM      2  C1  UNL d   1       3.810   4.122   3.716  0.00  0.00    -0.077 A 
ATOM      3  C2  UNL d   1       4.950   4.832   3.319  0.00  0.00    -0.001 A 
ATOM      4  C3  UNL d   1       5.696   5.549   4.255  0.00  0.00     0.003 A 
ATOM      5  C4  UNL d   1       5.311   5.563   5.595  0.00  0.00    -0.005 A 
ATOM      6  C5  UNL d   1       4.179   4.859   5.999  0.00  0.00     0.003 A 
ATOM      7  C6  UNL d   1       3.432   4.140   5.064  0.00  0.00    -0.001 A 
ENDROOT
TORSDOF 0
ENDMDL
