MODEL 1
REMARK minimizedAffinity 5.58167887
REMARK minimizedRMSD -1
REMARK  0 active torsions:
REMARK  status: ('A' for Active; 'I' for Inactive)
ROOT
ATOM      1  C   UNL d   1       5.235   2.187  -2.661  0.00  0.00     0.078 C 
ATOM      2  C1  UNL d   1       4.354   1.228  -1.918  0.00  0.00    -0.077 A 
ATOM      3  C2  UNL d   1       3.703   0.182  -2.583  0.00  0.00    -0.001 A 
ATOM      4  C3  UNL d   1       2.878  -0.697  -1.880  0.00  0.00     0.003 A 
ATOM      5  C4  UNL d   1       2.696  -0.539  -0.508  0.00  0.00    -0.005 A 
ATOM      6  C5  UNL d   1       3.338   0.500   0.163  0.00  0.00     0.003 A 
ATOM      7  C6  UNL d   1       4.163   1.380  -0.539  0.00  0.00    -0.001 A 
ENDROOT
TORSDOF 0
ENDMDL
