MODEL 1
REMARK minimizedAffinity 2.31423926
REMARK minimizedRMSD -1
REMARK  0 active torsions:
REMARK  status: ('A' for Active; 'I' for Inactive)
ROOT
ATOM      1  C   UNL d   1      -5.999   2.225  -3.089  0.00  0.00     0.078 C 
ATOM      2  C1  UNL d   1      -4.737   1.524  -3.494  0.00  0.00    -0.077 A 
ATOM      3  C2  UNL d   1      -3.703   1.311  -2.574  0.00  0.00    -0.001 A 
ATOM      4  C3  UNL d   1      -2.530   0.665  -2.968  0.00  0.00     0.003 A 
ATOM      5  C4  UNL d   1      -2.379   0.229  -4.283  0.00  0.00    -0.005 A 
ATOM      6  C5  UNL d   1      -3.401   0.438  -5.206  0.00  0.00     0.003 A 
ATOM      7  C6  UNL d   1      -4.575   1.084  -4.814  0.00  0.00    -0.001 A 
ENDROOT
TORSDOF 0
ENDMDL
