MODEL 1
REMARK minimizedAffinity 5.10221529
REMARK minimizedRMSD -1
REMARK  0 active torsions:
REMARK  status: ('A' for Active; 'I' for Inactive)
ROOT
ATOM      1  C   UNL d   1       5.999   1.968  -2.945  0.00  0.00     0.078 C 
ATOM      2  C1  UNL d   1       4.952   1.158  -2.240  0.00  0.00    -0.077 A 
ATOM      3  C2  UNL d   1       4.084   0.324  -2.955  0.00  0.00    -0.001 A 
ATOM      4  C3  UNL d   1       3.108  -0.417  -2.287  0.00  0.00     0.003 A 
ATOM      5  C4  UNL d   1       2.989  -0.330  -0.901  0.00  0.00    -0.005 A 
ATOM      6  C5  UNL d   1       3.847   0.500  -0.182  0.00  0.00     0.003 A 
ATOM      7  C6  UNL d   1       4.824   1.241  -0.848  0.00  0.00    -0.001 A 
ENDROOT
TORSDOF 0
ENDMDL
