MODEL 1
REMARK minimizedAffinity -4.71841145
REMARK minimizedRMSD -1
REMARK  0 active torsions:
REMARK  status: ('A' for Active; 'I' for Inactive)
ROOT
ATOM      1  O1  BZF d   1       0.509  -0.152   0.983  0.00  0.00    -0.204 OA
ATOM      2  C2  BZF d   1       0.563   0.650  -0.141  0.00  0.00     0.174 A 
ATOM      3  C3  BZF d   1      -0.175   0.124  -1.140  0.00  0.00    -0.012 A 
ATOM      4  C3A BZF d   1      -0.799  -1.035  -0.577  0.00  0.00    -0.107 A 
ATOM      5  C4  BZF d   1      -1.664  -1.969  -1.071  0.00  0.00     0.055 A 
ATOM      6  C5  BZF d   1      -2.025  -3.016  -0.284  0.00  0.00    -0.016 A 
ATOM      7  C6  BZF d   1      -1.537  -3.163   0.998  0.00  0.00     0.022 A 
ATOM      8  C7  BZF d   1      -0.681  -2.259   1.534  0.00  0.00     0.029 A 
ATOM      9  C7A BZF d   1      -0.340  -1.182   0.752  0.00  0.00     0.058 A 
ENDROOT
TORSDOF 0
ENDMDL
