MODEL 1
REMARK minimizedAffinity -5.29920101
REMARK minimizedRMSD -1
REMARK  0 active torsions:
REMARK  status: ('A' for Active; 'I' for Inactive)
ROOT
ATOM      1  O1  BZF d   1      -1.446   1.853   1.054  0.00  0.00    -0.204 OA
ATOM      2  C2  BZF d   1      -0.505   2.241   0.121  0.00  0.00     0.174 A 
ATOM      3  C3  BZF d   1       0.254   1.193  -0.259  0.00  0.00    -0.012 A 
ATOM      4  C3A BZF d   1      -0.306   0.061   0.414  0.00  0.00    -0.107 A 
ATOM      5  C4  BZF d   1       0.002  -1.270   0.428  0.00  0.00     0.055 A 
ATOM      6  C5  BZF d   1      -0.694  -2.100   1.248  0.00  0.00    -0.016 A 
ATOM      7  C6  BZF d   1      -1.698  -1.634   2.071  0.00  0.00     0.022 A 
ATOM      8  C7  BZF d   1      -2.042  -0.323   2.089  0.00  0.00     0.029 A 
ATOM      9  C7A BZF d   1      -1.363   0.513   1.236  0.00  0.00     0.058 A 
ENDROOT
TORSDOF 0
ENDMDL
