MODEL 1
REMARK minimizedAffinity -1.33769441
REMARK minimizedRMSD -1
REMARK  0 active torsions:
REMARK  status: ('A' for Active; 'I' for Inactive)
ROOT
ATOM      1  O1  BZF d   1      -0.844   1.023   1.275  0.00  0.00    -0.204 OA
ATOM      2  C2  BZF d   1      -0.022   1.655   0.363  0.00  0.00     0.174 A 
ATOM      3  C3  BZF d   1       0.663   0.752  -0.369  0.00  0.00    -0.012 A 
ATOM      4  C3A BZF d   1       0.174  -0.524   0.054  0.00  0.00    -0.107 A 
ATOM      5  C4  BZF d   1       0.457  -1.808  -0.317  0.00  0.00     0.055 A 
ATOM      6  C5  BZF d   1      -0.143  -2.833   0.342  0.00  0.00    -0.016 A 
ATOM      7  C6  BZF d   1      -1.026  -2.612   1.379  0.00  0.00     0.022 A 
ATOM      8  C7  BZF d   1      -1.342  -1.356   1.779  0.00  0.00     0.029 A 
ATOM      9  C7A BZF d   1      -0.763  -0.317   1.093  0.00  0.00     0.058 A 
ENDROOT
TORSDOF 0
ENDMDL
