MODEL 1
REMARK minimizedAffinity -0.937485933
REMARK minimizedRMSD -1
REMARK  0 active torsions:
REMARK  status: ('A' for Active; 'I' for Inactive)
ROOT
ATOM      1  O1  BZF d   1      -0.747   1.197   0.796  0.00  0.00    -0.204 OA
ATOM      2  C2  BZF d   1       0.089   1.531  -0.253  0.00  0.00     0.174 A 
ATOM      3  C3  BZF d   1       0.769   0.449  -0.686  0.00  0.00    -0.012 A 
ATOM      4  C3A BZF d   1       0.262  -0.646   0.083  0.00  0.00    -0.107 A 
ATOM      5  C4  BZF d   1       0.532  -1.984   0.102  0.00  0.00     0.055 A 
ATOM      6  C5  BZF d   1      -0.084  -2.770   1.024  0.00  0.00    -0.016 A 
ATOM      7  C6  BZF d   1      -0.972  -2.250   1.943  0.00  0.00     0.022 A 
ATOM      8  C7  BZF d   1      -1.276  -0.930   1.960  0.00  0.00     0.029 A 
ATOM      9  C7A BZF d   1      -0.679  -0.139   1.009  0.00  0.00     0.058 A 
ENDROOT
TORSDOF 0
ENDMDL
