MODEL 1
REMARK minimizedAffinity -5.5142169
REMARK minimizedRMSD -1
REMARK  0 active torsions:
REMARK  status: ('A' for Active; 'I' for Inactive)
ROOT
ATOM      1  O1  BZF d   1      -0.726  -2.533   0.741  0.00  0.00    -0.204 OA
ATOM      2  C2  BZF d   1      -2.045  -2.238   1.028  0.00  0.00     0.174 A 
ATOM      3  C3  BZF d   1      -2.302  -0.933   0.806  0.00  0.00    -0.012 A 
ATOM      4  C3A BZF d   1      -1.091  -0.397   0.264  0.00  0.00    -0.107 A 
ATOM      5  C4  BZF d   1      -0.726   0.845  -0.171  0.00  0.00     0.055 A 
ATOM      6  C5  BZF d   1       0.556   1.053  -0.573  0.00  0.00    -0.016 A 
ATOM      7  C6  BZF d   1       1.498   0.046  -0.548  0.00  0.00     0.022 A 
ATOM      8  C7  BZF d   1       1.181  -1.204  -0.128  0.00  0.00     0.029 A 
ATOM      9  C7A BZF d   1      -0.121  -1.426   0.247  0.00  0.00     0.058 A 
ENDROOT
TORSDOF 0
ENDMDL
