MODEL 1
REMARK minimizedAffinity -2.02534676
REMARK minimizedRMSD -1
REMARK  0 active torsions:
REMARK  status: ('A' for Active; 'I' for Inactive)
ROOT
ATOM      1  O1  BZF d   1      -1.125  -0.109  -1.410  0.00  0.00    -0.204 OA
ATOM      2  C2  BZF d   1      -0.143   0.857  -1.313  0.00  0.00     0.174 A 
ATOM      3  C3  BZF d   1       0.691   0.591  -0.287  0.00  0.00    -0.012 A 
ATOM      4  C3A BZF d   1       0.254  -0.667   0.236  0.00  0.00    -0.107 A 
ATOM      5  C4  BZF d   1       0.694  -1.465   1.253  0.00  0.00     0.055 A 
ATOM      6  C5  BZF d   1       0.001  -2.595   1.554  0.00  0.00    -0.016 A 
ATOM      7  C6  BZF d   1      -1.138  -2.954   0.863  0.00  0.00     0.022 A 
ATOM      8  C7  BZF d   1      -1.610  -2.197  -0.157  0.00  0.00     0.029 A 
ATOM      9  C7A BZF d   1      -0.893  -1.072  -0.485  0.00  0.00     0.058 A 
ENDROOT
TORSDOF 0
ENDMDL
