MODEL 1
REMARK minimizedAffinity -5.06336546
REMARK minimizedRMSD -1
REMARK  0 active torsions:
REMARK  status: ('A' for Active; 'I' for Inactive)
ROOT
ATOM      1  O1  BZF d   1      -2.081  -1.249   0.812  0.00  0.00    -0.204 OA
ATOM      2  C2  BZF d   1      -1.601  -2.540   0.914  0.00  0.00     0.174 A 
ATOM      3  C3  BZF d   1      -0.264  -2.569   0.735  0.00  0.00    -0.012 A 
ATOM      4  C3A BZF d   1       0.127  -1.199   0.598  0.00  0.00    -0.107 A 
ATOM      5  C4  BZF d   1       1.330  -0.580   0.411  0.00  0.00     0.055 A 
ATOM      6  C5  BZF d   1       1.360   0.768   0.243  0.00  0.00    -0.016 A 
ATOM      7  C6  BZF d   1       0.207   1.526   0.251  0.00  0.00     0.022 A 
ATOM      8  C7  BZF d   1      -1.009   0.958   0.437  0.00  0.00     0.029 A 
ATOM      9  C7A BZF d   1      -1.039  -0.400   0.640  0.00  0.00     0.058 A 
ENDROOT
TORSDOF 0
ENDMDL
