MODEL 1
REMARK minimizedAffinity -0.129050881
REMARK minimizedRMSD -1
REMARK  0 active torsions:
REMARK  status: ('A' for Active; 'I' for Inactive)
ROOT
ATOM      1  O1  BZF d   1      -0.466   0.559  -0.535  0.00  0.00    -0.204 OA
ATOM      2  C2  BZF d   1       0.881   0.279  -0.654  0.00  0.00     0.174 A 
ATOM      3  C3  BZF d   1       1.219  -0.779   0.110  0.00  0.00    -0.012 A 
ATOM      4  C3A BZF d   1      -0.011  -1.243   0.676  0.00  0.00    -0.107 A 
ATOM      5  C4  BZF d   1      -0.330  -2.275   1.511  0.00  0.00     0.055 A 
ATOM      6  C5  BZF d   1      -1.615  -2.410   1.933  0.00  0.00    -0.016 A 
ATOM      7  C6  BZF d   1      -2.603  -1.530   1.544  0.00  0.00     0.022 A 
ATOM      8  C7  BZF d   1      -2.336  -0.494   0.712  0.00  0.00     0.029 A 
ATOM      9  C7A BZF d   1      -1.045  -0.374   0.258  0.00  0.00     0.058 A 
ENDROOT
TORSDOF 0
ENDMDL
