MODEL 1
REMARK minimizedAffinity 0.169578359
REMARK minimizedRMSD -1
REMARK  0 active torsions:
REMARK  status: ('A' for Active; 'I' for Inactive)
ROOT
ATOM      1  O1  BZF d   1      -1.500  -0.993   1.346  0.00  0.00    -0.204 OA
ATOM      2  C2  BZF d   1      -1.156  -2.213   1.895  0.00  0.00     0.174 A 
ATOM      3  C3  BZF d   1       0.087  -2.574   1.519  0.00  0.00    -0.012 A 
ATOM      4  C3A BZF d   1       0.585  -1.470   0.757  0.00  0.00    -0.107 A 
ATOM      5  C4  BZF d   1       1.771  -1.224   0.127  0.00  0.00     0.055 A 
ATOM      6  C5  BZF d   1       1.912  -0.079  -0.592  0.00  0.00    -0.016 A 
ATOM      7  C6  BZF d   1       0.887   0.838  -0.705  0.00  0.00     0.022 A 
ATOM      8  C7  BZF d   1      -0.306   0.639  -0.093  0.00  0.00     0.029 A 
ATOM      9  C7A BZF d   1      -0.440  -0.501   0.661  0.00  0.00     0.058 A 
ENDROOT
TORSDOF 0
ENDMDL
