MODEL 1
REMARK minimizedAffinity 0.73675555
REMARK minimizedRMSD -1
REMARK  0 active torsions:
REMARK  status: ('A' for Active; 'I' for Inactive)
ROOT
ATOM      1  O1  BZF d   1       4.275   3.094  -4.605  0.00  0.00    -0.204 OA
ATOM      2  C2  BZF d   1       5.108   2.814  -3.540  0.00  0.00     0.174 A 
ATOM      3  C3  BZF d   1       4.403   2.332  -2.495  0.00  0.00    -0.012 A 
ATOM      4  C3A BZF d   1       3.057   2.223  -2.968  0.00  0.00    -0.107 A 
ATOM      5  C4  BZF d   1       1.894   1.792  -2.397  0.00  0.00     0.055 A 
ATOM      6  C5  BZF d   1       0.738   1.883  -3.105  0.00  0.00    -0.016 A 
ATOM      7  C6  BZF d   1       0.707   2.404  -4.382  0.00  0.00     0.022 A 
ATOM      8  C7  BZF d   1       1.836   2.841  -4.991  0.00  0.00     0.029 A 
ATOM      9  C7A BZF d   1       3.011   2.719  -4.291  0.00  0.00     0.058 A 
ENDROOT
TORSDOF 0
ENDMDL
