MODEL 1
REMARK minimizedAffinity -5.43307209
REMARK minimizedRMSD -1
REMARK  0 active torsions:
REMARK  status: ('A' for Active; 'I' for Inactive)
ROOT
ATOM      1  O1  BZF d   1      -1.090   1.667   0.424  0.00  0.00    -0.204 OA
ATOM      2  C2  BZF d   1       0.118   1.949  -0.184  0.00  0.00     0.174 A 
ATOM      3  C3  BZF d   1       0.820   0.818  -0.400  0.00  0.00    -0.012 A 
ATOM      4  C3A BZF d   1      -0.039  -0.245   0.022  0.00  0.00    -0.107 A 
ATOM      5  C4  BZF d   1       0.089  -1.605   0.041  0.00  0.00     0.055 A 
ATOM      6  C5  BZF d   1      -0.905  -2.354   0.584  0.00  0.00    -0.016 A 
ATOM      7  C6  BZF d   1      -2.038  -1.779   1.121  0.00  0.00     0.022 A 
ATOM      8  C7  BZF d   1      -2.213  -0.435   1.120  0.00  0.00     0.029 A 
ATOM      9  C7A BZF d   1      -1.224   0.324   0.542  0.00  0.00     0.058 A 
ENDROOT
TORSDOF 0
ENDMDL
