MODEL 1
REMARK minimizedAffinity -4.8042655
REMARK minimizedRMSD -1
REMARK  0 active torsions:
REMARK  status: ('A' for Active; 'I' for Inactive)
ROOT
ATOM      1  O1  BZF d   1      -2.513  -1.385   0.968  0.00  0.00    -0.204 OA
ATOM      2  C2  BZF d   1      -2.150  -2.711   1.110  0.00  0.00     0.174 A 
ATOM      3  C3  BZF d   1      -0.849  -2.886   0.802  0.00  0.00    -0.012 A 
ATOM      4  C3A BZF d   1      -0.345  -1.574   0.535  0.00  0.00    -0.107 A 
ATOM      5  C4  BZF d   1       0.885  -1.092   0.190  0.00  0.00     0.055 A 
ATOM      6  C5  BZF d   1       1.027   0.234  -0.070  0.00  0.00    -0.016 A 
ATOM      7  C6  BZF d   1      -0.041   1.105   0.000  0.00  0.00     0.022 A 
ATOM      8  C7  BZF d   1      -1.279   0.676   0.343  0.00  0.00     0.029 A 
ATOM      9  C7A BZF d   1      -1.419  -0.659   0.639  0.00  0.00     0.058 A 
ENDROOT
TORSDOF 0
ENDMDL
