MODEL 1
REMARK minimizedAffinity -5.56437349
REMARK minimizedRMSD -1
REMARK  0 active torsions:
REMARK  status: ('A' for Active; 'I' for Inactive)
ROOT
ATOM      1  O1  BZF d   1      -0.750   1.094   1.201  0.00  0.00    -0.204 OA
ATOM      2  C2  BZF d   1       0.440   0.907   0.526  0.00  0.00     0.174 A 
ATOM      3  C3  BZF d   1       0.642  -0.400   0.263  0.00  0.00    -0.012 A 
ATOM      4  C3A BZF d   1      -0.538  -1.063   0.727  0.00  0.00    -0.107 A 
ATOM      5  C4  BZF d   1      -0.942  -2.368   0.730  0.00  0.00     0.055 A 
ATOM      6  C5  BZF d   1      -2.120  -2.693   1.326  0.00  0.00    -0.016 A 
ATOM      7  C6  BZF d   1      -2.914  -1.741   1.931  0.00  0.00     0.022 A 
ATOM      8  C7  BZF d   1      -2.558  -0.434   1.948  0.00  0.00     0.029 A 
ATOM      9  C7A BZF d   1      -1.385  -0.097   1.319  0.00  0.00     0.058 A 
ENDROOT
TORSDOF 0
ENDMDL
