MODEL 1
REMARK minimizedAffinity -0.158408999
REMARK minimizedRMSD -1
REMARK  0 active torsions:
REMARK  status: ('A' for Active; 'I' for Inactive)
ROOT
ATOM      1  O1  BZF d   1      -1.901  -1.356   1.139  0.00  0.00    -0.204 OA
ATOM      2  C2  BZF d   1      -1.308  -2.594   1.301  0.00  0.00     0.174 A 
ATOM      3  C3  BZF d   1      -0.039  -2.579   0.844  0.00  0.00    -0.012 A 
ATOM      4  C3A BZF d   1       0.204  -1.225   0.453  0.00  0.00    -0.107 A 
ATOM      5  C4  BZF d   1       1.290  -0.578  -0.065  0.00  0.00     0.055 A 
ATOM      6  C5  BZF d   1       1.178   0.733  -0.406  0.00  0.00    -0.016 A 
ATOM      7  C6  BZF d   1      -0.005   1.425  -0.248  0.00  0.00     0.022 A 
ATOM      8  C7  BZF d   1      -1.108   0.827   0.266  0.00  0.00     0.029 A 
ATOM      9  C7A BZF d   1      -0.988  -0.488   0.642  0.00  0.00     0.058 A 
ENDROOT
TORSDOF 0
ENDMDL
