MODEL 1
REMARK minimizedAffinity -1.00326633
REMARK minimizedRMSD -1
REMARK  0 active torsions:
REMARK  status: ('A' for Active; 'I' for Inactive)
ROOT
ATOM      1  O1  BZF d   1      -3.124   0.094   0.746  0.00  0.00    -0.204 OA
ATOM      2  C2  BZF d   1      -3.167   1.387   1.231  0.00  0.00     0.174 A 
ATOM      3  C3  BZF d   1      -1.925   1.902   1.331  0.00  0.00    -0.012 A 
ATOM      4  C3A BZF d   1      -1.057   0.899   0.792  0.00  0.00    -0.107 A 
ATOM      5  C4  BZF d   1       0.293   0.829   0.603  0.00  0.00     0.055 A 
ATOM      6  C5  BZF d   1       0.834  -0.320   0.121  0.00  0.00    -0.016 A 
ATOM      7  C6  BZF d   1       0.055  -1.419  -0.178  0.00  0.00     0.022 A 
ATOM      8  C7  BZF d   1      -1.290  -1.396  -0.011  0.00  0.00     0.029 A 
ATOM      9  C7A BZF d   1      -1.843  -0.224   0.445  0.00  0.00     0.058 A 
ENDROOT
TORSDOF 0
ENDMDL
