MODEL 1
REMARK minimizedAffinity -5.88380432
REMARK minimizedRMSD -1
REMARK  0 active torsions:
REMARK  status: ('A' for Active; 'I' for Inactive)
ROOT
ATOM      1  O1  BZF d   1      -0.093   0.855   0.208  0.00  0.00    -0.204 OA
ATOM      2  C2  BZF d   1       1.055   0.279  -0.299  0.00  0.00     0.174 A 
ATOM      3  C3  BZF d   1       1.077  -1.046  -0.050  0.00  0.00    -0.012 A 
ATOM      4  C3A BZF d   1      -0.178  -1.331   0.577  0.00  0.00    -0.107 A 
ATOM      5  C4  BZF d   1      -0.753  -2.477   1.047  0.00  0.00     0.055 A 
ATOM      6  C5  BZF d   1      -1.959  -2.403   1.670  0.00  0.00    -0.016 A 
ATOM      7  C6  BZF d   1      -2.613  -1.201   1.844  0.00  0.00     0.022 A 
ATOM      8  C7  BZF d   1      -2.084  -0.039   1.391  0.00  0.00     0.029 A 
ATOM      9  C7A BZF d   1      -0.881  -0.115   0.732  0.00  0.00     0.058 A 
ENDROOT
TORSDOF 0
ENDMDL
