MODEL 1
REMARK minimizedAffinity -1.59657931
REMARK minimizedRMSD -1
REMARK  0 active torsions:
REMARK  status: ('A' for Active; 'I' for Inactive)
ROOT
ATOM      1  O1  BZF d   1      -0.680  -1.494   1.729  0.00  0.00    -0.204 OA
ATOM      2  C2  BZF d   1       0.234  -2.279   1.052  0.00  0.00     0.174 A 
ATOM      3  C3  BZF d   1       0.809  -1.586   0.048  0.00  0.00    -0.012 A 
ATOM      4  C3A BZF d   1       0.285  -0.259   0.159  0.00  0.00    -0.107 A 
ATOM      5  C4  BZF d   1       0.490   0.893  -0.546  0.00  0.00     0.055 A 
ATOM      6  C5  BZF d   1      -0.233   1.999  -0.228  0.00  0.00    -0.016 A 
ATOM      7  C6  BZF d   1      -1.171   1.987   0.784  0.00  0.00     0.022 A 
ATOM      8  C7  BZF d   1      -1.405   0.870   1.514  0.00  0.00     0.029 A 
ATOM      9  C7A BZF d   1      -0.653  -0.240   1.217  0.00  0.00     0.058 A 
ENDROOT
TORSDOF 0
ENDMDL
