MODEL 1
REMARK minimizedAffinity -3.74202704
REMARK minimizedRMSD -1
REMARK  0 active torsions:
REMARK  status: ('A' for Active; 'I' for Inactive)
ROOT
ATOM      1  O1  BZF d   1       1.578   0.207  -0.684  0.00  0.00    -0.204 OA
ATOM      2  C2  BZF d   1       0.872   1.268  -1.217  0.00  0.00     0.174 A 
ATOM      3  C3  BZF d   1      -0.428   1.204  -0.864  0.00  0.00    -0.012 A 
ATOM      4  C3A BZF d   1      -0.523   0.079   0.016  0.00  0.00    -0.107 A 
ATOM      5  C4  BZF d   1      -1.556  -0.487   0.708  0.00  0.00     0.055 A 
ATOM      6  C5  BZF d   1      -1.331  -1.622   1.419  0.00  0.00    -0.016 A 
ATOM      7  C6  BZF d   1      -0.088  -2.221   1.456  0.00  0.00     0.022 A 
ATOM      8  C7  BZF d   1       0.968  -1.694   0.791  0.00  0.00     0.029 A 
ATOM      9  C7A BZF d   1       0.751  -0.528   0.098  0.00  0.00     0.058 A 
ENDROOT
TORSDOF 0
ENDMDL
