MODEL 1
REMARK minimizedAffinity -4.72308016
REMARK minimizedRMSD -1
REMARK  0 active torsions:
REMARK  status: ('A' for Active; 'I' for Inactive)
ROOT
ATOM      1  O1  BZF d   1      -5.313  -4.225   2.786  0.00  0.00    -0.204 OA
ATOM      2  C2  BZF d   1      -5.766  -4.910   3.897  0.00  0.00     0.174 A 
ATOM      3  C3  BZF d   1      -5.173  -4.450   5.018  0.00  0.00    -0.012 A 
ATOM      4  C3A BZF d   1      -4.363  -3.350   4.590  0.00  0.00    -0.107 A 
ATOM      5  C4  BZF d   1      -3.545  -2.476   5.246  0.00  0.00     0.055 A 
ATOM      6  C5  BZF d   1      -2.841  -1.563   4.527  0.00  0.00    -0.016 A 
ATOM      7  C6  BZF d   1      -2.927  -1.499   3.152  0.00  0.00     0.022 A 
ATOM      8  C7  BZF d   1      -3.730  -2.342   2.457  0.00  0.00     0.029 A 
ATOM      9  C7A BZF d   1      -4.468  -3.244   3.184  0.00  0.00     0.058 A 
ENDROOT
TORSDOF 0
ENDMDL
