MODEL 1
REMARK minimizedAffinity -5.72136307
REMARK minimizedRMSD -1
REMARK  1 active torsions:
REMARK  status: ('A' for Active; 'I' for Inactive)
REMARK    1  A    between atoms: C1_2  and  C2_3 
ROOT
ATOM      1  C2  UNL d   1      -3.569   1.565   2.915  0.00  0.00    -0.081 A 
ATOM      2  C3  UNL d   1      -2.234   1.387   3.300  0.00  0.00     0.006 A 
ATOM      3  C4  UNL d   1      -1.668   2.197   4.288  0.00  0.00     0.002 A 
ATOM      4  C5  UNL d   1      -2.428   3.192   4.911  0.00  0.00    -0.080 A 
ATOM      5  C6  UNL d   1      -1.842   4.048   5.994  0.00  0.00     0.076 C 
ATOM      6  C7  UNL d   1      -3.756   3.382   4.514  0.00  0.00     0.002 A 
ATOM      7  C8  UNL d   1      -4.323   2.573   3.526  0.00  0.00     0.006 A 
ENDROOT
BRANCH   1   8
ATOM      8  C1  UNL d   1      -4.201   0.652   1.896  0.00  0.00     0.054 C 
ATOM      9  C   UNL d   1      -3.156  -0.212   1.204  0.00  0.00     0.018 C 
ENDBRANCH   1   8
TORSDOF 1
ENDMDL
