MODEL 1
REMARK minimizedAffinity -2.69285274
REMARK minimizedRMSD -1
REMARK  1 active torsions:
REMARK  status: ('A' for Active; 'I' for Inactive)
REMARK    1  A    between atoms: C1_2  and  C2_3 
ROOT
ATOM      1  C2  UNL d   1      -0.928  -0.664   0.112  0.00  0.00    -0.081 A 
ATOM      2  C3  UNL d   1      -2.233  -1.159   0.220  0.00  0.00     0.006 A 
ATOM      3  C4  UNL d   1      -3.174  -0.507   1.020  0.00  0.00     0.002 A 
ATOM      4  C5  UNL d   1      -2.829   0.656   1.718  0.00  0.00    -0.080 A 
ATOM      5  C6  UNL d   1      -3.838   1.383   2.555  0.00  0.00     0.076 C 
ATOM      6  C7  UNL d   1      -1.520   1.141   1.623  0.00  0.00     0.002 A 
ATOM      7  C8  UNL d   1      -0.578   0.488   0.824  0.00  0.00     0.006 A 
ENDROOT
BRANCH   1   8
ATOM      8  C1  UNL d   1       0.071  -1.329  -0.800  0.00  0.00     0.054 C 
ATOM      9  C   UNL d   1       0.624  -0.348  -1.824  0.00  0.00     0.018 C 
ENDBRANCH   1   8
TORSDOF 1
ENDMDL
