MODEL 1
REMARK minimizedAffinity -4.65856552
REMARK minimizedRMSD -1
REMARK  1 active torsions:
REMARK  status: ('A' for Active; 'I' for Inactive)
REMARK    1  A    between atoms: C1_2  and  C2_3 
ROOT
ATOM      1  C2  UNL d   1      -0.572  -0.210   0.882  0.00  0.00    -0.081 A 
ATOM      2  C3  UNL d   1       0.032   1.000   0.519  0.00  0.00     0.006 A 
ATOM      3  C4  UNL d   1       0.758   1.101  -0.670  0.00  0.00     0.002 A 
ATOM      4  C5  UNL d   1       0.884  -0.003  -1.520  0.00  0.00    -0.080 A 
ATOM      5  C6  UNL d   1       1.635   0.100  -2.815  0.00  0.00     0.076 C 
ATOM      6  C7  UNL d   1       0.295  -1.217  -1.150  0.00  0.00     0.002 A 
ATOM      7  C8  UNL d   1      -0.430  -1.318   0.040  0.00  0.00     0.006 A 
ENDROOT
BRANCH   1   8
ATOM      8  C1  UNL d   1      -1.409  -0.304   2.132  0.00  0.00     0.054 C 
ATOM      9  C   UNL d   1      -2.852   0.102   1.864  0.00  0.00     0.018 C 
ENDBRANCH   1   8
TORSDOF 1
ENDMDL
