MODEL 1
REMARK minimizedAffinity -0.826877296
REMARK minimizedRMSD -1
REMARK  1 active torsions:
REMARK  status: ('A' for Active; 'I' for Inactive)
REMARK    1  A    between atoms: C1_2  and  C2_3 
ROOT
ATOM      1  C2  UNL d   1       2.364  -1.018  -1.696  0.00  0.00    -0.081 A 
ATOM      2  C3  UNL d   1       1.220  -1.299  -0.939  0.00  0.00     0.006 A 
ATOM      3  C4  UNL d   1       0.450  -0.261  -0.408  0.00  0.00     0.002 A 
ATOM      4  C5  UNL d   1       0.806   1.073  -0.632  0.00  0.00    -0.080 A 
ATOM      5  C6  UNL d   1      -0.028   2.197  -0.093  0.00  0.00     0.076 C 
ATOM      6  C7  UNL d   1       1.959   1.353  -1.373  0.00  0.00     0.002 A 
ATOM      7  C8  UNL d   1       2.730   0.316  -1.904  0.00  0.00     0.006 A 
ENDROOT
BRANCH   1   8
ATOM      8  C1  UNL d   1       3.160  -2.134  -2.324  0.00  0.00     0.054 C 
ATOM      9  C   UNL d   1       2.977  -3.440  -1.564  0.00  0.00     0.018 C 
ENDBRANCH   1   8
TORSDOF 1
ENDMDL
