MODEL 1
REMARK minimizedAffinity -2.97419
REMARK minimizedRMSD -1
REMARK  1 active torsions:
REMARK  status: ('A' for Active; 'I' for Inactive)
REMARK    1  A    between atoms: C1_2  and  C2_3 
ROOT
ATOM      1  C2  UNL d   1      -0.831  -0.120   1.357  0.00  0.00    -0.081 A 
ATOM      2  C3  UNL d   1       0.245   0.679   0.951  0.00  0.00     0.006 A 
ATOM      3  C4  UNL d   1       0.821   0.503  -0.309  0.00  0.00     0.002 A 
ATOM      4  C5  UNL d   1       0.328  -0.468  -1.187  0.00  0.00    -0.080 A 
ATOM      5  C6  UNL d   1       0.918  -0.647  -2.554  0.00  0.00     0.076 C 
ATOM      6  C7  UNL d   1      -0.736  -1.278  -0.774  0.00  0.00     0.002 A 
ATOM      7  C8  UNL d   1      -1.312  -1.103   0.486  0.00  0.00     0.006 A 
ENDROOT
BRANCH   1   8
ATOM      8  C1  UNL d   1      -1.497   0.111   2.689  0.00  0.00     0.054 C 
ATOM      9  C   UNL d   1      -3.004   0.257   2.537  0.00  0.00     0.018 C 
ENDBRANCH   1   8
TORSDOF 1
ENDMDL
