MODEL 1
REMARK minimizedAffinity -2.96070361
REMARK minimizedRMSD -1
REMARK  1 active torsions:
REMARK  status: ('A' for Active; 'I' for Inactive)
REMARK    1  A    between atoms: C1_2  and  C2_3 
ROOT
ATOM      1  C2  UNL d   1      -4.671   3.889  -5.783  0.00  0.00    -0.081 A 
ATOM      2  C3  UNL d   1      -5.883   3.221  -6.000  0.00  0.00     0.006 A 
ATOM      3  C4  UNL d   1      -5.942   1.826  -5.949  0.00  0.00     0.002 A 
ATOM      4  C5  UNL d   1      -4.793   1.077  -5.673  0.00  0.00    -0.080 A 
ATOM      5  C6  UNL d   1      -4.849  -0.419  -5.586  0.00  0.00     0.076 C 
ATOM      6  C7  UNL d   1      -3.579   1.743  -5.474  0.00  0.00     0.002 A 
ATOM      7  C8  UNL d   1      -3.519   3.137  -5.526  0.00  0.00     0.006 A 
ENDROOT
BRANCH   1   8
ATOM      8  C1  UNL d   1      -4.617   5.395  -5.773  0.00  0.00     0.054 C 
ATOM      9  C   UNL d   1      -5.999   6.000  -5.976  0.00  0.00     0.018 C 
ENDBRANCH   1   8
TORSDOF 1
ENDMDL
