MODEL 1
REMARK minimizedAffinity -2.70686626
REMARK minimizedRMSD -1
REMARK  1 active torsions:
REMARK  status: ('A' for Active; 'I' for Inactive)
REMARK    1  A    between atoms: C1_2  and  C2_3 
ROOT
ATOM      1  C2  UNL d   1       1.310   0.005  -1.204  0.00  0.00    -0.081 A 
ATOM      2  C3  UNL d   1       0.495  -1.056  -0.791  0.00  0.00     0.006 A 
ATOM      3  C4  UNL d   1      -0.477  -0.860   0.193  0.00  0.00     0.002 A 
ATOM      4  C5  UNL d   1      -0.656   0.401   0.774  0.00  0.00    -0.080 A 
ATOM      5  C6  UNL d   1      -1.716   0.631   1.809  0.00  0.00     0.076 C 
ATOM      6  C7  UNL d   1       0.170   1.456   0.373  0.00  0.00     0.002 A 
ATOM      7  C8  UNL d   1       1.143   1.261  -0.610  0.00  0.00     0.006 A 
ENDROOT
BRANCH   1   8
ATOM      8  C1  UNL d   1       2.315  -0.187  -2.311  0.00  0.00     0.054 C 
ATOM      9  C   UNL d   1       1.743  -1.036  -3.437  0.00  0.00     0.018 C 
ENDBRANCH   1   8
TORSDOF 1
ENDMDL
