MODEL 1
REMARK minimizedAffinity 0.34714669
REMARK minimizedRMSD -1
REMARK  1 active torsions:
REMARK  status: ('A' for Active; 'I' for Inactive)
REMARK    1  A    between atoms: C1_2  and  C2_3 
ROOT
ATOM      1  C2  UNL d   1      -0.915   0.071   1.143  0.00  0.00    -0.081 A 
ATOM      2  C3  UNL d   1      -0.202   0.899   0.267  0.00  0.00     0.006 A 
ATOM      3  C4  UNL d   1       0.375   0.375  -0.891  0.00  0.00     0.002 A 
ATOM      4  C5  UNL d   1       0.243  -0.984  -1.198  0.00  0.00    -0.080 A 
ATOM      5  C6  UNL d   1       0.832  -1.554  -2.454  0.00  0.00     0.076 C 
ATOM      6  C7  UNL d   1      -0.454  -1.815  -0.314  0.00  0.00     0.002 A 
ATOM      7  C8  UNL d   1      -1.031  -1.292   0.845  0.00  0.00     0.006 A 
ENDROOT
BRANCH   1   8
ATOM      8  C1  UNL d   1      -1.593   0.645   2.360  0.00  0.00     0.054 C 
ATOM      9  C   UNL d   1      -3.098   0.748   2.158  0.00  0.00     0.018 C 
ENDBRANCH   1   8
TORSDOF 1
ENDMDL
