MODEL 1
REMARK minimizedAffinity -4.38261175
REMARK minimizedRMSD -1
REMARK  1 active torsions:
REMARK  status: ('A' for Active; 'I' for Inactive)
REMARK    1  A    between atoms: C1_2  and  C2_3 
ROOT
ATOM      1  C2  UNL d   1      -0.271   0.102   0.510  0.00  0.00    -0.081 A 
ATOM      2  C3  UNL d   1       0.433   1.205   0.010  0.00  0.00     0.006 A 
ATOM      3  C4  UNL d   1       1.170   1.098  -1.171  0.00  0.00     0.002 A 
ATOM      4  C5  UNL d   1       1.211  -0.110  -1.876  0.00  0.00    -0.080 A 
ATOM      5  C6  UNL d   1       1.974  -0.230  -3.161  0.00  0.00     0.076 C 
ATOM      6  C7  UNL d   1       0.522  -1.217  -1.367  0.00  0.00     0.002 A 
ATOM      7  C8  UNL d   1      -0.215  -1.110  -0.186  0.00  0.00     0.006 A 
ENDROOT
BRANCH   1   8
ATOM      8  C1  UNL d   1      -1.120   0.233   1.749  0.00  0.00     0.054 C 
ATOM      9  C   UNL d   1      -2.603   0.223   1.407  0.00  0.00     0.018 C 
ENDBRANCH   1   8
TORSDOF 1
ENDMDL
