MODEL 1
REMARK minimizedAffinity -4.50533056
REMARK minimizedRMSD -1
REMARK  1 active torsions:
REMARK  status: ('A' for Active; 'I' for Inactive)
REMARK    1  A    between atoms: C1_2  and  C2_3 
ROOT
ATOM      1  C2  UNL d   1      -0.730   0.261   0.440  0.00  0.00    -0.081 A 
ATOM      2  C3  UNL d   1       0.142   1.317   0.146  0.00  0.00     0.006 A 
ATOM      3  C4  UNL d   1       0.994   1.244  -0.958  0.00  0.00     0.002 A 
ATOM      4  C5  UNL d   1       0.984   0.119  -1.790  0.00  0.00    -0.080 A 
ATOM      5  C6  UNL d   1       1.872   0.041  -2.996  0.00  0.00     0.076 C 
ATOM      6  C7  UNL d   1       0.125  -0.943  -1.486  0.00  0.00     0.002 A 
ATOM      7  C8  UNL d   1      -0.727  -0.871  -0.382  0.00  0.00     0.006 A 
ENDROOT
BRANCH   1   8
ATOM      8  C1  UNL d   1      -1.697   0.365   1.592  0.00  0.00     0.054 C 
ATOM      9  C   UNL d   1      -2.976  -0.411   1.313  0.00  0.00     0.018 C 
ENDBRANCH   1   8
TORSDOF 1
ENDMDL
