MODEL 1
REMARK minimizedAffinity -1.82106197
REMARK minimizedRMSD -1
REMARK  1 active torsions:
REMARK  status: ('A' for Active; 'I' for Inactive)
REMARK    1  A    between atoms: C1_2  and  C2_3 
ROOT
ATOM      1  C2  UNL d   1      -0.901   0.445   1.372  0.00  0.00    -0.081 A 
ATOM      2  C3  UNL d   1       0.003   1.478   1.094  0.00  0.00     0.006 A 
ATOM      3  C4  UNL d   1       0.921   1.354   0.049  0.00  0.00     0.002 A 
ATOM      4  C5  UNL d   1       0.946   0.199  -0.740  0.00  0.00    -0.080 A 
ATOM      5  C6  UNL d   1       1.907   0.066  -1.885  0.00  0.00     0.076 C 
ATOM      6  C7  UNL d   1       0.055  -0.840  -0.452  0.00  0.00     0.002 A 
ATOM      7  C8  UNL d   1      -0.863  -0.717   0.593  0.00  0.00     0.006 A 
ENDROOT
BRANCH   1   8
ATOM      8  C1  UNL d   1      -1.935   0.602   2.457  0.00  0.00     0.054 C 
ATOM      9  C   UNL d   1      -3.338   0.339   1.926  0.00  0.00     0.018 C 
ENDBRANCH   1   8
TORSDOF 1
ENDMDL
