MODEL 1
REMARK minimizedAffinity -4.72532845
REMARK minimizedRMSD -1
REMARK  1 active torsions:
REMARK  status: ('A' for Active; 'I' for Inactive)
REMARK    1  A    between atoms: C1_2  and  C2_3 
ROOT
ATOM      1  C2  UNL d   1      -0.345   0.192   0.778  0.00  0.00    -0.081 A 
ATOM      2  C3  UNL d   1       0.447   1.244   0.300  0.00  0.00     0.006 A 
ATOM      3  C4  UNL d   1       1.145   1.114  -0.903  0.00  0.00     0.002 A 
ATOM      4  C5  UNL d   1       1.057  -0.064  -1.651  0.00  0.00    -0.080 A 
ATOM      5  C6  UNL d   1       1.777  -0.204  -2.960  0.00  0.00     0.076 C 
ATOM      6  C7  UNL d   1       0.280  -1.121  -1.166  0.00  0.00     0.002 A 
ATOM      7  C8  UNL d   1      -0.418  -0.993   0.038  0.00  0.00     0.006 A 
ENDROOT
BRANCH   1   8
ATOM      8  C1  UNL d   1      -1.151   0.353   2.042  0.00  0.00     0.054 C 
ATOM      9  C   UNL d   1      -2.640   0.442   1.742  0.00  0.00     0.018 C 
ENDBRANCH   1   8
TORSDOF 1
ENDMDL
