MODEL 1
REMARK minimizedAffinity -2.09814548
REMARK minimizedRMSD -1
REMARK  0 active torsions:
REMARK  status: ('A' for Active; 'I' for Inactive)
ROOT
ATOM      1  C   UNL d   1      -1.401  -0.016  -0.782  0.00  0.00     0.078 C 
ATOM      2  C1  UNL d   1      -0.116   0.200  -0.040  0.00  0.00    -0.077 A 
ATOM      3  C2  UNL d   1       0.260  -0.645   1.011  0.00  0.00    -0.001 A 
ATOM      4  C3  UNL d   1       1.455  -0.425   1.699  0.00  0.00     0.003 A 
ATOM      5  C4  UNL d   1       2.281   0.639   1.345  0.00  0.00    -0.005 A 
ATOM      6  C5  UNL d   1       1.913   1.486   0.302  0.00  0.00     0.003 A 
ATOM      7  C6  UNL d   1       0.720   1.269  -0.388  0.00  0.00    -0.001 A 
ENDROOT
TORSDOF 0
ENDMDL
