MODEL 1
REMARK minimizedAffinity -0.271072358
REMARK minimizedRMSD -1
REMARK  0 active torsions:
REMARK  status: ('A' for Active; 'I' for Inactive)
ROOT
ATOM      1  C   UNL d   1      -2.468   0.157  -1.725  0.00  0.00     0.078 C 
ATOM      2  C1  UNL d   1      -1.221   0.322  -0.909  0.00  0.00    -0.077 A 
ATOM      3  C2  UNL d   1      -0.740  -0.722  -0.108  0.00  0.00    -0.001 A 
ATOM      4  C3  UNL d   1       0.417  -0.552   0.654  0.00  0.00     0.003 A 
ATOM      5  C4  UNL d   1       1.102   0.661   0.624  0.00  0.00    -0.005 A 
ATOM      6  C5  UNL d   1       0.630   1.706  -0.168  0.00  0.00     0.003 A 
ATOM      7  C6  UNL d   1      -0.527   1.538  -0.930  0.00  0.00    -0.001 A 
ENDROOT
TORSDOF 0
ENDMDL
