MODEL 1
REMARK minimizedAffinity -1.97103679
REMARK minimizedRMSD -1
REMARK  0 active torsions:
REMARK  status: ('A' for Active; 'I' for Inactive)
ROOT
ATOM      1  C   UNL d   1      -1.172  -0.273   0.277  0.00  0.00     0.078 C 
ATOM      2  C1  UNL d   1      -1.640  -0.171  -1.144  0.00  0.00    -0.077 A 
ATOM      3  C2  UNL d   1      -2.313   0.969  -1.601  0.00  0.00    -0.001 A 
ATOM      4  C3  UNL d   1      -2.751   1.046  -2.924  0.00  0.00     0.003 A 
ATOM      5  C4  UNL d   1      -2.522  -0.013  -3.800  0.00  0.00    -0.005 A 
ATOM      6  C5  UNL d   1      -1.855  -1.151  -3.354  0.00  0.00     0.003 A 
ATOM      7  C6  UNL d   1      -1.416  -1.231  -2.031  0.00  0.00    -0.001 A 
ENDROOT
TORSDOF 0
ENDMDL
