MODEL 1
REMARK minimizedAffinity -2.87009025
REMARK minimizedRMSD -1
REMARK  0 active torsions:
REMARK  status: ('A' for Active; 'I' for Inactive)
ROOT
ATOM      1  C   UNL d   1       0.075   2.353  -0.101  0.00  0.00     0.078 C 
ATOM      2  C1  UNL d   1       0.112   0.858   0.012  0.00  0.00    -0.077 A 
ATOM      3  C2  UNL d   1      -1.067   0.102  -0.023  0.00  0.00    -0.001 A 
ATOM      4  C3  UNL d   1      -1.018  -1.288   0.093  0.00  0.00     0.003 A 
ATOM      5  C4  UNL d   1       0.207  -1.934   0.247  0.00  0.00    -0.005 A 
ATOM      6  C5  UNL d   1       1.384  -1.191   0.286  0.00  0.00     0.003 A 
ATOM      7  C6  UNL d   1       1.338   0.199   0.169  0.00  0.00    -0.001 A 
ENDROOT
TORSDOF 0
ENDMDL
