MODEL 1
REMARK minimizedAffinity -2.99523878
REMARK minimizedRMSD -1
REMARK  0 active torsions:
REMARK  status: ('A' for Active; 'I' for Inactive)
ROOT
ATOM      1  C   UNL d   1      -1.715   0.048  -0.610  0.00  0.00     0.078 C 
ATOM      2  C1  UNL d   1      -0.398   0.323   0.052  0.00  0.00    -0.077 A 
ATOM      3  C2  UNL d   1       0.074   1.633   0.202  0.00  0.00    -0.001 A 
ATOM      4  C3  UNL d   1       1.307   1.873   0.812  0.00  0.00     0.003 A 
ATOM      5  C4  UNL d   1       2.078   0.809   1.274  0.00  0.00    -0.005 A 
ATOM      6  C5  UNL d   1       1.618  -0.498   1.127  0.00  0.00     0.003 A 
ATOM      7  C6  UNL d   1       0.385  -0.740   0.518  0.00  0.00    -0.001 A 
ENDROOT
TORSDOF 0
ENDMDL
