MODEL 1
REMARK minimizedAffinity -4.29563904
REMARK minimizedRMSD -1
REMARK  0 active torsions:
REMARK  status: ('A' for Active; 'I' for Inactive)
ROOT
ATOM      1  C   UNL d   1      -1.696   0.673  -0.701  0.00  0.00     0.078 C 
ATOM      2  C1  UNL d   1      -0.304   0.512  -0.169  0.00  0.00    -0.077 A 
ATOM      3  C2  UNL d   1       0.752   1.288  -0.664  0.00  0.00    -0.001 A 
ATOM      4  C3  UNL d   1       2.045   1.121  -0.166  0.00  0.00     0.003 A 
ATOM      5  C4  UNL d   1       2.295   0.178   0.829  0.00  0.00    -0.005 A 
ATOM      6  C5  UNL d   1       1.252  -0.600   1.326  0.00  0.00     0.003 A 
ATOM      7  C6  UNL d   1      -0.042  -0.434   0.830  0.00  0.00    -0.001 A 
ENDROOT
TORSDOF 0
ENDMDL
