MODEL 1
REMARK minimizedAffinity -2.66633701
REMARK minimizedRMSD -1
REMARK  0 active torsions:
REMARK  status: ('A' for Active; 'I' for Inactive)
ROOT
ATOM      1  C   UNL d   1       2.559   0.642   1.376  0.00  0.00     0.078 C 
ATOM      2  C1  UNL d   1       1.170   0.398   0.867  0.00  0.00    -0.077 A 
ATOM      3  C2  UNL d   1       0.404   1.442   0.333  0.00  0.00    -0.001 A 
ATOM      4  C3  UNL d   1      -0.892   1.203  -0.128  0.00  0.00     0.003 A 
ATOM      5  C4  UNL d   1      -1.433  -0.080  -0.059  0.00  0.00    -0.005 A 
ATOM      6  C5  UNL d   1      -0.679  -1.124   0.473  0.00  0.00     0.003 A 
ATOM      7  C6  UNL d   1       0.616  -0.886   0.934  0.00  0.00    -0.001 A 
ENDROOT
TORSDOF 0
ENDMDL
