MODEL 1
REMARK minimizedAffinity -4.00085592
REMARK minimizedRMSD -1
REMARK  0 active torsions:
REMARK  status: ('A' for Active; 'I' for Inactive)
ROOT
ATOM      1  C   UNL d   1       1.833  -1.610   1.764  0.00  0.00     0.078 C 
ATOM      2  C1  UNL d   1       1.507  -0.437   0.888  0.00  0.00    -0.077 A 
ATOM      3  C2  UNL d   1       2.517   0.270   0.225  0.00  0.00    -0.001 A 
ATOM      4  C3  UNL d   1       2.201   1.366  -0.579  0.00  0.00     0.003 A 
ATOM      5  C4  UNL d   1       0.874   1.765  -0.728  0.00  0.00    -0.005 A 
ATOM      6  C5  UNL d   1      -0.138   1.068  -0.071  0.00  0.00     0.003 A 
ATOM      7  C6  UNL d   1       0.177  -0.028   0.734  0.00  0.00    -0.001 A 
ENDROOT
TORSDOF 0
ENDMDL
