MODEL 1
REMARK minimizedAffinity 6.21260595
REMARK minimizedRMSD -1
REMARK  1 active torsions:
REMARK  status: ('A' for Active; 'I' for Inactive)
REMARK    1  A    between atoms: C1_2  and  C2_3 
ROOT
ATOM      1  C2  UNL d   1       3.849   3.528   5.873  0.00  0.00    -0.077 A 
ATOM      2  C3  UNL d   1       5.246   3.471   5.768  0.00  0.00     0.002 A 
ATOM      3  C4  UNL d   1       5.997   4.647   5.700  0.00  0.00     0.002 A 
ATOM      4  C5  UNL d   1       5.361   5.885   5.741  0.00  0.00    -0.004 A 
ATOM      5  C6  UNL d   1       3.972   5.952   5.843  0.00  0.00     0.002 A 
ATOM      6  C7  UNL d   1       3.220   4.778   5.909  0.00  0.00     0.002 A 
ENDROOT
BRANCH   1   7
ATOM      7  C1  UNL d   1       3.041   2.262   5.996  0.00  0.00     0.055 C 
ATOM      8  C   UNL d   1       3.914   1.029   5.814  0.00  0.00     0.019 C 
ENDBRANCH   1   7
TORSDOF 1
ENDMDL
