MODEL 1
REMARK minimizedAffinity 12.0476313
REMARK minimizedRMSD -1
REMARK  1 active torsions:
REMARK  status: ('A' for Active; 'I' for Inactive)
REMARK    1  A    between atoms: C1_2  and  C2_3 
ROOT
ATOM      1  C2  UNL d   1      -2.511  -0.823  -1.130  0.00  0.00    -0.077 A 
ATOM      2  C3  UNL d   1      -2.117  -1.735  -2.120  0.00  0.00     0.002 A 
ATOM      3  C4  UNL d   1      -1.261  -2.792  -1.805  0.00  0.00     0.002 A 
ATOM      4  C5  UNL d   1      -0.794  -2.949  -0.502  0.00  0.00    -0.004 A 
ATOM      5  C6  UNL d   1      -1.179  -2.046   0.489  0.00  0.00     0.002 A 
ATOM      6  C7  UNL d   1      -2.034  -0.989   0.176  0.00  0.00     0.002 A 
ENDROOT
BRANCH   1   7
ATOM      7  C1  UNL d   1      -3.473   0.289  -1.456  0.00  0.00     0.055 C 
ATOM      8  C   UNL d   1      -3.422   0.651  -2.933  0.00  0.00     0.019 C 
ENDBRANCH   1   7
TORSDOF 1
ENDMDL
