MODEL 1
REMARK minimizedAffinity 11.0440083
REMARK minimizedRMSD -1
REMARK  1 active torsions:
REMARK  status: ('A' for Active; 'I' for Inactive)
REMARK    1  A    between atoms: C1_2  and  C2_3 
ROOT
ATOM      1  C2  UNL d   1       0.506  -0.849  -1.626  0.00  0.00    -0.077 A 
ATOM      2  C3  UNL d   1      -0.252  -0.794  -2.804  0.00  0.00     0.002 A 
ATOM      3  C4  UNL d   1      -1.638  -0.953  -2.760  0.00  0.00     0.002 A 
ATOM      4  C5  UNL d   1      -2.278  -1.163  -1.540  0.00  0.00    -0.004 A 
ATOM      5  C6  UNL d   1      -1.533  -1.221  -0.364  0.00  0.00     0.002 A 
ATOM      6  C7  UNL d   1      -0.147  -1.064  -0.406  0.00  0.00     0.002 A 
ENDROOT
BRANCH   1   7
ATOM      7  C1  UNL d   1       1.996  -0.629  -1.666  0.00  0.00     0.055 C 
ATOM      8  C   UNL d   1       2.338   0.854  -1.640  0.00  0.00     0.019 C 
ENDBRANCH   1   7
TORSDOF 1
ENDMDL
