MODEL 1
REMARK minimizedAffinity 19.3742428
REMARK minimizedRMSD -1
REMARK  1 active torsions:
REMARK  status: ('A' for Active; 'I' for Inactive)
REMARK    1  A    between atoms: C1_2  and  C2_3 
ROOT
ATOM      1  C2  UNL d   1       5.066   3.552   4.417  0.00  0.00    -0.077 A 
ATOM      2  C3  UNL d   1       3.903   3.600   5.199  0.00  0.00     0.002 A 
ATOM      3  C4  UNL d   1       3.598   4.742   5.942  0.00  0.00     0.002 A 
ATOM      4  C5  UNL d   1       4.447   5.846   5.906  0.00  0.00    -0.004 A 
ATOM      5  C6  UNL d   1       5.607   5.808   5.133  0.00  0.00     0.002 A 
ATOM      6  C7  UNL d   1       5.914   4.667   4.391  0.00  0.00     0.002 A 
ENDROOT
BRANCH   1   7
ATOM      7  C1  UNL d   1       5.371   2.340   3.577  0.00  0.00     0.055 C 
ATOM      8  C   UNL d   1       5.114   2.610   2.101  0.00  0.00     0.019 C 
ENDBRANCH   1   7
TORSDOF 1
ENDMDL
