MODEL 1
REMARK minimizedAffinity 5.0731988
REMARK minimizedRMSD -1
REMARK  1 active torsions:
REMARK  status: ('A' for Active; 'I' for Inactive)
REMARK    1  A    between atoms: C1_2  and  C2_3 
ROOT
ATOM      1  C2  UNL d   1       4.486   4.803   5.151  0.00  0.00    -0.077 A 
ATOM      2  C3  UNL d   1       3.523   5.705   5.623  0.00  0.00     0.002 A 
ATOM      3  C4  UNL d   1       2.385   5.985   4.864  0.00  0.00     0.002 A 
ATOM      4  C5  UNL d   1       2.198   5.365   3.631  0.00  0.00    -0.004 A 
ATOM      5  C6  UNL d   1       3.152   4.468   3.151  0.00  0.00     0.002 A 
ATOM      6  C7  UNL d   1       4.290   4.188   3.908  0.00  0.00     0.002 A 
ENDROOT
BRANCH   1   7
ATOM      7  C1  UNL d   1       5.690   4.462   5.990  0.00  0.00     0.055 C 
ATOM      8  C   UNL d   1       5.961   2.965   5.986  0.00  0.00     0.019 C 
ENDBRANCH   1   7
TORSDOF 1
ENDMDL
