MODEL 1
REMARK minimizedAffinity 9.38009453
REMARK minimizedRMSD -1
REMARK  1 active torsions:
REMARK  status: ('A' for Active; 'I' for Inactive)
REMARK    1  A    between atoms: C1_2  and  C2_3 
ROOT
ATOM      1  C2  UNL d   1       4.638   3.364   5.201  0.00  0.00    -0.077 A 
ATOM      2  C3  UNL d   1       3.352   3.648   5.683  0.00  0.00     0.002 A 
ATOM      3  C4  UNL d   1       2.988   4.959   5.995  0.00  0.00     0.002 A 
ATOM      4  C5  UNL d   1       3.903   5.997   5.826  0.00  0.00    -0.004 A 
ATOM      5  C6  UNL d   1       5.185   5.724   5.349  0.00  0.00     0.002 A 
ATOM      6  C7  UNL d   1       5.550   4.414   5.038  0.00  0.00     0.002 A 
ENDROOT
BRANCH   1   7
ATOM      7  C1  UNL d   1       5.015   1.957   4.817  0.00  0.00     0.055 C 
ATOM      8  C   UNL d   1       5.863   1.937   3.553  0.00  0.00     0.019 C 
ENDBRANCH   1   7
TORSDOF 1
ENDMDL
