MODEL 1
REMARK minimizedAffinity 3.90850139
REMARK minimizedRMSD -1
REMARK  1 active torsions:
REMARK  status: ('A' for Active; 'I' for Inactive)
REMARK    1  A    between atoms: C1_2  and  C2_3 
ROOT
ATOM      1  C2  UNL d   1       4.502   3.658   4.511  0.00  0.00    -0.077 A 
ATOM      2  C3  UNL d   1       3.458   4.221   5.257  0.00  0.00     0.002 A 
ATOM      3  C4  UNL d   1       3.668   5.384   6.000  0.00  0.00     0.002 A 
ATOM      4  C5  UNL d   1       4.920   5.996   6.000  0.00  0.00    -0.004 A 
ATOM      5  C6  UNL d   1       5.965   5.443   5.262  0.00  0.00     0.002 A 
ATOM      6  C7  UNL d   1       5.757   4.279   4.520  0.00  0.00     0.002 A 
ENDROOT
BRANCH   1   7
ATOM      7  C1  UNL d   1       4.264   2.431   3.670  0.00  0.00     0.055 C 
ATOM      8  C   UNL d   1       4.171   2.782   2.192  0.00  0.00     0.019 C 
ENDBRANCH   1   7
TORSDOF 1
ENDMDL
