MODEL 1
REMARK minimizedAffinity 0.37493968
REMARK minimizedRMSD -1
REMARK  1 active torsions:
REMARK  status: ('A' for Active; 'I' for Inactive)
REMARK    1  A    between atoms: C1_2  and  C2_3 
ROOT
ATOM      1  C2  UNL d   1       4.022   3.727   4.216  0.00  0.00    -0.077 A 
ATOM      2  C3  UNL d   1       2.871   4.473   4.508  0.00  0.00     0.002 A 
ATOM      3  C4  UNL d   1       2.935   5.555   5.389  0.00  0.00     0.002 A 
ATOM      4  C5  UNL d   1       4.148   5.903   5.980  0.00  0.00    -0.004 A 
ATOM      5  C6  UNL d   1       5.298   5.166   5.697  0.00  0.00     0.002 A 
ATOM      6  C7  UNL d   1       5.235   4.084   4.819  0.00  0.00     0.002 A 
ENDROOT
BRANCH   1   7
ATOM      7  C1  UNL d   1       3.965   2.591   3.229  0.00  0.00     0.055 C 
ATOM      8  C   UNL d   1       2.952   2.865   2.127  0.00  0.00     0.019 C 
ENDBRANCH   1   7
TORSDOF 1
ENDMDL
