MODEL 1
REMARK minimizedAffinity 13.9933395
REMARK minimizedRMSD -1
REMARK  1 active torsions:
REMARK  status: ('A' for Active; 'I' for Inactive)
REMARK    1  A    between atoms: C1_2  and  C2_3 
ROOT
ATOM      1  C2  UNL d   1       5.010   3.747   4.430  0.00  0.00    -0.077 A 
ATOM      2  C3  UNL d   1       3.839   3.801   5.198  0.00  0.00     0.002 A 
ATOM      3  C4  UNL d   1       3.559   4.922   5.981  0.00  0.00     0.002 A 
ATOM      4  C5  UNL d   1       4.443   5.999   6.000  0.00  0.00    -0.004 A 
ATOM      5  C6  UNL d   1       5.611   5.954   5.240  0.00  0.00     0.002 A 
ATOM      6  C7  UNL d   1       5.893   4.834   4.458  0.00  0.00     0.002 A 
ENDROOT
BRANCH   1   7
ATOM      7  C1  UNL d   1       5.290   2.559   3.546  0.00  0.00     0.055 C 
ATOM      8  C   UNL d   1       4.597   2.697   2.198  0.00  0.00     0.019 C 
ENDBRANCH   1   7
TORSDOF 1
ENDMDL
