MODEL 1
REMARK minimizedAffinity 13.7529497
REMARK minimizedRMSD -1
REMARK  1 active torsions:
REMARK  status: ('A' for Active; 'I' for Inactive)
REMARK    1  A    between atoms: C1_2  and  C2_3 
ROOT
ATOM      1  C2  UNL d   1       5.109   3.486   5.824  0.00  0.00    -0.077 A 
ATOM      2  C3  UNL d   1       5.665   2.204   5.942  0.00  0.00     0.002 A 
ATOM      3  C4  UNL d   1       4.840   1.079   5.994  0.00  0.00     0.002 A 
ATOM      4  C5  UNL d   1       3.456   1.223   5.924  0.00  0.00    -0.004 A 
ATOM      5  C6  UNL d   1       2.893   2.494   5.809  0.00  0.00     0.002 A 
ATOM      6  C7  UNL d   1       3.716   3.620   5.758  0.00  0.00     0.002 A 
ENDROOT
BRANCH   1   7
ATOM      7  C1  UNL d   1       5.998   4.697   5.718  0.00  0.00     0.055 C 
ATOM      8  C   UNL d   1       5.208   5.983   5.914  0.00  0.00     0.019 C 
ENDBRANCH   1   7
TORSDOF 1
ENDMDL
