MODEL 1
REMARK minimizedAffinity 9.38641262
REMARK minimizedRMSD -1
REMARK  1 active torsions:
REMARK  status: ('A' for Active; 'I' for Inactive)
REMARK    1  A    between atoms: C1_2  and  C2_3 
ROOT
ATOM      1  C2  UNL d   1       4.576   3.222   5.626  0.00  0.00    -0.077 A 
ATOM      2  C3  UNL d   1       3.427   4.003   5.812  0.00  0.00     0.002 A 
ATOM      3  C4  UNL d   1       3.533   5.383   5.995  0.00  0.00     0.002 A 
ATOM      4  C5  UNL d   1       4.785   5.994   5.990  0.00  0.00    -0.004 A 
ATOM      5  C6  UNL d   1       5.934   5.226   5.808  0.00  0.00     0.002 A 
ATOM      6  C7  UNL d   1       5.830   3.846   5.626  0.00  0.00     0.002 A 
ENDROOT
BRANCH   1   7
ATOM      7  C1  UNL d   1       4.461   1.740   5.379  0.00  0.00     0.055 C 
ATOM      8  C   UNL d   1       5.143   1.341   4.079  0.00  0.00     0.019 C 
ENDBRANCH   1   7
TORSDOF 1
ENDMDL
