MODEL 1
REMARK minimizedAffinity 6.8326683
REMARK minimizedRMSD -1
REMARK  1 active torsions:
REMARK  status: ('A' for Active; 'I' for Inactive)
REMARK    1  A    between atoms: C1_2  and  C2_3 
ROOT
ATOM      1  C2  UNL d   1      -1.237  -1.424  -0.461  0.00  0.00    -0.077 A 
ATOM      2  C3  UNL d   1      -0.691  -2.510   0.237  0.00  0.00     0.002 A 
ATOM      3  C4  UNL d   1      -1.403  -3.113   1.275  0.00  0.00     0.002 A 
ATOM      4  C5  UNL d   1      -2.667  -2.639   1.622  0.00  0.00    -0.004 A 
ATOM      5  C6  UNL d   1      -3.218  -1.558   0.935  0.00  0.00     0.002 A 
ATOM      6  C7  UNL d   1      -2.507  -0.954  -0.102  0.00  0.00     0.002 A 
ENDROOT
BRANCH   1   7
ATOM      7  C1  UNL d   1      -0.492  -0.805  -1.614  0.00  0.00     0.055 C 
ATOM      8  C   UNL d   1      -0.963  -1.369  -2.946  0.00  0.00     0.019 C 
ENDBRANCH   1   7
TORSDOF 1
ENDMDL
