MODEL 1
REMARK minimizedAffinity 9.01131725
REMARK minimizedRMSD -1
REMARK  1 active torsions:
REMARK  status: ('A' for Active; 'I' for Inactive)
REMARK    1  A    between atoms: C1_2  and  C2_3 
ROOT
ATOM      1  C2  UNL d   1       3.568   5.190   5.935  0.00  0.00    -0.077 A 
ATOM      2  C3  UNL d   1       4.811   5.834   5.856  0.00  0.00     0.002 A 
ATOM      3  C4  UNL d   1       5.989   5.088   5.797  0.00  0.00     0.002 A 
ATOM      4  C5  UNL d   1       5.937   3.696   5.812  0.00  0.00    -0.004 A 
ATOM      5  C6  UNL d   1       4.705   3.047   5.893  0.00  0.00     0.002 A 
ATOM      6  C7  UNL d   1       3.526   3.790   5.954  0.00  0.00     0.002 A 
ENDROOT
BRANCH   1   7
ATOM      7  C1  UNL d   1       2.292   5.992   5.949  0.00  0.00     0.055 C 
ATOM      8  C   UNL d   1       1.619   5.985   4.585  0.00  0.00     0.019 C 
ENDBRANCH   1   7
TORSDOF 1
ENDMDL
