MODEL 1
REMARK minimizedAffinity -3.6397531
REMARK minimizedRMSD -1
REMARK  0 active torsions:
REMARK  status: ('A' for Active; 'I' for Inactive)
ROOT
ATOM      1  C   UNL d   1       0.800   1.227  -0.665  0.00  0.00     0.020 A 
ATOM      2  C1  UNL d   1       1.680   0.813   0.334  0.00  0.00     0.020 A 
ATOM      3  C2  UNL d   1       1.197   0.123   1.447  0.00  0.00     0.034 A 
ATOM      4  C3  UNL d   1      -0.170  -0.155   1.565  0.00  0.00     0.017 A 
ATOM      5  C4  UNL d   1      -1.052   0.261   0.562  0.00  0.00     0.017 A 
ATOM      6  C5  UNL d   1      -0.564   0.952  -0.551  0.00  0.00     0.034 A 
ATOM      7 Cl   UNL d   1      -2.752  -0.045   0.637  0.00  0.00    -0.070 Cl
ATOM      8 Cl1  UNL d   1      -0.697  -1.012   2.969  0.00  0.00    -0.070 Cl
ENDROOT
TORSDOF 0
ENDMDL
