MODEL 1
REMARK minimizedAffinity -5.77726793
REMARK minimizedRMSD -1
REMARK  0 active torsions:
REMARK  status: ('A' for Active; 'I' for Inactive)
ROOT
ATOM      1  C   UNL d   1       0.025  -0.768   3.147  0.00  0.00     0.020 A 
ATOM      2  C1  UNL d   1      -1.305  -0.625   3.540  0.00  0.00     0.020 A 
ATOM      3  C2  UNL d   1      -2.259  -0.173   2.626  0.00  0.00     0.034 A 
ATOM      4  C3  UNL d   1      -1.884   0.137   1.314  0.00  0.00     0.017 A 
ATOM      5  C4  UNL d   1      -0.549  -0.006   0.920  0.00  0.00     0.017 A 
ATOM      6  C5  UNL d   1       0.402  -0.459   1.840  0.00  0.00     0.034 A 
ATOM      7 Cl   UNL d   1      -0.010   0.357  -0.682  0.00  0.00    -0.070 Cl
ATOM      8 Cl1  UNL d   1      -3.116   0.690   0.235  0.00  0.00    -0.070 Cl
ENDROOT
TORSDOF 0
ENDMDL
