MODEL 1
REMARK minimizedAffinity -5.03945017
REMARK minimizedRMSD -1
REMARK  0 active torsions:
REMARK  status: ('A' for Active; 'I' for Inactive)
ROOT
ATOM      1  C   UNL d   1      -0.273  -0.763   3.128  0.00  0.00     0.020 A 
ATOM      2  C1  UNL d   1       0.958  -0.336   2.630  0.00  0.00     0.020 A 
ATOM      3  C2  UNL d   1       1.054   0.142   1.322  0.00  0.00     0.034 A 
ATOM      4  C3  UNL d   1      -0.082   0.196   0.506  0.00  0.00     0.017 A 
ATOM      5  C4  UNL d   1      -1.317  -0.233   1.007  0.00  0.00     0.017 A 
ATOM      6  C5  UNL d   1      -1.408  -0.711   2.318  0.00  0.00     0.034 A 
ATOM      7 Cl   UNL d   1      -2.764  -0.197   0.061  0.00  0.00    -0.070 Cl
ATOM      8 Cl1  UNL d   1       0.110   0.800  -1.101  0.00  0.00    -0.070 Cl
ENDROOT
TORSDOF 0
ENDMDL
