MODEL 1
REMARK minimizedAffinity -3.78281903
REMARK minimizedRMSD -1
REMARK  0 active torsions:
REMARK  status: ('A' for Active; 'I' for Inactive)
ROOT
ATOM      1  C   UNL d   1      -1.757  -0.815   2.061  0.00  0.00     0.020 A 
ATOM      2  C1  UNL d   1      -0.824  -0.802   3.097  0.00  0.00     0.020 A 
ATOM      3  C2  UNL d   1       0.480  -0.365   2.857  0.00  0.00     0.034 A 
ATOM      4  C3  UNL d   1       0.855   0.062   1.578  0.00  0.00     0.017 A 
ATOM      5  C4  UNL d   1      -0.083   0.048   0.538  0.00  0.00     0.017 A 
ATOM      6  C5  UNL d   1      -1.387  -0.391   0.785  0.00  0.00     0.034 A 
ATOM      7 Cl   UNL d   1       0.306   0.560  -1.066  0.00  0.00    -0.070 Cl
ATOM      8 Cl1  UNL d   1       2.484   0.590   1.352  0.00  0.00    -0.070 Cl
ENDROOT
TORSDOF 0
ENDMDL
