MODEL 1
REMARK minimizedAffinity -4.73907566
REMARK minimizedRMSD -1
REMARK  0 active torsions:
REMARK  status: ('A' for Active; 'I' for Inactive)
ROOT
ATOM      1  C   UNL d   1       0.511   1.032  -1.072  0.00  0.00     0.020 A 
ATOM      2  C1  UNL d   1       1.343   0.906   0.040  0.00  0.00     0.020 A 
ATOM      3  C2  UNL d   1       0.849   0.352   1.223  0.00  0.00     0.034 A 
ATOM      4  C3  UNL d   1      -0.480  -0.079   1.296  0.00  0.00     0.017 A 
ATOM      5  C4  UNL d   1      -1.315   0.048   0.180  0.00  0.00     0.017 A 
ATOM      6  C5  UNL d   1      -0.815   0.604  -1.002  0.00  0.00     0.034 A 
ATOM      7 Cl   UNL d   1      -2.966  -0.461   0.195  0.00  0.00    -0.070 Cl
ATOM      8 Cl1  UNL d   1      -1.024  -0.755   2.791  0.00  0.00    -0.070 Cl
ENDROOT
TORSDOF 0
ENDMDL
