MODEL 1
REMARK minimizedAffinity -2.12473059
REMARK minimizedRMSD -1
REMARK  0 active torsions:
REMARK  status: ('A' for Active; 'I' for Inactive)
ROOT
ATOM      1  C   UNL d   1       0.295   0.679  -0.828  0.00  0.00     0.020 A 
ATOM      2  C1  UNL d   1       1.241   0.664   0.197  0.00  0.00     0.020 A 
ATOM      3  C2  UNL d   1       0.900   0.160   1.454  0.00  0.00     0.034 A 
ATOM      4  C3  UNL d   1      -0.389  -0.332   1.689  0.00  0.00     0.017 A 
ATOM      5  C4  UNL d   1      -1.337  -0.317   0.660  0.00  0.00     0.017 A 
ATOM      6  C5  UNL d   1      -0.991   0.189  -0.597  0.00  0.00     0.034 A 
ATOM      7 Cl   UNL d   1      -2.948  -0.906   0.874  0.00  0.00    -0.070 Cl
ATOM      8 Cl1  UNL d   1      -0.741  -0.940   3.267  0.00  0.00    -0.070 Cl
ENDROOT
TORSDOF 0
ENDMDL
