MODEL 1
REMARK minimizedAffinity -5.33822298
REMARK minimizedRMSD -1
REMARK  0 active torsions:
REMARK  status: ('A' for Active; 'I' for Inactive)
ROOT
ATOM      1  C   UNL d   1      -0.291  -0.536   3.015  0.00  0.00     0.020 A 
ATOM      2  C1  UNL d   1      -1.602  -0.236   3.382  0.00  0.00     0.020 A 
ATOM      3  C2  UNL d   1      -2.554   0.050   2.401  0.00  0.00     0.034 A 
ATOM      4  C3  UNL d   1      -2.196   0.037   1.048  0.00  0.00     0.017 A 
ATOM      5  C4  UNL d   1      -0.879  -0.264   0.681  0.00  0.00     0.017 A 
ATOM      6  C5  UNL d   1       0.070  -0.550   1.667  0.00  0.00     0.034 A 
ATOM      7 Cl   UNL d   1      -0.363  -0.299  -0.968  0.00  0.00    -0.070 Cl
ATOM      8 Cl1  UNL d   1      -3.424   0.400  -0.111  0.00  0.00    -0.070 Cl
ENDROOT
TORSDOF 0
ENDMDL
