MODEL 1
REMARK minimizedAffinity -4.96085835
REMARK minimizedRMSD -1
REMARK  0 active torsions:
REMARK  status: ('A' for Active; 'I' for Inactive)
ROOT
ATOM      1  C   UNL d   1      -2.232  -0.549   2.636  0.00  0.00     0.020 A 
ATOM      2  C1  UNL d   1      -0.887  -0.909   2.569  0.00  0.00     0.020 A 
ATOM      3  C2  UNL d   1      -0.154  -0.656   1.408  0.00  0.00     0.034 A 
ATOM      4  C3  UNL d   1      -0.766  -0.043   0.309  0.00  0.00     0.017 A 
ATOM      5  C4  UNL d   1      -2.117   0.318   0.377  0.00  0.00     0.017 A 
ATOM      6  C5  UNL d   1      -2.846   0.063   1.543  0.00  0.00     0.034 A 
ATOM      7 Cl   UNL d   1      -2.941   1.079  -0.938  0.00  0.00    -0.070 Cl
ATOM      8 Cl1  UNL d   1       0.201   0.240  -1.095  0.00  0.00    -0.070 Cl
ENDROOT
TORSDOF 0
ENDMDL
