MODEL 1
REMARK minimizedAffinity -1.84511054
REMARK minimizedRMSD -1
REMARK  0 active torsions:
REMARK  status: ('A' for Active; 'I' for Inactive)
ROOT
ATOM      1  C   UNL d   1      -0.153   0.633  -1.362  0.00  0.00     0.020 A 
ATOM      2  C1  UNL d   1      -1.303   0.304  -0.646  0.00  0.00     0.020 A 
ATOM      3  C2  UNL d   1      -1.218   0.024   0.720  0.00  0.00     0.034 A 
ATOM      4  C3  UNL d   1       0.018   0.073   1.373  0.00  0.00     0.017 A 
ATOM      5  C4  UNL d   1       1.172   0.404   0.653  0.00  0.00     0.017 A 
ATOM      6  C5  UNL d   1       1.082   0.683  -0.714  0.00  0.00     0.034 A 
ATOM      7 Cl   UNL d   1       2.733   0.486   1.391  0.00  0.00    -0.070 Cl
ATOM      8 Cl1  UNL d   1       0.049  -0.284   3.064  0.00  0.00    -0.070 Cl
ENDROOT
TORSDOF 0
ENDMDL
