MODEL 1
REMARK minimizedAffinity -2.34172654
REMARK minimizedRMSD -1
REMARK  0 active torsions:
REMARK  status: ('A' for Active; 'I' for Inactive)
ROOT
ATOM      1  C   UNL d   1       1.152   0.057   1.842  0.00  0.00     0.020 A 
ATOM      2  C1  UNL d   1      -0.028   0.187   2.574  0.00  0.00     0.020 A 
ATOM      3  C2  UNL d   1      -1.246   0.355   1.912  0.00  0.00     0.034 A 
ATOM      4  C3  UNL d   1      -1.287   0.393   0.513  0.00  0.00     0.017 A 
ATOM      5  C4  UNL d   1      -0.102   0.263  -0.221  0.00  0.00     0.017 A 
ATOM      6  C5  UNL d   1       1.114   0.095   0.448  0.00  0.00     0.034 A 
ATOM      7 Cl   UNL d   1      -0.074   0.300  -1.948  0.00  0.00    -0.070 Cl
ATOM      8 Cl1  UNL d   1      -2.828   0.603  -0.240  0.00  0.00    -0.070 Cl
ENDROOT
TORSDOF 0
ENDMDL
