MODEL 1
REMARK minimizedAffinity -5.92110109
REMARK minimizedRMSD -1
REMARK  0 active torsions:
REMARK  status: ('A' for Active; 'I' for Inactive)
ROOT
ATOM      1  C   UNL d   1      -2.374   0.134   1.818  0.00  0.00     0.020 A 
ATOM      2  C1  UNL d   1      -1.549  -0.162   2.903  0.00  0.00     0.020 A 
ATOM      3  C2  UNL d   1      -0.166  -0.237   2.729  0.00  0.00     0.034 A 
ATOM      4  C3  UNL d   1       0.398  -0.016   1.467  0.00  0.00     0.017 A 
ATOM      5  C4  UNL d   1      -0.431   0.281   0.379  0.00  0.00     0.017 A 
ATOM      6  C5  UNL d   1      -1.815   0.355   0.559  0.00  0.00     0.034 A 
ATOM      7 Cl   UNL d   1       0.191   0.567  -1.209  0.00  0.00    -0.070 Cl
ATOM      8 Cl1  UNL d   1       2.116  -0.124   1.324  0.00  0.00    -0.070 Cl
ENDROOT
TORSDOF 0
ENDMDL
