MODEL 1
REMARK minimizedAffinity -5.62788248
REMARK minimizedRMSD -1
REMARK  0 active torsions:
REMARK  status: ('A' for Active; 'I' for Inactive)
ROOT
ATOM      1  C   UNL d   1      -1.369   0.350   2.542  0.00  0.00     0.020 A 
ATOM      2  C1  UNL d   1      -0.063  -0.099   2.347  0.00  0.00     0.020 A 
ATOM      3  C2  UNL d   1       0.477  -0.139   1.060  0.00  0.00     0.034 A 
ATOM      4  C3  UNL d   1      -0.289   0.271  -0.037  0.00  0.00     0.017 A 
ATOM      5  C4  UNL d   1      -1.599   0.722   0.159  0.00  0.00     0.017 A 
ATOM      6  C5  UNL d   1      -2.135   0.760   1.450  0.00  0.00     0.034 A 
ATOM      7 Cl   UNL d   1      -2.605   1.243  -1.146  0.00  0.00    -0.070 Cl
ATOM      8 Cl1  UNL d   1       0.443   0.195  -1.601  0.00  0.00    -0.070 Cl
ENDROOT
TORSDOF 0
ENDMDL
