MODEL 1
REMARK minimizedAffinity -4.90684175
REMARK minimizedRMSD -1
REMARK  0 active torsions:
REMARK  status: ('A' for Active; 'I' for Inactive)
ROOT
ATOM      1  C   UNL d   1      -0.410  -0.882   3.137  0.00  0.00     0.020 A 
ATOM      2  C1  UNL d   1       0.712  -0.840   2.310  0.00  0.00     0.020 A 
ATOM      3  C2  UNL d   1       0.630  -0.240   1.052  0.00  0.00     0.034 A 
ATOM      4  C3  UNL d   1      -0.576   0.320   0.616  0.00  0.00     0.017 A 
ATOM      5  C4  UNL d   1      -1.702   0.278   1.447  0.00  0.00     0.017 A 
ATOM      6  C5  UNL d   1      -1.614  -0.324   2.706  0.00  0.00     0.034 A 
ATOM      7 Cl   UNL d   1      -3.225   0.948   0.979  0.00  0.00    -0.070 Cl
ATOM      8 Cl1  UNL d   1      -0.605   1.046  -0.951  0.00  0.00    -0.070 Cl
ENDROOT
TORSDOF 0
ENDMDL
