MODEL 1
REMARK minimizedAffinity -4.5057745
REMARK minimizedRMSD -1
REMARK  0 active torsions:
REMARK  status: ('A' for Active; 'I' for Inactive)
ROOT
ATOM      1  C   UNL d   1      -0.009   0.283   2.375  0.00  0.00     0.020 A 
ATOM      2  C1  UNL d   1       1.137  -0.159   1.716  0.00  0.00     0.020 A 
ATOM      3  C2  UNL d   1       1.148  -0.257   0.323  0.00  0.00     0.034 A 
ATOM      4  C3  UNL d   1       0.010   0.086  -0.416  0.00  0.00     0.017 A 
ATOM      5  C4  UNL d   1      -1.141   0.529   0.246  0.00  0.00     0.017 A 
ATOM      6  C5  UNL d   1      -1.146   0.626   1.641  0.00  0.00     0.034 A 
ATOM      7 Cl   UNL d   1      -2.584   0.970  -0.597  0.00  0.00    -0.070 Cl
ATOM      8 Cl1  UNL d   1       0.094  -0.060  -2.136  0.00  0.00    -0.070 Cl
ENDROOT
TORSDOF 0
ENDMDL
