MODEL 1
REMARK minimizedAffinity 0.425952554
REMARK minimizedRMSD -1
REMARK  0 active torsions:
REMARK  status: ('A' for Active; 'I' for Inactive)
ROOT
ATOM      1  C   UNL d   1       0.742   0.009  -0.864  0.00  0.00     0.020 A 
ATOM      2  C1  UNL d   1      -0.209   0.668  -1.642  0.00  0.00     0.020 A 
ATOM      3  C2  UNL d   1      -1.518   0.805  -1.176  0.00  0.00     0.034 A 
ATOM      4  C3  UNL d   1      -1.880   0.284   0.071  0.00  0.00     0.017 A 
ATOM      5  C4  UNL d   1      -0.925  -0.378   0.852  0.00  0.00     0.017 A 
ATOM      6  C5  UNL d   1       0.385  -0.512   0.380  0.00  0.00     0.034 A 
ATOM      7 Cl   UNL d   1      -1.296  -1.048   2.401  0.00  0.00    -0.070 Cl
ATOM      8 Cl1  UNL d   1      -3.517   0.491   0.585  0.00  0.00    -0.070 Cl
ENDROOT
TORSDOF 0
ENDMDL
