MODEL 1
REMARK minimizedAffinity -0.358261317
REMARK minimizedRMSD -1
REMARK  0 active torsions:
REMARK  status: ('A' for Active; 'I' for Inactive)
ROOT
ATOM      1  C   UNL d   1      -1.012  -0.513   2.368  0.00  0.00     0.020 A 
ATOM      2  C1  UNL d   1      -1.513  -1.177   1.249  0.00  0.00     0.020 A 
ATOM      3  C2  UNL d   1      -0.929  -0.975  -0.003  0.00  0.00     0.034 A 
ATOM      4  C3  UNL d   1       0.161  -0.108  -0.140  0.00  0.00     0.017 A 
ATOM      5  C4  UNL d   1       0.663   0.558   0.984  0.00  0.00     0.017 A 
ATOM      6  C5  UNL d   1       0.075   0.353   2.235  0.00  0.00     0.034 A 
ATOM      7 Cl   UNL d   1       2.005   1.645   0.894  0.00  0.00    -0.070 Cl
ATOM      8 Cl1  UNL d   1       0.834   0.094  -1.718  0.00  0.00    -0.070 Cl
ENDROOT
TORSDOF 0
ENDMDL
