MODEL 1
REMARK minimizedAffinity -3.25477767
REMARK minimizedRMSD -1
REMARK  0 active torsions:
REMARK  status: ('A' for Active; 'I' for Inactive)
ROOT
ATOM      1  C   UNL d   1       1.180   0.581   0.258  0.00  0.00     0.020 A 
ATOM      2  C1  UNL d   1       0.337   0.598  -0.852  0.00  0.00     0.020 A 
ATOM      3  C2  UNL d   1      -1.018   0.294  -0.704  0.00  0.00     0.034 A 
ATOM      4  C3  UNL d   1      -1.534  -0.028   0.557  0.00  0.00     0.017 A 
ATOM      5  C4  UNL d   1      -0.686  -0.044   1.670  0.00  0.00     0.017 A 
ATOM      6  C5  UNL d   1       0.669   0.261   1.516  0.00  0.00     0.034 A 
ATOM      7 Cl   UNL d   1      -1.250  -0.432   3.258  0.00  0.00    -0.070 Cl
ATOM      8 Cl1  UNL d   1      -3.219  -0.393   0.666  0.00  0.00    -0.070 Cl
ENDROOT
TORSDOF 0
ENDMDL
