MODEL 1
REMARK minimizedAffinity 10.6091547
REMARK minimizedRMSD -1
REMARK  0 active torsions:
REMARK  status: ('A' for Active; 'I' for Inactive)
ROOT
ATOM      1  C4' PXY d   1       4.465  -3.804  -3.375  0.00  0.00     0.077 C 
ATOM      2  C1' PXY d   1       5.826  -5.780   1.884  0.00  0.00     0.077 C 
ATOM      3  C1  PXY d   1       5.470  -5.249   0.509  0.00  0.00    -0.082 A 
ATOM      4  C2  PXY d   1       4.760  -6.000  -0.318  0.00  0.00     0.003 A 
ATOM      5  C3  PXY d   1       4.457  -5.549  -1.577  0.00  0.00     0.003 A 
ATOM      6  C4  PXY d   1       4.839  -4.295  -1.974  0.00  0.00    -0.082 A 
ATOM      7  C5  PXY d   1       5.554  -3.519  -1.132  0.00  0.00     0.003 A 
ATOM      8  C6  PXY d   1       5.887  -4.012   0.126  0.00  0.00     0.003 A 
ENDROOT
TORSDOF 0
ENDMDL
