MODEL 1
REMARK minimizedAffinity -1.64268017
REMARK minimizedRMSD -1
REMARK  0 active torsions:
REMARK  status: ('A' for Active; 'I' for Inactive)
ROOT
ATOM      1  C4' PXY d   1      -2.805   2.486   1.533  0.00  0.00     0.077 C 
ATOM      2  C1' PXY d   1       1.507  -0.746  -0.559  0.00  0.00     0.077 C 
ATOM      3  C1  PXY d   1       0.372   0.091  -0.002  0.00  0.00    -0.082 A 
ATOM      4  C2  PXY d   1      -0.093   1.112  -0.705  0.00  0.00     0.003 A 
ATOM      5  C3  PXY d   1      -1.097   1.899  -0.203  0.00  0.00     0.003 A 
ATOM      6  C4  PXY d   1      -1.667   1.607   1.007  0.00  0.00    -0.082 A 
ATOM      7  C5  PXY d   1      -1.205   0.562   1.725  0.00  0.00     0.003 A 
ATOM      8  C6  PXY d   1      -0.157  -0.200   1.216  0.00  0.00     0.003 A 
ENDROOT
TORSDOF 0
ENDMDL
