MODEL 1
REMARK minimizedAffinity -2.39878416
REMARK minimizedRMSD -1
REMARK  0 active torsions:
REMARK  status: ('A' for Active; 'I' for Inactive)
ROOT
ATOM      1  C4' PXY d   1      -0.580  -1.126   2.660  0.00  0.00     0.077 C 
ATOM      2  C1' PXY d   1       0.022   2.393  -1.886  0.00  0.00     0.077 C 
ATOM      3  C1  PXY d   1      -0.141   1.480  -0.687  0.00  0.00    -0.082 A 
ATOM      4  C2  PXY d   1       0.589   0.380  -0.599  0.00  0.00     0.003 A 
ATOM      5  C3  PXY d   1       0.432  -0.473   0.463  0.00  0.00     0.003 A 
ATOM      6  C4  PXY d   1      -0.443  -0.170   1.472  0.00  0.00    -0.082 A 
ATOM      7  C5  PXY d   1      -1.184   0.956   1.394  0.00  0.00     0.003 A 
ATOM      8  C6  PXY d   1      -1.039   1.788   0.288  0.00  0.00     0.003 A 
ENDROOT
TORSDOF 0
ENDMDL
