MODEL 1
REMARK minimizedAffinity -0.172046363
REMARK minimizedRMSD -1
REMARK  0 active torsions:
REMARK  status: ('A' for Active; 'I' for Inactive)
ROOT
ATOM      1  C4' PXY d   1       0.699  -1.232   0.682  0.00  0.00     0.077 C 
ATOM      2  C1' PXY d   1      -2.524   3.508   1.436  0.00  0.00     0.077 C 
ATOM      3  C1  PXY d   1      -1.683   2.263   1.226  0.00  0.00    -0.082 A 
ATOM      4  C2  PXY d   1      -1.296   1.552   2.272  0.00  0.00     0.003 A 
ATOM      5  C3  PXY d   1      -0.509   0.442   2.103  0.00  0.00     0.003 A 
ATOM      6  C4  PXY d   1      -0.159   0.026   0.846  0.00  0.00    -0.082 A 
ATOM      7  C5  PXY d   1      -0.559   0.741  -0.227  0.00  0.00     0.003 A 
ATOM      8  C6  PXY d   1      -1.323   1.887  -0.031  0.00  0.00     0.003 A 
ENDROOT
TORSDOF 0
ENDMDL
