MODEL 1
REMARK minimizedAffinity -2.87872243
REMARK minimizedRMSD -1
REMARK  0 active torsions:
REMARK  status: ('A' for Active; 'I' for Inactive)
ROOT
ATOM      1  C4' PXY d   1      -2.355   2.884   1.031  0.00  0.00     0.077 C 
ATOM      2  C1' PXY d   1       1.450  -1.146  -0.611  0.00  0.00     0.077 C 
ATOM      3  C1  PXY d   1       0.457  -0.081  -0.188  0.00  0.00    -0.082 A 
ATOM      4  C2  PXY d   1      -0.108  -0.150   1.006  0.00  0.00     0.003 A 
ATOM      5  C3  PXY d   1      -1.032   0.787   1.391  0.00  0.00     0.003 A 
ATOM      6  C4  PXY d   1      -1.340   1.836   0.567  0.00  0.00    -0.082 A 
ATOM      7  C5  PXY d   1      -0.759   1.920  -0.649  0.00  0.00     0.003 A 
ATOM      8  C6  PXY d   1       0.145   0.935  -1.038  0.00  0.00     0.003 A 
ENDROOT
TORSDOF 0
ENDMDL
