MODEL 1
REMARK minimizedAffinity -3.2102561
REMARK minimizedRMSD -1
REMARK  0 active torsions:
REMARK  status: ('A' for Active; 'I' for Inactive)
ROOT
ATOM      1  C4' PXY d   1       0.024  -1.535   2.834  0.00  0.00     0.077 C 
ATOM      2  C1' PXY d   1       0.540   2.110  -1.623  0.00  0.00     0.077 C 
ATOM      3  C1  PXY d   1       0.402   1.164  -0.446  0.00  0.00    -0.082 A 
ATOM      4  C2  PXY d   1       0.998  -0.017  -0.482  0.00  0.00     0.003 A 
ATOM      5  C3  PXY d   1       0.857  -0.897   0.559  0.00  0.00     0.003 A 
ATOM      6  C4  PXY d   1       0.143  -0.544   1.673  0.00  0.00    -0.082 A 
ATOM      7  C5  PXY d   1      -0.459   0.663   1.723  0.00  0.00     0.003 A 
ATOM      8  C6  PXY d   1      -0.338   1.526   0.637  0.00  0.00     0.003 A 
ENDROOT
TORSDOF 0
ENDMDL
