MODEL 1
REMARK minimizedAffinity -5.14167976
REMARK minimizedRMSD -1
REMARK  0 active torsions:
REMARK  status: ('A' for Active; 'I' for Inactive)
ROOT
ATOM      1  C4' PXY d   1       1.206  -0.775  -0.138  0.00  0.00     0.077 C 
ATOM      2  C1' PXY d   1      -2.845   3.171   1.060  0.00  0.00     0.077 C 
ATOM      3  C1  PXY d   1      -1.777   2.137   0.758  0.00  0.00    -0.082 A 
ATOM      4  C2  PXY d   1      -1.426   1.907  -0.497  0.00  0.00     0.003 A 
ATOM      5  C3  PXY d   1      -0.486   0.954  -0.790  0.00  0.00     0.003 A 
ATOM      6  C4  PXY d   1       0.140   0.266   0.214  0.00  0.00    -0.082 A 
ATOM      7  C5  PXY d   1      -0.205   0.502   1.498  0.00  0.00     0.003 A 
ATOM      8  C6  PXY d   1      -1.191   1.445   1.772  0.00  0.00     0.003 A 
ENDROOT
TORSDOF 0
ENDMDL
