MODEL 1
REMARK minimizedAffinity -2.65264988
REMARK minimizedRMSD -1
REMARK  0 active torsions:
REMARK  status: ('A' for Active; 'I' for Inactive)
ROOT
ATOM      1  C4' PXY d   1       0.556   3.250  -1.276  0.00  0.00     0.077 C 
ATOM      2  C1' PXY d   1      -1.005  -0.794   2.548  0.00  0.00     0.077 C 
ATOM      3  C1  PXY d   1      -0.586   0.259   1.541  0.00  0.00    -0.082 A 
ATOM      4  C2  PXY d   1      -0.883   1.529   1.761  0.00  0.00     0.003 A 
ATOM      5  C3  PXY d   1      -0.540   2.490   0.845  0.00  0.00     0.003 A 
ATOM      6  C4  PXY d   1       0.162   2.154  -0.282  0.00  0.00    -0.082 A 
ATOM      7  C5  PXY d   1       0.478   0.862  -0.508  0.00  0.00     0.003 A 
ATOM      8  C6  PXY d   1       0.084  -0.104   0.414  0.00  0.00     0.003 A 
ENDROOT
TORSDOF 0
ENDMDL
