MODEL 1
REMARK minimizedAffinity -2.77893829
REMARK minimizedRMSD -1
REMARK  0 active torsions:
REMARK  status: ('A' for Active; 'I' for Inactive)
ROOT
ATOM      1  C4' PXY d   1       1.059  -2.497  -2.724  0.00  0.00     0.077 C 
ATOM      2  C1' PXY d   1      -0.941   0.381   1.873  0.00  0.00     0.077 C 
ATOM      3  C1  PXY d   1      -0.406  -0.366   0.667  0.00  0.00    -0.082 A 
ATOM      4  C2  PXY d   1      -1.237  -1.062  -0.092  0.00  0.00     0.003 A 
ATOM      5  C3  PXY d   1      -0.765  -1.769  -1.168  0.00  0.00     0.003 A 
ATOM      6  C4  PXY d   1       0.562  -1.720  -1.502  0.00  0.00    -0.082 A 
ATOM      7  C5  PXY d   1       1.414  -1.003  -0.738  0.00  0.00     0.003 A 
ATOM      8  C6  PXY d   1       0.922  -0.326   0.374  0.00  0.00     0.003 A 
ENDROOT
TORSDOF 0
ENDMDL
