MODEL 1
REMARK minimizedAffinity 6.05276966
REMARK minimizedRMSD -1
REMARK  0 active torsions:
REMARK  status: ('A' for Active; 'I' for Inactive)
ROOT
ATOM      1  C4' PXY d   1       0.244   4.606   1.609  0.00  0.00     0.077 C 
ATOM      2  C1' PXY d   1      -0.867  -1.065   1.469  0.00  0.00     0.077 C 
ATOM      3  C1  PXY d   1      -0.586   0.424   1.514  0.00  0.00    -0.082 A 
ATOM      4  C2  PXY d   1       0.050   1.000   0.507  0.00  0.00     0.003 A 
ATOM      5  C3  PXY d   1       0.341   2.339   0.546  0.00  0.00     0.003 A 
ATOM      6  C4  PXY d   1      -0.070   3.107   1.602  0.00  0.00    -0.082 A 
ATOM      7  C5  PXY d   1      -0.729   2.529   2.629  0.00  0.00     0.003 A 
ATOM      8  C6  PXY d   1      -0.978   1.160   2.589  0.00  0.00     0.003 A 
ENDROOT
TORSDOF 0
ENDMDL
