MODEL 1
REMARK minimizedAffinity -5.39048004
REMARK minimizedRMSD -1
REMARK  0 active torsions:
REMARK  status: ('A' for Active; 'I' for Inactive)
ROOT
ATOM      1  C4' PXY d   1       0.903  -1.212  -0.553  0.00  0.00     0.077 C 
ATOM      2  C1' PXY d   1      -2.199   3.285   1.335  0.00  0.00     0.077 C 
ATOM      3  C1  PXY d   1      -1.383   2.102   0.852  0.00  0.00    -0.082 A 
ATOM      4  C2  PXY d   1      -0.801   2.149  -0.335  0.00  0.00     0.003 A 
ATOM      5  C3  PXY d   1      -0.087   1.076  -0.800  0.00  0.00     0.003 A 
ATOM      6  C4  PXY d   1       0.078  -0.037  -0.021  0.00  0.00    -0.082 A 
ATOM      7  C5  PXY d   1      -0.504  -0.090   1.196  0.00  0.00     0.003 A 
ATOM      8  C6  PXY d   1      -1.259   0.995   1.633  0.00  0.00     0.003 A 
ENDROOT
TORSDOF 0
ENDMDL
