MODEL 1
REMARK minimizedAffinity 6.90313148
REMARK minimizedRMSD -1
REMARK  0 active torsions:
REMARK  status: ('A' for Active; 'I' for Inactive)
ROOT
ATOM      1  C4' PXY d   1       0.221   1.270  -0.707  0.00  0.00     0.077 C 
ATOM      2  C1' PXY d   1       0.048  -2.363   3.786  0.00  0.00     0.077 C 
ATOM      3  C1  PXY d   1       0.106  -1.411   2.607  0.00  0.00    -0.082 A 
ATOM      4  C2  PXY d   1      -0.876  -0.546   2.416  0.00  0.00     0.003 A 
ATOM      5  C3  PXY d   1      -0.855   0.300   1.337  0.00  0.00     0.003 A 
ATOM      6  C4  PXY d   1       0.208   0.297   0.475  0.00  0.00    -0.082 A 
ATOM      7  C5  PXY d   1       1.220  -0.576   0.669  0.00  0.00     0.003 A 
ATOM      8  C6  PXY d   1       1.159  -1.455   1.747  0.00  0.00     0.003 A 
ENDROOT
TORSDOF 0
ENDMDL
