MODEL 1
REMARK minimizedAffinity 2.20944166
REMARK minimizedRMSD -1
REMARK  0 active torsions:
REMARK  status: ('A' for Active; 'I' for Inactive)
ROOT
ATOM      1  C4' PXY d   1       0.130   3.966   1.499  0.00  0.00     0.077 C 
ATOM      2  C1' PXY d   1      -1.170  -1.616   0.743  0.00  0.00     0.077 C 
ATOM      3  C1  PXY d   1      -0.837  -0.152   0.952  0.00  0.00    -0.082 A 
ATOM      4  C2  PXY d   1      -0.479   0.592  -0.083  0.00  0.00     0.003 A 
ATOM      5  C3  PXY d   1      -0.143   1.910   0.094  0.00  0.00     0.003 A 
ATOM      6  C4  PXY d   1      -0.225   2.486   1.333  0.00  0.00    -0.082 A 
ATOM      7  C5  PXY d   1      -0.599   1.736   2.392  0.00  0.00     0.003 A 
ATOM      8  C6  PXY d   1      -0.896   0.390   2.198  0.00  0.00     0.003 A 
ENDROOT
TORSDOF 0
ENDMDL
