MODEL 1
REMARK minimizedAffinity -4.0548358
REMARK minimizedRMSD -1
REMARK  0 active torsions:
REMARK  status: ('A' for Active; 'I' for Inactive)
ROOT
ATOM      1  C4' PXY d   1       1.168  -0.798  -1.166  0.00  0.00     0.077 C 
ATOM      2  C1' PXY d   1      -2.472   3.060   1.132  0.00  0.00     0.077 C 
ATOM      3  C1  PXY d   1      -1.517   2.056   0.518  0.00  0.00    -0.082 A 
ATOM      4  C2  PXY d   1      -1.512   0.807   0.955  0.00  0.00     0.003 A 
ATOM      5  C3  PXY d   1      -0.632  -0.107   0.433  0.00  0.00     0.003 A 
ATOM      6  C4  PXY d   1       0.214   0.248  -0.582  0.00  0.00    -0.082 A 
ATOM      7  C5  PXY d   1       0.208   1.518  -1.041  0.00  0.00     0.003 A 
ATOM      8  C6  PXY d   1      -0.664   2.440  -0.469  0.00  0.00     0.003 A 
ENDROOT
TORSDOF 0
ENDMDL
