MODEL 1
REMARK minimizedAffinity -2.34441853
REMARK minimizedRMSD -1
REMARK  0 active torsions:
REMARK  status: ('A' for Active; 'I' for Inactive)
ROOT
ATOM      1  C4' PXY d   1      -1.010   2.173   2.222  0.00  0.00     0.077 C 
ATOM      2  C1' PXY d   1       0.235  -1.831  -1.758  0.00  0.00     0.077 C 
ATOM      3  C1  PXY d   1      -0.095  -0.772  -0.724  0.00  0.00    -0.082 A 
ATOM      4  C2  PXY d   1       0.438  -0.850   0.485  0.00  0.00     0.003 A 
ATOM      5  C3  PXY d   1       0.126   0.080   1.442  0.00  0.00     0.003 A 
ATOM      6  C4  PXY d   1      -0.699   1.132   1.143  0.00  0.00    -0.082 A 
ATOM      7  C5  PXY d   1      -1.238   1.225  -0.091  0.00  0.00     0.003 A 
ATOM      8  C6  PXY d   1      -0.941   0.247  -1.036  0.00  0.00     0.003 A 
ENDROOT
TORSDOF 0
ENDMDL
