MODEL 1
REMARK minimizedAffinity -4.7878685
REMARK minimizedRMSD -1
REMARK  0 active torsions:
REMARK  status: ('A' for Active; 'I' for Inactive)
ROOT
ATOM      1  C4' PXY d   1      -1.853   2.574   1.798  0.00  0.00     0.077 C 
ATOM      2  C1' PXY d   1       1.583  -1.380  -0.646  0.00  0.00     0.077 C 
ATOM      3  C1  PXY d   1       0.676  -0.353   0.001  0.00  0.00    -0.082 A 
ATOM      4  C2  PXY d   1       0.470   0.809  -0.598  0.00  0.00     0.003 A 
ATOM      5  C3  PXY d   1      -0.321   1.762  -0.011  0.00  0.00     0.003 A 
ATOM      6  C4  PXY d   1      -0.952   1.503   1.176  0.00  0.00    -0.082 A 
ATOM      7  C5  PXY d   1      -0.756   0.317   1.789  0.00  0.00     0.003 A 
ATOM      8  C6  PXY d   1       0.084  -0.622   1.197  0.00  0.00     0.003 A 
ENDROOT
TORSDOF 0
ENDMDL
