MODEL 1
REMARK minimizedAffinity -3.3636086
REMARK minimizedRMSD -1
REMARK  0 active torsions:
REMARK  status: ('A' for Active; 'I' for Inactive)
ROOT
ATOM      1  C4' PXY d   1      -0.001  -0.877   2.786  0.00  0.00     0.077 C 
ATOM      2  C1' PXY d   1      -0.946   2.948  -1.444  0.00  0.00     0.077 C 
ATOM      3  C1  PXY d   1      -0.701   1.954  -0.326  0.00  0.00    -0.082 A 
ATOM      4  C2  PXY d   1       0.097   0.919  -0.534  0.00  0.00     0.003 A 
ATOM      5  C3  PXY d   1       0.304  -0.007   0.456  0.00  0.00     0.003 A 
ATOM      6  C4  PXY d   1      -0.270   0.157   1.689  0.00  0.00    -0.082 A 
ATOM      7  C5  PXY d   1      -1.076   1.216   1.912  0.00  0.00     0.003 A 
ATOM      8  C6  PXY d   1      -1.306   2.122   0.881  0.00  0.00     0.003 A 
ENDROOT
TORSDOF 0
ENDMDL
