MODEL 1
REMARK minimizedAffinity -3.01411891
REMARK minimizedRMSD -1
REMARK  0 active torsions:
REMARK  status: ('A' for Active; 'I' for Inactive)
ROOT
ATOM      1  C4' PXY d   1      -1.381  -0.336   2.904  0.00  0.00     0.077 C 
ATOM      2  C1' PXY d   1       0.941   1.856  -1.914  0.00  0.00     0.077 C 
ATOM      3  C1  PXY d   1       0.325   1.292  -0.649  0.00  0.00    -0.082 A 
ATOM      4  C2  PXY d   1       0.968   0.356   0.030  0.00  0.00     0.003 A 
ATOM      5  C3  PXY d   1       0.410  -0.187   1.159  0.00  0.00     0.003 A 
ATOM      6  C4  PXY d   1      -0.793   0.269   1.627  0.00  0.00    -0.082 A 
ATOM      7  C5  PXY d   1      -1.450   1.231   0.945  0.00  0.00     0.003 A 
ATOM      8  C6  PXY d   1      -0.886   1.741  -0.221  0.00  0.00     0.003 A 
ENDROOT
TORSDOF 0
ENDMDL
