MODEL 1
REMARK minimizedAffinity -3.65172005
REMARK minimizedRMSD -1
REMARK  0 active torsions:
REMARK  status: ('A' for Active; 'I' for Inactive)
ROOT
ATOM      1  C4' PXY d   1      -2.222   2.351   1.128  0.00  0.00     0.077 C 
ATOM      2  C1' PXY d   1       1.489  -1.697  -0.680  0.00  0.00     0.077 C 
ATOM      3  C1  PXY d   1       0.521  -0.627  -0.214  0.00  0.00    -0.082 A 
ATOM      4  C2  PXY d   1       0.003  -0.697   1.001  0.00  0.00     0.003 A 
ATOM      5  C3  PXY d   1      -0.898   0.244   1.427  0.00  0.00     0.003 A 
ATOM      6  C4  PXY d   1      -1.233   1.298   0.619  0.00  0.00    -0.082 A 
ATOM      7  C5  PXY d   1      -0.701   1.383  -0.619  0.00  0.00     0.003 A 
ATOM      8  C6  PXY d   1       0.181   0.394  -1.047  0.00  0.00     0.003 A 
ENDROOT
TORSDOF 0
ENDMDL
