MODEL 1
REMARK minimizedAffinity -3.99050689
REMARK minimizedRMSD -1
REMARK  0 active torsions:
REMARK  status: ('A' for Active; 'I' for Inactive)
ROOT
ATOM      1  C   UNL d   1       1.714  -2.277   0.646  0.00  0.00     0.023 A 
ATOM      2  C1  UNL d   1       0.333  -2.477   0.613  0.00  0.00     0.003 A 
ATOM      3  C2  UNL d   1      -0.517  -1.430   0.251  0.00  0.00     0.048 A 
ATOM      4  C3  UNL d   1       0.020  -0.186  -0.078  0.00  0.00     0.023 A 
ATOM      5  C4  UNL d   1       1.400   0.019  -0.048  0.00  0.00     0.048 A 
ATOM      6  C5  UNL d   1       2.246  -1.030   0.316  0.00  0.00     0.003 A 
ATOM      7  I   UNL d   1      -1.244   1.374  -0.617  0.00  0.00    -0.146 I 
ENDROOT
TORSDOF 0
ENDMDL
