MODEL 1
REMARK minimizedAffinity -3.76879835
REMARK minimizedRMSD -1
REMARK  0 active torsions:
REMARK  status: ('A' for Active; 'I' for Inactive)
ROOT
ATOM      1  C   UNL d   1       1.994  -1.128   0.748  0.00  0.00     0.023 A 
ATOM      2  C1  UNL d   1       2.252  -0.069  -0.123  0.00  0.00     0.003 A 
ATOM      3  C2  UNL d   1       1.199   0.570  -0.779  0.00  0.00     0.048 A 
ATOM      4  C3  UNL d   1      -0.112   0.148  -0.558  0.00  0.00     0.023 A 
ATOM      5  C4  UNL d   1      -0.375  -0.910   0.313  0.00  0.00     0.048 A 
ATOM      6  C5  UNL d   1       0.681  -1.548   0.966  0.00  0.00     0.003 A 
ATOM      7  I   UNL d   1      -1.682   1.098  -1.533  0.00  0.00    -0.146 I 
ENDROOT
TORSDOF 0
ENDMDL
