MODEL 1
REMARK minimizedAffinity -2.82730007
REMARK minimizedRMSD -1
REMARK  0 active torsions:
REMARK  status: ('A' for Active; 'I' for Inactive)
ROOT
ATOM      1  C   UNL d   1       1.496  -2.271   0.975  0.00  0.00     0.023 A 
ATOM      2  C1  UNL d   1       2.044  -0.994   0.852  0.00  0.00     0.003 A 
ATOM      3  C2  UNL d   1       1.281   0.047   0.320  0.00  0.00     0.048 A 
ATOM      4  C3  UNL d   1      -0.031  -0.195  -0.086  0.00  0.00     0.023 A 
ATOM      5  C4  UNL d   1      -0.584  -1.470   0.036  0.00  0.00     0.048 A 
ATOM      6  C5  UNL d   1       0.183  -2.508   0.568  0.00  0.00     0.003 A 
ATOM      7  I   UNL d   1      -1.169   1.353  -0.878  0.00  0.00    -0.146 I 
ENDROOT
TORSDOF 0
ENDMDL
