MODEL 1
REMARK minimizedAffinity -0.500108182
REMARK minimizedRMSD -1
REMARK  0 active torsions:
REMARK  status: ('A' for Active; 'I' for Inactive)
ROOT
ATOM      1  C   UNL d   1      -1.105   1.178   0.208  0.00  0.00     0.023 A 
ATOM      2  C1  UNL d   1       0.030   1.141  -0.602  0.00  0.00     0.003 A 
ATOM      3  C2  UNL d   1       0.896   0.047  -0.542  0.00  0.00     0.048 A 
ATOM      4  C3  UNL d   1       0.621  -1.006   0.329  0.00  0.00     0.023 A 
ATOM      5  C4  UNL d   1      -0.514  -0.974   1.141  0.00  0.00     0.048 A 
ATOM      6  C5  UNL d   1      -1.377   0.122   1.078  0.00  0.00     0.003 A 
ATOM      7  I   UNL d   1       1.909  -2.635   0.419  0.00  0.00    -0.146 I 
ENDROOT
TORSDOF 0
ENDMDL
