MODEL 1
REMARK minimizedAffinity -4.52595854
REMARK minimizedRMSD -1
REMARK  0 active torsions:
REMARK  status: ('A' for Active; 'I' for Inactive)
ROOT
ATOM      1  C   UNL d   1       1.520  -2.043   1.127  0.00  0.00     0.023 A 
ATOM      2  C1  UNL d   1       2.143  -0.998   0.444  0.00  0.00     0.003 A 
ATOM      3  C2  UNL d   1       1.374  -0.026  -0.198  0.00  0.00     0.048 A 
ATOM      4  C3  UNL d   1      -0.018  -0.104  -0.153  0.00  0.00     0.023 A 
ATOM      5  C4  UNL d   1      -0.645  -1.147   0.530  0.00  0.00     0.048 A 
ATOM      6  C5  UNL d   1       0.128  -2.117   1.170  0.00  0.00     0.003 A 
ATOM      7  I   UNL d   1      -1.165   1.343  -1.108  0.00  0.00    -0.146 I 
ENDROOT
TORSDOF 0
ENDMDL
