MODEL 1
REMARK minimizedAffinity -3.92193174
REMARK minimizedRMSD -1
REMARK  0 active torsions:
REMARK  status: ('A' for Active; 'I' for Inactive)
ROOT
ATOM      1  C   UNL d   1       1.878  -2.506   0.940  0.00  0.00     0.023 A 
ATOM      2  C1  UNL d   1       0.493  -2.607   1.072  0.00  0.00     0.003 A 
ATOM      3  C2  UNL d   1      -0.324  -1.533   0.713  0.00  0.00     0.048 A 
ATOM      4  C3  UNL d   1       0.250  -0.361   0.223  0.00  0.00     0.023 A 
ATOM      5  C4  UNL d   1       1.636  -0.256   0.088  0.00  0.00     0.048 A 
ATOM      6  C5  UNL d   1       2.448  -1.332   0.449  0.00  0.00     0.003 A 
ATOM      7  I   UNL d   1      -0.964   1.239  -0.312  0.00  0.00    -0.146 I 
ENDROOT
TORSDOF 0
ENDMDL
