MODEL 1
REMARK minimizedAffinity -3.91423225
REMARK minimizedRMSD -1
REMARK  0 active torsions:
REMARK  status: ('A' for Active; 'I' for Inactive)
ROOT
ATOM      1  C   UNL d   1       1.791  -1.633   0.761  0.00  0.00     0.023 A 
ATOM      2  C1  UNL d   1       2.304  -0.618  -0.046  0.00  0.00     0.003 A 
ATOM      3  C2  UNL d   1       1.463   0.390  -0.522  0.00  0.00     0.048 A 
ATOM      4  C3  UNL d   1       0.110   0.377  -0.187  0.00  0.00     0.023 A 
ATOM      5  C4  UNL d   1      -0.408  -0.637   0.621  0.00  0.00     0.048 A 
ATOM      6  C5  UNL d   1       0.436  -1.643   1.094  0.00  0.00     0.003 A 
ATOM      7  I   UNL d   1      -1.144   1.876  -0.894  0.00  0.00    -0.146 I 
ENDROOT
TORSDOF 0
ENDMDL
