MODEL 1
REMARK minimizedAffinity -2.69669628
REMARK minimizedRMSD -1
REMARK  0 active torsions:
REMARK  status: ('A' for Active; 'I' for Inactive)
ROOT
ATOM      1  C   UNL d   1       1.363  -2.051   1.047  0.00  0.00     0.023 A 
ATOM      2  C1  UNL d   1       2.006  -1.147   0.202  0.00  0.00     0.003 A 
ATOM      3  C2  UNL d   1       1.280  -0.123  -0.409  0.00  0.00     0.048 A 
ATOM      4  C3  UNL d   1      -0.089  -0.008  -0.169  0.00  0.00     0.023 A 
ATOM      5  C4  UNL d   1      -0.736  -0.910   0.676  0.00  0.00     0.048 A 
ATOM      6  C5  UNL d   1      -0.006  -1.933   1.284  0.00  0.00     0.003 A 
ATOM      7  I   UNL d   1      -1.172   1.516  -1.077  0.00  0.00    -0.146 I 
ENDROOT
TORSDOF 0
ENDMDL
