MODEL 1
REMARK minimizedAffinity -3.35755157
REMARK minimizedRMSD -1
REMARK  0 active torsions:
REMARK  status: ('A' for Active; 'I' for Inactive)
ROOT
ATOM      1  C   UNL d   1       1.489  -2.272   0.741  0.00  0.00     0.023 A 
ATOM      2  C1  UNL d   1       2.099  -1.285  -0.034  0.00  0.00     0.003 A 
ATOM      3  C2  UNL d   1       1.353  -0.198  -0.495  0.00  0.00     0.048 A 
ATOM      4  C3  UNL d   1      -0.001  -0.104  -0.176  0.00  0.00     0.023 A 
ATOM      5  C4  UNL d   1      -0.615  -1.088   0.600  0.00  0.00     0.048 A 
ATOM      6  C5  UNL d   1       0.134  -2.174   1.057  0.00  0.00     0.003 A 
ATOM      7  I   UNL d   1      -1.112   1.514  -0.860  0.00  0.00    -0.146 I 
ENDROOT
TORSDOF 0
ENDMDL
