MODEL 1
REMARK minimizedAffinity -3.2044735
REMARK minimizedRMSD -1
REMARK  0 active torsions:
REMARK  status: ('A' for Active; 'I' for Inactive)
ROOT
ATOM      1  C   UNL d   1      -0.507   1.457  -0.564  0.00  0.00     0.023 A 
ATOM      2  C1  UNL d   1      -1.156   0.575   0.300  0.00  0.00     0.003 A 
ATOM      3  C2  UNL d   1      -0.527  -0.608   0.695  0.00  0.00     0.048 A 
ATOM      4  C3  UNL d   1       0.751  -0.902   0.223  0.00  0.00     0.023 A 
ATOM      5  C4  UNL d   1       1.405  -0.022  -0.642  0.00  0.00     0.048 A 
ATOM      6  C5  UNL d   1       0.772   1.159  -1.035  0.00  0.00     0.003 A 
ATOM      7  I   UNL d   1       1.690  -2.661   0.809  0.00  0.00    -0.146 I 
ENDROOT
TORSDOF 0
ENDMDL
