MODEL 1
REMARK minimizedAffinity -4.39428854
REMARK minimizedRMSD -1
REMARK  0 active torsions:
REMARK  status: ('A' for Active; 'I' for Inactive)
ROOT
ATOM      1  C   UNL d   1       2.067  -2.300  -0.318  0.00  0.00     0.023 A 
ATOM      2  C1  UNL d   1       2.312  -0.995  -0.745  0.00  0.00     0.003 A 
ATOM      3  C2  UNL d   1       1.364   0.005  -0.520  0.00  0.00     0.048 A 
ATOM      4  C3  UNL d   1       0.172  -0.308   0.133  0.00  0.00     0.023 A 
ATOM      5  C4  UNL d   1      -0.078  -1.612   0.562  0.00  0.00     0.048 A 
ATOM      6  C5  UNL d   1       0.873  -2.608   0.335  0.00  0.00     0.003 A 
ATOM      7  I   UNL d   1      -1.242   1.179   0.468  0.00  0.00    -0.146 I 
ENDROOT
TORSDOF 0
ENDMDL
