MODEL 1
REMARK minimizedAffinity -5.11611128
REMARK minimizedRMSD -1
REMARK  0 active torsions:
REMARK  status: ('A' for Active; 'I' for Inactive)
ROOT
ATOM      1  C   UNL d   1       1.492  -2.361   0.752  0.00  0.00     0.023 A 
ATOM      2  C1  UNL d   1       0.161  -2.267   1.158  0.00  0.00     0.003 A 
ATOM      3  C2  UNL d   1      -0.638  -1.218   0.699  0.00  0.00     0.048 A 
ATOM      4  C3  UNL d   1      -0.100  -0.267  -0.167  0.00  0.00     0.023 A 
ATOM      5  C4  UNL d   1       1.231  -0.358  -0.577  0.00  0.00     0.048 A 
ATOM      6  C5  UNL d   1       2.026  -1.408  -0.115  0.00  0.00     0.003 A 
ATOM      7  I   UNL d   1      -1.287   1.296  -0.852  0.00  0.00    -0.146 I 
ENDROOT
TORSDOF 0
ENDMDL
