MODEL 1
REMARK minimizedAffinity -3.45720124
REMARK minimizedRMSD -1
REMARK  0 active torsions:
REMARK  status: ('A' for Active; 'I' for Inactive)
ROOT
ATOM      1  C   UNL d   1       1.918  -2.439   1.090  0.00  0.00     0.023 A 
ATOM      2  C1  UNL d   1       0.566  -2.740   0.924  0.00  0.00     0.003 A 
ATOM      3  C2  UNL d   1      -0.304  -1.781   0.400  0.00  0.00     0.048 A 
ATOM      4  C3  UNL d   1       0.185  -0.525   0.044  0.00  0.00     0.023 A 
ATOM      5  C4  UNL d   1       1.537  -0.220   0.208  0.00  0.00     0.048 A 
ATOM      6  C5  UNL d   1       2.403  -1.181   0.733  0.00  0.00     0.003 A 
ATOM      7  I   UNL d   1      -1.108   0.904  -0.736  0.00  0.00    -0.146 I 
ENDROOT
TORSDOF 0
ENDMDL
