MODEL 1
REMARK minimizedAffinity 0.283266693
REMARK minimizedRMSD -1
REMARK  0 active torsions:
REMARK  status: ('A' for Active; 'I' for Inactive)
ROOT
ATOM      1  C   UNL d   1      -1.132   1.104   0.416  0.00  0.00     0.023 A 
ATOM      2  C1  UNL d   1       0.046   0.984  -0.322  0.00  0.00     0.003 A 
ATOM      3  C2  UNL d   1       0.985   0.006   0.013  0.00  0.00     0.048 A 
ATOM      4  C3  UNL d   1       0.739  -0.849   1.086  0.00  0.00     0.023 A 
ATOM      5  C4  UNL d   1      -0.438  -0.734   1.827  0.00  0.00     0.048 A 
ATOM      6  C5  UNL d   1      -1.374   0.246   1.489  0.00  0.00     0.003 A 
ATOM      7  I   UNL d   1       2.135  -2.305   1.587  0.00  0.00    -0.146 I 
ENDROOT
TORSDOF 0
ENDMDL
