MODEL 1
REMARK minimizedAffinity -3.19275737
REMARK minimizedRMSD -1
REMARK  0 active torsions:
REMARK  status: ('A' for Active; 'I' for Inactive)
ROOT
ATOM      1  C   UNL d   1       1.863  -1.550   0.919  0.00  0.00     0.023 A 
ATOM      2  C1  UNL d   1       0.496  -1.684   1.164  0.00  0.00     0.003 A 
ATOM      3  C2  UNL d   1      -0.411  -0.807   0.564  0.00  0.00     0.048 A 
ATOM      4  C3  UNL d   1       0.056   0.200  -0.280  0.00  0.00     0.023 A 
ATOM      5  C4  UNL d   1       1.423   0.336  -0.528  0.00  0.00     0.048 A 
ATOM      6  C5  UNL d   1       2.326  -0.542   0.074  0.00  0.00     0.003 A 
ATOM      7  I   UNL d   1      -1.292   1.505  -1.174  0.00  0.00    -0.146 I 
ENDROOT
TORSDOF 0
ENDMDL
