MODEL 1
REMARK minimizedAffinity -1.81757081
REMARK minimizedRMSD -1
REMARK  0 active torsions:
REMARK  status: ('A' for Active; 'I' for Inactive)
ROOT
ATOM      1  C   UNL d   1      -0.684   1.207  -0.460  0.00  0.00     0.023 A 
ATOM      2  C1  UNL d   1      -1.207   0.417   0.565  0.00  0.00     0.003 A 
ATOM      3  C2  UNL d   1      -0.498  -0.695   1.022  0.00  0.00     0.048 A 
ATOM      4  C3  UNL d   1       0.734  -1.012   0.451  0.00  0.00     0.023 A 
ATOM      5  C4  UNL d   1       1.262  -0.224  -0.573  0.00  0.00     0.048 A 
ATOM      6  C5  UNL d   1       0.549   0.886  -1.028  0.00  0.00     0.003 A 
ATOM      7  I   UNL d   1       1.792  -2.667   1.130  0.00  0.00    -0.146 I 
ENDROOT
TORSDOF 0
ENDMDL
