MODEL 1
REMARK minimizedAffinity 5.41461992
REMARK minimizedRMSD -1
REMARK  0 active torsions:
REMARK  status: ('A' for Active; 'I' for Inactive)
ROOT
ATOM      1  C   UNL d   1      -3.485   1.005   2.654  0.00  0.00     0.172 C 
ATOM      2  N   UNL d   1      -2.292   0.192   2.670  0.00  0.00    -0.070 N 
ATOM      3  C1  UNL d   1      -1.878  -0.639   1.663  0.00  0.00    -0.004 A 
ATOM      4  C2  UNL d   1      -0.701  -1.233   2.062  0.00  0.00    -0.047 A 
ATOM      5  C3  UNL d   1      -0.396  -0.743   3.354  0.00  0.00    -0.047 A 
ATOM      6  C4  UNL d   1      -1.397   0.137   3.706  0.00  0.00    -0.004 A 
ENDROOT
TORSDOF 0
ENDMDL
