MODEL 1
REMARK minimizedAffinity 6.47195721
REMARK minimizedRMSD -1
REMARK  0 active torsions:
REMARK  status: ('A' for Active; 'I' for Inactive)
ROOT
ATOM      1  C   UNL d   1       3.653  -3.420   2.850  0.00  0.00     0.172 C 
ATOM      2  N   UNL d   1       2.350  -2.899   2.510  0.00  0.00    -0.070 N 
ATOM      3  C1  UNL d   1       1.850  -1.685   2.899  0.00  0.00    -0.004 A 
ATOM      4  C2  UNL d   1       0.582  -1.562   2.372  0.00  0.00    -0.047 A 
ATOM      5  C3  UNL d   1       0.311  -2.743   1.641  0.00  0.00    -0.047 A 
ATOM      6  C4  UNL d   1       1.422  -3.554   1.744  0.00  0.00    -0.004 A 
ENDROOT
TORSDOF 0
ENDMDL
