MODEL 1
REMARK minimizedAffinity 1.46866298
REMARK minimizedRMSD -1
REMARK  0 active torsions:
REMARK  status: ('A' for Active; 'I' for Inactive)
ROOT
ATOM      1  C   UNL d   1       2.542  -4.925   1.766  0.00  0.00     0.172 C 
ATOM      2  N   UNL d   1       1.800  -3.687   1.787  0.00  0.00    -0.070 N 
ATOM      3  C1  UNL d   1       2.124  -2.550   1.095  0.00  0.00    -0.004 A 
ATOM      4  C2  UNL d   1       1.170  -1.597   1.380  0.00  0.00    -0.047 A 
ATOM      5  C3  UNL d   1       0.242  -2.180   2.275  0.00  0.00    -0.047 A 
ATOM      6  C4  UNL d   1       0.656  -3.474   2.510  0.00  0.00    -0.004 A 
ENDROOT
TORSDOF 0
ENDMDL
