MODEL 1
REMARK minimizedAffinity 5.60591793
REMARK minimizedRMSD -1
REMARK  0 active torsions:
REMARK  status: ('A' for Active; 'I' for Inactive)
ROOT
ATOM      1  C   UNL d   1       2.351  -4.883   1.192  0.00  0.00     0.172 C 
ATOM      2  N   UNL d   1       1.891  -3.540   1.456  0.00  0.00    -0.070 N 
ATOM      3  C1  UNL d   1       1.711  -2.559   0.517  0.00  0.00    -0.004 A 
ATOM      4  C2  UNL d   1       1.264  -1.429   1.168  0.00  0.00    -0.047 A 
ATOM      5  C3  UNL d   1       1.174  -1.741   2.545  0.00  0.00    -0.047 A 
ATOM      6  C4  UNL d   1       1.568  -3.054   2.695  0.00  0.00    -0.004 A 
ENDROOT
TORSDOF 0
ENDMDL
