MODEL 1
REMARK minimizedAffinity 2.01045823
REMARK minimizedRMSD -1
REMARK  0 active torsions:
REMARK  status: ('A' for Active; 'I' for Inactive)
ROOT
ATOM      1  C   UNL d   1       5.999   2.113   2.290  0.00  0.00     0.172 C 
ATOM      2  N   UNL d   1       5.997   1.187   1.182  0.00  0.00    -0.070 N 
ATOM      3  C1  UNL d   1       5.992   1.529  -0.144  0.00  0.00    -0.004 A 
ATOM      4  C2  UNL d   1       5.993   0.364  -0.880  0.00  0.00    -0.047 A 
ATOM      5  C3  UNL d   1       5.997  -0.715   0.035  0.00  0.00    -0.047 A 
ATOM      6  C4  UNL d   1       6.000  -0.177   1.305  0.00  0.00    -0.004 A 
ENDROOT
TORSDOF 0
ENDMDL
