MODEL 1
REMARK minimizedAffinity 3.60907102
REMARK minimizedRMSD -1
REMARK  0 active torsions:
REMARK  status: ('A' for Active; 'I' for Inactive)
ROOT
ATOM      1  C   UNL d   1      -0.475  -1.319   3.038  0.00  0.00     0.172 C 
ATOM      2  N   UNL d   1      -1.571  -0.889   2.203  0.00  0.00    -0.070 N 
ATOM      3  C1  UNL d   1      -2.547   0.002   2.563  0.00  0.00    -0.004 A 
ATOM      4  C2  UNL d   1      -3.403   0.145   1.492  0.00  0.00    -0.047 A 
ATOM      5  C3  UNL d   1      -2.926  -0.689   0.453  0.00  0.00    -0.047 A 
ATOM      6  C4  UNL d   1      -1.791  -1.317   0.920  0.00  0.00    -0.004 A 
ENDROOT
TORSDOF 0
ENDMDL
