MODEL 1
REMARK minimizedAffinity 0.0313590989
REMARK minimizedRMSD -1
REMARK  0 active torsions:
REMARK  status: ('A' for Active; 'I' for Inactive)
ROOT
ATOM      1  C   UNL d   1       5.996   0.001   0.715  0.00  0.00     0.172 C 
ATOM      2  N   UNL d   1       5.357   1.162   1.288  0.00  0.00    -0.070 N 
ATOM      3  C1  UNL d   1       5.998   2.208   1.896  0.00  0.00    -0.004 A 
ATOM      4  C2  UNL d   1       5.041   3.110   2.306  0.00  0.00    -0.047 A 
ATOM      5  C3  UNL d   1       3.779   2.587   1.933  0.00  0.00    -0.047 A 
ATOM      6  C4  UNL d   1       4.004   1.381   1.305  0.00  0.00    -0.004 A 
ENDROOT
TORSDOF 0
ENDMDL
