MODEL 1
REMARK minimizedAffinity -2.44761109
REMARK minimizedRMSD -1
REMARK  0 active torsions:
REMARK  status: ('A' for Active; 'I' for Inactive)
ROOT
ATOM      1  C   UNL d   1       3.035  -4.467   2.751  0.00  0.00     0.172 C 
ATOM      2  N   UNL d   1       3.687  -4.742   4.009  0.00  0.00    -0.070 N 
ATOM      3  C1  UNL d   1       4.057  -5.980   4.464  0.00  0.00    -0.004 A 
ATOM      4  C2  UNL d   1       4.646  -5.818   5.698  0.00  0.00    -0.047 A 
ATOM      5  C3  UNL d   1       4.630  -4.434   5.997  0.00  0.00    -0.047 A 
ATOM      6  C4  UNL d   1       4.031  -3.792   4.934  0.00  0.00    -0.004 A 
ENDROOT
TORSDOF 0
ENDMDL
