MODEL 1
REMARK minimizedAffinity 1.20189357
REMARK minimizedRMSD -1
REMARK  0 active torsions:
REMARK  status: ('A' for Active; 'I' for Inactive)
ROOT
ATOM      1  C   UNL d   1       5.994  -0.577  -0.422  0.00  0.00     0.172 C 
ATOM      2  N   UNL d   1       5.996  -0.363  -1.850  0.00  0.00    -0.070 N 
ATOM      3  C1  UNL d   1       5.996   0.855  -2.475  0.00  0.00    -0.004 A 
ATOM      4  C2  UNL d   1       5.999   0.632  -3.835  0.00  0.00    -0.047 A 
ATOM      5  C3  UNL d   1       6.000  -0.769  -4.034  0.00  0.00    -0.047 A 
ATOM      6  C4  UNL d   1       5.998  -1.361  -2.789  0.00  0.00    -0.004 A 
ENDROOT
TORSDOF 0
ENDMDL
