MODEL 1
REMARK minimizedAffinity 0.554718137
REMARK minimizedRMSD -1
REMARK  0 active torsions:
REMARK  status: ('A' for Active; 'I' for Inactive)
ROOT
ATOM      1  C   UNL d   1       0.190  -1.506   3.262  0.00  0.00     0.172 C 
ATOM      2  N   UNL d   1       1.217  -2.065   2.415  0.00  0.00    -0.070 N 
ATOM      3  C1  UNL d   1       1.249  -1.996   1.048  0.00  0.00    -0.004 A 
ATOM      4  C2  UNL d   1       2.386  -2.647   0.619  0.00  0.00    -0.047 A 
ATOM      5  C3  UNL d   1       3.059  -3.124   1.769  0.00  0.00    -0.047 A 
ATOM      6  C4  UNL d   1       2.314  -2.750   2.867  0.00  0.00    -0.004 A 
ENDROOT
TORSDOF 0
ENDMDL
