MODEL 1
REMARK minimizedAffinity 1.01910734
REMARK minimizedRMSD -1
REMARK  0 active torsions:
REMARK  status: ('A' for Active; 'I' for Inactive)
ROOT
ATOM      1  C   UNL d   1      -0.100  -1.460   3.238  0.00  0.00     0.172 C 
ATOM      2  N   UNL d   1       0.776  -2.081   2.273  0.00  0.00    -0.070 N 
ATOM      3  C1  UNL d   1       1.367  -3.310   2.405  0.00  0.00    -0.004 A 
ATOM      4  C2  UNL d   1       2.122  -3.538   1.275  0.00  0.00    -0.047 A 
ATOM      5  C3  UNL d   1       1.982  -2.407   0.435  0.00  0.00    -0.047 A 
ATOM      6  C4  UNL d   1       1.143  -1.521   1.078  0.00  0.00    -0.004 A 
ENDROOT
TORSDOF 0
ENDMDL
