MODEL 1
REMARK minimizedAffinity -0.586407423
REMARK minimizedRMSD -1
REMARK  0 active torsions:
REMARK  status: ('A' for Active; 'I' for Inactive)
ROOT
ATOM      1  C   UNL d   1       5.974  -0.709   0.191  0.00  0.00     0.172 C 
ATOM      2  N   UNL d   1       5.984   0.068  -1.027  0.00  0.00    -0.070 N 
ATOM      3  C1  UNL d   1       5.991   1.435  -1.101  0.00  0.00    -0.004 A 
ATOM      4  C2  UNL d   1       6.000   1.785  -2.434  0.00  0.00    -0.047 A 
ATOM      5  C3  UNL d   1       5.997   0.586  -3.187  0.00  0.00    -0.047 A 
ATOM      6  C4  UNL d   1       5.987  -0.462  -2.290  0.00  0.00    -0.004 A 
ENDROOT
TORSDOF 0
ENDMDL
