MODEL 1
REMARK minimizedAffinity -4.00124121
REMARK minimizedRMSD -1
REMARK  3 active torsions:
REMARK  status: ('A' for Active; 'I' for Inactive)
REMARK    1  A    between atoms: C3'_2  and  C2'_3 
REMARK    2  A    between atoms: C2'_3  and  C1'_4 
REMARK    3  A    between atoms: C1'_4  and  C1_5 
ROOT
ATOM      1  C1  N4B d   1       1.435   2.402  -1.107  0.00  0.00    -0.075 A 
ATOM      2  C2  N4B d   1       0.873   2.072   0.145  0.00  0.00     0.002 A 
ATOM      3  C3  N4B d   1       0.762   0.756   0.523  0.00  0.00     0.002 A 
ATOM      4  C4  N4B d   1       1.187  -0.243  -0.340  0.00  0.00    -0.004 A 
ATOM      5  C5  N4B d   1       1.752   0.085  -1.537  0.00  0.00     0.002 A 
ATOM      6  C6  N4B d   1       1.874   1.403  -1.928  0.00  0.00     0.002 A 
ENDROOT
BRANCH   1   7
ATOM      7  C1' N4B d   1       1.499   3.822  -1.600  0.00  0.00     0.057 C 
BRANCH   7   8
ATOM      8  C2' N4B d   1       1.352   4.770  -0.414  0.00  0.00     0.009 C 
BRANCH   8   9
ATOM      9  C3' N4B d   1       2.248   5.990  -0.547  0.00  0.00     0.004 C 
ATOM     10  C4' N4B d   1       3.030   5.999  -1.826  0.00  0.00     0.003 C 
ENDBRANCH   8   9
ENDBRANCH   7   8
ENDBRANCH   1   7
TORSDOF 3
ENDMDL
