MODEL 1
REMARK minimizedAffinity -1.14140677
REMARK minimizedRMSD -1
REMARK  3 active torsions:
REMARK  status: ('A' for Active; 'I' for Inactive)
REMARK    1  A    between atoms: C3'_2  and  C2'_3 
REMARK    2  A    between atoms: C2'_3  and  C1'_4 
REMARK    3  A    between atoms: C1'_4  and  C1_5 
ROOT
ATOM      1  C1  N4B d   1       1.245   2.035  -1.160  0.00  0.00    -0.075 A 
ATOM      2  C2  N4B d   1       0.981   0.740  -1.659  0.00  0.00     0.002 A 
ATOM      3  C3  N4B d   1       0.916  -0.327  -0.798  0.00  0.00     0.002 A 
ATOM      4  C4  N4B d   1       1.129  -0.129   0.558  0.00  0.00    -0.004 A 
ATOM      5  C5  N4B d   1       1.358   1.128   1.035  0.00  0.00     0.002 A 
ATOM      6  C6  N4B d   1       1.422   2.212   0.182  0.00  0.00     0.002 A 
ENDROOT
BRANCH   1   7
ATOM      7  C1' N4B d   1       1.410   3.219  -2.072  0.00  0.00     0.057 C 
BRANCH   7   8
ATOM      8  C2' N4B d   1       2.617   4.036  -1.620  0.00  0.00     0.009 C 
BRANCH   8   9
ATOM      9  C3' N4B d   1       2.286   5.511  -1.482  0.00  0.00     0.004 C 
ATOM     10  C4' N4B d   1       2.372   5.996  -0.065  0.00  0.00     0.003 C 
ENDBRANCH   8   9
ENDBRANCH   7   8
ENDBRANCH   1   7
TORSDOF 3
ENDMDL
