MODEL 1
REMARK minimizedAffinity -4.53853083
REMARK minimizedRMSD -1
REMARK  3 active torsions:
REMARK  status: ('A' for Active; 'I' for Inactive)
REMARK    1  A    between atoms: C3'_2  and  C2'_3 
REMARK    2  A    between atoms: C2'_3  and  C1'_4 
REMARK    3  A    between atoms: C1'_4  and  C1_5 
ROOT
ATOM      1  C1  N4B d   1       0.880   2.095   0.533  0.00  0.00    -0.075 A 
ATOM      2  C2  N4B d   1       1.293   3.219  -0.216  0.00  0.00     0.002 A 
ATOM      3  C3  N4B d   1       1.590   3.084  -1.550  0.00  0.00     0.002 A 
ATOM      4  C4  N4B d   1       1.499   1.837  -2.150  0.00  0.00    -0.004 A 
ATOM      5  C5  N4B d   1       1.076   0.761  -1.425  0.00  0.00     0.002 A 
ATOM      6  C6  N4B d   1       0.770   0.883  -0.085  0.00  0.00     0.002 A 
ENDROOT
BRANCH   1   7
ATOM      7  C1' N4B d   1       0.628   2.177   2.014  0.00  0.00     0.057 C 
BRANCH   7   8
ATOM      8  C2' N4B d   1       1.814   1.571   2.758  0.00  0.00     0.009 C 
BRANCH   8   9
ATOM      9  C3' N4B d   1       2.866   2.613   3.096  0.00  0.00     0.004 C 
ATOM     10  C4' N4B d   1       2.273   3.945   3.445  0.00  0.00     0.003 C 
ENDBRANCH   8   9
ENDBRANCH   7   8
ENDBRANCH   1   7
TORSDOF 3
ENDMDL
