MODEL 1
REMARK minimizedAffinity 3.10207772
REMARK minimizedRMSD -1
REMARK  3 active torsions:
REMARK  status: ('A' for Active; 'I' for Inactive)
REMARK    1  A    between atoms: C3'_2  and  C2'_3 
REMARK    2  A    between atoms: C2'_3  and  C1'_4 
REMARK    3  A    between atoms: C1'_4  and  C1_5 
ROOT
ATOM      1  C1  N4B d   1       1.123   1.625  -0.810  0.00  0.00    -0.075 A 
ATOM      2  C2  N4B d   1       1.119   0.244  -1.103  0.00  0.00     0.002 A 
ATOM      3  C3  N4B d   1       1.471  -0.664  -0.134  0.00  0.00     0.002 A 
ATOM      4  C4  N4B d   1       1.846  -0.215   1.123  0.00  0.00    -0.004 A 
ATOM      5  C5  N4B d   1       1.822   1.119   1.406  0.00  0.00     0.002 A 
ATOM      6  C6  N4B d   1       1.467   2.043   0.443  0.00  0.00     0.002 A 
ENDROOT
BRANCH   1   7
ATOM      7  C1' N4B d   1       0.829   2.661  -1.861  0.00  0.00     0.057 C 
BRANCH   7   8
ATOM      8  C2' N4B d   1       1.967   3.677  -1.895  0.00  0.00     0.009 C 
BRANCH   8   9
ATOM      9  C3' N4B d   1       1.609   4.956  -1.159  0.00  0.00     0.004 C 
ATOM     10  C4' N4B d   1       2.683   5.998  -1.249  0.00  0.00     0.003 C 
ENDBRANCH   8   9
ENDBRANCH   7   8
ENDBRANCH   1   7
TORSDOF 3
ENDMDL
