MODEL 1
REMARK minimizedAffinity -1.13128066
REMARK minimizedRMSD -1
REMARK  3 active torsions:
REMARK  status: ('A' for Active; 'I' for Inactive)
REMARK    1  A    between atoms: C3'_2  and  C2'_3 
REMARK    2  A    between atoms: C2'_3  and  C1'_4 
REMARK    3  A    between atoms: C1'_4  and  C1_5 
ROOT
ATOM      1  C1  N4B d   1       1.110   0.330  -1.527  0.00  0.00    -0.075 A 
ATOM      2  C2  N4B d   1       1.123   1.639  -2.058  0.00  0.00     0.002 A 
ATOM      3  C3  N4B d   1       1.140   2.722  -1.213  0.00  0.00     0.002 A 
ATOM      4  C4  N4B d   1       1.124   2.522   0.159  0.00  0.00    -0.004 A 
ATOM      5  C5  N4B d   1       1.138   1.255   0.663  0.00  0.00     0.002 A 
ATOM      6  C6  N4B d   1       1.125   0.157  -0.173  0.00  0.00     0.002 A 
ENDROOT
BRANCH   1   7
ATOM      7  C1' N4B d   1       1.006  -0.884  -2.410  0.00  0.00     0.057 C 
BRANCH   7   8
ATOM      8  C2' N4B d   1       1.500  -0.529  -3.809  0.00  0.00     0.009 C 
BRANCH   8   9
ATOM      9  C3' N4B d   1       2.077  -1.736  -4.530  0.00  0.00     0.004 C 
ATOM     10  C4' N4B d   1       2.259  -1.501  -6.000  0.00  0.00     0.003 C 
ENDBRANCH   8   9
ENDBRANCH   7   8
ENDBRANCH   1   7
TORSDOF 3
ENDMDL
