MODEL 1
REMARK minimizedAffinity -1.22964156
REMARK minimizedRMSD -1
REMARK  3 active torsions:
REMARK  status: ('A' for Active; 'I' for Inactive)
REMARK    1  A    between atoms: C3'_2  and  C2'_3 
REMARK    2  A    between atoms: C2'_3  and  C1'_4 
REMARK    3  A    between atoms: C1'_4  and  C1_5 
ROOT
ATOM      1  C1  N4B d   1       1.210   2.001  -0.268  0.00  0.00    -0.075 A 
ATOM      2  C2  N4B d   1       1.078   0.993   0.713  0.00  0.00     0.002 A 
ATOM      3  C3  N4B d   1       1.150  -0.330   0.352  0.00  0.00     0.002 A 
ATOM      4  C4  N4B d   1       1.334  -0.668  -0.980  0.00  0.00    -0.004 A 
ATOM      5  C5  N4B d   1       1.485   0.311  -1.918  0.00  0.00     0.002 A 
ATOM      6  C6  N4B d   1       1.419   1.645  -1.569  0.00  0.00     0.002 A 
ENDROOT
BRANCH   1   7
ATOM      7  C1' N4B d   1       1.052   3.459   0.066  0.00  0.00     0.057 C 
BRANCH   7   8
ATOM      8  C2' N4B d   1       1.255   4.287  -1.200  0.00  0.00     0.009 C 
BRANCH   8   9
ATOM      9  C3' N4B d   1       1.741   5.692  -0.888  0.00  0.00     0.004 C 
ATOM     10  C4' N4B d   1       3.070   5.998  -1.511  0.00  0.00     0.003 C 
ENDBRANCH   8   9
ENDBRANCH   7   8
ENDBRANCH   1   7
TORSDOF 3
ENDMDL
