MODEL 1
REMARK minimizedAffinity -1.69318569
REMARK minimizedRMSD -1
REMARK  3 active torsions:
REMARK  status: ('A' for Active; 'I' for Inactive)
REMARK    1  A    between atoms: C3'_2  and  C2'_3 
REMARK    2  A    between atoms: C2'_3  and  C1'_4 
REMARK    3  A    between atoms: C1'_4  and  C1_5 
ROOT
ATOM      1  C1  N4B d   1      -3.003   0.632   4.337  0.00  0.00    -0.075 A 
ATOM      2  C2  N4B d   1      -3.761  -0.400   3.741  0.00  0.00     0.002 A 
ATOM      3  C3  N4B d   1      -5.050  -0.157   3.334  0.00  0.00     0.002 A 
ATOM      4  C4  N4B d   1      -5.606   1.099   3.529  0.00  0.00    -0.004 A 
ATOM      5  C5  N4B d   1      -4.858   2.097   4.083  0.00  0.00     0.002 A 
ATOM      6  C6  N4B d   1      -3.560   1.868   4.493  0.00  0.00     0.002 A 
ENDROOT
BRANCH   1   7
ATOM      7  C1' N4B d   1      -1.619   0.391   4.876  0.00  0.00     0.057 C 
BRANCH   7   8
ATOM      8  C2' N4B d   1      -1.440  -1.101   5.145  0.00  0.00     0.009 C 
BRANCH   8   9
ATOM      9  C3' N4B d   1      -0.212  -1.381   5.994  0.00  0.00     0.004 C 
ATOM     10  C4' N4B d   1       0.765  -0.243   5.997  0.00  0.00     0.003 C 
ENDBRANCH   8   9
ENDBRANCH   7   8
ENDBRANCH   1   7
TORSDOF 3
ENDMDL
