MODEL 1
REMARK minimizedAffinity 1.15330064
REMARK minimizedRMSD -1
REMARK  1 active torsions:
REMARK  status: ('A' for Active; 'I' for Inactive)
REMARK    1  A    between atoms: C1_2  and  C2_3 
ROOT
ATOM      1  C2  UNL d   1      -0.483  -3.936   5.166  0.00  0.00    -0.073 A 
ATOM      2  C3  UNL d   1       0.726  -4.508   5.578  0.00  0.00    -0.002 A 
ATOM      3  C4  UNL d   1       1.890  -3.740   5.622  0.00  0.00     0.004 A 
ATOM      4  C5  UNL d   1       1.857  -2.393   5.262  0.00  0.00    -0.004 A 
ATOM      5  C6  UNL d   1       0.656  -1.801   4.858  0.00  0.00    -0.075 A 
ATOM      6  C7  UNL d   1       0.604  -0.353   4.465  0.00  0.00     0.076 C 
ATOM      7  C8  UNL d   1      -0.508  -2.579   4.814  0.00  0.00     0.001 A 
ENDROOT
BRANCH   1   8
ATOM      8  C1  UNL d   1      -1.744  -4.760   5.123  0.00  0.00     0.053 C 
ATOM      9  C   UNL d   1      -1.647  -5.998   6.000  0.00  0.00     0.018 C 
ENDBRANCH   1   8
TORSDOF 1
ENDMDL
