MODEL 1
REMARK minimizedAffinity -1.42602921
REMARK minimizedRMSD -1
REMARK  1 active torsions:
REMARK  status: ('A' for Active; 'I' for Inactive)
REMARK    1  A    between atoms: C1_2  and  C2_3 
ROOT
ATOM      1  C2  UNL d   1      -3.882   5.951   4.138  0.00  0.00    -0.073 A 
ATOM      2  C3  UNL d   1      -2.497   5.886   3.948  0.00  0.00    -0.002 A 
ATOM      3  C4  UNL d   1      -1.963   5.847   2.659  0.00  0.00     0.004 A 
ATOM      4  C5  UNL d   1      -2.807   5.880   1.549  0.00  0.00    -0.004 A 
ATOM      5  C6  UNL d   1      -4.193   5.956   1.718  0.00  0.00    -0.075 A 
ATOM      6  C7  UNL d   1      -5.114   5.990   0.534  0.00  0.00     0.076 C 
ATOM      7  C8  UNL d   1      -4.721   5.992   3.015  0.00  0.00     0.001 A 
ENDROOT
BRANCH   1   8
ATOM      8  C1  UNL d   1      -4.462   5.999   5.527  0.00  0.00     0.053 C 
ATOM      9  C   UNL d   1      -5.976   5.856   5.518  0.00  0.00     0.018 C 
ENDBRANCH   1   8
TORSDOF 1
ENDMDL
