MODEL 1
REMARK minimizedAffinity 10.2584906
REMARK minimizedRMSD -1
REMARK  1 active torsions:
REMARK  status: ('A' for Active; 'I' for Inactive)
REMARK    1  A    between atoms: C1_2  and  C2_3 
ROOT
ATOM      1  C2  UNL d   1       0.677  -3.342   4.566  0.00  0.00    -0.073 A 
ATOM      2  C3  UNL d   1       1.242  -3.998   5.666  0.00  0.00    -0.002 A 
ATOM      3  C4  UNL d   1       0.839  -5.291   5.999  0.00  0.00     0.004 A 
ATOM      4  C5  UNL d   1      -0.128  -5.944   5.235  0.00  0.00    -0.004 A 
ATOM      5  C6  UNL d   1      -0.696  -5.311   4.125  0.00  0.00    -0.075 A 
ATOM      6  C7  UNL d   1      -1.738  -5.999   3.293  0.00  0.00     0.076 C 
ATOM      7  C8  UNL d   1      -0.287  -4.011   3.798  0.00  0.00     0.001 A 
ENDROOT
BRANCH   1   8
ATOM      8  C1  UNL d   1       1.114  -1.948   4.198  0.00  0.00     0.053 C 
ATOM      9  C   UNL d   1       0.012  -1.172   3.494  0.00  0.00     0.018 C 
ENDBRANCH   1   8
TORSDOF 1
ENDMDL
