MODEL 1
REMARK minimizedAffinity 12.8285036
REMARK minimizedRMSD -1
REMARK  1 active torsions:
REMARK  status: ('A' for Active; 'I' for Inactive)
REMARK    1  A    between atoms: C1_2  and  C2_3 
ROOT
ATOM      1  C2  UNL d   1       2.558   2.558   1.573  0.00  0.00    -0.073 A 
ATOM      2  C3  UNL d   1       3.590   3.156   0.841  0.00  0.00    -0.002 A 
ATOM      3  C4  UNL d   1       4.116   2.520  -0.284  0.00  0.00     0.004 A 
ATOM      4  C5  UNL d   1       3.612   1.285  -0.692  0.00  0.00    -0.004 A 
ATOM      5  C6  UNL d   1       2.573   0.677   0.020  0.00  0.00    -0.075 A 
ATOM      6  C7  UNL d   1       2.021  -0.652  -0.405  0.00  0.00     0.076 C 
ATOM      7  C8  UNL d   1       2.052   1.321   1.150  0.00  0.00     0.001 A 
ENDROOT
BRANCH   1   8
ATOM      8  C1  UNL d   1       1.982   3.244   2.785  0.00  0.00     0.053 C 
ATOM      9  C   UNL d   1       1.393   2.252   3.776  0.00  0.00     0.018 C 
ENDBRANCH   1   8
TORSDOF 1
ENDMDL
