MODEL 1
REMARK minimizedAffinity 18.087265
REMARK minimizedRMSD -1
REMARK  0 active torsions:
REMARK  status: ('A' for Active; 'I' for Inactive)
ROOT
ATOM      1  C   UNL d   1      -4.142   1.401   0.942  0.00  0.00     0.124 A 
ATOM      2  C1  UNL d   1      -4.404   2.234  -0.137  0.00  0.00     0.062 A 
ATOM      3  C2  UNL d   1      -4.814   3.547   0.076  0.00  0.00     0.162 A 
ATOM      4  C3  UNL d   1      -4.962   4.037   1.373  0.00  0.00    -0.034 A 
ATOM      5  C4  UNL d   1      -4.697   3.193   2.454  0.00  0.00     0.162 A 
ATOM      6  C5  UNL d   1      -4.289   1.882   2.236  0.00  0.00     0.062 A 
ATOM      7  F   UNL d   1      -4.036   1.079   3.280  0.00  0.00    -0.097 F 
ATOM      8  F1  UNL d   1      -4.830   3.632   3.714  0.00  0.00    -0.096 F 
ATOM      9  I   UNL d   1      -5.574   6.000   1.695  0.00  0.00    -0.060 I 
ATOM     10  F2  UNL d   1      -5.060   4.329  -0.986  0.00  0.00    -0.096 F 
ATOM     11  F3  UNL d   1      -4.264   1.772  -1.388  0.00  0.00    -0.097 F 
ATOM     12  F4  UNL d   1      -3.749   0.138   0.735  0.00  0.00    -0.092 F 
ENDROOT
TORSDOF 0
ENDMDL
