MODEL 1
REMARK minimizedAffinity 19.336422
REMARK minimizedRMSD -1
REMARK  0 active torsions:
REMARK  status: ('A' for Active; 'I' for Inactive)
ROOT
ATOM      1  C   UNL d   1       3.680   1.457   0.007  0.00  0.00     0.124 A 
ATOM      2  C1  UNL d   1       2.686   0.696   0.607  0.00  0.00     0.062 A 
ATOM      3  C2  UNL d   1       2.401   0.857   1.960  0.00  0.00     0.162 A 
ATOM      4  C3  UNL d   1       3.111   1.784   2.723  0.00  0.00    -0.034 A 
ATOM      5  C4  UNL d   1       4.110   2.545   2.113  0.00  0.00     0.162 A 
ATOM      6  C5  UNL d   1       4.391   2.380   0.761  0.00  0.00     0.062 A 
ATOM      7  F   UNL d   1       5.352   3.116   0.183  0.00  0.00    -0.097 F 
ATOM      8  F1  UNL d   1       4.813   3.445   2.817  0.00  0.00    -0.096 F 
ATOM      9  I   UNL d   1       2.689   2.028   4.746  0.00  0.00    -0.060 I 
ATOM     10  F2  UNL d   1       1.435   0.109   2.513  0.00  0.00    -0.096 F 
ATOM     11  F3  UNL d   1       1.998  -0.197  -0.119  0.00  0.00    -0.097 F 
ATOM     12  F4  UNL d   1       3.952   1.299  -1.295  0.00  0.00    -0.092 F 
ENDROOT
TORSDOF 0
ENDMDL
