MODEL 1
REMARK minimizedAffinity 14.7928095
REMARK minimizedRMSD -1
REMARK  0 active torsions:
REMARK  status: ('A' for Active; 'I' for Inactive)
ROOT
ATOM      1  C   UNL d   1      -4.315   0.302  -0.532  0.00  0.00     0.124 A 
ATOM      2  C1  UNL d   1      -3.768   1.019   0.523  0.00  0.00     0.062 A 
ATOM      3  C2  UNL d   1      -2.434   1.415   0.483  0.00  0.00     0.162 A 
ATOM      4  C3  UNL d   1      -1.638   1.095  -0.616  0.00  0.00    -0.034 A 
ATOM      5  C4  UNL d   1      -2.195   0.372  -1.673  0.00  0.00     0.162 A 
ATOM      6  C5  UNL d   1      -3.528  -0.021  -1.628  0.00  0.00     0.062 A 
ATOM      7  F   UNL d   1      -4.055  -0.714  -2.648  0.00  0.00    -0.097 F 
ATOM      8  F1  UNL d   1      -1.457   0.047  -2.745  0.00  0.00    -0.096 F 
ATOM      9  I   UNL d   1       0.357   1.684  -0.679  0.00  0.00    -0.060 I 
ATOM     10  F2  UNL d   1      -1.932   2.107   1.516  0.00  0.00    -0.096 F 
ATOM     11  F3  UNL d   1      -4.526   1.331   1.584  0.00  0.00    -0.097 F 
ATOM     12  F4  UNL d   1      -5.599  -0.079  -0.491  0.00  0.00    -0.092 F 
ENDROOT
TORSDOF 0
ENDMDL
