MODEL 1
REMARK minimizedAffinity 6.05858564
REMARK minimizedRMSD -1
REMARK  0 active torsions:
REMARK  status: ('A' for Active; 'I' for Inactive)
ROOT
ATOM      1  C   UNL d   1       2.897   0.130  -0.112  0.00  0.00     0.124 A 
ATOM      2  C1  UNL d   1       1.778   0.582  -0.799  0.00  0.00     0.062 A 
ATOM      3  C2  UNL d   1       0.831  -0.324  -1.267  0.00  0.00     0.162 A 
ATOM      4  C3  UNL d   1       0.998  -1.692  -1.050  0.00  0.00    -0.034 A 
ATOM      5  C4  UNL d   1       2.126  -2.139  -0.360  0.00  0.00     0.162 A 
ATOM      6  C5  UNL d   1       3.070  -1.230   0.106  0.00  0.00     0.062 A 
ATOM      7  F   UNL d   1       4.150  -1.668   0.769  0.00  0.00    -0.097 F 
ATOM      8  F1  UNL d   1       2.317  -3.447  -0.134  0.00  0.00    -0.096 F 
ATOM      9  I   UNL d   1      -0.416  -3.050  -1.750  0.00  0.00    -0.060 I 
ATOM     10  F2  UNL d   1      -0.240   0.141  -1.928  0.00  0.00    -0.096 F 
ATOM     11  F3  UNL d   1       1.610   1.895  -1.012  0.00  0.00    -0.097 F 
ATOM     12  F4  UNL d   1       3.807   1.003   0.337  0.00  0.00    -0.092 F 
ENDROOT
TORSDOF 0
ENDMDL
