MODEL 1
REMARK minimizedAffinity 13.2631664
REMARK minimizedRMSD -1
REMARK  0 active torsions:
REMARK  status: ('A' for Active; 'I' for Inactive)
ROOT
ATOM      1  C   UNL d   1      -4.372   1.229   0.084  0.00  0.00     0.124 A 
ATOM      2  C1  UNL d   1      -3.576   1.130   1.217  0.00  0.00     0.062 A 
ATOM      3  C2  UNL d   1      -2.192   1.058   1.096  0.00  0.00     0.162 A 
ATOM      4  C3  UNL d   1      -1.593   1.086  -0.163  0.00  0.00    -0.034 A 
ATOM      5  C4  UNL d   1      -2.399   1.185  -1.298  0.00  0.00     0.162 A 
ATOM      6  C5  UNL d   1      -3.783   1.257  -1.172  0.00  0.00     0.062 A 
ATOM      7  F   UNL d   1      -4.550   1.353  -2.268  0.00  0.00    -0.097 F 
ATOM      8  F1  UNL d   1      -1.856   1.215  -2.524  0.00  0.00    -0.096 F 
ATOM      9  I   UNL d   1       0.477   0.979  -0.348  0.00  0.00    -0.060 I 
ATOM     10  F2  UNL d   1      -1.448   0.963   2.208  0.00  0.00    -0.096 F 
ATOM     11  F3  UNL d   1      -4.143   1.102   2.432  0.00  0.00    -0.097 F 
ATOM     12  F4  UNL d   1      -5.704   1.297   0.203  0.00  0.00    -0.092 F 
ENDROOT
TORSDOF 0
ENDMDL
