MODEL 1
REMARK minimizedAffinity 12.4392138
REMARK minimizedRMSD -1
REMARK  0 active torsions:
REMARK  status: ('A' for Active; 'I' for Inactive)
ROOT
ATOM      1  C   UNL d   1       1.911   0.704   3.900  0.00  0.00     0.124 A 
ATOM      2  C1  UNL d   1       2.684   1.148   4.964  0.00  0.00     0.062 A 
ATOM      3  C2  UNL d   1       3.208   2.437   4.958  0.00  0.00     0.162 A 
ATOM      4  C3  UNL d   1       2.960   3.293   3.885  0.00  0.00    -0.034 A 
ATOM      5  C4  UNL d   1       2.183   2.839   2.818  0.00  0.00     0.162 A 
ATOM      6  C5  UNL d   1       1.661   1.549   2.829  0.00  0.00     0.062 A 
ATOM      7  F   UNL d   1       0.915   1.122   1.800  0.00  0.00    -0.097 F 
ATOM      8  F1  UNL d   1       1.925   3.636   1.771  0.00  0.00    -0.096 F 
ATOM      9  I   UNL d   1       3.742   5.222   3.873  0.00  0.00    -0.060 I 
ATOM     10  F2  UNL d   1       3.952   2.839   6.000  0.00  0.00    -0.096 F 
ATOM     11  F3  UNL d   1       2.928   0.332   6.000  0.00  0.00    -0.097 F 
ATOM     12  F4  UNL d   1       1.409  -0.538   3.907  0.00  0.00    -0.092 F 
ENDROOT
TORSDOF 0
ENDMDL
