MODEL 1
REMARK minimizedAffinity 6.1320219
REMARK minimizedRMSD -1
REMARK  0 active torsions:
REMARK  status: ('A' for Active; 'I' for Inactive)
ROOT
ATOM      1  C   UNL d   1      -1.854   3.689   4.190  0.00  0.00     0.124 A 
ATOM      2  C1  UNL d   1      -1.084   2.992   3.270  0.00  0.00     0.062 A 
ATOM      3  C2  UNL d   1      -1.696   2.212   2.293  0.00  0.00     0.162 A 
ATOM      4  C3  UNL d   1      -3.087   2.126   2.231  0.00  0.00    -0.034 A 
ATOM      5  C4  UNL d   1      -3.855   2.829   3.161  0.00  0.00     0.162 A 
ATOM      6  C5  UNL d   1      -3.238   3.607   4.135  0.00  0.00     0.062 A 
ATOM      7  F   UNL d   1      -3.983   4.280   5.024  0.00  0.00    -0.097 F 
ATOM      8  F1  UNL d   1      -5.194   2.769   3.130  0.00  0.00    -0.096 F 
ATOM      9  I   UNL d   1      -4.007   0.961   0.772  0.00  0.00    -0.060 I 
ATOM     10  F2  UNL d   1      -0.928   1.549   1.416  0.00  0.00    -0.096 F 
ATOM     11  F3  UNL d   1       0.254   3.068   3.321  0.00  0.00    -0.097 F 
ATOM     12  F4  UNL d   1      -1.262   4.438   5.130  0.00  0.00    -0.092 F 
ENDROOT
TORSDOF 0
ENDMDL
