MODEL 1
REMARK minimizedAffinity 21.8993168
REMARK minimizedRMSD -1
REMARK  0 active torsions:
REMARK  status: ('A' for Active; 'I' for Inactive)
ROOT
ATOM      1  C   UNL d   1       2.872   2.762  -1.404  0.00  0.00     0.124 A 
ATOM      2  C1  UNL d   1       1.804   1.888  -1.557  0.00  0.00     0.062 A 
ATOM      3  C2  UNL d   1       1.697   0.764  -0.742  0.00  0.00     0.162 A 
ATOM      4  C3  UNL d   1       2.660   0.509   0.234  0.00  0.00    -0.034 A 
ATOM      5  C4  UNL d   1       3.731   1.391   0.381  0.00  0.00     0.162 A 
ATOM      6  C5  UNL d   1       3.834   2.513  -0.436  0.00  0.00     0.062 A 
ATOM      7  F   UNL d   1       4.866   3.356  -0.287  0.00  0.00    -0.097 F 
ATOM      8  F1  UNL d   1       4.675   1.176   1.310  0.00  0.00    -0.096 F 
ATOM      9  I   UNL d   1       2.503  -1.170   1.455  0.00  0.00    -0.060 I 
ATOM     10  F2  UNL d   1       0.655  -0.063  -0.912  0.00  0.00    -0.096 F 
ATOM     11  F3  UNL d   1       0.874   2.125  -2.493  0.00  0.00    -0.097 F 
ATOM     12  F4  UNL d   1       2.973   3.841  -2.190  0.00  0.00    -0.092 F 
ENDROOT
TORSDOF 0
ENDMDL
