MODEL 1
REMARK minimizedAffinity 33.8439789
REMARK minimizedRMSD -1
REMARK  0 active torsions:
REMARK  status: ('A' for Active; 'I' for Inactive)
ROOT
ATOM      1  C   UNL d   1       4.524   2.629  -2.851  0.00  0.00     0.124 A 
ATOM      2  C1  UNL d   1       3.436   2.287  -2.060  0.00  0.00     0.062 A 
ATOM      3  C2  UNL d   1       2.771   1.081  -2.266  0.00  0.00     0.162 A 
ATOM      4  C3  UNL d   1       3.194   0.208  -3.268  0.00  0.00    -0.034 A 
ATOM      5  C4  UNL d   1       4.288   0.559  -4.061  0.00  0.00     0.162 A 
ATOM      6  C5  UNL d   1       4.949   1.765  -3.850  0.00  0.00     0.062 A 
ATOM      7  F   UNL d   1       6.000   2.094  -4.615  0.00  0.00    -0.097 F 
ATOM      8  F1  UNL d   1       4.721  -0.258  -5.033  0.00  0.00    -0.096 F 
ATOM      9  I   UNL d   1       2.203  -1.596  -3.580  0.00  0.00    -0.060 I 
ATOM     10  F2  UNL d   1       1.723   0.777  -1.487  0.00  0.00    -0.096 F 
ATOM     11  F3  UNL d   1       3.022   3.120  -1.094  0.00  0.00    -0.097 F 
ATOM     12  F4  UNL d   1       5.160   3.790  -2.650  0.00  0.00    -0.092 F 
ENDROOT
TORSDOF 0
ENDMDL
