MODEL 1
REMARK minimizedAffinity 25.5077305
REMARK minimizedRMSD -1
REMARK  0 active torsions:
REMARK  status: ('A' for Active; 'I' for Inactive)
ROOT
ATOM      1  C   UNL d   1       3.346  -0.612   1.360  0.00  0.00     0.124 A 
ATOM      2  C1  UNL d   1       3.253   0.341   0.355  0.00  0.00     0.062 A 
ATOM      3  C2  UNL d   1       2.439   0.115  -0.751  0.00  0.00     0.162 A 
ATOM      4  C3  UNL d   1       1.711  -1.070  -0.858  0.00  0.00    -0.034 A 
ATOM      5  C4  UNL d   1       1.811  -2.025   0.155  0.00  0.00     0.162 A 
ATOM      6  C5  UNL d   1       2.626  -1.794   1.259  0.00  0.00     0.062 A 
ATOM      7  F   UNL d   1       2.715  -2.716   2.228  0.00  0.00    -0.097 F 
ATOM      8  F1  UNL d   1       1.125  -3.175   0.084  0.00  0.00    -0.096 F 
ATOM      9  I   UNL d   1       0.493  -1.413  -2.511  0.00  0.00    -0.060 I 
ATOM     10  F2  UNL d   1       2.367   1.053  -1.706  0.00  0.00    -0.096 F 
ATOM     11  F3  UNL d   1       3.949   1.483   0.450  0.00  0.00    -0.097 F 
ATOM     12  F4  UNL d   1       4.131  -0.393   2.422  0.00  0.00    -0.092 F 
ENDROOT
TORSDOF 0
ENDMDL
