MODEL 1
REMARK minimizedAffinity 13.8367996
REMARK minimizedRMSD -1
REMARK  0 active torsions:
REMARK  status: ('A' for Active; 'I' for Inactive)
ROOT
ATOM      1  C   UNL d   1       1.874  -2.384  -1.044  0.00  0.00     0.124 A 
ATOM      2  C1  UNL d   1       2.096  -1.943  -2.341  0.00  0.00     0.062 A 
ATOM      3  C2  UNL d   1       2.676  -0.698  -2.567  0.00  0.00     0.162 A 
ATOM      4  C3  UNL d   1       3.039   0.114  -1.493  0.00  0.00    -0.034 A 
ATOM      5  C4  UNL d   1       2.813  -0.336  -0.191  0.00  0.00     0.162 A 
ATOM      6  C5  UNL d   1       2.233  -1.581   0.029  0.00  0.00     0.062 A 
ATOM      7  F   UNL d   1       2.019  -2.006   1.283  0.00  0.00    -0.097 F 
ATOM      8  F1  UNL d   1       3.150   0.420   0.864  0.00  0.00    -0.096 F 
ATOM      9  I   UNL d   1       3.907   1.977  -1.827  0.00  0.00    -0.060 I 
ATOM     10  F2  UNL d   1       2.878  -0.297  -3.831  0.00  0.00    -0.096 F 
ATOM     11  F3  UNL d   1       1.749  -2.717  -3.379  0.00  0.00    -0.097 F 
ATOM     12  F4  UNL d   1       1.315  -3.582  -0.829  0.00  0.00    -0.092 F 
ENDROOT
TORSDOF 0
ENDMDL
