MODEL 1
REMARK minimizedAffinity 20.2765141
REMARK minimizedRMSD -1
REMARK  0 active torsions:
REMARK  status: ('A' for Active; 'I' for Inactive)
ROOT
ATOM      1  C   UNL d   1       5.127   2.706  -0.198  0.00  0.00     0.124 A 
ATOM      2  C1  UNL d   1       5.075   2.299  -1.524  0.00  0.00     0.062 A 
ATOM      3  C2  UNL d   1       4.169   1.320  -1.921  0.00  0.00     0.162 A 
ATOM      4  C3  UNL d   1       3.306   0.741  -0.991  0.00  0.00    -0.034 A 
ATOM      5  C4  UNL d   1       3.364   1.154   0.341  0.00  0.00     0.162 A 
ATOM      6  C5  UNL d   1       4.272   2.133   0.733  0.00  0.00     0.062 A 
ATOM      7  F   UNL d   1       4.320   2.524   2.015  0.00  0.00    -0.097 F 
ATOM      8  F1  UNL d   1       2.549   0.618   1.261  0.00  0.00    -0.096 F 
ATOM      9  I   UNL d   1       1.950  -0.723  -1.582  0.00  0.00    -0.060 I 
ATOM     10  F2  UNL d   1       4.142   0.947  -3.209  0.00  0.00    -0.096 F 
ATOM     11  F3  UNL d   1       5.901   2.851  -2.425  0.00  0.00    -0.097 F 
ATOM     12  F4  UNL d   1       6.000   3.647   0.182  0.00  0.00    -0.092 F 
ENDROOT
TORSDOF 0
ENDMDL
