MODEL 1
REMARK minimizedAffinity 15.062314
REMARK minimizedRMSD -1
REMARK  0 active torsions:
REMARK  status: ('A' for Active; 'I' for Inactive)
ROOT
ATOM      1  C   UNL d   1       2.445  -1.499   0.172  0.00  0.00     0.124 A 
ATOM      2  C1  UNL d   1       3.589  -1.389   0.951  0.00  0.00     0.062 A 
ATOM      3  C2  UNL d   1       4.367  -0.237   0.893  0.00  0.00     0.162 A 
ATOM      4  C3  UNL d   1       4.004   0.816   0.054  0.00  0.00    -0.034 A 
ATOM      5  C4  UNL d   1       2.853   0.698  -0.727  0.00  0.00     0.162 A 
ATOM      6  C5  UNL d   1       2.078  -0.456  -0.666  0.00  0.00     0.062 A 
ATOM      7  F   UNL d   1       0.974  -0.560  -1.419  0.00  0.00    -0.097 F 
ATOM      8  F1  UNL d   1       2.474   1.691  -1.545  0.00  0.00    -0.096 F 
ATOM      9  I   UNL d   1       5.165   2.541  -0.036  0.00  0.00    -0.060 I 
ATOM     10  F2  UNL d   1       5.467  -0.158   1.657  0.00  0.00    -0.096 F 
ATOM     11  F3  UNL d   1       3.947  -2.397   1.761  0.00  0.00    -0.097 F 
ATOM     12  F4  UNL d   1       1.699  -2.610   0.229  0.00  0.00    -0.092 F 
ENDROOT
TORSDOF 0
ENDMDL
