MODEL 1
REMARK minimizedAffinity 22.3658409
REMARK minimizedRMSD -1
REMARK  0 active torsions:
REMARK  status: ('A' for Active; 'I' for Inactive)
ROOT
ATOM      1  C   UNL d   1      -1.465  -5.150   3.966  0.00  0.00     0.124 A 
ATOM      2  C1  UNL d   1      -1.457  -5.154   2.578  0.00  0.00     0.062 A 
ATOM      3  C2  UNL d   1      -0.627  -4.281   1.881  0.00  0.00     0.162 A 
ATOM      4  C3  UNL d   1       0.203  -3.397   2.570  0.00  0.00    -0.034 A 
ATOM      5  C4  UNL d   1       0.189  -3.398   3.966  0.00  0.00     0.162 A 
ATOM      6  C5  UNL d   1      -0.643  -4.273   4.659  0.00  0.00     0.062 A 
ATOM      7  F   UNL d   1      -0.649  -4.268   6.000  0.00  0.00    -0.097 F 
ATOM      8  F1  UNL d   1       0.974  -2.562   4.661  0.00  0.00    -0.096 F 
ATOM      9  I   UNL d   1       1.445  -2.090   1.531  0.00  0.00    -0.060 I 
ATOM     10  F2  UNL d   1      -0.640  -4.306   0.540  0.00  0.00    -0.096 F 
ATOM     11  F3  UNL d   1      -2.252  -6.000   1.907  0.00  0.00    -0.097 F 
ATOM     12  F4  UNL d   1      -2.266  -5.990   4.635  0.00  0.00    -0.092 F 
ENDROOT
TORSDOF 0
ENDMDL
