MODEL 1
REMARK minimizedAffinity -5.78343487
REMARK minimizedRMSD -1
REMARK  0 active torsions:
REMARK  status: ('A' for Active; 'I' for Inactive)
ROOT
ATOM      1  C   UNL d   1      -0.114  -2.596   1.364  0.00  0.00     0.078 C 
ATOM      2  C1  UNL d   1       0.760  -1.388   1.201  0.00  0.00    -0.077 A 
ATOM      3  C2  UNL d   1       0.301  -0.251   0.525  0.00  0.00    -0.001 A 
ATOM      4  C3  UNL d   1       1.129   0.862   0.372  0.00  0.00     0.003 A 
ATOM      5  C4  UNL d   1       2.422   0.848   0.891  0.00  0.00    -0.005 A 
ATOM      6  C5  UNL d   1       2.889  -0.280   1.563  0.00  0.00     0.003 A 
ATOM      7  C6  UNL d   1       2.062  -1.394   1.717  0.00  0.00    -0.001 A 
ENDROOT
TORSDOF 0
ENDMDL
