MODEL 1
REMARK minimizedAffinity 5.3605361
REMARK minimizedRMSD -1
REMARK  0 active torsions:
REMARK  status: ('A' for Active; 'I' for Inactive)
ROOT
ATOM      1  C   UNL d   1       1.292   0.393   0.355  0.00  0.00     0.078 C 
ATOM      2  C1  UNL d   1       1.875   0.870   1.651  0.00  0.00    -0.077 A 
ATOM      3  C2  UNL d   1       2.267  -0.037   2.643  0.00  0.00    -0.001 A 
ATOM      4  C3  UNL d   1       2.799   0.423   3.849  0.00  0.00     0.003 A 
ATOM      5  C4  UNL d   1       2.944   1.790   4.074  0.00  0.00    -0.005 A 
ATOM      6  C5  UNL d   1       2.555   2.700   3.093  0.00  0.00     0.003 A 
ATOM      7  C6  UNL d   1       2.023   2.243   1.887  0.00  0.00    -0.001 A 
ENDROOT
TORSDOF 0
ENDMDL
