MODEL 1
REMARK minimizedAffinity 3.8397584
REMARK minimizedRMSD -1
REMARK  0 active torsions:
REMARK  status: ('A' for Active; 'I' for Inactive)
ROOT
ATOM      1  C   UNL d   1      -0.507  -0.768   0.681  0.00  0.00     0.078 C 
ATOM      2  C1  UNL d   1       0.445   0.387   0.770  0.00  0.00    -0.077 A 
ATOM      3  C2  UNL d   1       1.693   0.247   1.388  0.00  0.00    -0.001 A 
ATOM      4  C3  UNL d   1       2.565   1.333   1.472  0.00  0.00     0.003 A 
ATOM      5  C4  UNL d   1       2.198   2.568   0.941  0.00  0.00    -0.005 A 
ATOM      6  C5  UNL d   1       0.957   2.718   0.326  0.00  0.00     0.003 A 
ATOM      7  C6  UNL d   1       0.084   1.633   0.241  0.00  0.00    -0.001 A 
ENDROOT
TORSDOF 0
ENDMDL
