MODEL 1
REMARK minimizedAffinity 5.2018218
REMARK minimizedRMSD -1
REMARK  0 active torsions:
REMARK  status: ('A' for Active; 'I' for Inactive)
ROOT
ATOM      1  C   UNL d   1       5.900  -3.266   3.716  0.00  0.00     0.078 C 
ATOM      2  C1  UNL d   1       4.433  -3.040   3.928  0.00  0.00    -0.077 A 
ATOM      3  C2  UNL d   1       3.763  -3.620   5.013  0.00  0.00    -0.001 A 
ATOM      4  C3  UNL d   1       2.395  -3.408   5.193  0.00  0.00     0.003 A 
ATOM      5  C4  UNL d   1       1.685  -2.619   4.291  0.00  0.00    -0.005 A 
ATOM      6  C5  UNL d   1       2.342  -2.040   3.207  0.00  0.00     0.003 A 
ATOM      7  C6  UNL d   1       3.710  -2.250   3.026  0.00  0.00    -0.001 A 
ENDROOT
TORSDOF 0
ENDMDL
