MODEL 1
REMARK minimizedAffinity 2.22677541
REMARK minimizedRMSD -1
REMARK  0 active torsions:
REMARK  status: ('A' for Active; 'I' for Inactive)
ROOT
ATOM      1  C   UNL d   1      -3.018  -0.971  -3.804  0.00  0.00     0.078 C 
ATOM      2  C1  UNL d   1      -2.544  -2.147  -3.004  0.00  0.00    -0.077 A 
ATOM      3  C2  UNL d   1      -3.172  -2.504  -1.805  0.00  0.00    -0.001 A 
ATOM      4  C3  UNL d   1      -2.714  -3.596  -1.066  0.00  0.00     0.003 A 
ATOM      5  C4  UNL d   1      -1.625  -4.339  -1.518  0.00  0.00    -0.005 A 
ATOM      6  C5  UNL d   1      -0.993  -3.991  -2.709  0.00  0.00     0.003 A 
ATOM      7  C6  UNL d   1      -1.449  -2.899  -3.449  0.00  0.00    -0.001 A 
ENDROOT
TORSDOF 0
ENDMDL
