MODEL 1
REMARK minimizedAffinity -4.6563282
REMARK minimizedRMSD -1
REMARK  0 active torsions:
REMARK  status: ('A' for Active; 'I' for Inactive)
ROOT
ATOM      1  C   UNL d   1       3.418  -1.557   4.213  0.00  0.00     0.078 C 
ATOM      2  C1  UNL d   1       2.672  -1.071   3.006  0.00  0.00    -0.077 A 
ATOM      3  C2  UNL d   1       1.579  -1.782   2.498  0.00  0.00    -0.001 A 
ATOM      4  C3  UNL d   1       0.900  -1.323   1.368  0.00  0.00     0.003 A 
ATOM      5  C4  UNL d   1       1.309  -0.150   0.736  0.00  0.00    -0.005 A 
ATOM      6  C5  UNL d   1       2.398   0.563   1.232  0.00  0.00     0.003 A 
ATOM      7  C6  UNL d   1       3.077   0.105   2.362  0.00  0.00    -0.001 A 
ENDROOT
TORSDOF 0
ENDMDL
