MODEL 1
REMARK minimizedAffinity 3.12082148
REMARK minimizedRMSD -1
REMARK  0 active torsions:
REMARK  status: ('A' for Active; 'I' for Inactive)
ROOT
ATOM      1  C   UNL d   1       4.502   0.437  -6.000  0.00  0.00     0.078 C 
ATOM      2  C1  UNL d   1       4.028  -0.797  -5.291  0.00  0.00    -0.077 A 
ATOM      3  C2  UNL d   1       3.451  -1.858  -5.999  0.00  0.00    -0.001 A 
ATOM      4  C3  UNL d   1       3.006  -2.997  -5.326  0.00  0.00     0.003 A 
ATOM      5  C4  UNL d   1       3.132  -3.084  -3.941  0.00  0.00    -0.005 A 
ATOM      6  C5  UNL d   1       3.703  -2.032  -3.227  0.00  0.00     0.003 A 
ATOM      7  C6  UNL d   1       4.149  -0.893  -3.899  0.00  0.00    -0.001 A 
ENDROOT
TORSDOF 0
ENDMDL
