MODEL 1
REMARK minimizedAffinity -0.0412473865
REMARK minimizedRMSD -1
REMARK  0 active torsions:
REMARK  status: ('A' for Active; 'I' for Inactive)
ROOT
ATOM      1  C   UNL d   1       2.641  -0.725   3.466  0.00  0.00     0.078 C 
ATOM      2  C1  UNL d   1       1.837  -0.248   2.294  0.00  0.00    -0.077 A 
ATOM      3  C2  UNL d   1       2.162   0.943   1.633  0.00  0.00    -0.001 A 
ATOM      4  C3  UNL d   1       1.399   1.380   0.549  0.00  0.00     0.003 A 
ATOM      5  C4  UNL d   1       0.305   0.632   0.117  0.00  0.00    -0.005 A 
ATOM      6  C5  UNL d   1      -0.027  -0.553   0.770  0.00  0.00     0.003 A 
ATOM      7  C6  UNL d   1       0.735  -0.991   1.854  0.00  0.00    -0.001 A 
ENDROOT
TORSDOF 0
ENDMDL
