MODEL 1
REMARK minimizedAffinity -1.68780077
REMARK minimizedRMSD -1
REMARK  0 active torsions:
REMARK  status: ('A' for Active; 'I' for Inactive)
ROOT
ATOM      1  N1  IND d   1       1.474  -0.004   0.715  0.00  0.00    -0.196 N 
ATOM      2  C2  IND d   1       1.146  -1.289   0.383  0.00  0.00     0.054 A 
ATOM      3  C3  IND d   1      -0.115  -1.342  -0.102  0.00  0.00    -0.031 A 
ATOM      4  C4  IND d   1      -1.784   0.571  -0.531  0.00  0.00     0.051 A 
ATOM      5  C5  IND d   1      -1.952   1.915  -0.352  0.00  0.00    -0.031 A 
ATOM      6  C6  IND d   1      -0.965   2.705   0.201  0.00  0.00     0.015 A 
ATOM      7  C7  IND d   1       0.236   2.179   0.587  0.00  0.00    -0.016 A 
ATOM      8  C8  IND d   1       0.407   0.813   0.413  0.00  0.00    -0.047 A 
ATOM      9  C9  IND d   1      -0.607  -0.001  -0.109  0.00  0.00    -0.096 A 
ATOM     10  HN1 IND d   1       2.221   0.251   1.057  0.00  0.00     0.298 HD
ENDROOT
TORSDOF 0
ENDMDL
