MODEL 1
REMARK minimizedAffinity 0.77532196
REMARK minimizedRMSD -1
REMARK  0 active torsions:
REMARK  status: ('A' for Active; 'I' for Inactive)
ROOT
ATOM      1  N1  IND d   1      -1.706  -2.336  -2.120  0.00  0.00    -0.196 N 
ATOM      2  C2  IND d   1      -1.643  -3.665  -1.806  0.00  0.00     0.054 A 
ATOM      3  C3  IND d   1      -0.855  -3.856  -0.725  0.00  0.00    -0.031 A 
ATOM      4  C4  IND d   1       0.349  -2.122   0.749  0.00  0.00     0.051 A 
ATOM      5  C5  IND d   1       0.617  -0.785   0.838  0.00  0.00    -0.031 A 
ATOM      6  C6  IND d   1       0.112   0.122  -0.071  0.00  0.00     0.015 A 
ATOM      7  C7  IND d   1      -0.693  -0.275  -1.101  0.00  0.00    -0.016 A 
ATOM      8  C8  IND d   1      -0.961  -1.632  -1.199  0.00  0.00    -0.047 A 
ATOM      9  C9  IND d   1      -0.417  -2.563  -0.304  0.00  0.00    -0.096 A 
ATOM     10  HN1 IND d   1      -2.138  -1.996  -2.781  0.00  0.00     0.298 HD
ENDROOT
TORSDOF 0
ENDMDL
