MODEL 1
REMARK minimizedAffinity -5.08988857
REMARK minimizedRMSD -1
REMARK  0 active torsions:
REMARK  status: ('A' for Active; 'I' for Inactive)
ROOT
ATOM      1  N1  IND d   1       0.300  -0.656   0.467  0.00  0.00    -0.196 N 
ATOM      2  C2  IND d   1      -0.180   0.518  -0.043  0.00  0.00     0.054 A 
ATOM      3  C3  IND d   1      -0.810   0.298  -1.219  0.00  0.00    -0.031 A 
ATOM      4  C4  IND d   1      -1.258  -1.921  -2.444  0.00  0.00     0.051 A 
ATOM      5  C5  IND d   1      -0.981  -3.258  -2.386  0.00  0.00    -0.031 A 
ATOM      6  C6  IND d   1      -0.251  -3.808  -1.353  0.00  0.00     0.015 A 
ATOM      7  C7  IND d   1       0.223  -3.039  -0.327  0.00  0.00    -0.016 A 
ATOM      8  C8  IND d   1      -0.051  -1.680  -0.386  0.00  0.00    -0.047 A 
ATOM      9  C9  IND d   1      -0.755  -1.110  -1.454  0.00  0.00    -0.096 A 
ATOM     10  HN1 IND d   1       0.746  -0.741   1.197  0.00  0.00     0.298 HD
ENDROOT
TORSDOF 0
ENDMDL
