MODEL 1
REMARK minimizedAffinity -5.25624657
REMARK minimizedRMSD -1
REMARK  0 active torsions:
REMARK  status: ('A' for Active; 'I' for Inactive)
ROOT
ATOM      1  N1  IND d   1       1.301  -0.513   0.271  0.00  0.00    -0.196 N 
ATOM      2  C2  IND d   1       0.125  -0.964  -0.262  0.00  0.00     0.054 A 
ATOM      3  C3  IND d   1      -0.718   0.069  -0.484  0.00  0.00    -0.031 A 
ATOM      4  C4  IND d   1      -0.338   2.592  -0.142  0.00  0.00     0.051 A 
ATOM      5  C5  IND d   1       0.566   3.488   0.357  0.00  0.00    -0.031 A 
ATOM      6  C6  IND d   1       1.787   3.088   0.860  0.00  0.00     0.015 A 
ATOM      7  C7  IND d   1       2.155   1.772   0.873  0.00  0.00    -0.016 A 
ATOM      8  C8  IND d   1       1.237   0.859   0.374  0.00  0.00    -0.047 A 
ATOM      9  C9  IND d   1      -0.021   1.255  -0.099  0.00  0.00    -0.096 A 
ATOM     10  HN1 IND d   1       1.967  -1.004   0.503  0.00  0.00     0.298 HD
ENDROOT
TORSDOF 0
ENDMDL
