MODEL 1
REMARK minimizedAffinity -3.29804015
REMARK minimizedRMSD -1
REMARK  0 active torsions:
REMARK  status: ('A' for Active; 'I' for Inactive)
ROOT
ATOM      1  N1  IND d   1      -0.645  -1.197  -1.388  0.00  0.00    -0.196 N 
ATOM      2  C2  IND d   1       0.146  -2.044  -0.663  0.00  0.00     0.054 A 
ATOM      3  C3  IND d   1       0.804  -1.362   0.302  0.00  0.00    -0.031 A 
ATOM      4  C4  IND d   1       0.654   1.128   0.937  0.00  0.00     0.051 A 
ATOM      5  C5  IND d   1       0.093   2.309   0.540  0.00  0.00    -0.031 A 
ATOM      6  C6  IND d   1      -0.762   2.383  -0.541  0.00  0.00     0.015 A 
ATOM      7  C7  IND d   1      -1.099   1.271  -1.260  0.00  0.00    -0.016 A 
ATOM      8  C8  IND d   1      -0.525   0.071  -0.864  0.00  0.00    -0.047 A 
ATOM      9  C9  IND d   1       0.377  -0.003   0.205  0.00  0.00    -0.096 A 
ATOM     10  HN1 IND d   1      -1.135  -1.419  -2.059  0.00  0.00     0.298 HD
ENDROOT
TORSDOF 0
ENDMDL
