MODEL 1
REMARK minimizedAffinity -3.5727756
REMARK minimizedRMSD -1
REMARK  0 active torsions:
REMARK  status: ('A' for Active; 'I' for Inactive)
ROOT
ATOM      1  N1  IND d   1       1.032  -0.003  -0.081  0.00  0.00    -0.196 N 
ATOM      2  C2  IND d   1       0.597  -1.245  -0.451  0.00  0.00     0.054 A 
ATOM      3  C3  IND d   1      -0.744  -1.336  -0.309  0.00  0.00    -0.031 A 
ATOM      4  C4  IND d   1      -2.437   0.463   0.416  0.00  0.00     0.051 A 
ATOM      5  C5  IND d   1      -2.513   1.743   0.888  0.00  0.00    -0.031 A 
ATOM      6  C6  IND d   1      -1.388   2.524   1.063  0.00  0.00     0.015 A 
ATOM      7  C7  IND d   1      -0.142   2.054   0.759  0.00  0.00    -0.016 A 
ATOM      8  C8  IND d   1      -0.060   0.752   0.286  0.00  0.00    -0.047 A 
ATOM      9  C9  IND d   1      -1.194  -0.059   0.147  0.00  0.00    -0.096 A 
ATOM     10  HN1 IND d   1       1.850   0.262  -0.078  0.00  0.00     0.298 HD
ENDROOT
TORSDOF 0
ENDMDL
