MODEL 1
REMARK minimizedAffinity -2.68890643
REMARK minimizedRMSD -1
REMARK  0 active torsions:
REMARK  status: ('A' for Active; 'I' for Inactive)
ROOT
ATOM      1  N1  IND d   1      -0.190   0.217  -1.774  0.00  0.00    -0.196 N 
ATOM      2  C2  IND d   1      -0.346   0.406  -0.429  0.00  0.00     0.054 A 
ATOM      3  C3  IND d   1      -0.713  -0.749   0.169  0.00  0.00    -0.031 A 
ATOM      4  C4  IND d   1      -1.018  -3.093  -0.850  0.00  0.00     0.051 A 
ATOM      5  C5  IND d   1      -1.021  -3.756  -2.045  0.00  0.00    -0.031 A 
ATOM      6  C6  IND d   1      -0.740  -3.116  -3.235  0.00  0.00     0.015 A 
ATOM      7  C7  IND d   1      -0.432  -1.785  -3.272  0.00  0.00    -0.016 A 
ATOM      8  C8  IND d   1      -0.434  -1.108  -2.061  0.00  0.00    -0.047 A 
ATOM      9  C9  IND d   1      -0.760  -1.743  -0.856  0.00  0.00    -0.096 A 
ATOM     10  HN1 IND d   1       0.024   0.824  -2.344  0.00  0.00     0.298 HD
ENDROOT
TORSDOF 0
ENDMDL
