MODEL 1
REMARK minimizedAffinity -4.40101671
REMARK minimizedRMSD -1
REMARK  0 active torsions:
REMARK  status: ('A' for Active; 'I' for Inactive)
ROOT
ATOM      1  N1  IND d   1      -0.003  -0.339  -0.269  0.00  0.00    -0.196 N 
ATOM      2  C2  IND d   1      -1.015  -0.709   0.573  0.00  0.00     0.054 A 
ATOM      3  C3  IND d   1      -1.507   0.372   1.220  0.00  0.00    -0.031 A 
ATOM      4  C4  IND d   1      -0.871   2.854   0.975  0.00  0.00     0.051 A 
ATOM      5  C5  IND d   1       0.023   3.681   0.355  0.00  0.00    -0.031 A 
ATOM      6  C6  IND d   1       0.972   3.200  -0.525  0.00  0.00     0.015 A 
ATOM      7  C7  IND d   1       1.055   1.871  -0.827  0.00  0.00    -0.016 A 
ATOM      8  C8  IND d   1       0.153   1.027  -0.194  0.00  0.00    -0.047 A 
ATOM      9  C9  IND d   1      -0.785   1.504   0.732  0.00  0.00    -0.096 A 
ATOM     10  HN1 IND d   1       0.459  -0.871  -0.762  0.00  0.00     0.298 HD
ENDROOT
TORSDOF 0
ENDMDL
