MODEL 1
REMARK minimizedAffinity -4.2445159
REMARK minimizedRMSD -1
REMARK  0 active torsions:
REMARK  status: ('A' for Active; 'I' for Inactive)
ROOT
ATOM      1  N1  IND d   1      -0.279  -0.778  -1.684  0.00  0.00    -0.196 N 
ATOM      2  C2  IND d   1      -0.371  -1.874  -0.872  0.00  0.00     0.054 A 
ATOM      3  C3  IND d   1      -0.675  -1.499   0.391  0.00  0.00    -0.031 A 
ATOM      4  C4  IND d   1      -1.166   0.848   1.327  0.00  0.00     0.051 A 
ATOM      5  C5  IND d   1      -1.170   2.169   0.976  0.00  0.00    -0.031 A 
ATOM      6  C6  IND d   1      -0.873   2.583  -0.307  0.00  0.00     0.015 A 
ATOM      7  C7  IND d   1      -0.572   1.687  -1.293  0.00  0.00    -0.016 A 
ATOM      8  C8  IND d   1      -0.560   0.345  -0.938  0.00  0.00    -0.047 A 
ATOM      9  C9  IND d   1      -0.819  -0.078   0.372  0.00  0.00    -0.096 A 
ATOM     10  HN1 IND d   1      -0.079  -0.789  -2.520  0.00  0.00     0.298 HD
ENDROOT
TORSDOF 0
ENDMDL
