MODEL 1
REMARK minimizedAffinity -5.37795591
REMARK minimizedRMSD -1
REMARK  0 active torsions:
REMARK  status: ('A' for Active; 'I' for Inactive)
ROOT
ATOM      1  N1  IND d   1       0.754  -0.695   0.063  0.00  0.00    -0.196 N 
ATOM      2  C2  IND d   1      -0.408  -1.204   0.572  0.00  0.00     0.054 A 
ATOM      3  C3  IND d   1      -1.283  -0.207   0.836  0.00  0.00    -0.031 A 
ATOM      4  C4  IND d   1      -1.055   2.323   0.415  0.00  0.00     0.051 A 
ATOM      5  C5  IND d   1      -0.161   3.269  -0.000  0.00  0.00    -0.031 A 
ATOM      6  C6  IND d   1       1.108   2.936  -0.427  0.00  0.00     0.015 A 
ATOM      7  C7  IND d   1       1.529   1.637  -0.465  0.00  0.00    -0.016 A 
ATOM      8  C8  IND d   1       0.626   0.673  -0.037  0.00  0.00    -0.047 A 
ATOM      9  C9  IND d   1      -0.648   1.009   0.437  0.00  0.00    -0.096 A 
ATOM     10  HN1 IND d   1       1.448  -1.152  -0.157  0.00  0.00     0.298 HD
ENDROOT
TORSDOF 0
ENDMDL
