MODEL 1
REMARK minimizedAffinity -5.58719063
REMARK minimizedRMSD -1
REMARK  0 active torsions:
REMARK  status: ('A' for Active; 'I' for Inactive)
ROOT
ATOM      1  N1  IND d   1       0.706  -0.754   0.164  0.00  0.00    -0.196 N 
ATOM      2  C2  IND d   1      -0.657  -0.720   0.261  0.00  0.00     0.054 A 
ATOM      3  C3  IND d   1      -1.075   0.529   0.565  0.00  0.00    -0.031 A 
ATOM      4  C4  IND d   1       0.295   2.690   0.849  0.00  0.00     0.051 A 
ATOM      5  C5  IND d   1       1.580   3.153   0.889  0.00  0.00    -0.031 A 
ATOM      6  C6  IND d   1       2.662   2.321   0.684  0.00  0.00     0.015 A 
ATOM      7  C7  IND d   1       2.497   0.991   0.417  0.00  0.00    -0.016 A 
ATOM      8  C8  IND d   1       1.193   0.516   0.382  0.00  0.00    -0.047 A 
ATOM      9  C9  IND d   1       0.094   1.347   0.632  0.00  0.00    -0.096 A 
ATOM     10  HN1 IND d   1       1.180  -1.452  -0.005  0.00  0.00     0.298 HD
ENDROOT
TORSDOF 0
ENDMDL
