MODEL 1
REMARK minimizedAffinity -2.00077915
REMARK minimizedRMSD -1
REMARK  0 active torsions:
REMARK  status: ('A' for Active; 'I' for Inactive)
ROOT
ATOM      1  N1  IND d   1      -1.252  -2.029  -2.214  0.00  0.00    -0.196 N 
ATOM      2  C2  IND d   1      -0.967  -3.360  -2.089  0.00  0.00     0.054 A 
ATOM      3  C3  IND d   1      -0.157  -3.571  -1.027  0.00  0.00    -0.031 A 
ATOM      4  C4  IND d   1       0.739  -1.889   0.704  0.00  0.00     0.051 A 
ATOM      5  C5  IND d   1       0.779  -0.553   0.987  0.00  0.00    -0.031 A 
ATOM      6  C6  IND d   1       0.129   0.378   0.203  0.00  0.00     0.015 A 
ATOM      7  C7  IND d   1      -0.598   0.005  -0.891  0.00  0.00    -0.016 A 
ATOM      8  C8  IND d   1      -0.635  -1.351  -1.186  0.00  0.00    -0.047 A 
ATOM      9  C9  IND d   1       0.057  -2.296  -0.418  0.00  0.00    -0.096 A 
ATOM     10  HN1 IND d   1      -1.735  -1.675  -2.831  0.00  0.00     0.298 HD
ENDROOT
TORSDOF 0
ENDMDL
