MODEL 1
REMARK minimizedAffinity -3.3614409
REMARK minimizedRMSD -1
REMARK  0 active torsions:
REMARK  status: ('A' for Active; 'I' for Inactive)
ROOT
ATOM      1  N1  IND d   1      -0.175   3.259   0.319  0.00  0.00    -0.196 N 
ATOM      2  C2  IND d   1       1.108   3.283  -0.155  0.00  0.00     0.054 A 
ATOM      3  C3  IND d   1       1.560   2.024  -0.351  0.00  0.00    -0.031 A 
ATOM      4  C4  IND d   1       0.332  -0.219  -0.057  0.00  0.00     0.051 A 
ATOM      5  C5  IND d   1      -0.844  -0.753   0.390  0.00  0.00    -0.031 A 
ATOM      6  C6  IND d   1      -1.879   0.039   0.842  0.00  0.00     0.015 A 
ATOM      7  C7  IND d   1      -1.780   1.402   0.854  0.00  0.00    -0.016 A 
ATOM      8  C8  IND d   1      -0.585   1.947   0.408  0.00  0.00    -0.047 A 
ATOM      9  C9  IND d   1       0.485   1.146  -0.013  0.00  0.00    -0.096 A 
ATOM     10  HN1 IND d   1      -0.645   3.948   0.526  0.00  0.00     0.298 HD
ENDROOT
TORSDOF 0
ENDMDL
