MODEL 1
REMARK minimizedAffinity 1.71508193
REMARK minimizedRMSD -1
REMARK  0 active torsions:
REMARK  status: ('A' for Active; 'I' for Inactive)
ROOT
ATOM      1  N1  IND d   1      -0.973  -0.547   1.182  0.00  0.00    -0.196 N 
ATOM      2  C2  IND d   1      -0.375  -1.085   0.077  0.00  0.00     0.054 A 
ATOM      3  C3  IND d   1       0.201  -0.113  -0.666  0.00  0.00    -0.031 A 
ATOM      4  C4  IND d   1       0.373   2.414  -0.203  0.00  0.00     0.051 A 
ATOM      5  C5  IND d   1      -0.051   3.381   0.664  0.00  0.00    -0.031 A 
ATOM      6  C6  IND d   1      -0.817   3.082   1.772  0.00  0.00     0.015 A 
ATOM      7  C7  IND d   1      -1.180   1.798   2.061  0.00  0.00    -0.016 A 
ATOM      8  C8  IND d   1      -0.757   0.813   1.179  0.00  0.00    -0.047 A 
ATOM      9  C9  IND d   1      -0.016   1.115   0.030  0.00  0.00    -0.096 A 
ATOM     10  HN1 IND d   1      -1.411  -0.985   1.779  0.00  0.00     0.298 HD
ENDROOT
TORSDOF 0
ENDMDL
