MODEL 1
REMARK minimizedAffinity 1.55908573
REMARK minimizedRMSD -1
REMARK  0 active torsions:
REMARK  status: ('A' for Active; 'I' for Inactive)
ROOT
ATOM      1  N1  IND d   1       0.752   2.152   0.566  0.00  0.00    -0.196 N 
ATOM      2  C2  IND d   1      -0.583   2.448   0.556  0.00  0.00     0.054 A 
ATOM      3  C3  IND d   1      -1.315   1.317   0.451  0.00  0.00    -0.031 A 
ATOM      4  C4  IND d   1      -0.536  -1.136   0.384  0.00  0.00     0.051 A 
ATOM      5  C5  IND d   1       0.591  -1.907   0.330  0.00  0.00    -0.031 A 
ATOM      6  C6  IND d   1       1.855  -1.354   0.355  0.00  0.00     0.015 A 
ATOM      7  C7  IND d   1       2.039  -0.003   0.447  0.00  0.00    -0.016 A 
ATOM      8  C8  IND d   1       0.897   0.783   0.495  0.00  0.00    -0.047 A 
ATOM      9  C9  IND d   1      -0.388   0.230   0.427  0.00  0.00    -0.096 A 
ATOM     10  HN1 IND d   1       1.392   2.723   0.609  0.00  0.00     0.298 HD
ENDROOT
TORSDOF 0
ENDMDL
