MODEL 1
REMARK minimizedAffinity 8.19282913
REMARK minimizedRMSD -1
REMARK  0 active torsions:
REMARK  status: ('A' for Active; 'I' for Inactive)
ROOT
ATOM      1  N1  IND d   1       0.093  -1.744   0.559  0.00  0.00    -0.196 N 
ATOM      2  C2  IND d   1       1.279  -1.064   0.561  0.00  0.00     0.054 A 
ATOM      3  C3  IND d   1       1.980  -1.338  -0.563  0.00  0.00    -0.031 A 
ATOM      4  C4  IND d   1       1.327  -2.793  -2.583  0.00  0.00     0.051 A 
ATOM      5  C5  IND d   1       0.356  -3.646  -3.028  0.00  0.00    -0.031 A 
ATOM      6  C6  IND d   1      -0.777  -3.911  -2.286  0.00  0.00     0.015 A 
ATOM      7  C7  IND d   1      -0.987  -3.322  -1.071  0.00  0.00    -0.016 A 
ATOM      8  C8  IND d   1       0.001  -2.462  -0.613  0.00  0.00    -0.047 A 
ATOM      9  C9  IND d   1       1.172  -2.221  -1.343  0.00  0.00    -0.096 A 
ATOM     10  HN1 IND d   1      -0.496  -1.727   1.185  0.00  0.00     0.298 HD
ENDROOT
TORSDOF 0
ENDMDL
