MODEL 1
REMARK minimizedAffinity -0.0239739008
REMARK minimizedRMSD -1
REMARK  0 active torsions:
REMARK  status: ('A' for Active; 'I' for Inactive)
ROOT
ATOM      1  N1  IND d   1      -0.618  -0.909  -1.058  0.00  0.00    -0.196 N 
ATOM      2  C2  IND d   1       0.062  -1.667  -0.146  0.00  0.00     0.054 A 
ATOM      3  C3  IND d   1       0.406  -0.918   0.925  0.00  0.00    -0.031 A 
ATOM      4  C4  IND d   1      -0.133   1.546   1.439  0.00  0.00     0.051 A 
ATOM      5  C5  IND d   1      -0.701   2.662   0.890  0.00  0.00    -0.031 A 
ATOM      6  C6  IND d   1      -1.284   2.643  -0.361  0.00  0.00     0.015 A 
ATOM      7  C7  IND d   1      -1.332   1.500  -1.107  0.00  0.00    -0.016 A 
ATOM      8  C8  IND d   1      -0.750   0.367  -0.556  0.00  0.00    -0.047 A 
ATOM      9  C9  IND d   1      -0.119   0.390   0.695  0.00  0.00    -0.096 A 
ATOM     10  HN1 IND d   1      -0.914  -1.184  -1.817  0.00  0.00     0.298 HD
ENDROOT
TORSDOF 0
ENDMDL
