MODEL 1
REMARK minimizedAffinity 13.0181341
REMARK minimizedRMSD -1
REMARK  0 active torsions:
REMARK  status: ('A' for Active; 'I' for Inactive)
ROOT
ATOM      1  N1  IND d   1      -3.667  -2.016   5.917  0.00  0.00    -0.196 N 
ATOM      2  C2  IND d   1      -3.725  -3.088   5.072  0.00  0.00     0.054 A 
ATOM      3  C3  IND d   1      -3.771  -2.672   3.786  0.00  0.00    -0.031 A 
ATOM      4  C4  IND d   1      -3.661  -0.282   2.836  0.00  0.00     0.051 A 
ATOM      5  C5  IND d   1      -3.641   1.030   3.220  0.00  0.00    -0.031 A 
ATOM      6  C6  IND d   1      -3.625   1.401   4.549  0.00  0.00     0.015 A 
ATOM      7  C7  IND d   1      -3.617   0.469   5.548  0.00  0.00    -0.016 A 
ATOM      8  C8  IND d   1      -3.645  -0.863   5.163  0.00  0.00    -0.047 A 
ATOM      9  C9  IND d   1      -3.705  -1.245   3.816  0.00  0.00    -0.096 A 
ATOM     10  HN1 IND d   1      -3.648  -2.054   6.776  0.00  0.00     0.298 HD
ENDROOT
TORSDOF 0
ENDMDL
