MODEL 1
REMARK minimizedAffinity 12.1326551
REMARK minimizedRMSD -1
REMARK  0 active torsions:
REMARK  status: ('A' for Active; 'I' for Inactive)
ROOT
ATOM      1  N1  IND d   1      -3.620  -1.472   5.769  0.00  0.00    -0.196 N 
ATOM      2  C2  IND d   1      -3.796  -2.469   4.850  0.00  0.00     0.054 A 
ATOM      3  C3  IND d   1      -3.848  -1.954   3.602  0.00  0.00    -0.031 A 
ATOM      4  C4  IND d   1      -3.564   0.484   2.825  0.00  0.00     0.051 A 
ATOM      5  C5  IND d   1      -3.420   1.757   3.302  0.00  0.00    -0.031 A 
ATOM      6  C6  IND d   1      -3.330   2.023   4.653  0.00  0.00     0.015 A 
ATOM      7  C7  IND d   1      -3.370   1.021   5.581  0.00  0.00    -0.016 A 
ATOM      8  C8  IND d   1      -3.524  -0.272   5.101  0.00  0.00    -0.047 A 
ATOM      9  C9  IND d   1      -3.658  -0.544   3.733  0.00  0.00    -0.096 A 
ATOM     10  HN1 IND d   1      -3.577  -1.578   6.622  0.00  0.00     0.298 HD
ENDROOT
TORSDOF 0
ENDMDL
