MODEL 1
REMARK minimizedAffinity 11.1745386
REMARK minimizedRMSD -1
REMARK  0 active torsions:
REMARK  status: ('A' for Active; 'I' for Inactive)
ROOT
ATOM      1  N1  IND d   1       4.623   0.417   0.703  0.00  0.00    -0.196 N 
ATOM      2  C2  IND d   1       4.121   1.634   0.336  0.00  0.00     0.054 A 
ATOM      3  C3  IND d   1       3.052   1.477  -0.477  0.00  0.00    -0.031 A 
ATOM      4  C4  IND d   1       1.894  -0.687  -1.254  0.00  0.00     0.051 A 
ATOM      5  C5  IND d   1       2.011  -2.048  -1.210  0.00  0.00    -0.031 A 
ATOM      6  C6  IND d   1       3.024  -2.669  -0.509  0.00  0.00     0.015 A 
ATOM      7  C7  IND d   1       3.955  -1.950   0.186  0.00  0.00    -0.016 A 
ATOM      8  C8  IND d   1       3.843  -0.568   0.137  0.00  0.00    -0.047 A 
ATOM      9  C9  IND d   1       2.842   0.070  -0.607  0.00  0.00    -0.096 A 
ATOM     10  HN1 IND d   1       5.311   0.287   1.202  0.00  0.00     0.298 HD
ENDROOT
TORSDOF 0
ENDMDL
