MODEL 1
REMARK minimizedAffinity 7.99565363
REMARK minimizedRMSD -1
REMARK  0 active torsions:
REMARK  status: ('A' for Active; 'I' for Inactive)
ROOT
ATOM      1  N1  IND d   1       4.231  -1.799   0.691  0.00  0.00    -0.196 N 
ATOM      2  C2  IND d   1       3.247  -2.520   0.075  0.00  0.00     0.054 A 
ATOM      3  C3  IND d   1       2.418  -1.698  -0.607  0.00  0.00    -0.031 A 
ATOM      4  C4  IND d   1       2.548   0.852  -0.934  0.00  0.00     0.051 A 
ATOM      5  C5  IND d   1       3.251   1.954  -0.535  0.00  0.00    -0.031 A 
ATOM      6  C6  IND d   1       4.339   1.860   0.307  0.00  0.00     0.015 A 
ATOM      7  C7  IND d   1       4.775   0.653   0.776  0.00  0.00    -0.016 A 
ATOM      8  C8  IND d   1       4.060  -0.468   0.379  0.00  0.00    -0.047 A 
ATOM      9  C9  IND d   1       2.929  -0.374  -0.442  0.00  0.00    -0.096 A 
ATOM     10  HN1 IND d   1       4.853  -2.122   1.189  0.00  0.00     0.298 HD
ENDROOT
TORSDOF 0
ENDMDL
