MODEL 1
REMARK minimizedAffinity 12.5411758
REMARK minimizedRMSD -1
REMARK  0 active torsions:
REMARK  status: ('A' for Active; 'I' for Inactive)
ROOT
ATOM      1  N1  IND d   1      -3.556   4.839  -5.996  0.00  0.00    -0.196 N 
ATOM      2  C2  IND d   1      -3.409   6.000  -5.290  0.00  0.00     0.054 A 
ATOM      3  C3  IND d   1      -2.473   5.849  -4.326  0.00  0.00    -0.031 A 
ATOM      4  C4  IND d   1      -0.984   3.817  -3.795  0.00  0.00     0.051 A 
ATOM      5  C5  IND d   1      -0.778   2.512  -4.145  0.00  0.00    -0.031 A 
ATOM      6  C6  IND d   1      -1.500   1.905  -5.152  0.00  0.00     0.015 A 
ATOM      7  C7  IND d   1      -2.451   2.586  -5.857  0.00  0.00    -0.016 A 
ATOM      8  C8  IND d   1      -2.668   3.909  -5.500  0.00  0.00    -0.047 A 
ATOM      9  C9  IND d   1      -1.968   4.519  -4.451  0.00  0.00    -0.096 A 
ATOM     10  HN1 IND d   1      -4.109   4.710  -6.642  0.00  0.00     0.298 HD
ENDROOT
TORSDOF 0
ENDMDL
