MODEL 1
REMARK minimizedAffinity 27.4348373
REMARK minimizedRMSD -1
REMARK  0 active torsions:
REMARK  status: ('A' for Active; 'I' for Inactive)
ROOT
ATOM      1  N1  IND d   1       4.572   0.600   0.900  0.00  0.00    -0.196 N 
ATOM      2  C2  IND d   1       4.275   1.878   0.514  0.00  0.00     0.054 A 
ATOM      3  C3  IND d   1       3.237   1.878  -0.353  0.00  0.00    -0.031 A 
ATOM      4  C4  IND d   1       1.812  -0.091  -1.199  0.00  0.00     0.051 A 
ATOM      5  C5  IND d   1       1.724  -1.455  -1.155  0.00  0.00    -0.031 A 
ATOM      6  C6  IND d   1       2.597  -2.218  -0.407  0.00  0.00     0.015 A 
ATOM      7  C7  IND d   1       3.587  -1.643   0.338  0.00  0.00    -0.016 A 
ATOM      8  C8  IND d   1       3.684  -0.259   0.290  0.00  0.00    -0.047 A 
ATOM      9  C9  IND d   1       2.828   0.518  -0.501  0.00  0.00    -0.096 A 
ATOM     10  HN1 IND d   1       5.206   0.372   1.433  0.00  0.00     0.298 HD
ENDROOT
TORSDOF 0
ENDMDL
