MODEL 1
REMARK minimizedAffinity 21.2387943
REMARK minimizedRMSD -1
REMARK  0 active torsions:
REMARK  status: ('A' for Active; 'I' for Inactive)
ROOT
ATOM      1  N1  IND d   1      -3.264   1.368   2.286  0.00  0.00    -0.196 N 
ATOM      2  C2  IND d   1      -3.647   0.375   3.145  0.00  0.00     0.054 A 
ATOM      3  C3  IND d   1      -2.561  -0.226   3.682  0.00  0.00    -0.031 A 
ATOM      4  C4  IND d   1      -0.066   0.327   3.374  0.00  0.00     0.051 A 
ATOM      5  C5  IND d   1       0.780   1.128   2.660  0.00  0.00    -0.031 A 
ATOM      6  C6  IND d   1       0.311   2.072   1.769  0.00  0.00     0.015 A 
ATOM      7  C7  IND d   1      -1.027   2.257   1.566  0.00  0.00    -0.016 A 
ATOM      8  C8  IND d   1      -1.889   1.440   2.285  0.00  0.00    -0.047 A 
ATOM      9  C9  IND d   1      -1.418   0.452   3.159  0.00  0.00    -0.096 A 
ATOM     10  HN1 IND d   1      -3.794   1.864   1.825  0.00  0.00     0.298 HD
ENDROOT
TORSDOF 0
ENDMDL
