MODEL 1
REMARK minimizedAffinity 16.1538219
REMARK minimizedRMSD -1
REMARK  0 active torsions:
REMARK  status: ('A' for Active; 'I' for Inactive)
ROOT
ATOM      1  N1  IND d   1       4.628   0.055   0.508  0.00  0.00    -0.196 N 
ATOM      2  C2  IND d   1       4.268   1.296   0.061  0.00  0.00     0.054 A 
ATOM      3  C3  IND d   1       3.256   1.200  -0.830  0.00  0.00    -0.031 A 
ATOM      4  C4  IND d   1       1.971  -0.884  -1.626  0.00  0.00     0.051 A 
ATOM      5  C5  IND d   1       1.961  -2.247  -1.526  0.00  0.00    -0.031 A 
ATOM      6  C6  IND d   1       2.856  -2.926  -0.725  0.00  0.00     0.015 A 
ATOM      7  C7  IND d   1       3.791  -2.263   0.018  0.00  0.00    -0.016 A 
ATOM      8  C8  IND d   1       3.809  -0.879  -0.086  0.00  0.00    -0.047 A 
ATOM      9  C9  IND d   1       2.930  -0.188  -0.930  0.00  0.00    -0.096 A 
ATOM     10  HN1 IND d   1       5.261  -0.113   1.065  0.00  0.00     0.298 HD
ENDROOT
TORSDOF 0
ENDMDL
