MODEL 1
REMARK minimizedAffinity 21.9134178
REMARK minimizedRMSD -1
REMARK  0 active torsions:
REMARK  status: ('A' for Active; 'I' for Inactive)
ROOT
ATOM      1  N1  IND d   1       1.821  -1.516  -0.799  0.00  0.00    -0.196 N 
ATOM      2  C2  IND d   1       2.706  -0.494  -1.000  0.00  0.00     0.054 A 
ATOM      3  C3  IND d   1       3.963  -0.895  -0.704  0.00  0.00    -0.031 A 
ATOM      4  C4  IND d   1       4.809  -3.213   0.031  0.00  0.00     0.051 A 
ATOM      5  C5  IND d   1       4.370  -4.457   0.386  0.00  0.00    -0.031 A 
ATOM      6  C6  IND d   1       3.031  -4.792   0.362  0.00  0.00     0.015 A 
ATOM      7  C7  IND d   1       2.079  -3.895  -0.032  0.00  0.00    -0.016 A 
ATOM      8  C8  IND d   1       2.521  -2.628  -0.387  0.00  0.00    -0.047 A 
ATOM      9  C9  IND d   1       3.874  -2.269  -0.323  0.00  0.00    -0.096 A 
ATOM     10  HN1 IND d   1       0.969  -1.471  -0.910  0.00  0.00     0.298 HD
ENDROOT
TORSDOF 0
ENDMDL
