MODEL 1
REMARK minimizedAffinity 6.30664301
REMARK minimizedRMSD -1
REMARK  0 active torsions:
REMARK  status: ('A' for Active; 'I' for Inactive)
ROOT
ATOM      1  N1  IND d   1       4.896  -2.642   0.764  0.00  0.00    -0.196 N 
ATOM      2  C2  IND d   1       4.308  -3.780   0.287  0.00  0.00     0.054 A 
ATOM      3  C3  IND d   1       3.252  -3.471  -0.498  0.00  0.00    -0.031 A 
ATOM      4  C4  IND d   1       2.370  -1.162  -1.217  0.00  0.00     0.051 A 
ATOM      5  C5  IND d   1       2.556   0.176  -1.008  0.00  0.00    -0.031 A 
ATOM      6  C6  IND d   1       3.554   0.652  -0.182  0.00  0.00     0.015 A 
ATOM      7  C7  IND d   1       4.414  -0.195   0.458  0.00  0.00    -0.016 A 
ATOM      8  C8  IND d   1       4.223  -1.554   0.254  0.00  0.00    -0.047 A 
ATOM      9  C9  IND d   1       3.185  -2.045  -0.550  0.00  0.00    -0.096 A 
ATOM     10  HN1 IND d   1       5.572  -2.611   1.295  0.00  0.00     0.298 HD
ENDROOT
TORSDOF 0
ENDMDL
