MODEL 1
REMARK minimizedAffinity 18.7552357
REMARK minimizedRMSD -1
REMARK  0 active torsions:
REMARK  status: ('A' for Active; 'I' for Inactive)
ROOT
ATOM      1  N1  IND d   1       0.379   0.295   2.865  0.00  0.00    -0.196 N 
ATOM      2  C2  IND d   1      -0.698   0.799   2.190  0.00  0.00     0.054 A 
ATOM      3  C3  IND d   1      -1.212   1.861   2.850  0.00  0.00    -0.031 A 
ATOM      4  C4  IND d   1      -0.383   3.008   5.001  0.00  0.00     0.051 A 
ATOM      5  C5  IND d   1       0.544   2.887   5.998  0.00  0.00    -0.031 A 
ATOM      6  C6  IND d   1       1.484   1.877   6.000  0.00  0.00     0.015 A 
ATOM      7  C7  IND d   1       1.540   0.953   4.995  0.00  0.00    -0.016 A 
ATOM      8  C8  IND d   1       0.596   1.069   3.985  0.00  0.00    -0.047 A 
ATOM      9  C9  IND d   1      -0.388   2.066   3.999  0.00  0.00    -0.096 A 
ATOM     10  HN1 IND d   1       0.844  -0.389   2.630  0.00  0.00     0.298 HD
ENDROOT
TORSDOF 0
ENDMDL
