MODEL 1
REMARK minimizedAffinity 22.0284576
REMARK minimizedRMSD -1
REMARK  0 active torsions:
REMARK  status: ('A' for Active; 'I' for Inactive)
ROOT
ATOM      1  N1  IND d   1      -3.113   1.076   3.282  0.00  0.00    -0.196 N 
ATOM      2  C2  IND d   1      -3.663   0.365   2.252  0.00  0.00     0.054 A 
ATOM      3  C3  IND d   1      -2.691  -0.167   1.477  0.00  0.00    -0.031 A 
ATOM      4  C4  IND d   1      -0.135  -0.083   1.770  0.00  0.00     0.051 A 
ATOM      5  C5  IND d   1       0.842   0.479   2.543  0.00  0.00    -0.031 A 
ATOM      6  C6  IND d   1       0.546   1.282   3.625  0.00  0.00     0.015 A 
ATOM      7  C7  IND d   1      -0.746   1.546   3.983  0.00  0.00    -0.016 A 
ATOM      8  C8  IND d   1      -1.742   0.983   3.197  0.00  0.00    -0.047 A 
ATOM      9  C9  IND d   1      -1.446   0.202   2.072  0.00  0.00    -0.096 A 
ATOM     10  HN1 IND d   1      -3.551   1.509   3.883  0.00  0.00     0.298 HD
ENDROOT
TORSDOF 0
ENDMDL
