MODEL 1
REMARK minimizedAffinity 19.1439495
REMARK minimizedRMSD -1
REMARK  0 active torsions:
REMARK  status: ('A' for Active; 'I' for Inactive)
ROOT
ATOM      1  N1  IND d   1      -4.869  -1.110   2.935  0.00  0.00    -0.196 N 
ATOM      2  C2  IND d   1      -4.507  -2.279   2.327  0.00  0.00     0.054 A 
ATOM      3  C3  IND d   1      -3.237  -2.198   1.869  0.00  0.00    -0.031 A 
ATOM      4  C4  IND d   1      -1.537  -0.278   2.096  0.00  0.00     0.051 A 
ATOM      5  C5  IND d   1      -1.418   1.009   2.540  0.00  0.00    -0.031 A 
ATOM      6  C6  IND d   1      -2.464   1.668   3.152  0.00  0.00     0.015 A 
ATOM      7  C7  IND d   1      -3.670   1.058   3.355  0.00  0.00    -0.016 A 
ATOM      8  C8  IND d   1      -3.796  -0.247   2.900  0.00  0.00    -0.047 A 
ATOM      9  C9  IND d   1      -2.751  -0.906   2.239  0.00  0.00    -0.096 A 
ATOM     10  HN1 IND d   1      -5.638  -0.941   3.280  0.00  0.00     0.298 HD
ENDROOT
TORSDOF 0
ENDMDL
