MODEL 1
REMARK minimizedAffinity 16.2677536
REMARK minimizedRMSD -1
REMARK  0 active torsions:
REMARK  status: ('A' for Active; 'I' for Inactive)
ROOT
ATOM      1  N1  IND d   1      -5.565  -1.140   1.136  0.00  0.00    -0.196 N 
ATOM      2  C2  IND d   1      -6.000  -2.385   1.499  0.00  0.00     0.054 A 
ATOM      3  C3  IND d   1      -5.504  -2.721   2.711  0.00  0.00    -0.031 A 
ATOM      4  C4  IND d   1      -4.042  -1.341   4.320  0.00  0.00     0.051 A 
ATOM      5  C5  IND d   1      -3.361  -0.160   4.412  0.00  0.00    -0.031 A 
ATOM      6  C6  IND d   1      -3.382   0.775   3.398  0.00  0.00     0.015 A 
ATOM      7  C7  IND d   1      -4.098   0.567   2.253  0.00  0.00    -0.016 A 
ATOM      8  C8  IND d   1      -4.785  -0.634   2.153  0.00  0.00    -0.047 A 
ATOM      9  C9  IND d   1      -4.733  -1.605   3.161  0.00  0.00    -0.096 A 
ATOM     10  HN1 IND d   1      -5.748  -0.741   0.397  0.00  0.00     0.298 HD
ENDROOT
TORSDOF 0
ENDMDL
