MODEL 1
REMARK minimizedAffinity 15.4459057
REMARK minimizedRMSD -1
REMARK  0 active torsions:
REMARK  status: ('A' for Active; 'I' for Inactive)
ROOT
ATOM      1  N1  IND d   1      -1.260   0.516   1.932  0.00  0.00    -0.196 N 
ATOM      2  C2  IND d   1      -2.558   0.941   1.859  0.00  0.00     0.054 A 
ATOM      3  C3  IND d   1      -2.972   1.398   3.062  0.00  0.00    -0.031 A 
ATOM      4  C4  IND d   1      -1.656   1.635   5.262  0.00  0.00     0.051 A 
ATOM      5  C5  IND d   1      -0.448   1.346   5.831  0.00  0.00    -0.031 A 
ATOM      6  C6  IND d   1       0.573   0.756   5.115  0.00  0.00     0.015 A 
ATOM      7  C7  IND d   1       0.427   0.443   3.793  0.00  0.00    -0.016 A 
ATOM      8  C8  IND d   1      -0.801   0.728   3.214  0.00  0.00    -0.047 A 
ATOM      9  C9  IND d   1      -1.856   1.287   3.947  0.00  0.00    -0.096 A 
ATOM     10  HN1 IND d   1      -0.807   0.174   1.287  0.00  0.00     0.298 HD
ENDROOT
TORSDOF 0
ENDMDL
