MODEL 1
REMARK minimizedAffinity 14.1790695
REMARK minimizedRMSD -1
REMARK  0 active torsions:
REMARK  status: ('A' for Active; 'I' for Inactive)
ROOT
ATOM      1  N1  IND d   1      -4.471   0.752   2.713  0.00  0.00    -0.196 N 
ATOM      2  C2  IND d   1      -3.557  -0.215   3.026  0.00  0.00     0.054 A 
ATOM      3  C3  IND d   1      -2.974   0.057   4.215  0.00  0.00    -0.031 A 
ATOM      4  C4  IND d   1      -3.441   1.978   5.864  0.00  0.00     0.051 A 
ATOM      5  C5  IND d   1      -4.164   3.129   6.000  0.00  0.00    -0.031 A 
ATOM      6  C6  IND d   1      -5.047   3.554   5.028  0.00  0.00     0.015 A 
ATOM      7  C7  IND d   1      -5.248   2.834   3.885  0.00  0.00    -0.016 A 
ATOM      8  C8  IND d   1      -4.510   1.668   3.740  0.00  0.00    -0.047 A 
ATOM      9  C9  IND d   1      -3.581   1.254   4.704  0.00  0.00    -0.096 A 
ATOM     10  HN1 IND d   1      -4.943   0.782   1.994  0.00  0.00     0.298 HD
ENDROOT
TORSDOF 0
ENDMDL
