MODEL 1
REMARK minimizedAffinity 4.64252996
REMARK minimizedRMSD -1
REMARK  0 active torsions:
REMARK  status: ('A' for Active; 'I' for Inactive)
ROOT
ATOM      1  N1  IND d   1      -4.033  -3.954  -4.620  0.00  0.00    -0.196 N 
ATOM      2  C2  IND d   1      -3.742  -3.394  -5.833  0.00  0.00     0.054 A 
ATOM      3  C3  IND d   1      -2.403  -3.305  -6.000  0.00  0.00    -0.031 A 
ATOM      4  C4  IND d   1      -0.505  -4.109  -4.458  0.00  0.00     0.051 A 
ATOM      5  C5  IND d   1      -0.276  -4.649  -3.224  0.00  0.00    -0.031 A 
ATOM      6  C6  IND d   1      -1.308  -4.995  -2.376  0.00  0.00     0.015 A 
ATOM      7  C7  IND d   1      -2.614  -4.823  -2.737  0.00  0.00    -0.016 A 
ATOM      8  C8  IND d   1      -2.851  -4.268  -3.987  0.00  0.00    -0.047 A 
ATOM      9  C9  IND d   1      -1.807  -3.876  -4.834  0.00  0.00    -0.096 A 
ATOM     10  HN1 IND d   1      -4.822  -4.087  -4.306  0.00  0.00     0.298 HD
ENDROOT
TORSDOF 0
ENDMDL
