MODEL 1
REMARK minimizedAffinity 10.9103365
REMARK minimizedRMSD -1
REMARK  0 active torsions:
REMARK  status: ('A' for Active; 'I' for Inactive)
ROOT
ATOM      1  N1  IND d   1      -3.163   1.913   3.240  0.00  0.00    -0.196 N 
ATOM      2  C2  IND d   1      -3.943   0.837   2.923  0.00  0.00     0.054 A 
ATOM      3  C3  IND d   1      -3.173  -0.248   2.684  0.00  0.00    -0.031 A 
ATOM      4  C4  IND d   1      -0.618  -0.510   2.855  0.00  0.00     0.051 A 
ATOM      5  C5  IND d   1       0.526   0.205   3.076  0.00  0.00    -0.031 A 
ATOM      6  C6  IND d   1       0.498   1.553   3.371  0.00  0.00     0.015 A 
ATOM      7  C7  IND d   1      -0.681   2.236   3.468  0.00  0.00    -0.016 A 
ATOM      8  C8  IND d   1      -1.844   1.515   3.238  0.00  0.00    -0.047 A 
ATOM      9  C9  IND d   1      -1.819   0.157   2.896  0.00  0.00    -0.096 A 
ATOM     10  HN1 IND d   1      -3.447   2.706   3.412  0.00  0.00     0.298 HD
ENDROOT
TORSDOF 0
ENDMDL
