MODEL 1
REMARK minimizedAffinity -0.853138447
REMARK minimizedRMSD -1
REMARK  0 active torsions:
REMARK  status: ('A' for Active; 'I' for Inactive)
ROOT
ATOM      1  C   UNL d   1      -1.337  -2.089   1.560  0.00  0.00     0.020 A 
ATOM      2  C1  UNL d   1      -1.255  -3.013   0.519  0.00  0.00     0.020 A 
ATOM      3  C2  UNL d   1      -0.592  -2.676  -0.663  0.00  0.00     0.034 A 
ATOM      4  C3  UNL d   1      -0.009  -1.412  -0.807  0.00  0.00     0.017 A 
ATOM      5  C4  UNL d   1      -0.092  -0.485   0.239  0.00  0.00     0.017 A 
ATOM      6  C5  UNL d   1      -0.756  -0.828   1.420  0.00  0.00     0.034 A 
ATOM      7 Cl   UNL d   1       0.603   1.094   0.135  0.00  0.00    -0.070 Cl
ATOM      8 Cl1  UNL d   1       0.795  -1.062  -2.296  0.00  0.00    -0.070 Cl
ENDROOT
TORSDOF 0
ENDMDL
