MODEL 1
REMARK minimizedAffinity -1.98504376
REMARK minimizedRMSD -1
REMARK  0 active torsions:
REMARK  status: ('A' for Active; 'I' for Inactive)
ROOT
ATOM      1  C   UNL d   1       0.252  -1.536   1.353  0.00  0.00     0.020 A 
ATOM      2  C1  UNL d   1      -0.565  -1.766   0.247  0.00  0.00     0.020 A 
ATOM      3  C2  UNL d   1      -0.719  -0.776  -0.726  0.00  0.00     0.034 A 
ATOM      4  C3  UNL d   1      -0.055   0.449  -0.594  0.00  0.00     0.017 A 
ATOM      5  C4  UNL d   1       0.765   0.679   0.516  0.00  0.00     0.017 A 
ATOM      6  C5  UNL d   1       0.916  -0.316   1.487  0.00  0.00     0.034 A 
ATOM      7 Cl   UNL d   1       1.617   2.165   0.748  0.00  0.00    -0.070 Cl
ATOM      8 Cl1  UNL d   1      -0.290   1.628  -1.835  0.00  0.00    -0.070 Cl
ENDROOT
TORSDOF 0
ENDMDL
