MODEL 1
REMARK minimizedAffinity -0.823492527
REMARK minimizedRMSD -1
REMARK  0 active torsions:
REMARK  status: ('A' for Active; 'I' for Inactive)
ROOT
ATOM      1  C   UNL d   1      -1.410  -2.427   0.828  0.00  0.00     0.020 A 
ATOM      2  C1  UNL d   1      -0.831  -1.841   1.953  0.00  0.00     0.020 A 
ATOM      3  C2  UNL d   1       0.090  -0.801   1.802  0.00  0.00     0.034 A 
ATOM      4  C3  UNL d   1       0.433  -0.345   0.524  0.00  0.00     0.017 A 
ATOM      5  C4  UNL d   1      -0.149  -0.935  -0.604  0.00  0.00     0.017 A 
ATOM      6  C5  UNL d   1      -1.070  -1.975  -0.447  0.00  0.00     0.034 A 
ATOM      7 Cl   UNL d   1       0.225  -0.426  -2.213  0.00  0.00    -0.070 Cl
ATOM      8 Cl1  UNL d   1       1.577   0.945   0.412  0.00  0.00    -0.070 Cl
ENDROOT
TORSDOF 0
ENDMDL
