MODEL 1
REMARK minimizedAffinity -1.98549509
REMARK minimizedRMSD -1
REMARK  0 active torsions:
REMARK  status: ('A' for Active; 'I' for Inactive)
ROOT
ATOM      1  C   UNL d   1      -0.265   1.289  -1.792  0.00  0.00     0.020 A 
ATOM      2  C1  UNL d   1       0.134   2.602  -1.543  0.00  0.00     0.020 A 
ATOM      3  C2  UNL d   1       0.482   2.992  -0.248  0.00  0.00     0.034 A 
ATOM      4  C3  UNL d   1       0.432   2.069   0.803  0.00  0.00     0.017 A 
ATOM      5  C4  UNL d   1       0.031   0.752   0.552  0.00  0.00     0.017 A 
ATOM      6  C5  UNL d   1      -0.316   0.366  -0.747  0.00  0.00     0.034 A 
ATOM      7 Cl   UNL d   1      -0.056  -0.444   1.797  0.00  0.00    -0.070 Cl
ATOM      8 Cl1  UNL d   1       0.876   2.621   2.379  0.00  0.00    -0.070 Cl
ENDROOT
TORSDOF 0
ENDMDL
