MODEL 1
REMARK minimizedAffinity -4.019835
REMARK minimizedRMSD -1
REMARK  0 active torsions:
REMARK  status: ('A' for Active; 'I' for Inactive)
ROOT
ATOM      1  C   UNL d   1      -4.383   1.428   1.361  0.00  0.00     0.020 A 
ATOM      2  C1  UNL d   1      -3.924   2.067   0.210  0.00  0.00     0.020 A 
ATOM      3  C2  UNL d   1      -2.677   1.733  -0.324  0.00  0.00     0.034 A 
ATOM      4  C3  UNL d   1      -1.886   0.758   0.292  0.00  0.00     0.017 A 
ATOM      5  C4  UNL d   1      -2.347   0.117   1.448  0.00  0.00     0.017 A 
ATOM      6  C5  UNL d   1      -3.596   0.455   1.979  0.00  0.00     0.034 A 
ATOM      7 Cl   UNL d   1      -1.427  -1.097   2.265  0.00  0.00    -0.070 Cl
ATOM      8 Cl1  UNL d   1      -0.355   0.395  -0.423  0.00  0.00    -0.070 Cl
ENDROOT
TORSDOF 0
ENDMDL
