MODEL 1
REMARK minimizedAffinity -3.95447826
REMARK minimizedRMSD -1
REMARK  0 active torsions:
REMARK  status: ('A' for Active; 'I' for Inactive)
ROOT
ATOM      1  C   UNL d   1       0.317  -1.166  -0.654  0.00  0.00     0.020 A 
ATOM      2  C1  UNL d   1       0.129  -2.202   0.260  0.00  0.00     0.020 A 
ATOM      3  C2  UNL d   1      -0.730  -2.028   1.347  0.00  0.00     0.034 A 
ATOM      4  C3  UNL d   1      -1.405  -0.814   1.522  0.00  0.00     0.017 A 
ATOM      5  C4  UNL d   1      -1.216   0.225   0.604  0.00  0.00     0.017 A 
ATOM      6  C5  UNL d   1      -0.354   0.045  -0.482  0.00  0.00     0.034 A 
ATOM      7 Cl   UNL d   1      -2.013   1.751   0.755  0.00  0.00    -0.070 Cl
ATOM      8 Cl1  UNL d   1      -2.453  -0.668   2.888  0.00  0.00    -0.070 Cl
ENDROOT
TORSDOF 0
ENDMDL
