MODEL 1
REMARK minimizedAffinity -3.93663406
REMARK minimizedRMSD -1
REMARK  0 active torsions:
REMARK  status: ('A' for Active; 'I' for Inactive)
ROOT
ATOM      1  C   UNL d   1       0.751  -2.373   0.235  0.00  0.00     0.020 A 
ATOM      2  C1  UNL d   1      -0.528  -2.711   0.676  0.00  0.00     0.020 A 
ATOM      3  C2  UNL d   1      -1.475  -1.710   0.903  0.00  0.00     0.034 A 
ATOM      4  C3  UNL d   1      -1.145  -0.367   0.688  0.00  0.00     0.017 A 
ATOM      5  C4  UNL d   1       0.139  -0.029   0.245  0.00  0.00     0.017 A 
ATOM      6  C5  UNL d   1       1.084  -1.035   0.020  0.00  0.00     0.034 A 
ATOM      7 Cl   UNL d   1       0.621   1.606  -0.041  0.00  0.00    -0.070 Cl
ATOM      8 Cl1  UNL d   1      -2.366   0.819   0.988  0.00  0.00    -0.070 Cl
ENDROOT
TORSDOF 0
ENDMDL
