MODEL 1
REMARK minimizedAffinity -4.27762699
REMARK minimizedRMSD -1
REMARK  0 active torsions:
REMARK  status: ('A' for Active; 'I' for Inactive)
ROOT
ATOM      1  C   UNL d   1      -0.940  -1.662   1.770  0.00  0.00     0.020 A 
ATOM      2  C1  UNL d   1      -0.582  -2.853   1.140  0.00  0.00     0.020 A 
ATOM      3  C2  UNL d   1       0.040  -2.822  -0.110  0.00  0.00     0.034 A 
ATOM      4  C3  UNL d   1       0.306  -1.597  -0.734  0.00  0.00     0.017 A 
ATOM      5  C4  UNL d   1      -0.054  -0.402  -0.100  0.00  0.00     0.017 A 
ATOM      6  C5  UNL d   1      -0.676  -0.439   1.151  0.00  0.00     0.034 A 
ATOM      7 Cl   UNL d   1       0.242   1.147  -0.807  0.00  0.00    -0.070 Cl
ATOM      8 Cl1  UNL d   1       1.078  -1.633  -2.279  0.00  0.00    -0.070 Cl
ENDROOT
TORSDOF 0
ENDMDL
