MODEL 1
REMARK minimizedAffinity -1.38047695
REMARK minimizedRMSD -1
REMARK  0 active torsions:
REMARK  status: ('A' for Active; 'I' for Inactive)
ROOT
ATOM      1  C   UNL d   1       0.222  -1.014  -0.769  0.00  0.00     0.020 A 
ATOM      2  C1  UNL d   1      -0.380  -1.458   0.407  0.00  0.00     0.020 A 
ATOM      3  C2  UNL d   1      -0.352  -0.658   1.551  0.00  0.00     0.034 A 
ATOM      4  C3  UNL d   1       0.279   0.591   1.522  0.00  0.00     0.017 A 
ATOM      5  C4  UNL d   1       0.883   1.036   0.340  0.00  0.00     0.017 A 
ATOM      6  C5  UNL d   1       0.852   0.231  -0.803  0.00  0.00     0.034 A 
ATOM      7 Cl   UNL d   1       1.681   2.565   0.226  0.00  0.00    -0.070 Cl
ATOM      8 Cl1  UNL d   1       0.275   1.528   2.973  0.00  0.00    -0.070 Cl
ENDROOT
TORSDOF 0
ENDMDL
