MODEL 1
REMARK minimizedAffinity -4.04337931
REMARK minimizedRMSD -1
REMARK  0 active torsions:
REMARK  status: ('A' for Active; 'I' for Inactive)
ROOT
ATOM      1  C   UNL d   1       0.805  -0.314  -0.913  0.00  0.00     0.020 A 
ATOM      2  C1  UNL d   1      -0.009   0.467  -0.095  0.00  0.00     0.020 A 
ATOM      3  C2  UNL d   1      -0.837  -0.141   0.851  0.00  0.00     0.034 A 
ATOM      4  C3  UNL d   1      -0.853  -1.534   0.981  0.00  0.00     0.017 A 
ATOM      5  C4  UNL d   1      -0.035  -2.318   0.159  0.00  0.00     0.017 A 
ATOM      6  C5  UNL d   1       0.792  -1.704  -0.786  0.00  0.00     0.034 A 
ATOM      7 Cl   UNL d   1      -0.000  -4.043   0.260  0.00  0.00    -0.070 Cl
ATOM      8 Cl1  UNL d   1      -1.901  -2.218   2.172  0.00  0.00    -0.070 Cl
ENDROOT
TORSDOF 0
ENDMDL
