MODEL 1
REMARK minimizedAffinity -3.21045899
REMARK minimizedRMSD -1
REMARK  0 active torsions:
REMARK  status: ('A' for Active; 'I' for Inactive)
ROOT
ATOM      1  C   UNL d   1      -0.979  -3.526   1.076  0.00  0.00     0.020 A 
ATOM      2  C1  UNL d   1      -1.334  -2.660   0.043  0.00  0.00     0.020 A 
ATOM      3  C2  UNL d   1      -0.994  -1.307   0.117  0.00  0.00     0.034 A 
ATOM      4  C3  UNL d   1      -0.297  -0.817   1.227  0.00  0.00     0.017 A 
ATOM      5  C4  UNL d   1       0.059  -1.687   2.264  0.00  0.00     0.017 A 
ATOM      6  C5  UNL d   1      -0.284  -3.040   2.185  0.00  0.00     0.034 A 
ATOM      7 Cl   UNL d   1       0.919  -1.155   3.665  0.00  0.00    -0.070 Cl
ATOM      8 Cl1  UNL d   1       0.091   0.867   1.252  0.00  0.00    -0.070 Cl
ENDROOT
TORSDOF 0
ENDMDL
