MODEL 1
REMARK minimizedAffinity -3.57916284
REMARK minimizedRMSD -1
REMARK  0 active torsions:
REMARK  status: ('A' for Active; 'I' for Inactive)
ROOT
ATOM      1  C   UNL d   1       0.024  -3.102   1.159  0.00  0.00     0.020 A 
ATOM      2  C1  UNL d   1      -0.458  -2.048   1.934  0.00  0.00     0.020 A 
ATOM      3  C2  UNL d   1      -0.554  -0.767   1.387  0.00  0.00     0.034 A 
ATOM      4  C3  UNL d   1      -0.168  -0.536   0.062  0.00  0.00     0.017 A 
ATOM      5  C4  UNL d   1       0.316  -1.595  -0.715  0.00  0.00     0.017 A 
ATOM      6  C5  UNL d   1       0.410  -2.876  -0.163  0.00  0.00     0.034 A 
ATOM      7 Cl   UNL d   1       0.812  -1.388  -2.358  0.00  0.00    -0.070 Cl
ATOM      8 Cl1  UNL d   1      -0.314   1.073  -0.549  0.00  0.00    -0.070 Cl
ENDROOT
TORSDOF 0
ENDMDL
