MODEL 1
REMARK minimizedAffinity -0.0156947002
REMARK minimizedRMSD -1
REMARK  0 active torsions:
REMARK  status: ('A' for Active; 'I' for Inactive)
ROOT
ATOM      1  C   UNL d   1      -1.008  -2.659   1.129  0.00  0.00     0.020 A 
ATOM      2  C1  UNL d   1      -1.176  -1.485   1.863  0.00  0.00     0.020 A 
ATOM      3  C2  UNL d   1      -0.816  -0.256   1.306  0.00  0.00     0.034 A 
ATOM      4  C3  UNL d   1      -0.286  -0.198   0.012  0.00  0.00     0.017 A 
ATOM      5  C4  UNL d   1      -0.117  -1.377  -0.724  0.00  0.00     0.017 A 
ATOM      6  C5  UNL d   1      -0.480  -2.604  -0.161  0.00  0.00     0.034 A 
ATOM      7 Cl   UNL d   1       0.531  -1.385  -2.326  0.00  0.00    -0.070 Cl
ATOM      8 Cl1  UNL d   1       0.137   1.356  -0.614  0.00  0.00    -0.070 Cl
ENDROOT
TORSDOF 0
ENDMDL
