MODEL 1
REMARK minimizedAffinity -4.2703371
REMARK minimizedRMSD -1
REMARK  0 active torsions:
REMARK  status: ('A' for Active; 'I' for Inactive)
ROOT
ATOM      1  C   UNL d   1      -1.504  -2.695   0.945  0.00  0.00     0.020 A 
ATOM      2  C1  UNL d   1      -1.569  -1.633   1.846  0.00  0.00     0.020 A 
ATOM      3  C2  UNL d   1      -0.883  -0.447   1.578  0.00  0.00     0.034 A 
ATOM      4  C3  UNL d   1      -0.129  -0.319   0.406  0.00  0.00     0.017 A 
ATOM      5  C4  UNL d   1      -0.063  -1.386  -0.498  0.00  0.00     0.017 A 
ATOM      6  C5  UNL d   1      -0.752  -2.572  -0.225  0.00  0.00     0.034 A 
ATOM      7 Cl   UNL d   1       0.847  -1.304  -1.965  0.00  0.00    -0.070 Cl
ATOM      8 Cl1  UNL d   1       0.694   1.176   0.138  0.00  0.00    -0.070 Cl
ENDROOT
TORSDOF 0
ENDMDL
