MODEL 1
REMARK minimizedAffinity -3.42893767
REMARK minimizedRMSD -1
REMARK  0 active torsions:
REMARK  status: ('A' for Active; 'I' for Inactive)
ROOT
ATOM      1  C   UNL d   1       0.723  -2.898   0.505  0.00  0.00     0.020 A 
ATOM      2  C1  UNL d   1      -0.576  -3.364   0.705  0.00  0.00     0.020 A 
ATOM      3  C2  UNL d   1      -1.627  -2.456   0.860  0.00  0.00     0.034 A 
ATOM      4  C3  UNL d   1      -1.380  -1.079   0.815  0.00  0.00     0.017 A 
ATOM      5  C4  UNL d   1      -0.076  -0.613   0.615  0.00  0.00     0.017 A 
ATOM      6  C5  UNL d   1       0.972  -1.526   0.460  0.00  0.00     0.034 A 
ATOM      7 Cl   UNL d   1       0.307   1.071   0.548  0.00  0.00    -0.070 Cl
ATOM      8 Cl1  UNL d   1      -2.726  -0.015   1.015  0.00  0.00    -0.070 Cl
ENDROOT
TORSDOF 0
ENDMDL
