MODEL 1
REMARK minimizedAffinity 11.1089621
REMARK minimizedRMSD -1
REMARK  0 active torsions:
REMARK  status: ('A' for Active; 'I' for Inactive)
ROOT
ATOM      1  C   UNL d   1       0.638   5.583   2.665  0.00  0.00     0.020 A 
ATOM      2  C1  UNL d   1      -0.462   4.832   2.252  0.00  0.00     0.020 A 
ATOM      3  C2  UNL d   1      -0.308   3.846   1.275  0.00  0.00     0.034 A 
ATOM      4  C3  UNL d   1       0.949   3.608   0.707  0.00  0.00     0.017 A 
ATOM      5  C4  UNL d   1       2.053   4.362   1.122  0.00  0.00     0.017 A 
ATOM      6  C5  UNL d   1       1.893   5.348   2.101  0.00  0.00     0.034 A 
ATOM      7 Cl   UNL d   1       3.635   4.127   0.468  0.00  0.00    -0.070 Cl
ATOM      8 Cl1  UNL d   1       1.067   2.373  -0.495  0.00  0.00    -0.070 Cl
ENDROOT
TORSDOF 0
ENDMDL
