MODEL 1
REMARK minimizedAffinity 6.38785839
REMARK minimizedRMSD -1
REMARK  0 active torsions:
REMARK  status: ('A' for Active; 'I' for Inactive)
ROOT
ATOM      1  C   UNL d   1      -0.886  -0.192   0.355  0.00  0.00     0.020 A 
ATOM      2  C1  UNL d   1      -0.699   0.492   1.556  0.00  0.00     0.020 A 
ATOM      3  C2  UNL d   1       0.082   1.650   1.586  0.00  0.00     0.034 A 
ATOM      4  C3  UNL d   1       0.678   2.127   0.413  0.00  0.00     0.017 A 
ATOM      5  C4  UNL d   1       0.490   1.440  -0.791  0.00  0.00     0.017 A 
ATOM      6  C5  UNL d   1      -0.292   0.281  -0.816  0.00  0.00     0.034 A 
ATOM      7 Cl   UNL d   1       1.195   1.967  -2.279  0.00  0.00    -0.070 Cl
ATOM      8 Cl1  UNL d   1       1.630   3.565   0.524  0.00  0.00    -0.070 Cl
ENDROOT
TORSDOF 0
ENDMDL
