MODEL 1
REMARK minimizedAffinity 1.28012776
REMARK minimizedRMSD -1
REMARK  0 active torsions:
REMARK  status: ('A' for Active; 'I' for Inactive)
ROOT
ATOM      1  C   UNL d   1      -2.377   5.794   2.178  0.00  0.00     0.124 A 
ATOM      2  C1  UNL d   1      -2.088   5.845   3.534  0.00  0.00     0.062 A 
ATOM      3  C2  UNL d   1      -3.118   5.903   4.468  0.00  0.00     0.162 A 
ATOM      4  C3  UNL d   1      -4.449   5.908   4.049  0.00  0.00    -0.034 A 
ATOM      5  C4  UNL d   1      -4.732   5.857   2.683  0.00  0.00     0.162 A 
ATOM      6  C5  UNL d   1      -3.699   5.800   1.753  0.00  0.00     0.062 A 
ATOM      7  F   UNL d   1      -3.980   5.750   0.443  0.00  0.00    -0.097 F 
ATOM      8  F1  UNL d   1      -6.000   5.861   2.245  0.00  0.00    -0.096 F 
ATOM      9  I   UNL d   1      -5.992   5.995   5.442  0.00  0.00    -0.060 I 
ATOM     10  F2  UNL d   1      -2.809   5.952   5.772  0.00  0.00    -0.096 F 
ATOM     11  F3  UNL d   1      -0.812   5.841   3.946  0.00  0.00    -0.097 F 
ATOM     12  F4  UNL d   1      -1.384   5.739   1.281  0.00  0.00    -0.092 F 
ENDROOT
TORSDOF 0
ENDMDL
