MODEL 1
REMARK minimizedAffinity 15.226347
REMARK minimizedRMSD -1
REMARK  0 active torsions:
REMARK  status: ('A' for Active; 'I' for Inactive)
ROOT
ATOM      1  C   UNL d   1       3.674   2.456   0.613  0.00  0.00     0.124 A 
ATOM      2  C1  UNL d   1       4.768   1.608   0.515  0.00  0.00     0.062 A 
ATOM      3  C2  UNL d   1       4.591   0.275   0.154  0.00  0.00     0.162 A 
ATOM      4  C3  UNL d   1       3.314  -0.218  -0.113  0.00  0.00    -0.034 A 
ATOM      5  C4  UNL d   1       2.218   0.641  -0.012  0.00  0.00     0.162 A 
ATOM      6  C5  UNL d   1       2.400   1.972   0.349  0.00  0.00     0.062 A 
ATOM      7  F   UNL d   1       1.342   2.790   0.443  0.00  0.00    -0.097 F 
ATOM      8  F1  UNL d   1       0.976   0.200  -0.262  0.00  0.00    -0.096 F 
ATOM      9  I   UNL d   1       3.044  -2.210  -0.653  0.00  0.00    -0.060 I 
ATOM     10  F2  UNL d   1       5.666  -0.522   0.068  0.00  0.00    -0.096 F 
ATOM     11  F3  UNL d   1       6.000   2.072   0.770  0.00  0.00    -0.097 F 
ATOM     12  F4  UNL d   1       3.847   3.737   0.961  0.00  0.00    -0.092 F 
ENDROOT
TORSDOF 0
ENDMDL
