MODEL 1
REMARK minimizedAffinity 21.9646854
REMARK minimizedRMSD -1
REMARK  0 active torsions:
REMARK  status: ('A' for Active; 'I' for Inactive)
ROOT
ATOM      1  C   UNL d   1       3.373   1.377  -0.516  0.00  0.00     0.124 A 
ATOM      2  C1  UNL d   1       3.741   2.562   0.107  0.00  0.00     0.062 A 
ATOM      3  C2  UNL d   1       3.163   2.924   1.320  0.00  0.00     0.162 A 
ATOM      4  C3  UNL d   1       2.211   2.099   1.920  0.00  0.00    -0.034 A 
ATOM      5  C4  UNL d   1       1.846   0.909   1.288  0.00  0.00     0.162 A 
ATOM      6  C5  UNL d   1       2.427   0.552   0.075  0.00  0.00     0.062 A 
ATOM      7  F   UNL d   1       2.071  -0.594  -0.524  0.00  0.00    -0.097 F 
ATOM      8  F1  UNL d   1       0.935   0.092   1.838  0.00  0.00    -0.096 F 
ATOM      9  I   UNL d   1       1.345   2.637   3.735  0.00  0.00    -0.060 I 
ATOM     10  F2  UNL d   1       3.537   4.075   1.899  0.00  0.00    -0.096 F 
ATOM     11  F3  UNL d   1       4.654   3.361  -0.463  0.00  0.00    -0.097 F 
ATOM     12  F4  UNL d   1       3.930   1.031  -1.684  0.00  0.00    -0.092 F 
ENDROOT
TORSDOF 0
ENDMDL
