MODEL 1
REMARK minimizedAffinity 1.06766868
REMARK minimizedRMSD -1
REMARK  0 active torsions:
REMARK  status: ('A' for Active; 'I' for Inactive)
ROOT
ATOM      1  N1  IND d   1       2.060   3.996  -5.078  0.00  0.00    -0.196 N 
ATOM      2  C2  IND d   1       1.514   5.046  -5.762  0.00  0.00     0.054 A 
ATOM      3  C3  IND d   1       2.447   5.999  -5.983  0.00  0.00    -0.031 A 
ATOM      4  C4  IND d   1       4.954   6.000  -5.401  0.00  0.00     0.051 A 
ATOM      5  C5  IND d   1       5.907   5.275  -4.742  0.00  0.00    -0.031 A 
ATOM      6  C6  IND d   1       5.622   4.060  -4.153  0.00  0.00     0.015 A 
ATOM      7  C7  IND d   1       4.369   3.518  -4.209  0.00  0.00    -0.016 A 
ATOM      8  C8  IND d   1       3.397   4.255  -4.871  0.00  0.00    -0.047 A 
ATOM      9  C9  IND d   1       3.671   5.508  -5.435  0.00  0.00    -0.096 A 
ATOM     10  HN1 IND d   1       1.639   3.291  -4.821  0.00  0.00     0.298 HD
ENDROOT
TORSDOF 0
ENDMDL
