MODEL 1
REMARK minimizedAffinity 1.7483803
REMARK minimizedRMSD -1
REMARK  0 active torsions:
REMARK  status: ('A' for Active; 'I' for Inactive)
ROOT
ATOM      1  N1  IND d   1       6.000   2.704  -4.489  0.00  0.00    -0.196 N 
ATOM      2  C2  IND d   1       5.054   2.033  -3.765  0.00  0.00     0.054 A 
ATOM      3  C3  IND d   1       3.906   2.745  -3.716  0.00  0.00    -0.031 A 
ATOM      4  C4  IND d   1       3.323   4.987  -4.839  0.00  0.00     0.051 A 
ATOM      5  C5  IND d   1       3.875   6.000  -5.573  0.00  0.00    -0.031 A 
ATOM      6  C6  IND d   1       5.188   5.964  -5.994  0.00  0.00     0.015 A 
ATOM      7  C7  IND d   1       6.000   4.903  -5.705  0.00  0.00    -0.016 A 
ATOM      8  C8  IND d   1       5.445   3.877  -4.953  0.00  0.00    -0.047 A 
ATOM      9  C9  IND d   1       4.125   3.927  -4.487  0.00  0.00    -0.096 A 
ATOM     10  HN1 IND d   1       6.805   2.439  -4.630  0.00  0.00     0.298 HD
ENDROOT
TORSDOF 0
ENDMDL
