MODEL 1
REMARK minimizedAffinity 1.20621192
REMARK minimizedRMSD -1
REMARK  0 active torsions:
REMARK  status: ('A' for Active; 'I' for Inactive)
ROOT
ATOM      1  N1  IND d   1       0.405   5.977  -2.858  0.00  0.00    -0.196 N 
ATOM      2  C2  IND d   1       0.624   5.949  -4.207  0.00  0.00     0.054 A 
ATOM      3  C3  IND d   1      -0.552   5.914  -4.874  0.00  0.00    -0.031 A 
ATOM      4  C4  IND d   1      -2.955   6.000  -3.956  0.00  0.00     0.051 A 
ATOM      5  C5  IND d   1      -3.663   5.995  -2.786  0.00  0.00    -0.031 A 
ATOM      6  C6  IND d   1      -3.038   5.986  -1.556  0.00  0.00     0.015 A 
ATOM      7  C7  IND d   1      -1.676   5.994  -1.449  0.00  0.00    -0.016 A 
ATOM      8  C8  IND d   1      -0.954   5.992  -2.635  0.00  0.00    -0.047 A 
ATOM      9  C9  IND d   1      -1.583   5.958  -3.886  0.00  0.00    -0.096 A 
ATOM     10  HN1 IND d   1       1.014   5.985  -2.251  0.00  0.00     0.298 HD
ENDROOT
TORSDOF 0
ENDMDL
