MODEL 1
REMARK minimizedAffinity 1.8972826
REMARK minimizedRMSD -1
REMARK  0 active torsions:
REMARK  status: ('A' for Active; 'I' for Inactive)
ROOT
ATOM      1  N1  IND d   1       0.434  -0.426   0.722  0.00  0.00    -0.196 N 
ATOM      2  C2  IND d   1       0.185   0.083   1.965  0.00  0.00     0.054 A 
ATOM      3  C3  IND d   1       0.559   1.381   2.026  0.00  0.00    -0.031 A 
ATOM      4  C4  IND d   1       1.506   2.898   0.174  0.00  0.00     0.051 A 
ATOM      5  C5  IND d   1       1.943   2.873  -1.121  0.00  0.00    -0.031 A 
ATOM      6  C6  IND d   1       1.895   1.724  -1.884  0.00  0.00     0.015 A 
ATOM      7  C7  IND d   1       1.396   0.555  -1.382  0.00  0.00    -0.016 A 
ATOM      8  C8  IND d   1       0.959   0.575  -0.065  0.00  0.00    -0.047 A 
ATOM      9  C9  IND d   1       1.044   1.727   0.727  0.00  0.00    -0.096 A 
ATOM     10  HN1 IND d   1       0.288  -1.236   0.472  0.00  0.00     0.298 HD
ENDROOT
TORSDOF 0
ENDMDL
