MODEL 1
REMARK minimizedAffinity 3.965832
REMARK minimizedRMSD -1
REMARK  0 active torsions:
REMARK  status: ('A' for Active; 'I' for Inactive)
ROOT
ATOM      1  N1  IND d   1      -0.379   5.706  -6.000  0.00  0.00    -0.196 N 
ATOM      2  C2  IND d   1       0.961   5.502  -5.829  0.00  0.00     0.054 A 
ATOM      3  C3  IND d   1       1.265   5.452  -4.512  0.00  0.00    -0.031 A 
ATOM      4  C4  IND d   1      -0.295   5.579  -2.468  0.00  0.00     0.051 A 
ATOM      5  C5  IND d   1      -1.598   5.799  -2.119  0.00  0.00    -0.031 A 
ATOM      6  C6  IND d   1      -2.582   6.000  -3.066  0.00  0.00     0.015 A 
ATOM      7  C7  IND d   1      -2.300   5.978  -4.402  0.00  0.00    -0.016 A 
ATOM      8  C8  IND d   1      -0.976   5.762  -4.760  0.00  0.00    -0.047 A 
ATOM      9  C9  IND d   1       0.034   5.600  -3.803  0.00  0.00    -0.096 A 
ATOM     10  HN1 IND d   1      -0.782   5.787  -6.755  0.00  0.00     0.298 HD
ENDROOT
TORSDOF 0
ENDMDL
