MODEL 1
REMARK minimizedAffinity 8.8761282
REMARK minimizedRMSD -1
REMARK  0 active torsions:
REMARK  status: ('A' for Active; 'I' for Inactive)
ROOT
ATOM      1  N1  IND d   1      -1.565   5.926  -4.832  0.00  0.00    -0.196 N 
ATOM      2  C2  IND d   1      -0.198   5.942  -4.808  0.00  0.00     0.054 A 
ATOM      3  C3  IND d   1       0.250   5.999  -3.534  0.00  0.00    -0.031 A 
ATOM      4  C4  IND d   1      -1.080   5.970  -1.330  0.00  0.00     0.051 A 
ATOM      5  C5  IND d   1      -2.356   5.998  -0.841  0.00  0.00    -0.031 A 
ATOM      6  C6  IND d   1      -3.456   6.000  -1.675  0.00  0.00     0.015 A 
ATOM      7  C7  IND d   1      -3.320   5.963  -3.034  0.00  0.00    -0.016 A 
ATOM      8  C8  IND d   1      -2.025   5.942  -3.533  0.00  0.00    -0.047 A 
ATOM      9  C9  IND d   1      -0.905   5.983  -2.694  0.00  0.00    -0.096 A 
ATOM     10  HN1 IND d   1      -2.054   5.909  -5.538  0.00  0.00     0.298 HD
ENDROOT
TORSDOF 0
ENDMDL
