MODEL 1
REMARK minimizedAffinity 9.50664139
REMARK minimizedRMSD -1
REMARK  0 active torsions:
REMARK  status: ('A' for Active; 'I' for Inactive)
ROOT
ATOM      1  N1  IND d   1       0.808  -0.303   0.687  0.00  0.00    -0.196 N 
ATOM      2  C2  IND d   1       0.081  -0.084   1.824  0.00  0.00     0.054 A 
ATOM      3  C3  IND d   1      -0.071   1.243   2.037  0.00  0.00    -0.031 A 
ATOM      4  C4  IND d   1       0.700   3.230   0.594  0.00  0.00     0.051 A 
ATOM      5  C5  IND d   1       1.432   3.532  -0.520  0.00  0.00    -0.031 A 
ATOM      6  C6  IND d   1       2.002   2.552  -1.306  0.00  0.00     0.015 A 
ATOM      7  C7  IND d   1       1.852   1.226  -1.012  0.00  0.00    -0.016 A 
ATOM      8  C8  IND d   1       1.115   0.916   0.122  0.00  0.00    -0.047 A 
ATOM      9  C9  IND d   1       0.570   1.908   0.947  0.00  0.00    -0.096 A 
ATOM     10  HN1 IND d   1       1.035  -1.072   0.377  0.00  0.00     0.298 HD
ENDROOT
TORSDOF 0
ENDMDL
