MODEL 1
REMARK minimizedAffinity 0.0535469726
REMARK minimizedRMSD -1
REMARK  0 active torsions:
REMARK  status: ('A' for Active; 'I' for Inactive)
ROOT
ATOM      1  N1  IND d   1      -4.907   5.975  -2.834  0.00  0.00    -0.196 N 
ATOM      2  C2  IND d   1      -4.908   5.992  -1.467  0.00  0.00     0.054 A 
ATOM      3  C3  IND d   1      -3.641   5.966  -0.996  0.00  0.00    -0.031 A 
ATOM      4  C4  IND d   1      -1.414   5.998  -2.287  0.00  0.00     0.051 A 
ATOM      5  C5  IND d   1      -0.903   5.948  -3.554  0.00  0.00    -0.031 A 
ATOM      6  C6  IND d   1      -1.717   5.906  -4.668  0.00  0.00     0.015 A 
ATOM      7  C7  IND d   1      -3.078   5.925  -4.556  0.00  0.00    -0.016 A 
ATOM      8  C8  IND d   1      -3.601   5.969  -3.272  0.00  0.00    -0.047 A 
ATOM      9  C9  IND d   1      -2.781   5.968  -2.136  0.00  0.00    -0.096 A 
ATOM     10  HN1 IND d   1      -5.605   5.970  -3.336  0.00  0.00     0.298 HD
ENDROOT
TORSDOF 0
ENDMDL
