MODEL 1
REMARK minimizedAffinity 7.17147636
REMARK minimizedRMSD -1
REMARK  0 active torsions:
REMARK  status: ('A' for Active; 'I' for Inactive)
ROOT
ATOM      1  N1  IND d   1      -3.995   5.925  -3.008  0.00  0.00    -0.196 N 
ATOM      2  C2  IND d   1      -3.150   5.942  -4.083  0.00  0.00     0.054 A 
ATOM      3  C3  IND d   1      -1.864   5.999  -3.669  0.00  0.00    -0.031 A 
ATOM      4  C4  IND d   1      -0.912   5.970  -1.278  0.00  0.00     0.051 A 
ATOM      5  C5  IND d   1      -1.295   5.997   0.034  0.00  0.00    -0.031 A 
ATOM      6  C6  IND d   1      -2.624   5.999   0.406  0.00  0.00     0.015 A 
ATOM      7  C7  IND d   1      -3.624   5.962  -0.523  0.00  0.00    -0.016 A 
ATOM      8  C8  IND d   1      -3.239   5.941  -1.857  0.00  0.00    -0.047 A 
ATOM      9  C9  IND d   1      -1.893   5.982  -2.241  0.00  0.00    -0.096 A 
ATOM     10  HN1 IND d   1      -4.854   5.907  -3.046  0.00  0.00     0.298 HD
ENDROOT
TORSDOF 0
ENDMDL
