MODEL 1
REMARK minimizedAffinity 3.15889072
REMARK minimizedRMSD -1
REMARK  0 active torsions:
REMARK  status: ('A' for Active; 'I' for Inactive)
ROOT
ATOM      1  N1  IND d   1      -1.648   5.934  -0.852  0.00  0.00    -0.196 N 
ATOM      2  C2  IND d   1      -2.910   5.949  -0.327  0.00  0.00     0.054 A 
ATOM      3  C3  IND d   1      -3.830   6.000  -1.316  0.00  0.00    -0.031 A 
ATOM      4  C4  IND d   1      -3.492   5.962  -3.868  0.00  0.00     0.051 A 
ATOM      5  C5  IND d   1      -2.517   5.989  -4.826  0.00  0.00    -0.031 A 
ATOM      6  C6  IND d   1      -1.176   5.995  -4.502  0.00  0.00     0.015 A 
ATOM      7  C7  IND d   1      -0.758   5.964  -3.202  0.00  0.00    -0.016 A 
ATOM      8  C8  IND d   1      -1.744   5.945  -2.226  0.00  0.00    -0.047 A 
ATOM      9  C9  IND d   1      -3.107   5.981  -2.548  0.00  0.00    -0.096 A 
ATOM     10  HN1 IND d   1      -0.917   5.920  -0.400  0.00  0.00     0.298 HD
ENDROOT
TORSDOF 0
ENDMDL
