MODEL 1
REMARK minimizedAffinity -2.44679952
REMARK minimizedRMSD -1
REMARK  0 active torsions:
REMARK  status: ('A' for Active; 'I' for Inactive)
ROOT
ATOM      1  N1  IND d   1      -1.478   5.989  -2.389  0.00  0.00    -0.196 N 
ATOM      2  C2  IND d   1      -2.784   5.989  -2.794  0.00  0.00     0.054 A 
ATOM      3  C3  IND d   1      -2.857   5.977  -4.144  0.00  0.00    -0.031 A 
ATOM      4  C4  IND d   1      -0.964   5.852  -5.884  0.00  0.00     0.051 A 
ATOM      5  C5  IND d   1       0.398   5.869  -5.997  0.00  0.00    -0.031 A 
ATOM      6  C6  IND d   1       1.221   5.925  -4.891  0.00  0.00     0.015 A 
ATOM      7  C7  IND d   1       0.710   5.955  -3.624  0.00  0.00    -0.016 A 
ATOM      8  C8  IND d   1      -0.673   5.945  -3.505  0.00  0.00    -0.047 A 
ATOM      9  C9  IND d   1      -1.513   5.931  -4.626  0.00  0.00    -0.096 A 
ATOM     10  HN1 IND d   1      -1.206   6.013  -1.573  0.00  0.00     0.298 HD
ENDROOT
TORSDOF 0
ENDMDL
