MODEL 1
REMARK minimizedAffinity 9.12272835
REMARK minimizedRMSD -1
REMARK  0 active torsions:
REMARK  status: ('A' for Active; 'I' for Inactive)
ROOT
ATOM      1  N1  IND d   1       1.512   4.909  -5.083  0.00  0.00    -0.196 N 
ATOM      2  C2  IND d   1       2.057   6.000  -5.701  0.00  0.00     0.054 A 
ATOM      3  C3  IND d   1       3.402   5.996  -5.563  0.00  0.00    -0.031 A 
ATOM      4  C4  IND d   1       4.927   4.245  -4.450  0.00  0.00     0.051 A 
ATOM      5  C5  IND d   1       4.887   3.093  -3.717  0.00  0.00    -0.031 A 
ATOM      6  C6  IND d   1       3.696   2.472  -3.397  0.00  0.00     0.015 A 
ATOM      7  C7  IND d   1       2.496   2.978  -3.811  0.00  0.00    -0.016 A 
ATOM      8  C8  IND d   1       2.532   4.152  -4.549  0.00  0.00    -0.047 A 
ATOM      9  C9  IND d   1       3.735   4.809  -4.841  0.00  0.00    -0.096 A 
ATOM     10  HN1 IND d   1       0.673   4.726  -5.035  0.00  0.00     0.298 HD
ENDROOT
TORSDOF 0
ENDMDL
