MODEL 1
REMARK minimizedAffinity -2.87615418
REMARK minimizedRMSD -1
REMARK  0 active torsions:
REMARK  status: ('A' for Active; 'I' for Inactive)
ROOT
ATOM      1  N1  IND d   1      -0.570   5.846  -2.394  0.00  0.00    -0.196 N 
ATOM      2  C2  IND d   1      -1.863   5.623  -2.779  0.00  0.00     0.054 A 
ATOM      3  C3  IND d   1      -1.934   5.469  -4.120  0.00  0.00    -0.031 A 
ATOM      4  C4  IND d   1      -0.043   5.442  -5.866  0.00  0.00     0.051 A 
ATOM      5  C5  IND d   1       1.303   5.639  -6.000  0.00  0.00    -0.031 A 
ATOM      6  C6  IND d   1       2.110   5.918  -4.916  0.00  0.00     0.015 A 
ATOM      7  C7  IND d   1       1.600   6.000  -3.651  0.00  0.00    -0.016 A 
ATOM      8  C8  IND d   1       0.233   5.807  -3.512  0.00  0.00    -0.047 A 
ATOM      9  C9  IND d   1      -0.597   5.566  -4.614  0.00  0.00    -0.096 A 
ATOM     10  HN1 IND d   1      -0.304   5.987  -1.589  0.00  0.00     0.298 HD
ENDROOT
TORSDOF 0
ENDMDL
