MODEL 1
REMARK minimizedAffinity 8.22463799
REMARK minimizedRMSD -1
REMARK  0 active torsions:
REMARK  status: ('A' for Active; 'I' for Inactive)
ROOT
ATOM      1  N1  IND d   1       0.409   5.957  -1.923  0.00  0.00    -0.196 N 
ATOM      2  C2  IND d   1       0.650   5.933  -3.268  0.00  0.00     0.054 A 
ATOM      3  C3  IND d   1      -0.515   5.906  -3.954  0.00  0.00    -0.031 A 
ATOM      4  C4  IND d   1      -2.933   5.998  -3.075  0.00  0.00     0.051 A 
ATOM      5  C5  IND d   1      -3.659   5.991  -1.917  0.00  0.00    -0.031 A 
ATOM      6  C6  IND d   1      -3.054   5.974  -0.677  0.00  0.00     0.015 A 
ATOM      7  C7  IND d   1      -1.694   5.976  -0.548  0.00  0.00    -0.016 A 
ATOM      8  C8  IND d   1      -0.953   5.976  -1.721  0.00  0.00    -0.047 A 
ATOM      9  C9  IND d   1      -1.562   5.950  -2.983  0.00  0.00    -0.096 A 
ATOM     10  HN1 IND d   1       1.008   5.959  -1.306  0.00  0.00     0.298 HD
ENDROOT
TORSDOF 0
ENDMDL
