MODEL 1
REMARK minimizedAffinity 10.4207382
REMARK minimizedRMSD -1
REMARK  0 active torsions:
REMARK  status: ('A' for Active; 'I' for Inactive)
ROOT
ATOM      1  N1  IND d   1      -2.706   1.304   3.370  0.00  0.00    -0.196 N 
ATOM      2  C2  IND d   1      -1.775   1.131   4.356  0.00  0.00     0.054 A 
ATOM      3  C3  IND d   1      -0.629   0.634   3.838  0.00  0.00    -0.031 A 
ATOM      4  C4  IND d   1      -0.027   0.126   1.387  0.00  0.00     0.051 A 
ATOM      5  C5  IND d   1      -0.565   0.090   0.131  0.00  0.00    -0.031 A 
ATOM      6  C6  IND d   1      -1.869   0.467  -0.115  0.00  0.00     0.015 A 
ATOM      7  C7  IND d   1      -2.685   0.907   0.889  0.00  0.00    -0.016 A 
ATOM      8  C8  IND d   1      -2.144   0.938   2.167  0.00  0.00    -0.047 A 
ATOM      9  C9  IND d   1      -0.835   0.517   2.429  0.00  0.00    -0.096 A 
ATOM     10  HN1 IND d   1      -3.508   1.593   3.483  0.00  0.00     0.298 HD
ENDROOT
TORSDOF 0
ENDMDL
