MODEL 1
REMARK minimizedAffinity 4.81619406
REMARK minimizedRMSD -1
REMARK  0 active torsions:
REMARK  status: ('A' for Active; 'I' for Inactive)
ROOT
ATOM      1  N1  IND d   1       0.072   5.919  -1.730  0.00  0.00    -0.196 N 
ATOM      2  C2  IND d   1      -1.294   5.930  -1.793  0.00  0.00     0.054 A 
ATOM      3  C3  IND d   1      -1.705   5.982  -3.080  0.00  0.00    -0.031 A 
ATOM      4  C4  IND d   1      -0.311   5.953  -5.245  0.00  0.00     0.051 A 
ATOM      5  C5  IND d   1       0.979   5.985  -5.696  0.00  0.00    -0.031 A 
ATOM      6  C6  IND d   1       2.054   5.994  -4.831  0.00  0.00     0.015 A 
ATOM      7  C7  IND d   1       1.879   5.959  -3.476  0.00  0.00    -0.016 A 
ATOM      8  C8  IND d   1       0.570   5.934  -3.014  0.00  0.00    -0.047 A 
ATOM      9  C9  IND d   1      -0.525   5.968  -3.887  0.00  0.00    -0.096 A 
ATOM     10  HN1 IND d   1       0.541   5.905  -1.010  0.00  0.00     0.298 HD
ENDROOT
TORSDOF 0
ENDMDL
