MODEL 1
REMARK minimizedAffinity 2.38760567
REMARK minimizedRMSD -1
REMARK  0 active torsions:
REMARK  status: ('A' for Active; 'I' for Inactive)
ROOT
ATOM      1  N1  IND d   1      -1.765   5.991  -5.378  0.00  0.00    -0.196 N 
ATOM      2  C2  IND d   1      -0.412   5.987  -5.185  0.00  0.00     0.054 A 
ATOM      3  C3  IND d   1      -0.124   6.000  -3.864  0.00  0.00    -0.031 A 
ATOM      4  C4  IND d   1      -1.717   5.926  -1.843  0.00  0.00     0.051 A 
ATOM      5  C5  IND d   1      -3.043   5.957  -1.515  0.00  0.00    -0.031 A 
ATOM      6  C6  IND d   1      -4.032   5.999  -2.477  0.00  0.00     0.015 A 
ATOM      7  C7  IND d   1      -3.729   6.000  -3.810  0.00  0.00    -0.016 A 
ATOM      8  C8  IND d   1      -2.383   5.976  -4.146  0.00  0.00    -0.047 A 
ATOM      9  C9  IND d   1      -1.375   5.976  -3.174  0.00  0.00    -0.096 A 
ATOM     10  HN1 IND d   1      -2.164   6.001  -6.139  0.00  0.00     0.298 HD
ENDROOT
TORSDOF 0
ENDMDL
