MODEL 1
REMARK minimizedAffinity -2.13331699
REMARK minimizedRMSD -1
REMARK  0 active torsions:
REMARK  status: ('A' for Active; 'I' for Inactive)
ROOT
ATOM      1  N1  IND d   1       5.171   5.732  -5.902  0.00  0.00    -0.196 N 
ATOM      2  C2  IND d   1       5.993   4.801  -5.330  0.00  0.00     0.054 A 
ATOM      3  C3  IND d   1       5.263   3.858  -4.693  0.00  0.00    -0.031 A 
ATOM      4  C4  IND d   1       2.707   3.590  -4.546  0.00  0.00     0.051 A 
ATOM      5  C5  IND d   1       1.538   4.213  -4.880  0.00  0.00    -0.031 A 
ATOM      6  C6  IND d   1       1.519   5.398  -5.588  0.00  0.00     0.015 A 
ATOM      7  C7  IND d   1       2.674   5.999  -6.000  0.00  0.00    -0.016 A 
ATOM      8  C8  IND d   1       3.864   5.372  -5.657  0.00  0.00    -0.047 A 
ATOM      9  C9  IND d   1       3.890   4.193  -4.902  0.00  0.00    -0.096 A 
ATOM     10  HN1 IND d   1       5.427   6.426  -6.340  0.00  0.00     0.298 HD
ENDROOT
TORSDOF 0
ENDMDL
