MODEL 1
REMARK minimizedAffinity -3.99369884
REMARK minimizedRMSD -1
REMARK  0 active torsions:
REMARK  status: ('A' for Active; 'I' for Inactive)
ROOT
ATOM      1  C2' OXE d   1      -4.826   2.873   2.269  0.00  0.00     0.078 C 
ATOM      2  C1' OXE d   1      -6.000   5.422   2.205  0.00  0.00     0.078 C 
ATOM      3  C1  OXE d   1      -5.704   4.817   3.555  0.00  0.00    -0.078 A 
ATOM      4  C2  OXE d   1      -5.172   3.550   3.577  0.00  0.00    -0.078 A 
ATOM      5  C3  OXE d   1      -4.829   2.968   4.794  0.00  0.00     0.003 A 
ATOM      6  C4  OXE d   1      -5.162   3.598   6.000  0.00  0.00    -0.002 A 
ATOM      7  C5  OXE d   1      -5.740   4.872   6.000  0.00  0.00    -0.002 A 
ATOM      8  C6  OXE d   1      -5.978   5.512   4.788  0.00  0.00     0.003 A 
ENDROOT
TORSDOF 0
ENDMDL
