MODEL 1
REMARK minimizedAffinity -2.03329372
REMARK minimizedRMSD -1
REMARK  0 active torsions:
REMARK  status: ('A' for Active; 'I' for Inactive)
ROOT
ATOM      1  C2' OXE d   1      -1.644   0.373  -1.163  0.00  0.00     0.078 C 
ATOM      2  C1' OXE d   1      -0.861  -1.433   0.838  0.00  0.00     0.078 C 
ATOM      3  C1  OXE d   1      -1.505  -1.995  -0.404  0.00  0.00    -0.078 A 
ATOM      4  C2  OXE d   1      -1.927  -1.100  -1.358  0.00  0.00    -0.078 A 
ATOM      5  C3  OXE d   1      -2.478  -1.569  -2.547  0.00  0.00     0.003 A 
ATOM      6  C4  OXE d   1      -2.746  -2.933  -2.716  0.00  0.00    -0.002 A 
ATOM      7  C5  OXE d   1      -2.360  -3.858  -1.740  0.00  0.00    -0.002 A 
ATOM      8  C6  OXE d   1      -1.702  -3.411  -0.599  0.00  0.00     0.003 A 
ENDROOT
TORSDOF 0
ENDMDL
