MODEL 1
REMARK minimizedAffinity 0.766994357
REMARK minimizedRMSD -1
REMARK  0 active torsions:
REMARK  status: ('A' for Active; 'I' for Inactive)
ROOT
ATOM      1  C2' OXE d   1      -0.469   0.548  -1.500  0.00  0.00     0.078 C 
ATOM      2  C1' OXE d   1      -0.586  -0.899   0.902  0.00  0.00     0.078 C 
ATOM      3  C1  OXE d   1      -1.317  -1.459  -0.293  0.00  0.00    -0.078 A 
ATOM      4  C2  OXE d   1      -1.293  -0.720  -1.451  0.00  0.00    -0.078 A 
ATOM      5  C3  OXE d   1      -1.905  -1.217  -2.598  0.00  0.00     0.003 A 
ATOM      6  C4  OXE d   1      -2.674  -2.386  -2.542  0.00  0.00    -0.002 A 
ATOM      7  C5  OXE d   1      -2.745  -3.133  -1.361  0.00  0.00    -0.002 A 
ATOM      8  C6  OXE d   1      -2.039  -2.706  -0.242  0.00  0.00     0.003 A 
ENDROOT
TORSDOF 0
ENDMDL
