MODEL 1
REMARK minimizedAffinity -2.56482577
REMARK minimizedRMSD -1
REMARK  0 active torsions:
REMARK  status: ('A' for Active; 'I' for Inactive)
ROOT
ATOM      1  C2' OXE d   1      -5.839   5.998   2.962  0.00  0.00     0.078 C 
ATOM      2  C1' OXE d   1      -4.718   3.427   2.855  0.00  0.00     0.078 C 
ATOM      3  C1  OXE d   1      -5.093   4.085   1.551  0.00  0.00    -0.078 A 
ATOM      4  C2  OXE d   1      -5.684   5.324   1.615  0.00  0.00    -0.078 A 
ATOM      5  C3  OXE d   1      -6.000   6.000   0.440  0.00  0.00     0.003 A 
ATOM      6  C4  OXE d   1      -5.862   5.365  -0.801  0.00  0.00    -0.002 A 
ATOM      7  C5  OXE d   1      -5.299   4.087  -0.886  0.00  0.00    -0.002 A 
ATOM      8  C6  OXE d   1      -4.871   3.452   0.274  0.00  0.00     0.003 A 
ENDROOT
TORSDOF 0
ENDMDL
