MODEL 1
REMARK minimizedAffinity 3.19881463
REMARK minimizedRMSD -1
REMARK  0 active torsions:
REMARK  status: ('A' for Active; 'I' for Inactive)
ROOT
ATOM      1  C2' OXE d   1       4.003   4.187  -1.981  0.00  0.00     0.078 C 
ATOM      2  C1' OXE d   1       5.452   5.513   0.024  0.00  0.00     0.078 C 
ATOM      3  C1  OXE d   1       4.342   4.586   0.454  0.00  0.00    -0.078 A 
ATOM      4  C2  OXE d   1       3.608   3.977  -0.535  0.00  0.00    -0.078 A 
ATOM      5  C3  OXE d   1       2.609   3.071  -0.193  0.00  0.00     0.003 A 
ATOM      6  C4  OXE d   1       2.243   2.890   1.146  0.00  0.00    -0.002 A 
ATOM      7  C5  OXE d   1       2.952   3.531   2.168  0.00  0.00    -0.002 A 
ATOM      8  C6  OXE d   1       4.030   4.348   1.841  0.00  0.00     0.003 A 
ENDROOT
TORSDOF 0
ENDMDL
