MODEL 1
REMARK minimizedAffinity 7.63827658
REMARK minimizedRMSD -1
REMARK  0 active torsions:
REMARK  status: ('A' for Active; 'I' for Inactive)
ROOT
ATOM      1  C2' OXE d   1      -2.100  -0.780   2.267  0.00  0.00     0.078 C 
ATOM      2  C1' OXE d   1      -3.015  -2.686   4.114  0.00  0.00     0.078 C 
ATOM      3  C1  OXE d   1      -3.169  -1.229   4.472  0.00  0.00    -0.078 A 
ATOM      4  C2  OXE d   1      -2.676  -0.304   3.583  0.00  0.00    -0.078 A 
ATOM      5  C3  OXE d   1      -2.841   1.054   3.839  0.00  0.00     0.003 A 
ATOM      6  C4  OXE d   1      -3.365   1.486   5.063  0.00  0.00    -0.002 A 
ATOM      7  C5  OXE d   1      -3.836   0.560   6.000  0.00  0.00    -0.002 A 
ATOM      8  C6  OXE d   1      -3.785  -0.797   5.702  0.00  0.00     0.003 A 
ENDROOT
TORSDOF 0
ENDMDL
