MODEL 1
REMARK minimizedAffinity 5.36951447
REMARK minimizedRMSD -1
REMARK  0 active torsions:
REMARK  status: ('A' for Active; 'I' for Inactive)
ROOT
ATOM      1  C2' OXE d   1      -1.838  -1.974  -0.280  0.00  0.00     0.078 C 
ATOM      2  C1' OXE d   1      -4.037  -3.694  -0.576  0.00  0.00     0.078 C 
ATOM      3  C1  OXE d   1      -3.342  -3.218  -1.828  0.00  0.00    -0.078 A 
ATOM      4  C2  OXE d   1      -2.297  -2.340  -1.676  0.00  0.00    -0.078 A 
ATOM      5  C3  OXE d   1      -1.587  -1.913  -2.794  0.00  0.00     0.003 A 
ATOM      6  C4  OXE d   1      -2.024  -2.248  -4.081  0.00  0.00    -0.002 A 
ATOM      7  C5  OXE d   1      -3.112  -3.110  -4.260  0.00  0.00    -0.002 A 
ATOM      8  C6  OXE d   1      -3.754  -3.637  -3.145  0.00  0.00     0.003 A 
ENDROOT
TORSDOF 0
ENDMDL
