MODEL 1
REMARK minimizedAffinity 3.30707741
REMARK minimizedRMSD -1
REMARK  0 active torsions:
REMARK  status: ('A' for Active; 'I' for Inactive)
ROOT
ATOM      1  C2' OXE d   1       2.716   2.914   1.980  0.00  0.00     0.078 C 
ATOM      2  C1' OXE d   1       1.071   2.587  -0.271  0.00  0.00     0.078 C 
ATOM      3  C1  OXE d   1       2.453   3.154  -0.486  0.00  0.00    -0.078 A 
ATOM      4  C2  OXE d   1       3.234   3.354   0.627  0.00  0.00    -0.078 A 
ATOM      5  C3  OXE d   1       4.536   3.823   0.480  0.00  0.00     0.003 A 
ATOM      6  C4  OXE d   1       5.003   4.237  -0.773  0.00  0.00    -0.002 A 
ATOM      7  C5  OXE d   1       4.210   4.078  -1.914  0.00  0.00    -0.002 A 
ATOM      8  C6  OXE d   1       2.951   3.500  -1.794  0.00  0.00     0.003 A 
ENDROOT
TORSDOF 0
ENDMDL
