MODEL 1
REMARK minimizedAffinity 2.58403468
REMARK minimizedRMSD -1
REMARK  0 active torsions:
REMARK  status: ('A' for Active; 'I' for Inactive)
ROOT
ATOM      1  C2' OXE d   1      -2.965  -2.181  -4.226  0.00  0.00     0.078 C 
ATOM      2  C1' OXE d   1      -2.764  -4.188  -2.274  0.00  0.00     0.078 C 
ATOM      3  C1  OXE d   1      -2.309  -2.798  -1.904  0.00  0.00    -0.078 A 
ATOM      4  C2  OXE d   1      -2.367  -1.833  -2.880  0.00  0.00    -0.078 A 
ATOM      5  C3  OXE d   1      -2.012  -0.522  -2.575  0.00  0.00     0.003 A 
ATOM      6  C4  OXE d   1      -1.451  -0.211  -1.331  0.00  0.00    -0.002 A 
ATOM      7  C5  OXE d   1      -1.345  -1.188  -0.335  0.00  0.00    -0.002 A 
ATOM      8  C6  OXE d   1      -1.808  -2.474  -0.591  0.00  0.00     0.003 A 
ENDROOT
TORSDOF 0
ENDMDL
