MODEL 1
REMARK minimizedAffinity -1.74512279
REMARK minimizedRMSD -1
REMARK  0 active torsions:
REMARK  status: ('A' for Active; 'I' for Inactive)
ROOT
ATOM      1  C2' OXE d   1      -3.549   1.472   5.999  0.00  0.00     0.078 C 
ATOM      2  C1' OXE d   1      -1.683   0.004   4.502  0.00  0.00     0.078 C 
ATOM      3  C1  OXE d   1      -2.970  -0.681   4.889  0.00  0.00    -0.078 A 
ATOM      4  C2  OXE d   1      -3.857   0.030   5.661  0.00  0.00    -0.078 A 
ATOM      5  C3  OXE d   1      -5.083  -0.536   6.000  0.00  0.00     0.003 A 
ATOM      6  C4  OXE d   1      -5.356  -1.874   5.692  0.00  0.00    -0.002 A 
ATOM      7  C5  OXE d   1      -4.449  -2.629   4.940  0.00  0.00    -0.002 A 
ATOM      8  C6  OXE d   1      -3.273  -2.035   4.495  0.00  0.00     0.003 A 
ENDROOT
TORSDOF 0
ENDMDL
