MODEL 1
REMARK minimizedAffinity 6.10723782
REMARK minimizedRMSD -1
REMARK  0 active torsions:
REMARK  status: ('A' for Active; 'I' for Inactive)
ROOT
ATOM      1  C2' OXE d   1       2.191   1.759   5.705  0.00  0.00     0.078 C 
ATOM      2  C1' OXE d   1       0.181   1.029   3.887  0.00  0.00     0.078 C 
ATOM      3  C1  OXE d   1       1.361   1.807   3.357  0.00  0.00    -0.078 A 
ATOM      4  C2  OXE d   1       2.317   2.200   4.263  0.00  0.00    -0.078 A 
ATOM      5  C3  OXE d   1       3.452   2.872   3.819  0.00  0.00     0.003 A 
ATOM      6  C4  OXE d   1       3.555   3.284   2.485  0.00  0.00    -0.002 A 
ATOM      7  C5  OXE d   1       2.574   2.929   1.554  0.00  0.00    -0.002 A 
ATOM      8  C6  OXE d   1       1.493   2.155   1.964  0.00  0.00     0.003 A 
ENDROOT
TORSDOF 0
ENDMDL
