MODEL 1
REMARK minimizedAffinity -4.44687653
REMARK minimizedRMSD -1
REMARK  0 active torsions:
REMARK  status: ('A' for Active; 'I' for Inactive)
ROOT
ATOM      1  C2' OXE d   1      -4.842   5.351   2.122  0.00  0.00     0.078 C 
ATOM      2  C1' OXE d   1      -5.610   5.666   4.804  0.00  0.00     0.078 C 
ATOM      3  C1  OXE d   1      -5.115   4.309   4.368  0.00  0.00    -0.078 A 
ATOM      4  C2  OXE d   1      -4.785   4.152   3.044  0.00  0.00    -0.078 A 
ATOM      5  C3  OXE d   1      -4.270   2.936   2.601  0.00  0.00     0.003 A 
ATOM      6  C4  OXE d   1      -4.230   1.830   3.458  0.00  0.00    -0.002 A 
ATOM      7  C5  OXE d   1      -4.599   1.958   4.801  0.00  0.00    -0.002 A 
ATOM      8  C6  OXE d   1      -5.002   3.199   5.282  0.00  0.00     0.003 A 
ENDROOT
TORSDOF 0
ENDMDL
