MODEL 1
REMARK minimizedAffinity 4.01293468
REMARK minimizedRMSD -1
REMARK  0 active torsions:
REMARK  status: ('A' for Active; 'I' for Inactive)
ROOT
ATOM      1  C2' OXE d   1      -1.346   1.595  -0.604  0.00  0.00     0.078 C 
ATOM      2  C1' OXE d   1      -1.292  -1.209  -0.722  0.00  0.00     0.078 C 
ATOM      3  C1  OXE d   1      -1.793  -0.568   0.547  0.00  0.00    -0.078 A 
ATOM      4  C2  OXE d   1      -1.773   0.805   0.614  0.00  0.00    -0.078 A 
ATOM      5  C3  OXE d   1      -2.275   1.448   1.741  0.00  0.00     0.003 A 
ATOM      6  C4  OXE d   1      -2.659   0.709   2.867  0.00  0.00    -0.002 A 
ATOM      7  C5  OXE d   1      -2.650  -0.689   2.835  0.00  0.00    -0.002 A 
ATOM      8  C6  OXE d   1      -2.261  -1.342   1.670  0.00  0.00     0.003 A 
ENDROOT
TORSDOF 0
ENDMDL
