MODEL 1
REMARK minimizedAffinity 5.76252317
REMARK minimizedRMSD -1
REMARK  0 active torsions:
REMARK  status: ('A' for Active; 'I' for Inactive)
ROOT
ATOM      1  C2' OXE d   1      -5.624   6.000   4.754  0.00  0.00     0.078 C 
ATOM      2  C1' OXE d   1      -3.642   4.036   4.445  0.00  0.00     0.078 C 
ATOM      3  C1  OXE d   1      -4.342   4.531   3.203  0.00  0.00    -0.078 A 
ATOM      4  C2  OXE d   1      -5.343   5.457   3.369  0.00  0.00    -0.078 A 
ATOM      5  C3  OXE d   1      -5.983   5.987   2.252  0.00  0.00     0.003 A 
ATOM      6  C4  OXE d   1      -5.724   5.473   0.976  0.00  0.00    -0.002 A 
ATOM      7  C5  OXE d   1      -4.736   4.501   0.790  0.00  0.00    -0.002 A 
ATOM      8  C6  OXE d   1      -4.007   4.050   1.885  0.00  0.00     0.003 A 
ENDROOT
TORSDOF 0
ENDMDL
