MODEL 1
REMARK minimizedAffinity 2.70022297
REMARK minimizedRMSD -1
REMARK  0 active torsions:
REMARK  status: ('A' for Active; 'I' for Inactive)
ROOT
ATOM      1  C2' OXE d   1      -0.066   1.166   4.567  0.00  0.00     0.078 C 
ATOM      2  C1' OXE d   1       2.276  -0.147   5.385  0.00  0.00     0.078 C 
ATOM      3  C1  OXE d   1       2.424   1.120   4.581  0.00  0.00    -0.078 A 
ATOM      4  C2  OXE d   1       1.273   1.731   4.145  0.00  0.00    -0.078 A 
ATOM      5  C3  OXE d   1       1.352   2.933   3.447  0.00  0.00     0.003 A 
ATOM      6  C4  OXE d   1       2.595   3.443   3.053  0.00  0.00    -0.002 A 
ATOM      7  C5  OXE d   1       3.780   2.814   3.452  0.00  0.00    -0.002 A 
ATOM      8  C6  OXE d   1       3.712   1.678   4.251  0.00  0.00     0.003 A 
ENDROOT
TORSDOF 0
ENDMDL
