MODEL 1
REMARK minimizedAffinity 3.86350513
REMARK minimizedRMSD -1
REMARK  0 active torsions:
REMARK  status: ('A' for Active; 'I' for Inactive)
ROOT
ATOM      1  C2' OXE d   1      -2.092  -3.277  -0.491  0.00  0.00     0.078 C 
ATOM      2  C1' OXE d   1      -1.216  -0.800  -1.479  0.00  0.00     0.078 C 
ATOM      3  C1  OXE d   1      -1.993  -1.694  -2.412  0.00  0.00    -0.078 A 
ATOM      4  C2  OXE d   1      -2.377  -2.924  -1.935  0.00  0.00    -0.078 A 
ATOM      5  C3  OXE d   1      -3.143  -3.766  -2.736  0.00  0.00     0.003 A 
ATOM      6  C4  OXE d   1      -3.394  -3.436  -4.074  0.00  0.00    -0.002 A 
ATOM      7  C5  OXE d   1      -2.977  -2.206  -4.592  0.00  0.00    -0.002 A 
ATOM      8  C6  OXE d   1      -2.314  -1.307  -3.764  0.00  0.00     0.003 A 
ENDROOT
TORSDOF 0
ENDMDL
