MODEL 1
REMARK minimizedAffinity 1.07809234
REMARK minimizedRMSD -1
REMARK  0 active torsions:
REMARK  status: ('A' for Active; 'I' for Inactive)
ROOT
ATOM      1  C2' OXE d   1      -5.976   5.226   5.171  0.00  0.00     0.078 C 
ATOM      2  C1' OXE d   1      -4.025   3.321   4.503  0.00  0.00     0.078 C 
ATOM      3  C1  OXE d   1      -4.540   4.216   3.404  0.00  0.00    -0.078 A 
ATOM      4  C2  OXE d   1      -5.528   5.113   3.729  0.00  0.00    -0.078 A 
ATOM      5  C3  OXE d   1      -5.999   6.000   2.765  0.00  0.00     0.003 A 
ATOM      6  C4  OXE d   1      -5.587   5.882   1.432  0.00  0.00    -0.002 A 
ATOM      7  C5  OXE d   1      -4.610   4.948   1.071  0.00  0.00    -0.002 A 
ATOM      8  C6  OXE d   1      -4.047   4.138   2.051  0.00  0.00     0.003 A 
ENDROOT
TORSDOF 0
ENDMDL
