MODEL 1
REMARK minimizedAffinity 2.6885252
REMARK minimizedRMSD -1
REMARK  0 active torsions:
REMARK  status: ('A' for Active; 'I' for Inactive)
ROOT
ATOM      1  C2' OXE d   1      -2.621   3.737   5.653  0.00  0.00     0.078 C 
ATOM      2  C1' OXE d   1      -3.304   1.888   3.655  0.00  0.00     0.078 C 
ATOM      3  C1  OXE d   1      -3.706   3.327   3.448  0.00  0.00    -0.078 A 
ATOM      4  C2  OXE d   1      -3.409   4.216   4.453  0.00  0.00    -0.078 A 
ATOM      5  C3  OXE d   1      -3.708   5.566   4.290  0.00  0.00     0.003 A 
ATOM      6  C4  OXE d   1      -4.445   5.999   3.181  0.00  0.00    -0.002 A 
ATOM      7  C5  OXE d   1      -4.793   5.102   2.165  0.00  0.00    -0.002 A 
ATOM      8  C6  OXE d   1      -4.394   3.774   2.263  0.00  0.00     0.003 A 
ENDROOT
TORSDOF 0
ENDMDL
