MODEL 1
REMARK minimizedAffinity 1.87719917
REMARK minimizedRMSD -1
REMARK  0 active torsions:
REMARK  status: ('A' for Active; 'I' for Inactive)
ROOT
ATOM      1  C2' OXE d   1      -3.751   4.175   4.154  0.00  0.00     0.078 C 
ATOM      2  C1' OXE d   1      -5.958   5.908   4.236  0.00  0.00     0.078 C 
ATOM      3  C1  OXE d   1      -5.412   5.527   2.883  0.00  0.00    -0.078 A 
ATOM      4  C2  OXE d   1      -4.303   4.716   2.853  0.00  0.00    -0.078 A 
ATOM      5  C3  OXE d   1      -3.793   4.291   1.630  0.00  0.00     0.003 A 
ATOM      6  C4  OXE d   1      -4.303   4.804   0.432  0.00  0.00    -0.002 A 
ATOM      7  C5  OXE d   1      -5.407   5.663   0.441  0.00  0.00    -0.002 A 
ATOM      8  C6  OXE d   1      -5.999   6.000   1.653  0.00  0.00     0.003 A 
ENDROOT
TORSDOF 0
ENDMDL
