MODEL 1
REMARK minimizedAffinity 1.82409477
REMARK minimizedRMSD -1
REMARK  1 active torsions:
REMARK  status: ('A' for Active; 'I' for Inactive)
REMARK    1  A    between atoms: C1_2  and  C2_3 
ROOT
ATOM      1  C2  UNL d   1       1.623  -0.063   0.791  0.00  0.00    -0.073 A 
ATOM      2  C3  UNL d   1       2.149  -0.628   1.958  0.00  0.00    -0.002 A 
ATOM      3  C4  UNL d   1       1.319  -1.313   2.846  0.00  0.00     0.004 A 
ATOM      4  C5  UNL d   1      -0.043  -1.446   2.573  0.00  0.00    -0.004 A 
ATOM      5  C6  UNL d   1      -0.585  -0.898   1.406  0.00  0.00    -0.075 A 
ATOM      6  C7  UNL d   1      -2.048  -1.030   1.099  0.00  0.00     0.076 C 
ATOM      7  C8  UNL d   1       0.255  -0.210   0.521  0.00  0.00     0.001 A 
ENDROOT
BRANCH   1   8
ATOM      8  C1  UNL d   1       2.517   0.672  -0.174  0.00  0.00     0.053 C 
ATOM      9  C   UNL d   1       3.108  -0.256  -1.224  0.00  0.00     0.018 C 
ENDBRANCH   1   8
TORSDOF 1
ENDMDL
