MODEL 1
REMARK minimizedAffinity -5.78345871
REMARK minimizedRMSD -1
REMARK  1 active torsions:
REMARK  status: ('A' for Active; 'I' for Inactive)
REMARK    1  A    between atoms: C1_2  and  C2_3 
ROOT
ATOM      1  C2  UNL d   1       0.944  -1.398   1.970  0.00  0.00    -0.073 A 
ATOM      2  C3  UNL d   1       2.047  -2.040   1.394  0.00  0.00    -0.002 A 
ATOM      3  C4  UNL d   1       2.248  -1.993   0.014  0.00  0.00     0.004 A 
ATOM      4  C5  UNL d   1       1.356  -1.298  -0.802  0.00  0.00    -0.004 A 
ATOM      5  C6  UNL d   1       0.255  -0.640  -0.244  0.00  0.00    -0.075 A 
ATOM      6  C7  UNL d   1      -0.715   0.110  -1.109  0.00  0.00     0.076 C 
ATOM      7  C8  UNL d   1       0.058  -0.695   1.142  0.00  0.00     0.001 A 
ENDROOT
BRANCH   1   8
ATOM      8  C1  UNL d   1       0.726  -1.442   3.460  0.00  0.00     0.053 C 
ATOM      9  C   UNL d   1       1.989  -1.092   4.232  0.00  0.00     0.018 C 
ENDBRANCH   1   8
TORSDOF 1
ENDMDL
