MODEL 1
REMARK minimizedAffinity -4.17546177
REMARK minimizedRMSD -1
REMARK  1 active torsions:
REMARK  status: ('A' for Active; 'I' for Inactive)
REMARK    1  A    between atoms: C1_2  and  C2_3 
ROOT
ATOM      1  C2  UNL d   1       0.319   0.779  -0.289  0.00  0.00    -0.073 A 
ATOM      2  C3  UNL d   1      -0.929   0.151  -0.215  0.00  0.00    -0.002 A 
ATOM      3  C4  UNL d   1      -1.239  -0.677   0.865  0.00  0.00     0.004 A 
ATOM      4  C5  UNL d   1      -0.309  -0.879   1.884  0.00  0.00    -0.004 A 
ATOM      5  C6  UNL d   1       0.939  -0.251   1.834  0.00  0.00    -0.075 A 
ATOM      6  C7  UNL d   1       1.952  -0.460   2.922  0.00  0.00     0.076 C 
ATOM      7  C8  UNL d   1       1.245   0.576   0.745  0.00  0.00     0.001 A 
ENDROOT
BRANCH   1   8
ATOM      8  C1  UNL d   1       0.656   1.678  -1.450  0.00  0.00     0.053 C 
ATOM      9  C   UNL d   1      -0.589   2.243  -2.113  0.00  0.00     0.018 C 
ENDBRANCH   1   8
TORSDOF 1
ENDMDL
