MODEL 1
REMARK minimizedAffinity -4.99812174
REMARK minimizedRMSD -1
REMARK  1 active torsions:
REMARK  status: ('A' for Active; 'I' for Inactive)
REMARK    1  A    between atoms: C1_2  and  C2_3 
ROOT
ATOM      1  C2  UNL d   1       1.229  -1.068   1.269  0.00  0.00    -0.073 A 
ATOM      2  C3  UNL d   1       0.294  -1.019   2.309  0.00  0.00    -0.002 A 
ATOM      3  C4  UNL d   1      -0.883  -0.284   2.166  0.00  0.00     0.004 A 
ATOM      4  C5  UNL d   1      -1.141   0.403   0.980  0.00  0.00    -0.004 A 
ATOM      5  C6  UNL d   1      -0.225   0.358  -0.076  0.00  0.00    -0.075 A 
ATOM      6  C7  UNL d   1      -0.487   1.093  -1.357  0.00  0.00     0.076 C 
ATOM      7  C8  UNL d   1       0.956  -0.381   0.077  0.00  0.00     0.001 A 
ENDROOT
BRANCH   1   8
ATOM      8  C1  UNL d   1       2.498  -1.866   1.417  0.00  0.00     0.053 C 
ATOM      9  C   UNL d   1       3.114  -2.212   0.070  0.00  0.00     0.018 C 
ENDBRANCH   1   8
TORSDOF 1
ENDMDL
