MODEL 1
REMARK minimizedAffinity -4.12970734
REMARK minimizedRMSD -1
REMARK  1 active torsions:
REMARK  status: ('A' for Active; 'I' for Inactive)
REMARK    1  A    between atoms: C1_2  and  C2_3 
ROOT
ATOM      1  C2  UNL d   1      -0.212   0.159  -0.732  0.00  0.00    -0.073 A 
ATOM      2  C3  UNL d   1       0.576  -0.572  -1.629  0.00  0.00    -0.002 A 
ATOM      3  C4  UNL d   1       1.660  -1.320  -1.167  0.00  0.00     0.004 A 
ATOM      4  C5  UNL d   1       1.963  -1.350   0.194  0.00  0.00    -0.004 A 
ATOM      5  C6  UNL d   1       1.180  -0.635   1.107  0.00  0.00    -0.075 A 
ATOM      6  C7  UNL d   1       1.494  -0.655   2.574  0.00  0.00     0.076 C 
ATOM      7  C8  UNL d   1       0.095   0.115   0.635  0.00  0.00     0.001 A 
ENDROOT
BRANCH   1   8
ATOM      8  C1  UNL d   1      -1.387   0.962  -1.226  0.00  0.00     0.053 C 
ATOM      9  C   UNL d   1      -1.026   1.822  -2.427  0.00  0.00     0.018 C 
ENDBRANCH   1   8
TORSDOF 1
ENDMDL
