MODEL 1
REMARK minimizedAffinity -5.35724592
REMARK minimizedRMSD -1
REMARK  1 active torsions:
REMARK  status: ('A' for Active; 'I' for Inactive)
REMARK    1  A    between atoms: C1_2  and  C2_3 
ROOT
ATOM      1  C2  UNL d   1       0.228  -0.254  -0.503  0.00  0.00    -0.073 A 
ATOM      2  C3  UNL d   1       1.301  -0.869  -1.157  0.00  0.00    -0.002 A 
ATOM      3  C4  UNL d   1       2.341  -1.441  -0.422  0.00  0.00     0.004 A 
ATOM      4  C5  UNL d   1       2.314  -1.410   0.972  0.00  0.00    -0.004 A 
ATOM      5  C6  UNL d   1       1.245  -0.811   1.644  0.00  0.00    -0.075 A 
ATOM      6  C7  UNL d   1       1.202  -0.767   3.143  0.00  0.00     0.076 C 
ATOM      7  C8  UNL d   1       0.206  -0.236   0.899  0.00  0.00     0.001 A 
ENDROOT
BRANCH   1   8
ATOM      8  C1  UNL d   1      -0.900   0.359  -1.292  0.00  0.00     0.053 C 
ATOM      9  C   UNL d   1      -0.493   1.671  -1.943  0.00  0.00     0.018 C 
ENDBRANCH   1   8
TORSDOF 1
ENDMDL
