MODEL 1
REMARK minimizedAffinity -5.47192955
REMARK minimizedRMSD -1
REMARK  1 active torsions:
REMARK  status: ('A' for Active; 'I' for Inactive)
REMARK    1  A    between atoms: C1_2  and  C2_3 
ROOT
ATOM      1  C2  UNL d   1      -0.266  -0.307  -0.163  0.00  0.00    -0.073 A 
ATOM      2  C3  UNL d   1      -0.867   0.146   1.017  0.00  0.00    -0.002 A 
ATOM      3  C4  UNL d   1      -0.399  -0.288   2.258  0.00  0.00     0.004 A 
ATOM      4  C5  UNL d   1       0.676  -1.173   2.332  0.00  0.00    -0.004 A 
ATOM      5  C6  UNL d   1       1.298  -1.628   1.164  0.00  0.00    -0.075 A 
ATOM      6  C7  UNL d   1       2.455  -2.581   1.227  0.00  0.00     0.076 C 
ATOM      7  C8  UNL d   1       0.821  -1.189  -0.078  0.00  0.00     0.001 A 
ENDROOT
BRANCH   1   8
ATOM      8  C1  UNL d   1      -0.763   0.165  -1.505  0.00  0.00     0.053 C 
ATOM      9  C   UNL d   1      -0.328   1.590  -1.806  0.00  0.00     0.018 C 
ENDBRANCH   1   8
TORSDOF 1
ENDMDL
