MODEL 1
REMARK minimizedAffinity -5.60526323
REMARK minimizedRMSD -1
REMARK  1 active torsions:
REMARK  status: ('A' for Active; 'I' for Inactive)
REMARK    1  A    between atoms: C1_2  and  C2_3 
ROOT
ATOM      1  C2  UNL d   1       0.214  -0.604   1.127  0.00  0.00    -0.073 A 
ATOM      2  C3  UNL d   1       0.454  -0.699   2.502  0.00  0.00    -0.002 A 
ATOM      3  C4  UNL d   1       1.579  -1.375   2.976  0.00  0.00     0.004 A 
ATOM      4  C5  UNL d   1       2.478  -1.956   2.081  0.00  0.00    -0.004 A 
ATOM      5  C6  UNL d   1       2.261  -1.861   0.703  0.00  0.00    -0.075 A 
ATOM      6  C7  UNL d   1       3.216  -2.483  -0.273  0.00  0.00     0.076 C 
ATOM      7  C8  UNL d   1       1.127  -1.183   0.235  0.00  0.00     0.001 A 
ENDROOT
BRANCH   1   8
ATOM      8  C1  UNL d   1      -0.996   0.131   0.611  0.00  0.00     0.053 C 
ATOM      9  C   UNL d   1      -1.093   0.075  -0.906  0.00  0.00     0.018 C 
ENDBRANCH   1   8
TORSDOF 1
ENDMDL
