MODEL 1
REMARK minimizedAffinity -2.19841766
REMARK minimizedRMSD -1
REMARK  1 active torsions:
REMARK  status: ('A' for Active; 'I' for Inactive)
REMARK    1  A    between atoms: C1_2  and  C2_3 
ROOT
ATOM      1  C2  UNL d   1       0.001  -0.186  -0.639  0.00  0.00    -0.073 A 
ATOM      2  C3  UNL d   1       1.095  -0.859  -1.193  0.00  0.00    -0.002 A 
ATOM      3  C4  UNL d   1       1.993  -1.541  -0.372  0.00  0.00     0.004 A 
ATOM      4  C5  UNL d   1       1.804  -1.562   1.010  0.00  0.00    -0.004 A 
ATOM      5  C6  UNL d   1       0.710  -0.905   1.582  0.00  0.00    -0.075 A 
ATOM      6  C7  UNL d   1       0.493  -0.917   3.067  0.00  0.00     0.076 C 
ATOM      7  C8  UNL d   1      -0.187  -0.220   0.751  0.00  0.00     0.001 A 
ENDROOT
BRANCH   1   8
ATOM      8  C1  UNL d   1      -0.976   0.547  -1.522  0.00  0.00     0.053 C 
ATOM      9  C   UNL d   1      -0.435   1.894  -1.976  0.00  0.00     0.018 C 
ENDBRANCH   1   8
TORSDOF 1
ENDMDL
