MODEL 1
REMARK minimizedAffinity -2.84830093
REMARK minimizedRMSD -1
REMARK  1 active torsions:
REMARK  status: ('A' for Active; 'I' for Inactive)
REMARK    1  A    between atoms: C1_2  and  C2_3 
ROOT
ATOM      1  C2  UNL d   1       0.868  -1.463  -0.211  0.00  0.00    -0.073 A 
ATOM      2  C3  UNL d   1      -0.501  -1.173  -0.203  0.00  0.00    -0.002 A 
ATOM      3  C4  UNL d   1      -1.154  -0.888   0.997  0.00  0.00     0.004 A 
ATOM      4  C5  UNL d   1      -0.444  -0.883   2.198  0.00  0.00    -0.004 A 
ATOM      5  C6  UNL d   1       0.927  -1.159   2.209  0.00  0.00    -0.075 A 
ATOM      6  C7  UNL d   1       1.703  -1.160   3.493  0.00  0.00     0.076 C 
ATOM      7  C8  UNL d   1       1.575  -1.447   1.000  0.00  0.00     0.001 A 
ENDROOT
BRANCH   1   8
ATOM      8  C1  UNL d   1       1.579  -1.765  -1.505  0.00  0.00     0.053 C 
ATOM      9  C   UNL d   1       2.753  -0.828  -1.743  0.00  0.00     0.018 C 
ENDBRANCH   1   8
TORSDOF 1
ENDMDL
