MODEL 1
REMARK minimizedAffinity -0.993714929
REMARK minimizedRMSD -1
REMARK  1 active torsions:
REMARK  status: ('A' for Active; 'I' for Inactive)
REMARK    1  A    between atoms: C1_2  and  C2_3 
ROOT
ATOM      1  C2  UNL d   1      -2.771   2.686  -3.753  0.00  0.00    -0.081 A 
ATOM      2  C3  UNL d   1      -1.983   1.535  -3.875  0.00  0.00     0.006 A 
ATOM      3  C4  UNL d   1      -0.796   1.564  -4.611  0.00  0.00     0.002 A 
ATOM      4  C5  UNL d   1      -0.374   2.746  -5.230  0.00  0.00    -0.080 A 
ATOM      5  C6  UNL d   1       0.914   2.799  -5.998  0.00  0.00     0.076 C 
ATOM      6  C7  UNL d   1      -1.170   3.891  -5.123  0.00  0.00     0.002 A 
ATOM      7  C8  UNL d   1      -2.357   3.862  -4.387  0.00  0.00     0.006 A 
ENDROOT
BRANCH   1   8
ATOM      8  C1  UNL d   1      -4.018   2.674  -2.906  0.00  0.00     0.054 C 
ATOM      9  C   UNL d   1      -3.680   2.601  -1.424  0.00  0.00     0.018 C 
ENDBRANCH   1   8
TORSDOF 1
ENDMDL
