MODEL 1
REMARK minimizedAffinity -1.80366147
REMARK minimizedRMSD -1
REMARK  1 active torsions:
REMARK  status: ('A' for Active; 'I' for Inactive)
REMARK    1  A    between atoms: C1_2  and  C2_3 
ROOT
ATOM      1  C2  UNL d   1      -3.194   3.204  -3.693  0.00  0.00    -0.081 A 
ATOM      2  C3  UNL d   1      -3.085   4.116  -4.750  0.00  0.00     0.006 A 
ATOM      3  C4  UNL d   1      -1.904   4.204  -5.491  0.00  0.00     0.002 A 
ATOM      4  C5  UNL d   1      -0.816   3.377  -5.193  0.00  0.00    -0.080 A 
ATOM      5  C6  UNL d   1       0.447   3.441  -6.000  0.00  0.00     0.076 C 
ATOM      6  C7  UNL d   1      -0.918   2.479  -4.126  0.00  0.00     0.002 A 
ATOM      7  C8  UNL d   1      -2.098   2.391  -3.384  0.00  0.00     0.006 A 
ENDROOT
BRANCH   1   8
ATOM      8  C1  UNL d   1      -4.488   3.062  -2.934  0.00  0.00     0.054 C 
ATOM      9  C   UNL d   1      -4.243   2.604  -1.503  0.00  0.00     0.018 C 
ENDBRANCH   1   8
TORSDOF 1
ENDMDL
