MODEL 1
REMARK minimizedAffinity 4.97296572
REMARK minimizedRMSD -1
REMARK  1 active torsions:
REMARK  status: ('A' for Active; 'I' for Inactive)
REMARK    1  A    between atoms: C1_2  and  C2_3 
ROOT
ATOM      1  C2  UNL d   1       1.540  -2.842   1.031  0.00  0.00    -0.081 A 
ATOM      2  C3  UNL d   1       2.012  -2.640  -0.272  0.00  0.00     0.006 A 
ATOM      3  C4  UNL d   1       3.237  -3.178  -0.674  0.00  0.00     0.002 A 
ATOM      4  C5  UNL d   1       4.006  -3.933   0.217  0.00  0.00    -0.080 A 
ATOM      5  C6  UNL d   1       5.308  -4.542  -0.210  0.00  0.00     0.076 C 
ATOM      6  C7  UNL d   1       3.544  -4.121   1.524  0.00  0.00     0.002 A 
ATOM      7  C8  UNL d   1       2.320  -3.582   1.926  0.00  0.00     0.006 A 
ENDROOT
BRANCH   1   8
ATOM      8  C1  UNL d   1       0.190  -2.317   1.447  0.00  0.00     0.054 C 
ATOM      9  C   UNL d   1      -0.869  -3.409   1.390  0.00  0.00     0.018 C 
ENDBRANCH   1   8
TORSDOF 1
ENDMDL
