MODEL 1
REMARK minimizedAffinity 4.11879492
REMARK minimizedRMSD -1
REMARK  1 active torsions:
REMARK  status: ('A' for Active; 'I' for Inactive)
REMARK    1  A    between atoms: C1_2  and  C2_3 
ROOT
ATOM      1  C2  UNL d   1       0.892  -3.857   1.145  0.00  0.00    -0.081 A 
ATOM      2  C3  UNL d   1       1.747  -2.843   0.696  0.00  0.00     0.006 A 
ATOM      3  C4  UNL d   1       3.129  -3.044   0.665  0.00  0.00     0.002 A 
ATOM      4  C5  UNL d   1       3.679  -4.263   1.076  0.00  0.00    -0.080 A 
ATOM      5  C6  UNL d   1       5.158  -4.503   1.019  0.00  0.00     0.076 C 
ATOM      6  C7  UNL d   1       2.826  -5.270   1.541  0.00  0.00     0.002 A 
ATOM      7  C8  UNL d   1       1.444  -5.070   1.572  0.00  0.00     0.006 A 
ENDROOT
BRANCH   1   8
ATOM      8  C1  UNL d   1      -0.603  -3.667   1.118  0.00  0.00     0.054 C 
ATOM      9  C   UNL d   1      -1.104  -3.040   2.411  0.00  0.00     0.018 C 
ENDBRANCH   1   8
TORSDOF 1
ENDMDL
