MODEL 1
REMARK minimizedAffinity 3.22836447
REMARK minimizedRMSD -1
REMARK  1 active torsions:
REMARK  status: ('A' for Active; 'I' for Inactive)
REMARK    1  A    between atoms: C1_2  and  C2_3 
ROOT
ATOM      1  C2  UNL d   1       1.769  -2.907   0.318  0.00  0.00    -0.081 A 
ATOM      2  C3  UNL d   1       1.805  -1.657   0.949  0.00  0.00     0.006 A 
ATOM      3  C4  UNL d   1       0.702  -1.198   1.673  0.00  0.00     0.002 A 
ATOM      4  C5  UNL d   1      -0.451  -1.983   1.784  0.00  0.00    -0.080 A 
ATOM      5  C6  UNL d   1      -1.631  -1.515   2.584  0.00  0.00     0.076 C 
ATOM      6  C7  UNL d   1      -0.493  -3.223   1.139  0.00  0.00     0.002 A 
ATOM      7  C8  UNL d   1       0.609  -3.683   0.414  0.00  0.00     0.006 A 
ENDROOT
BRANCH   1   8
ATOM      8  C1  UNL d   1       2.980  -3.433  -0.410  0.00  0.00     0.054 C 
ATOM      9  C   UNL d   1       3.920  -4.165   0.538  0.00  0.00     0.018 C 
ENDBRANCH   1   8
TORSDOF 1
ENDMDL
