MODEL 1
REMARK minimizedAffinity 2.40257835
REMARK minimizedRMSD -1
REMARK  1 active torsions:
REMARK  status: ('A' for Active; 'I' for Inactive)
REMARK    1  A    between atoms: C1_2  and  C2_3 
ROOT
ATOM      1  C2  UNL d   1      -3.197   3.476  -3.139  0.00  0.00    -0.081 A 
ATOM      2  C3  UNL d   1      -2.192   2.507  -3.238  0.00  0.00     0.006 A 
ATOM      3  C4  UNL d   1      -1.162   2.648  -4.171  0.00  0.00     0.002 A 
ATOM      4  C5  UNL d   1      -1.115   3.763  -5.014  0.00  0.00    -0.080 A 
ATOM      5  C6  UNL d   1       0.001   3.942  -5.999  0.00  0.00     0.076 C 
ATOM      6  C7  UNL d   1      -2.130   4.723  -4.927  0.00  0.00     0.002 A 
ATOM      7  C8  UNL d   1      -3.160   4.582  -3.995  0.00  0.00     0.006 A 
ENDROOT
BRANCH   1   8
ATOM      8  C1  UNL d   1      -4.274   3.360  -2.090  0.00  0.00     0.054 C 
ATOM      9  C   UNL d   1      -3.752   3.753  -0.715  0.00  0.00     0.018 C 
ENDBRANCH   1   8
TORSDOF 1
ENDMDL
