MODEL 1
REMARK minimizedAffinity 14.2449903
REMARK minimizedRMSD -1
REMARK  1 active torsions:
REMARK  status: ('A' for Active; 'I' for Inactive)
REMARK    1  A    between atoms: C1_2  and  C2_3 
ROOT
ATOM      1  C2  UNL d   1       0.914  -3.641   0.167  0.00  0.00    -0.081 A 
ATOM      2  C3  UNL d   1       1.664  -2.552  -0.294  0.00  0.00     0.006 A 
ATOM      3  C4  UNL d   1       3.054  -2.642  -0.396  0.00  0.00     0.002 A 
ATOM      4  C5  UNL d   1       3.716  -3.823  -0.046  0.00  0.00    -0.080 A 
ATOM      5  C6  UNL d   1       5.206  -3.943  -0.180  0.00  0.00     0.076 C 
ATOM      6  C7  UNL d   1       2.969  -4.906   0.430  0.00  0.00     0.002 A 
ATOM      7  C8  UNL d   1       1.579  -4.816   0.533  0.00  0.00     0.006 A 
ENDROOT
BRANCH   1   8
ATOM      8  C1  UNL d   1      -0.591  -3.569   0.216  0.00  0.00     0.054 C 
ATOM      9  C   UNL d   1      -1.082  -3.215   1.613  0.00  0.00     0.018 C 
ENDBRANCH   1   8
TORSDOF 1
ENDMDL
