MODEL 1
REMARK minimizedAffinity -3.54920268
REMARK minimizedRMSD -1
REMARK  0 active torsions:
REMARK  status: ('A' for Active; 'I' for Inactive)
ROOT
ATOM      1  C   UNL d   1      -0.059  -0.199  -1.019  0.00  0.00     0.172 C 
ATOM      2  N   UNL d   1       0.286   0.840  -0.078  0.00  0.00    -0.070 N 
ATOM      3  C1  UNL d   1       1.485   1.500  -0.021  0.00  0.00    -0.004 A 
ATOM      4  C2  UNL d   1       1.416   2.412   1.010  0.00  0.00    -0.047 A 
ATOM      5  C3  UNL d   1       0.132   2.296   1.593  0.00  0.00    -0.047 A 
ATOM      6  C4  UNL d   1      -0.547   1.316   0.900  0.00  0.00    -0.004 A 
ENDROOT
TORSDOF 0
ENDMDL
