MODEL 1
REMARK minimizedAffinity -3.95180941
REMARK minimizedRMSD -1
REMARK  0 active torsions:
REMARK  status: ('A' for Active; 'I' for Inactive)
ROOT
ATOM      1  C   UNL d   1       0.224  -0.833  -0.255  0.00  0.00     0.172 C 
ATOM      2  N   UNL d   1       0.389   0.447   0.393  0.00  0.00    -0.070 N 
ATOM      3  C1  UNL d   1       1.296   1.410   0.038  0.00  0.00    -0.004 A 
ATOM      4  C2  UNL d   1       1.136   2.477   0.896  0.00  0.00    -0.047 A 
ATOM      5  C3  UNL d   1       0.097   2.143   1.798  0.00  0.00    -0.047 A 
ATOM      6  C4  UNL d   1      -0.347   0.882   1.463  0.00  0.00    -0.004 A 
ENDROOT
TORSDOF 0
ENDMDL
