MODEL 1
REMARK minimizedAffinity -2.02466083
REMARK minimizedRMSD -1
REMARK  0 active torsions:
REMARK  status: ('A' for Active; 'I' for Inactive)
ROOT
ATOM      1  C   UNL d   1      -1.591  -1.791  -1.333  0.00  0.00     0.172 C 
ATOM      2  N   UNL d   1      -0.749  -0.925  -0.542  0.00  0.00    -0.070 N 
ATOM      3  C1  UNL d   1       0.600  -0.757  -0.705  0.00  0.00    -0.004 A 
ATOM      4  C2  UNL d   1       1.030   0.148   0.242  0.00  0.00    -0.047 A 
ATOM      5  C3  UNL d   1      -0.100   0.536   1.000  0.00  0.00    -0.047 A 
ATOM      6  C4  UNL d   1      -1.188  -0.144   0.494  0.00  0.00    -0.004 A 
ENDROOT
TORSDOF 0
ENDMDL
