MODEL 1
REMARK minimizedAffinity -3.68160295
REMARK minimizedRMSD -1
REMARK  0 active torsions:
REMARK  status: ('A' for Active; 'I' for Inactive)
ROOT
ATOM      1  C   UNL d   1      -0.139  -0.434  -0.527  0.00  0.00     0.172 C 
ATOM      2  N   UNL d   1       0.316   0.703   0.238  0.00  0.00    -0.070 N 
ATOM      3  C1  UNL d   1       1.047   1.753  -0.251  0.00  0.00    -0.004 A 
ATOM      4  C2  UNL d   1       1.278   2.627   0.790  0.00  0.00    -0.047 A 
ATOM      5  C3  UNL d   1       0.666   2.083   1.944  0.00  0.00    -0.047 A 
ATOM      6  C4  UNL d   1       0.077   0.892   1.574  0.00  0.00    -0.004 A 
ENDROOT
TORSDOF 0
ENDMDL
