MODEL 1
REMARK minimizedAffinity -3.68521404
REMARK minimizedRMSD -1
REMARK  0 active torsions:
REMARK  status: ('A' for Active; 'I' for Inactive)
ROOT
ATOM      1  C   UNL d   1      -0.384  -0.267  -0.767  0.00  0.00     0.172 C 
ATOM      2  N   UNL d   1      -0.156   0.769   0.213  0.00  0.00    -0.070 N 
ATOM      3  C1  UNL d   1      -0.568   0.738   1.519  0.00  0.00    -0.004 A 
ATOM      4  C2  UNL d   1      -0.157   1.908   2.119  0.00  0.00    -0.047 A 
ATOM      5  C3  UNL d   1       0.525   2.670   1.141  0.00  0.00    -0.047 A 
ATOM      6  C4  UNL d   1       0.511   1.941  -0.030  0.00  0.00    -0.004 A 
ENDROOT
TORSDOF 0
ENDMDL
