MODEL 1
REMARK minimizedAffinity -3.09188676
REMARK minimizedRMSD -1
REMARK  0 active torsions:
REMARK  status: ('A' for Active; 'I' for Inactive)
ROOT
ATOM      1  C   UNL d   1       0.441   1.773   1.264  0.00  0.00     0.172 C 
ATOM      2  N   UNL d   1       0.306   0.553   0.503  0.00  0.00    -0.070 N 
ATOM      3  C1  UNL d   1       1.219   0.066  -0.393  0.00  0.00    -0.004 A 
ATOM      4  C2  UNL d   1       0.722  -1.114  -0.903  0.00  0.00    -0.047 A 
ATOM      5  C3  UNL d   1      -0.534  -1.343  -0.292  0.00  0.00    -0.047 A 
ATOM      6  C4  UNL d   1      -0.767  -0.296   0.574  0.00  0.00    -0.004 A 
ENDROOT
TORSDOF 0
ENDMDL
