MODEL 1
REMARK minimizedAffinity -1.79591358
REMARK minimizedRMSD -1
REMARK  0 active torsions:
REMARK  status: ('A' for Active; 'I' for Inactive)
ROOT
ATOM      1  C   UNL d   1      -0.269  -2.100  -0.977  0.00  0.00     0.172 C 
ATOM      2  N   UNL d   1      -0.456  -0.867  -0.249  0.00  0.00    -0.070 N 
ATOM      3  C1  UNL d   1      -0.488   0.387  -0.798  0.00  0.00    -0.004 A 
ATOM      4  C2  UNL d   1      -0.686   1.290   0.225  0.00  0.00    -0.047 A 
ATOM      5  C3  UNL d   1      -0.774   0.553   1.429  0.00  0.00    -0.047 A 
ATOM      6  C4  UNL d   1      -0.628  -0.780   1.107  0.00  0.00    -0.004 A 
ENDROOT
TORSDOF 0
ENDMDL
