MODEL 1
REMARK minimizedAffinity -1.61068559
REMARK minimizedRMSD -1
REMARK  0 active torsions:
REMARK  status: ('A' for Active; 'I' for Inactive)
ROOT
ATOM      1  C   UNL d   1      -2.555  -0.930  -3.105  0.00  0.00     0.172 C 
ATOM      2  N   UNL d   1      -1.575  -0.917  -2.044  0.00  0.00    -0.070 N 
ATOM      3  C1  UNL d   1      -1.269   0.158  -1.253  0.00  0.00    -0.004 A 
ATOM      4  C2  UNL d   1      -0.290  -0.235  -0.367  0.00  0.00    -0.047 A 
ATOM      5  C3  UNL d   1       0.004  -1.594  -0.635  0.00  0.00    -0.047 A 
ATOM      6  C4  UNL d   1      -0.806  -1.990  -1.678  0.00  0.00    -0.004 A 
ENDROOT
TORSDOF 0
ENDMDL
