MODEL 1
REMARK minimizedAffinity -2.87974787
REMARK minimizedRMSD -1
REMARK  0 active torsions:
REMARK  status: ('A' for Active; 'I' for Inactive)
ROOT
ATOM      1  C   UNL d   1       0.787   2.029   1.630  0.00  0.00     0.172 C 
ATOM      2  N   UNL d   1       0.473   0.823   0.902  0.00  0.00    -0.070 N 
ATOM      3  C1  UNL d   1      -0.663   0.073   1.051  0.00  0.00    -0.004 A 
ATOM      4  C2  UNL d   1      -0.583  -0.992   0.180  0.00  0.00    -0.047 A 
ATOM      5  C3  UNL d   1       0.644  -0.879  -0.516  0.00  0.00    -0.047 A 
ATOM      6  C4  UNL d   1       1.278   0.253  -0.050  0.00  0.00    -0.004 A 
ENDROOT
TORSDOF 0
ENDMDL
