MODEL 1
REMARK minimizedAffinity -3.53538322
REMARK minimizedRMSD -1
REMARK  0 active torsions:
REMARK  status: ('A' for Active; 'I' for Inactive)
ROOT
ATOM      1  C   UNL d   1      -0.176  -0.785  -0.248  0.00  0.00     0.172 C 
ATOM      2  N   UNL d   1       0.805   0.249  -0.014  0.00  0.00    -0.070 N 
ATOM      3  C1  UNL d   1       2.109   0.221  -0.429  0.00  0.00    -0.004 A 
ATOM      4  C2  UNL d   1       2.711   1.388  -0.010  0.00  0.00    -0.047 A 
ATOM      5  C3  UNL d   1       1.734   2.143   0.683  0.00  0.00    -0.047 A 
ATOM      6  C4  UNL d   1       0.564   1.415   0.665  0.00  0.00    -0.004 A 
ENDROOT
TORSDOF 0
ENDMDL
