MODEL 1
REMARK minimizedAffinity -2.49177814
REMARK minimizedRMSD -1
REMARK  0 active torsions:
REMARK  status: ('A' for Active; 'I' for Inactive)
ROOT
ATOM      1  C   UNL d   1      -0.015   0.355  -0.514  0.00  0.00     0.172 C 
ATOM      2  N   UNL d   1       1.018   1.123   0.140  0.00  0.00    -0.070 N 
ATOM      3  C1  UNL d   1       2.354   1.079  -0.156  0.00  0.00    -0.004 A 
ATOM      4  C2  UNL d   1       3.003   1.955   0.687  0.00  0.00    -0.047 A 
ATOM      5  C3  UNL d   1       2.022   2.546   1.520  0.00  0.00    -0.047 A 
ATOM      6  C4  UNL d   1       0.803   2.013   1.159  0.00  0.00    -0.004 A 
ENDROOT
TORSDOF 0
ENDMDL
