MODEL 1
REMARK minimizedAffinity -3.22802544
REMARK minimizedRMSD -1
REMARK  0 active torsions:
REMARK  status: ('A' for Active; 'I' for Inactive)
ROOT
ATOM      1  C   UNL d   1       0.172  -0.772  -0.390  0.00  0.00     0.172 C 
ATOM      2  N   UNL d   1       0.832   0.348   0.240  0.00  0.00    -0.070 N 
ATOM      3  C1  UNL d   1       2.149   0.689   0.085  0.00  0.00    -0.004 A 
ATOM      4  C2  UNL d   1       2.387   1.812   0.847  0.00  0.00    -0.047 A 
ATOM      5  C3  UNL d   1       1.171   2.158   1.483  0.00  0.00    -0.047 A 
ATOM      6  C4  UNL d   1       0.225   1.235   1.090  0.00  0.00    -0.004 A 
ENDROOT
TORSDOF 0
ENDMDL
