MODEL 1
REMARK minimizedAffinity -3.53632116
REMARK minimizedRMSD -1
REMARK  0 active torsions:
REMARK  status: ('A' for Active; 'I' for Inactive)
ROOT
ATOM      1  C   UNL d   1       4.089   1.371   1.438  0.00  0.00     0.172 C 
ATOM      2  N   UNL d   1       2.773   1.907   1.183  0.00  0.00    -0.070 N 
ATOM      3  C1  UNL d   1       1.691   1.796   2.016  0.00  0.00    -0.004 A 
ATOM      4  C2  UNL d   1       0.629   2.437   1.416  0.00  0.00    -0.047 A 
ATOM      5  C3  UNL d   1       1.089   2.951   0.180  0.00  0.00    -0.047 A 
ATOM      6  C4  UNL d   1       2.419   2.608   0.061  0.00  0.00    -0.004 A 
ENDROOT
TORSDOF 0
ENDMDL
