MODEL 1
REMARK minimizedAffinity -1.54643345
REMARK minimizedRMSD -1
REMARK  0 active torsions:
REMARK  status: ('A' for Active; 'I' for Inactive)
ROOT
ATOM      1  C   UNL d   1       3.620   1.265  -0.016  0.00  0.00     0.172 C 
ATOM      2  N   UNL d   1       2.299   1.604   0.460  0.00  0.00    -0.070 N 
ATOM      3  C1  UNL d   1       1.134   0.991   0.084  0.00  0.00    -0.004 A 
ATOM      4  C2  UNL d   1       0.099   1.602   0.759  0.00  0.00    -0.047 A 
ATOM      5  C3  UNL d   1       0.662   2.618   1.567  0.00  0.00    -0.047 A 
ATOM      6  C4  UNL d   1       2.025   2.598   1.362  0.00  0.00    -0.004 A 
ENDROOT
TORSDOF 0
ENDMDL
