MODEL 1
REMARK minimizedAffinity -2.97884011
REMARK minimizedRMSD -1
REMARK  0 active torsions:
REMARK  status: ('A' for Active; 'I' for Inactive)
ROOT
ATOM      1  C   UNL d   1       0.009  -0.612  -0.373  0.00  0.00     0.172 C 
ATOM      2  N   UNL d   1       0.433   0.422   0.541  0.00  0.00    -0.070 N 
ATOM      3  C1  UNL d   1       1.703   0.924   0.645  0.00  0.00    -0.004 A 
ATOM      4  C2  UNL d   1       1.696   1.891   1.627  0.00  0.00    -0.047 A 
ATOM      5  C3  UNL d   1       0.376   1.972   2.132  0.00  0.00    -0.047 A 
ATOM      6  C4  UNL d   1      -0.385   1.052   1.442  0.00  0.00    -0.004 A 
ENDROOT
TORSDOF 0
ENDMDL
