MODEL 1
REMARK minimizedAffinity -0.142640397
REMARK minimizedRMSD -1
REMARK  0 active torsions:
REMARK  status: ('A' for Active; 'I' for Inactive)
ROOT
ATOM      1  C   UNL d   1      -0.688  -1.332  -0.268  0.00  0.00     0.172 C 
ATOM      2  N   UNL d   1      -0.483  -0.200   0.605  0.00  0.00    -0.070 N 
ATOM      3  C1  UNL d   1      -1.346   0.223   1.580  0.00  0.00    -0.004 A 
ATOM      4  C2  UNL d   1      -0.789   1.328   2.186  0.00  0.00    -0.047 A 
ATOM      5  C3  UNL d   1       0.452   1.578   1.553  0.00  0.00    -0.047 A 
ATOM      6  C4  UNL d   1       0.616   0.617   0.578  0.00  0.00    -0.004 A 
ENDROOT
TORSDOF 0
ENDMDL
