MODEL 1
REMARK minimizedAffinity 1.14832079
REMARK minimizedRMSD -1
REMARK  0 active torsions:
REMARK  status: ('A' for Active; 'I' for Inactive)
ROOT
ATOM      1  C   UNL d   1       0.991   2.175  -0.347  0.00  0.00     0.172 C 
ATOM      2  N   UNL d   1       0.315   1.670   0.825  0.00  0.00    -0.070 N 
ATOM      3  C1  UNL d   1       0.397   2.200   2.084  0.00  0.00    -0.004 A 
ATOM      4  C2  UNL d   1      -0.390   1.434   2.917  0.00  0.00    -0.047 A 
ATOM      5  C3  UNL d   1      -0.963   0.406   2.131  0.00  0.00    -0.047 A 
ATOM      6  C4  UNL d   1      -0.509   0.576   0.839  0.00  0.00    -0.004 A 
ENDROOT
TORSDOF 0
ENDMDL
