MODEL 1
REMARK minimizedAffinity -3.52645135
REMARK minimizedRMSD -1
REMARK  0 active torsions:
REMARK  status: ('A' for Active; 'I' for Inactive)
ROOT
ATOM      1  C   UNL d   1       1.553   5.979  -5.220  0.00  0.00     0.172 C 
ATOM      2  N   UNL d   1       2.600   5.277  -4.515  0.00  0.00    -0.070 N 
ATOM      3  C1  UNL d   1       2.489   4.722  -3.268  0.00  0.00    -0.004 A 
ATOM      4  C2  UNL d   1       3.701   4.147  -2.953  0.00  0.00    -0.047 A 
ATOM      5  C3  UNL d   1       4.571   4.365  -4.047  0.00  0.00    -0.047 A 
ATOM      6  C4  UNL d   1       3.864   5.067  -5.000  0.00  0.00    -0.004 A 
ENDROOT
TORSDOF 0
ENDMDL
