MODEL 1
REMARK minimizedAffinity 9.17925167
REMARK minimizedRMSD -1
REMARK  1 active torsions:
REMARK  status: ('A' for Active; 'I' for Inactive)
REMARK    1  A    between atoms: C1_2  and  C2_3 
ROOT
ATOM      1  C2  UNL d   1       3.353   3.865   4.885  0.00  0.00    -0.073 A 
ATOM      2  C3  UNL d   1       2.227   3.041   4.785  0.00  0.00    -0.002 A 
ATOM      3  C4  UNL d   1       2.156   2.061   3.794  0.00  0.00     0.004 A 
ATOM      4  C5  UNL d   1       3.211   1.890   2.898  0.00  0.00    -0.004 A 
ATOM      5  C6  UNL d   1       4.351   2.696   2.989  0.00  0.00    -0.075 A 
ATOM      6  C7  UNL d   1       5.494   2.527   2.032  0.00  0.00     0.076 C 
ATOM      7  C8  UNL d   1       4.413   3.680   3.985  0.00  0.00     0.001 A 
ENDROOT
BRANCH   1   8
ATOM      8  C1  UNL d   1       3.437   4.920   5.957  0.00  0.00     0.053 C 
ATOM      9  C   UNL d   1       4.452   6.000   5.616  0.00  0.00     0.018 C 
ENDBRANCH   1   8
TORSDOF 1
ENDMDL
