MODEL 1
REMARK minimizedAffinity 5.87618494
REMARK minimizedRMSD -1
REMARK  1 active torsions:
REMARK  status: ('A' for Active; 'I' for Inactive)
REMARK    1  A    between atoms: C1_2  and  C2_3 
ROOT
ATOM      1  C2  UNL d   1      -3.547   3.020   5.074  0.00  0.00    -0.073 A 
ATOM      2  C3  UNL d   1      -2.320   3.650   5.314  0.00  0.00    -0.002 A 
ATOM      3  C4  UNL d   1      -2.282   4.970   5.764  0.00  0.00     0.004 A 
ATOM      4  C5  UNL d   1      -3.467   5.671   5.985  0.00  0.00    -0.004 A 
ATOM      5  C6  UNL d   1      -4.703   5.055   5.763  0.00  0.00    -0.075 A 
ATOM      6  C7  UNL d   1      -5.987   5.796   5.995  0.00  0.00     0.076 C 
ATOM      7  C8  UNL d   1      -4.733   3.730   5.308  0.00  0.00     0.001 A 
ENDROOT
BRANCH   1   8
ATOM      8  C1  UNL d   1      -3.593   1.593   4.594  0.00  0.00     0.053 C 
ATOM      9  C   UNL d   1      -4.631   1.392   3.501  0.00  0.00     0.018 C 
ENDBRANCH   1   8
TORSDOF 1
ENDMDL
