MODEL 1
REMARK minimizedAffinity 6.49835014
REMARK minimizedRMSD -1
REMARK  1 active torsions:
REMARK  status: ('A' for Active; 'I' for Inactive)
REMARK    1  A    between atoms: C1_2  and  C2_3 
ROOT
ATOM      1  C2  UNL d   1       1.592  -4.126   1.177  0.00  0.00    -0.073 A 
ATOM      2  C3  UNL d   1       2.233  -2.885   1.263  0.00  0.00    -0.002 A 
ATOM      3  C4  UNL d   1       1.526  -1.754   1.674  0.00  0.00     0.004 A 
ATOM      4  C5  UNL d   1       0.176  -1.853   2.010  0.00  0.00    -0.004 A 
ATOM      5  C6  UNL d   1      -0.479  -3.087   1.941  0.00  0.00    -0.075 A 
ATOM      6  C7  UNL d   1      -1.931  -3.211   2.296  0.00  0.00     0.076 C 
ATOM      7  C8  UNL d   1       0.237  -4.218   1.525  0.00  0.00     0.001 A 
ENDROOT
BRANCH   1   8
ATOM      8  C1  UNL d   1       2.353  -5.351   0.739  0.00  0.00     0.053 C 
ATOM      9  C   UNL d   1       3.715  -5.001   0.162  0.00  0.00     0.018 C 
ENDBRANCH   1   8
TORSDOF 1
ENDMDL
