MODEL 1
REMARK minimizedAffinity 9.91562462
REMARK minimizedRMSD -1
REMARK  1 active torsions:
REMARK  status: ('A' for Active; 'I' for Inactive)
REMARK    1  A    between atoms: C1_2  and  C2_3 
ROOT
ATOM      1  C2  UNL d   1       1.818  -1.487   2.195  0.00  0.00    -0.073 A 
ATOM      2  C3  UNL d   1       1.432  -0.751   1.069  0.00  0.00    -0.002 A 
ATOM      3  C4  UNL d   1       1.353  -1.365  -0.181  0.00  0.00     0.004 A 
ATOM      4  C5  UNL d   1       1.651  -2.721  -0.318  0.00  0.00    -0.004 A 
ATOM      5  C6  UNL d   1       2.026  -3.476   0.797  0.00  0.00    -0.075 A 
ATOM      6  C7  UNL d   1       2.352  -4.935   0.666  0.00  0.00     0.076 C 
ATOM      7  C8  UNL d   1       2.106  -2.852   2.049  0.00  0.00     0.001 A 
ENDROOT
BRANCH   1   8
ATOM      8  C1  UNL d   1       1.899  -0.830   3.549  0.00  0.00     0.053 C 
ATOM      9  C   UNL d   1       1.259   0.549   3.552  0.00  0.00     0.018 C 
ENDBRANCH   1   8
TORSDOF 1
ENDMDL
