MODEL 1
REMARK minimizedAffinity -3.15052009
REMARK minimizedRMSD -1
REMARK  2 active torsions:
REMARK  status: ('A' for Active; 'I' for Inactive)
REMARK    1  A    between atoms: C1_2  and  C2_3 
REMARK    2  A    between atoms: C2_3  and  C3_4 
ROOT
ATOM      1  C3  UNL d   1      -0.302   0.860   0.377  0.00  0.00    -0.075 A 
ATOM      2  C4  UNL d   1      -0.112   2.249   0.389  0.00  0.00     0.002 A 
ATOM      3  C5  UNL d   1      -0.980   3.077   1.102  0.00  0.00     0.002 A 
ATOM      4  C6  UNL d   1      -2.051   2.528   1.803  0.00  0.00    -0.004 A 
ATOM      5  C7  UNL d   1      -2.259   1.151   1.785  0.00  0.00     0.002 A 
ATOM      6  C8  UNL d   1      -1.390   0.320   1.076  0.00  0.00     0.002 A 
ENDROOT
BRANCH   1   7
ATOM      7  C2  UNL d   1       0.650  -0.044  -0.369  0.00  0.00     0.056 C 
BRANCH   7   8
ATOM      8  C1  UNL d   1       0.074  -1.427  -0.691  0.00  0.00     0.007 C 
ATOM      9  C   UNL d   1       1.018  -2.293  -1.515  0.00  0.00     0.009 C 
ENDBRANCH   7   8
ENDBRANCH   1   7
TORSDOF 2
ENDMDL
