MODEL 1
REMARK minimizedAffinity -1.09812355
REMARK minimizedRMSD -1
REMARK  2 active torsions:
REMARK  status: ('A' for Active; 'I' for Inactive)
REMARK    1  A    between atoms: C1_2  and  C2_3 
REMARK    2  A    between atoms: C2_3  and  C3_4 
ROOT
ATOM      1  C3  UNL d   1       0.982  -1.562  -1.278  0.00  0.00    -0.075 A 
ATOM      2  C4  UNL d   1       0.697  -1.401  -2.641  0.00  0.00     0.002 A 
ATOM      3  C5  UNL d   1       0.665  -2.504  -3.494  0.00  0.00     0.002 A 
ATOM      4  C6  UNL d   1       0.927  -3.780  -2.998  0.00  0.00    -0.004 A 
ATOM      5  C7  UNL d   1       1.227  -3.950  -1.649  0.00  0.00     0.002 A 
ATOM      6  C8  UNL d   1       1.256  -2.848  -0.792  0.00  0.00     0.002 A 
ENDROOT
BRANCH   1   7
ATOM      7  C2  UNL d   1       0.990  -0.376  -0.344  0.00  0.00     0.056 C 
BRANCH   7   8
ATOM      8  C1  UNL d   1       0.186  -0.590   0.943  0.00  0.00     0.007 C 
ATOM      9  C   UNL d   1      -1.316  -0.682   0.704  0.00  0.00     0.009 C 
ENDBRANCH   7   8
ENDBRANCH   1   7
TORSDOF 2
ENDMDL
