MODEL 1
REMARK minimizedAffinity -4.23964167
REMARK minimizedRMSD -1
REMARK  2 active torsions:
REMARK  status: ('A' for Active; 'I' for Inactive)
REMARK    1  A    between atoms: C1_2  and  C2_3 
REMARK    2  A    between atoms: C2_3  and  C3_4 
ROOT
ATOM      1  C3  UNL d   1       0.492  -0.004   0.028  0.00  0.00    -0.075 A 
ATOM      2  C4  UNL d   1       0.103   1.320  -0.222  0.00  0.00     0.002 A 
ATOM      3  C5  UNL d   1      -0.738   1.991   0.667  0.00  0.00     0.002 A 
ATOM      4  C6  UNL d   1      -1.207   1.345   1.808  0.00  0.00    -0.004 A 
ATOM      5  C7  UNL d   1      -0.841   0.024   2.058  0.00  0.00     0.002 A 
ATOM      6  C8  UNL d   1       0.004  -0.648   1.173  0.00  0.00     0.002 A 
ENDROOT
BRANCH   1   7
ATOM      7  C2  UNL d   1       1.426  -0.726  -0.914  0.00  0.00     0.056 C 
BRANCH   7   8
ATOM      8  C1  UNL d   1       1.078  -2.203  -1.127  0.00  0.00     0.007 C 
ATOM      9  C   UNL d   1       0.828  -2.557  -2.586  0.00  0.00     0.009 C 
ENDBRANCH   7   8
ENDBRANCH   1   7
TORSDOF 2
ENDMDL
