MODEL 1
REMARK minimizedAffinity -6.11228037
REMARK minimizedRMSD -1
REMARK  2 active torsions:
REMARK  status: ('A' for Active; 'I' for Inactive)
REMARK    1  A    between atoms: C1_2  and  C2_3 
REMARK    2  A    between atoms: C2_3  and  C3_4 
ROOT
ATOM      1  C3  UNL d   1       0.011  -0.100   0.165  0.00  0.00    -0.075 A 
ATOM      2  C4  UNL d   1      -0.374  -0.533   1.443  0.00  0.00     0.002 A 
ATOM      3  C5  UNL d   1      -1.329   0.176   2.173  0.00  0.00     0.002 A 
ATOM      4  C6  UNL d   1      -1.901   1.329   1.642  0.00  0.00    -0.004 A 
ATOM      5  C7  UNL d   1      -1.514   1.778   0.381  0.00  0.00     0.002 A 
ATOM      6  C8  UNL d   1      -0.563   1.068  -0.354  0.00  0.00     0.002 A 
ENDROOT
BRANCH   1   7
ATOM      7  C2  UNL d   1       1.021  -0.880  -0.642  0.00  0.00     0.056 C 
BRANCH   7   8
ATOM      8  C1  UNL d   1       0.404  -1.740  -1.750  0.00  0.00     0.007 C 
ATOM      9  C   UNL d   1       1.072  -3.101  -1.895  0.00  0.00     0.009 C 
ENDBRANCH   7   8
ENDBRANCH   1   7
TORSDOF 2
ENDMDL
