MODEL 1
REMARK minimizedAffinity -2.67180395
REMARK minimizedRMSD -1
REMARK  2 active torsions:
REMARK  status: ('A' for Active; 'I' for Inactive)
REMARK    1  A    between atoms: C1_2  and  C2_3 
REMARK    2  A    between atoms: C2_3  and  C3_4 
ROOT
ATOM      1  C3  UNL d   1       0.546  -0.723   0.327  0.00  0.00    -0.075 A 
ATOM      2  C4  UNL d   1      -0.101  -0.877   1.562  0.00  0.00     0.002 A 
ATOM      3  C5  UNL d   1      -0.713   0.213   2.182  0.00  0.00     0.002 A 
ATOM      4  C6  UNL d   1      -0.678   1.469   1.582  0.00  0.00    -0.004 A 
ATOM      5  C7  UNL d   1      -0.024   1.637   0.363  0.00  0.00     0.002 A 
ATOM      6  C8  UNL d   1       0.586   0.548  -0.261  0.00  0.00     0.002 A 
ENDROOT
BRANCH   1   7
ATOM      7  C2  UNL d   1       1.184  -1.905  -0.363  0.00  0.00     0.056 C 
BRANCH   7   8
ATOM      8  C1  UNL d   1       0.500  -2.306  -1.674  0.00  0.00     0.007 C 
ATOM      9  C   UNL d   1       0.382  -3.814  -1.852  0.00  0.00     0.009 C 
ENDBRANCH   7   8
ENDBRANCH   1   7
TORSDOF 2
ENDMDL
