MODEL 1
REMARK minimizedAffinity -0.0502644852
REMARK minimizedRMSD -1
REMARK  2 active torsions:
REMARK  status: ('A' for Active; 'I' for Inactive)
REMARK    1  A    between atoms: C1_2  and  C2_3 
REMARK    2  A    between atoms: C2_3  and  C3_4 
ROOT
ATOM      1  C3  UNL d   1       2.655  -5.108  -0.539  0.00  0.00    -0.075 A 
ATOM      2  C4  UNL d   1       2.547  -3.741  -0.835  0.00  0.00     0.002 A 
ATOM      3  C5  UNL d   1       1.534  -3.276  -1.674  0.00  0.00     0.002 A 
ATOM      4  C6  UNL d   1       0.625  -4.170  -2.236  0.00  0.00    -0.004 A 
ATOM      5  C7  UNL d   1       0.734  -5.532  -1.962  0.00  0.00     0.002 A 
ATOM      6  C8  UNL d   1       1.743  -6.000  -1.119  0.00  0.00     0.002 A 
ENDROOT
BRANCH   1   7
ATOM      7  C2  UNL d   1       3.731  -5.614   0.392  0.00  0.00     0.056 C 
BRANCH   7   8
ATOM      8  C1  UNL d   1       5.036  -6.000  -0.313  0.00  0.00     0.007 C 
ATOM      9  C   UNL d   1       5.669  -4.845  -1.077  0.00  0.00     0.009 C 
ENDBRANCH   7   8
ENDBRANCH   1   7
TORSDOF 2
ENDMDL
