MODEL 1
REMARK minimizedAffinity -5.76674414
REMARK minimizedRMSD -1
REMARK  2 active torsions:
REMARK  status: ('A' for Active; 'I' for Inactive)
REMARK    1  A    between atoms: C1_2  and  C2_3 
REMARK    2  A    between atoms: C2_3  and  C3_4 
ROOT
ATOM      1  C3  UNL d   1      -0.063   0.136   0.156  0.00  0.00    -0.075 A 
ATOM      2  C4  UNL d   1      -0.783   1.165  -0.467  0.00  0.00     0.002 A 
ATOM      3  C5  UNL d   1      -1.626   1.991   0.277  0.00  0.00     0.002 A 
ATOM      4  C6  UNL d   1      -1.768   1.792   1.648  0.00  0.00    -0.004 A 
ATOM      5  C7  UNL d   1      -1.070   0.763   2.275  0.00  0.00     0.002 A 
ATOM      6  C8  UNL d   1      -0.222  -0.062   1.534  0.00  0.00     0.002 A 
ENDROOT
BRANCH   1   7
ATOM      7  C2  UNL d   1       0.874  -0.743  -0.638  0.00  0.00     0.056 C 
BRANCH   7   8
ATOM      8  C1  UNL d   1       0.280  -1.260  -1.952  0.00  0.00     0.007 C 
ATOM      9  C   UNL d   1       0.402  -2.770  -2.113  0.00  0.00     0.009 C 
ENDBRANCH   7   8
ENDBRANCH   1   7
TORSDOF 2
ENDMDL
