MODEL 1
REMARK minimizedAffinity -5.97772121
REMARK minimizedRMSD -1
REMARK  2 active torsions:
REMARK  status: ('A' for Active; 'I' for Inactive)
REMARK    1  A    between atoms: C1_2  and  C2_3 
REMARK    2  A    between atoms: C2_3  and  C3_4 
ROOT
ATOM      1  C3  UNL d   1       0.109   0.140  -0.164  0.00  0.00    -0.075 A 
ATOM      2  C4  UNL d   1      -0.085  -0.291   1.157  0.00  0.00     0.002 A 
ATOM      3  C5  UNL d   1      -1.046   0.316   1.966  0.00  0.00     0.002 A 
ATOM      4  C6  UNL d   1      -1.817   1.365   1.470  0.00  0.00    -0.004 A 
ATOM      5  C7  UNL d   1      -1.621   1.812   0.165  0.00  0.00     0.002 A 
ATOM      6  C8  UNL d   1      -0.663   1.204  -0.648  0.00  0.00     0.002 A 
ENDROOT
BRANCH   1   7
ATOM      7  C2  UNL d   1       1.127  -0.532  -1.054  0.00  0.00     0.056 C 
BRANCH   7   8
ATOM      8  C1  UNL d   1       1.106  -2.062  -0.981  0.00  0.00     0.007 C 
ATOM      9  C   UNL d   1       0.408  -2.710  -2.169  0.00  0.00     0.009 C 
ENDBRANCH   7   8
ENDBRANCH   1   7
TORSDOF 2
ENDMDL
