MODEL 1
REMARK minimizedAffinity -5.47104216
REMARK minimizedRMSD -1
REMARK  2 active torsions:
REMARK  status: ('A' for Active; 'I' for Inactive)
REMARK    1  A    between atoms: C1_2  and  C2_3 
REMARK    2  A    between atoms: C2_3  and  C3_4 
ROOT
ATOM      1  C3  UNL d   1      -0.094   0.113   0.242  0.00  0.00    -0.075 A 
ATOM      2  C4  UNL d   1      -0.361   1.279  -0.491  0.00  0.00     0.002 A 
ATOM      3  C5  UNL d   1      -1.136   2.300   0.059  0.00  0.00     0.002 A 
ATOM      4  C6  UNL d   1      -1.662   2.165   1.342  0.00  0.00    -0.004 A 
ATOM      5  C7  UNL d   1      -1.417   1.005   2.073  0.00  0.00     0.002 A 
ATOM      6  C8  UNL d   1      -0.638  -0.017   1.527  0.00  0.00     0.002 A 
ENDROOT
BRANCH   1   7
ATOM      7  C2  UNL d   1       0.768  -0.983  -0.336  0.00  0.00     0.056 C 
BRANCH   7   8
ATOM      8  C1  UNL d   1       0.346  -1.435  -1.738  0.00  0.00     0.007 C 
ATOM      9  C   UNL d   1       0.452  -2.940  -1.941  0.00  0.00     0.009 C 
ENDBRANCH   7   8
ENDBRANCH   1   7
TORSDOF 2
ENDMDL
