MODEL 1
REMARK minimizedAffinity -4.99165154
REMARK minimizedRMSD -1
REMARK  2 active torsions:
REMARK  status: ('A' for Active; 'I' for Inactive)
REMARK    1  A    between atoms: C1_2  and  C2_3 
REMARK    2  A    between atoms: C2_3  and  C3_4 
ROOT
ATOM      1  C3  UNL d   1       0.400  -1.075  -1.120  0.00  0.00    -0.075 A 
ATOM      2  C4  UNL d   1       1.685  -1.394  -1.581  0.00  0.00     0.002 A 
ATOM      3  C5  UNL d   1       1.859  -2.327  -2.603  0.00  0.00     0.002 A 
ATOM      4  C6  UNL d   1       0.755  -2.959  -3.169  0.00  0.00    -0.004 A 
ATOM      5  C7  UNL d   1      -0.526  -2.662  -2.708  0.00  0.00     0.002 A 
ATOM      6  C8  UNL d   1      -0.703  -1.725  -1.688  0.00  0.00     0.002 A 
ENDROOT
BRANCH   1   7
ATOM      7  C2  UNL d   1       0.203  -0.044  -0.034  0.00  0.00     0.056 C 
BRANCH   7   8
ATOM      8  C1  UNL d   1      -0.938  -0.370   0.936  0.00  0.00     0.007 C 
ATOM      9  C   UNL d   1      -1.291   0.789   1.859  0.00  0.00     0.009 C 
ENDBRANCH   7   8
ENDBRANCH   1   7
TORSDOF 2
ENDMDL
