MODEL 1
REMARK minimizedAffinity -1.61876738
REMARK minimizedRMSD -1
REMARK  2 active torsions:
REMARK  status: ('A' for Active; 'I' for Inactive)
REMARK    1  A    between atoms: C1_2  and  C2_3 
REMARK    2  A    between atoms: C2_3  and  C3_4 
ROOT
ATOM      1  C3  UNL d   1      -0.780   1.471   0.906  0.00  0.00    -0.075 A 
ATOM      2  C4  UNL d   1      -0.557   0.087   0.916  0.00  0.00     0.002 A 
ATOM      3  C5  UNL d   1      -0.011  -0.550  -0.199  0.00  0.00     0.002 A 
ATOM      4  C6  UNL d   1       0.308   0.184  -1.339  0.00  0.00    -0.004 A 
ATOM      5  C7  UNL d   1       0.075   1.558  -1.365  0.00  0.00     0.002 A 
ATOM      6  C8  UNL d   1      -0.466   2.199  -0.250  0.00  0.00     0.002 A 
ENDROOT
BRANCH   1   7
ATOM      7  C2  UNL d   1      -1.343   2.172   2.120  0.00  0.00     0.056 C 
BRANCH   7   8
ATOM      8  C1  UNL d   1      -0.697   1.744   3.442  0.00  0.00     0.007 C 
ATOM      9  C   UNL d   1       0.525   2.576   3.810  0.00  0.00     0.009 C 
ENDBRANCH   7   8
ENDBRANCH   1   7
TORSDOF 2
ENDMDL
