MODEL 1
REMARK minimizedAffinity -5.47997808
REMARK minimizedRMSD -1
REMARK  2 active torsions:
REMARK  status: ('A' for Active; 'I' for Inactive)
REMARK    1  A    between atoms: C1_2  and  C2_3 
REMARK    2  A    between atoms: C2_3  and  C3_4 
ROOT
ATOM      1  C3  UNL d   1       0.314  -0.319  -0.059  0.00  0.00    -0.075 A 
ATOM      2  C4  UNL d   1       0.235  -0.652   1.301  0.00  0.00     0.002 A 
ATOM      3  C5  UNL d   1      -0.600   0.065   2.159  0.00  0.00     0.002 A 
ATOM      4  C6  UNL d   1      -1.356   1.129   1.672  0.00  0.00    -0.004 A 
ATOM      5  C7  UNL d   1      -1.272   1.479   0.326  0.00  0.00     0.002 A 
ATOM      6  C8  UNL d   1      -0.441   0.760  -0.536  0.00  0.00     0.002 A 
ENDROOT
BRANCH   1   7
ATOM      7  C2  UNL d   1       1.193  -1.110  -0.998  0.00  0.00     0.056 C 
BRANCH   7   8
ATOM      8  C1  UNL d   1       0.559  -2.413  -1.496  0.00  0.00     0.007 C 
ATOM      9  C   UNL d   1       0.341  -2.437  -3.003  0.00  0.00     0.009 C 
ENDBRANCH   7   8
ENDBRANCH   1   7
TORSDOF 2
ENDMDL
