MODEL 1
REMARK minimizedAffinity -3.97452855
REMARK minimizedRMSD -1
REMARK  2 active torsions:
REMARK  status: ('A' for Active; 'I' for Inactive)
REMARK    1  A    between atoms: C1_2  and  C2_3 
REMARK    2  A    between atoms: C2_3  and  C3_4 
ROOT
ATOM      1  C3  UNL d   1      -0.588   1.200   0.359  0.00  0.00    -0.075 A 
ATOM      2  C4  UNL d   1       0.200   2.171  -0.277  0.00  0.00     0.002 A 
ATOM      3  C5  UNL d   1      -0.024   3.528  -0.043  0.00  0.00     0.002 A 
ATOM      4  C6  UNL d   1      -1.042   3.931   0.818  0.00  0.00    -0.004 A 
ATOM      5  C7  UNL d   1      -1.841   2.976   1.442  0.00  0.00     0.002 A 
ATOM      6  C8  UNL d   1      -1.617   1.617   1.214  0.00  0.00     0.002 A 
ENDROOT
BRANCH   1   7
ATOM      7  C2  UNL d   1      -0.332  -0.271   0.133  0.00  0.00     0.056 C 
BRANCH   7   8
ATOM      8  C1  UNL d   1       1.147  -0.626  -0.050  0.00  0.00     0.007 C 
ATOM      9  C   UNL d   1       1.394  -1.592  -1.201  0.00  0.00     0.009 C 
ENDBRANCH   7   8
ENDBRANCH   1   7
TORSDOF 2
ENDMDL
