MODEL 1
REMARK minimizedAffinity -5.5091548
REMARK minimizedRMSD -1
REMARK  2 active torsions:
REMARK  status: ('A' for Active; 'I' for Inactive)
REMARK    1  A    between atoms: C1_2  and  C2_3 
REMARK    2  A    between atoms: C2_3  and  C3_4 
ROOT
ATOM      1  C3  UNL d   1      -0.190   0.948   0.448  0.00  0.00    -0.075 A 
ATOM      2  C4  UNL d   1      -1.124   1.344   1.417  0.00  0.00     0.002 A 
ATOM      3  C5  UNL d   1      -1.628   2.645   1.425  0.00  0.00     0.002 A 
ATOM      4  C6  UNL d   1      -1.198   3.568   0.474  0.00  0.00    -0.004 A 
ATOM      5  C7  UNL d   1      -0.259   3.190  -0.483  0.00  0.00     0.002 A 
ATOM      6  C8  UNL d   1       0.244   1.888  -0.497  0.00  0.00     0.002 A 
ENDROOT
BRANCH   1   7
ATOM      7  C2  UNL d   1       0.337  -0.467   0.415  0.00  0.00     0.056 C 
BRANCH   7   8
ATOM      8  C1  UNL d   1       0.895  -0.893  -0.947  0.00  0.00     0.007 C 
ATOM      9  C   UNL d   1       1.026  -2.403  -1.096  0.00  0.00     0.009 C 
ENDBRANCH   7   8
ENDBRANCH   1   7
TORSDOF 2
ENDMDL
