MODEL 1
REMARK minimizedAffinity -3.91366386
REMARK minimizedRMSD -1
REMARK  0 active torsions:
REMARK  status: ('A' for Active; 'I' for Inactive)
ROOT
ATOM      1  C   UNL d   1      -1.455   0.198   0.173  0.00  0.00     0.172 C 
ATOM      2  N   UNL d   1      -0.950   0.462   1.500  0.00  0.00    -0.070 N 
ATOM      3  C1  UNL d   1      -1.709   0.578   2.634  0.00  0.00    -0.004 A 
ATOM      4  C2  UNL d   1      -0.858   0.828   3.688  0.00  0.00    -0.047 A 
ATOM      5  C3  UNL d   1       0.459   0.864   3.170  0.00  0.00    -0.047 A 
ATOM      6  C4  UNL d   1       0.372   0.635   1.813  0.00  0.00    -0.004 A 
ENDROOT
TORSDOF 0
ENDMDL
