MODEL 1
REMARK minimizedAffinity -3.24292397
REMARK minimizedRMSD -1
REMARK  0 active torsions:
REMARK  status: ('A' for Active; 'I' for Inactive)
ROOT
ATOM      1  C   UNL d   1       1.927  -0.554   2.217  0.00  0.00     0.172 C 
ATOM      2  N   UNL d   1       0.562  -0.329   1.806  0.00  0.00    -0.070 N 
ATOM      3  C1  UNL d   1       0.090  -0.412   0.523  0.00  0.00    -0.004 A 
ATOM      4  C2  UNL d   1      -1.259  -0.129   0.550  0.00  0.00    -0.047 A 
ATOM      5  C3  UNL d   1      -1.609   0.135   1.895  0.00  0.00    -0.047 A 
ATOM      6  C4  UNL d   1      -0.463   0.004   2.651  0.00  0.00    -0.004 A 
ENDROOT
TORSDOF 0
ENDMDL
