MODEL 1
REMARK minimizedAffinity -3.52778268
REMARK minimizedRMSD -1
REMARK  0 active torsions:
REMARK  status: ('A' for Active; 'I' for Inactive)
ROOT
ATOM      1  C   UNL d   1      -0.041  -0.138  -0.751  0.00  0.00     0.172 C 
ATOM      2  N   UNL d   1       0.300   0.135   0.626  0.00  0.00    -0.070 N 
ATOM      3  C1  UNL d   1       1.264  -0.511   1.352  0.00  0.00    -0.004 A 
ATOM      4  C2  UNL d   1       1.280   0.039   2.616  0.00  0.00    -0.047 A 
ATOM      5  C3  UNL d   1       0.290   1.049   2.650  0.00  0.00    -0.047 A 
ATOM      6  C4  UNL d   1      -0.301   1.088   1.405  0.00  0.00    -0.004 A 
ENDROOT
TORSDOF 0
ENDMDL
