MODEL 1
REMARK minimizedAffinity -1.697137
REMARK minimizedRMSD -1
REMARK  0 active torsions:
REMARK  status: ('A' for Active; 'I' for Inactive)
ROOT
ATOM      1  C   UNL d   1       0.305  -0.456  -1.169  0.00  0.00     0.172 C 
ATOM      2  N   UNL d   1      -0.218  -0.128   0.137  0.00  0.00    -0.070 N 
ATOM      3  C1  UNL d   1       0.465  -0.234   1.319  0.00  0.00    -0.004 A 
ATOM      4  C2  UNL d   1      -0.378   0.172   2.331  0.00  0.00    -0.047 A 
ATOM      5  C3  UNL d   1      -1.610   0.534   1.736  0.00  0.00    -0.047 A 
ATOM      6  C4  UNL d   1      -1.483   0.338   0.377  0.00  0.00    -0.004 A 
ENDROOT
TORSDOF 0
ENDMDL
