MODEL 1
REMARK minimizedAffinity -3.59192038
REMARK minimizedRMSD -1
REMARK  0 active torsions:
REMARK  status: ('A' for Active; 'I' for Inactive)
ROOT
ATOM      1  C   UNL d   1      -1.289  -0.484  -0.138  0.00  0.00     0.172 C 
ATOM      2  N   UNL d   1      -0.718   0.199   0.999  0.00  0.00    -0.070 N 
ATOM      3  C1  UNL d   1      -1.401   0.599   2.116  0.00  0.00    -0.004 A 
ATOM      4  C2  UNL d   1      -0.503   1.210   2.964  0.00  0.00    -0.047 A 
ATOM      5  C3  UNL d   1       0.763   1.179   2.334  0.00  0.00    -0.047 A 
ATOM      6  C4  UNL d   1       0.602   0.547   1.118  0.00  0.00    -0.004 A 
ENDROOT
TORSDOF 0
ENDMDL
