MODEL 1
REMARK minimizedAffinity -4.18863297
REMARK minimizedRMSD -1
REMARK  0 active torsions:
REMARK  status: ('A' for Active; 'I' for Inactive)
ROOT
ATOM      1  C   UNL d   1       0.547  -0.616  -0.080  0.00  0.00     0.172 C 
ATOM      2  N   UNL d   1       0.428  -0.009   1.225  0.00  0.00    -0.070 N 
ATOM      3  C1  UNL d   1       1.323  -0.143   2.253  0.00  0.00    -0.004 A 
ATOM      4  C2  UNL d   1       0.850   0.586   3.322  0.00  0.00    -0.047 A 
ATOM      5  C3  UNL d   1      -0.372   1.178   2.924  0.00  0.00    -0.047 A 
ATOM      6  C4  UNL d   1      -0.610   0.793   1.622  0.00  0.00    -0.004 A 
ENDROOT
TORSDOF 0
ENDMDL
