MODEL 1
REMARK minimizedAffinity -3.39150739
REMARK minimizedRMSD -1
REMARK  0 active torsions:
REMARK  status: ('A' for Active; 'I' for Inactive)
ROOT
ATOM      1  C   UNL d   1      -0.953  -0.052   0.620  0.00  0.00     0.172 C 
ATOM      2  N   UNL d   1      -0.241   0.003   1.876  0.00  0.00    -0.070 N 
ATOM      3  C1  UNL d   1      -0.804   0.236   3.102  0.00  0.00    -0.004 A 
ATOM      4  C2  UNL d   1       0.205   0.208   4.041  0.00  0.00    -0.047 A 
ATOM      5  C3  UNL d   1       1.415  -0.049   3.355  0.00  0.00    -0.047 A 
ATOM      6  C4  UNL d   1       1.110  -0.172   2.016  0.00  0.00    -0.004 A 
ENDROOT
TORSDOF 0
ENDMDL
