MODEL 1
REMARK minimizedAffinity 5.82103157
REMARK minimizedRMSD -1
REMARK  1 active torsions:
REMARK  status: ('A' for Active; 'I' for Inactive)
REMARK    1  A    between atoms: N_2  and  C1_3 
ROOT
ATOM      1  C1  UNL d   1      -1.139  -3.908   1.273  0.00  0.00     0.143 A 
ATOM      2  C2  UNL d   1       0.027  -3.419   0.677  0.00  0.00    -0.057 A 
ATOM      3  C3  UNL d   1       0.037  -2.194  -0.002  0.00  0.00     0.033 A 
ATOM      4  C4  UNL d   1      -1.131  -1.449  -0.121  0.00  0.00    -0.042 A 
ATOM      5  C5  UNL d   1      -2.308  -1.928   0.443  0.00  0.00     0.033 A 
ATOM      6  C6  UNL d   1      -2.310  -3.148   1.125  0.00  0.00    -0.057 A 
ENDROOT
BRANCH   1   7
ATOM      7  N   UNL d   1      -1.237  -5.165   1.876  0.00  0.00    -0.732 N 
ATOM      8  C   UNL d   1      -2.398  -6.000   1.657  0.00  0.00     0.284 C 
ATOM      9  H3  UNL d   1      -0.353  -5.670   1.866  0.00  0.00     0.395 HD
ENDBRANCH   1   7
TORSDOF 1
ENDMDL
