MODEL 1
REMARK minimizedAffinity 8.66064358
REMARK minimizedRMSD -1
REMARK  1 active torsions:
REMARK  status: ('A' for Active; 'I' for Inactive)
REMARK    1  A    between atoms: N_2  and  C1_3 
ROOT
ATOM      1  C1  UNL d   1      -5.262   0.636   4.004  0.00  0.00     0.143 A 
ATOM      2  C2  UNL d   1      -5.150   0.951   2.646  0.00  0.00    -0.057 A 
ATOM      3  C3  UNL d   1      -4.486   2.108   2.221  0.00  0.00     0.033 A 
ATOM      4  C4  UNL d   1      -3.945   2.988   3.151  0.00  0.00    -0.042 A 
ATOM      5  C5  UNL d   1      -4.066   2.709   4.508  0.00  0.00     0.033 A 
ATOM      6  C6  UNL d   1      -4.725   1.548   4.926  0.00  0.00    -0.057 A 
ENDROOT
BRANCH   1   7
ATOM      7  N   UNL d   1      -5.995  -0.447   4.494  0.00  0.00    -0.732 N 
ATOM      8  C   UNL d   1      -5.996  -0.758   5.908  0.00  0.00     0.284 C 
ATOM      9  H3  UNL d   1      -6.907  -0.532   4.050  0.00  0.00     0.395 HD
ENDBRANCH   1   7
TORSDOF 1
ENDMDL
