MODEL 1
REMARK minimizedAffinity 7.17105198
REMARK minimizedRMSD -1
REMARK  1 active torsions:
REMARK  status: ('A' for Active; 'I' for Inactive)
REMARK    1  A    between atoms: N_2  and  C1_3 
ROOT
ATOM      1  C1  UNL d   1      -4.920   3.386   3.194  0.00  0.00     0.143 A 
ATOM      2  C2  UNL d   1      -5.575   4.173   2.241  0.00  0.00    -0.057 A 
ATOM      3  C3  UNL d   1      -6.000   5.473   2.541  0.00  0.00     0.033 A 
ATOM      4  C4  UNL d   1      -5.802   6.000   3.813  0.00  0.00    -0.042 A 
ATOM      5  C5  UNL d   1      -5.176   5.226   4.784  0.00  0.00     0.033 A 
ATOM      6  C6  UNL d   1      -4.748   3.931   4.476  0.00  0.00    -0.057 A 
ENDROOT
BRANCH   1   7
ATOM      7  N   UNL d   1      -4.562   2.051   2.988  0.00  0.00    -0.732 N 
ATOM      8  C   UNL d   1      -5.217   0.990   3.722  0.00  0.00     0.284 C 
ATOM      9  H3  UNL d   1      -4.402   1.840   2.006  0.00  0.00     0.395 HD
ENDBRANCH   1   7
TORSDOF 1
ENDMDL
