MODEL 1
REMARK minimizedAffinity -0.106206439
REMARK minimizedRMSD -1
REMARK  1 active torsions:
REMARK  status: ('A' for Active; 'I' for Inactive)
REMARK    1  A    between atoms: N_2  and  C1_3 
ROOT
ATOM      1  C1  UNL d   1      -5.341   0.731   3.661  0.00  0.00     0.143 A 
ATOM      2  C2  UNL d   1      -4.576   1.902   3.633  0.00  0.00    -0.057 A 
ATOM      3  C3  UNL d   1      -4.435   2.705   4.772  0.00  0.00     0.033 A 
ATOM      4  C4  UNL d   1      -5.082   2.365   5.955  0.00  0.00    -0.042 A 
ATOM      5  C5  UNL d   1      -5.868   1.219   5.999  0.00  0.00     0.033 A 
ATOM      6  C6  UNL d   1      -6.000   0.417   4.861  0.00  0.00    -0.057 A 
ENDROOT
BRANCH   1   7
ATOM      7  N   UNL d   1      -5.600  -0.056   2.537  0.00  0.00    -0.732 N 
ATOM      8  C   UNL d   1      -4.565  -0.894   1.969  0.00  0.00     0.284 C 
ATOM      9  H3  UNL d   1      -6.517  -0.495   2.573  0.00  0.00     0.395 HD
ENDBRANCH   1   7
TORSDOF 1
ENDMDL
