MODEL 1
REMARK minimizedAffinity 1.28304029
REMARK minimizedRMSD -1
REMARK  1 active torsions:
REMARK  status: ('A' for Active; 'I' for Inactive)
REMARK    1  A    between atoms: N_2  and  C1_3 
ROOT
ATOM      1  C1  UNL d   1      -5.656   2.657   5.094  0.00  0.00     0.143 A 
ATOM      2  C2  UNL d   1      -5.267   2.749   3.754  0.00  0.00    -0.057 A 
ATOM      3  C3  UNL d   1      -5.266   1.624   2.920  0.00  0.00     0.033 A 
ATOM      4  C4  UNL d   1      -5.627   0.378   3.421  0.00  0.00    -0.042 A 
ATOM      5  C5  UNL d   1      -5.994   0.259   4.757  0.00  0.00     0.033 A 
ATOM      6  C6  UNL d   1      -6.000   1.387   5.583  0.00  0.00    -0.057 A 
ENDROOT
BRANCH   1   7
ATOM      7  N   UNL d   1      -5.584   3.719   5.999  0.00  0.00    -0.732 N 
ATOM      8  C   UNL d   1      -4.863   4.928   5.662  0.00  0.00     0.284 C 
ATOM      9  H3  UNL d   1      -6.467   3.882   6.478  0.00  0.00     0.395 HD
ENDBRANCH   1   7
TORSDOF 1
ENDMDL
