MODEL 1
REMARK minimizedAffinity 10.6056662
REMARK minimizedRMSD -1
REMARK  1 active torsions:
REMARK  status: ('A' for Active; 'I' for Inactive)
REMARK    1  A    between atoms: N_2  and  C1_3 
ROOT
ATOM      1  C1  UNL d   1       1.735   0.107   2.156  0.00  0.00     0.143 A 
ATOM      2  C2  UNL d   1       1.219  -0.452   3.330  0.00  0.00    -0.057 A 
ATOM      3  C3  UNL d   1       0.367   0.277   4.168  0.00  0.00     0.033 A 
ATOM      4  C4  UNL d   1       0.038   1.593   3.862  0.00  0.00    -0.042 A 
ATOM      5  C5  UNL d   1       0.560   2.178   2.713  0.00  0.00     0.033 A 
ATOM      6  C6  UNL d   1       1.404   1.443   1.876  0.00  0.00    -0.057 A 
ENDROOT
BRANCH   1   7
ATOM      7  N   UNL d   1       2.664  -0.532   1.333  0.00  0.00    -0.732 N 
ATOM      8  C   UNL d   1       4.028  -0.729   1.774  0.00  0.00     0.284 C 
ATOM      9  H3  UNL d   1       2.266  -1.332   0.845  0.00  0.00     0.395 HD
ENDBRANCH   1   7
TORSDOF 1
ENDMDL
