MODEL 1
REMARK minimizedAffinity 15.5913305
REMARK minimizedRMSD -1
REMARK  1 active torsions:
REMARK  status: ('A' for Active; 'I' for Inactive)
REMARK    1  A    between atoms: N_2  and  C1_3 
ROOT
ATOM      1  C1  UNL d   1      -4.161  -3.936  -2.924  0.00  0.00     0.143 A 
ATOM      2  C2  UNL d   1      -3.970  -5.280  -2.587  0.00  0.00    -0.057 A 
ATOM      3  C3  UNL d   1      -2.696  -5.860  -2.610  0.00  0.00     0.033 A 
ATOM      4  C4  UNL d   1      -1.591  -5.111  -3.001  0.00  0.00    -0.042 A 
ATOM      5  C5  UNL d   1      -1.761  -3.780  -3.364  0.00  0.00     0.033 A 
ATOM      6  C6  UNL d   1      -3.035  -3.204  -3.333  0.00  0.00    -0.057 A 
ENDROOT
BRANCH   1   7
ATOM      7  N   UNL d   1      -5.416  -3.327  -3.015  0.00  0.00    -0.732 N 
ATOM      8  C   UNL d   1      -5.999  -3.032  -4.306  0.00  0.00     0.284 C 
ATOM      9  H3  UNL d   1      -6.076  -3.696  -2.335  0.00  0.00     0.395 HD
ENDBRANCH   1   7
TORSDOF 1
ENDMDL
