MODEL 1
REMARK minimizedAffinity 13.1005316
REMARK minimizedRMSD -1
REMARK  1 active torsions:
REMARK  status: ('A' for Active; 'I' for Inactive)
REMARK    1  A    between atoms: N_2  and  C1_3 
ROOT
ATOM      1  C1  UNL d   1      -3.484  -3.777  -2.573  0.00  0.00     0.143 A 
ATOM      2  C2  UNL d   1      -4.810  -3.760  -3.019  0.00  0.00    -0.057 A 
ATOM      3  C3  UNL d   1      -5.677  -4.828  -2.759  0.00  0.00     0.033 A 
ATOM      4  C4  UNL d   1      -5.223  -5.949  -2.072  0.00  0.00    -0.042 A 
ATOM      5  C5  UNL d   1      -3.902  -5.999  -1.641  0.00  0.00     0.033 A 
ATOM      6  C6  UNL d   1      -3.043  -4.926  -1.898  0.00  0.00    -0.057 A 
ENDROOT
BRANCH   1   7
ATOM      7  N   UNL d   1      -2.546  -2.790  -2.885  0.00  0.00    -0.732 N 
ATOM      8  C   UNL d   1      -1.824  -2.102  -1.836  0.00  0.00     0.284 C 
ATOM      9  H3  UNL d   1      -1.975  -3.037  -3.690  0.00  0.00     0.395 HD
ENDBRANCH   1   7
TORSDOF 1
ENDMDL
