MODEL 1
REMARK minimizedAffinity 9.50401497
REMARK minimizedRMSD -1
REMARK  1 active torsions:
REMARK  status: ('A' for Active; 'I' for Inactive)
REMARK    1  A    between atoms: N_2  and  C1_3 
ROOT
ATOM      1  C1  UNL d   1       5.120   5.237   3.677  0.00  0.00     0.143 A 
ATOM      2  C2  UNL d   1       5.221   3.930   3.186  0.00  0.00    -0.057 A 
ATOM      3  C3  UNL d   1       4.283   3.420   2.280  0.00  0.00     0.033 A 
ATOM      4  C4  UNL d   1       3.208   4.201   1.870  0.00  0.00    -0.042 A 
ATOM      5  C5  UNL d   1       3.073   5.494   2.365  0.00  0.00     0.033 A 
ATOM      6  C6  UNL d   1       4.017   6.000   3.264  0.00  0.00    -0.057 A 
ENDROOT
BRANCH   1   7
ATOM      7  N   UNL d   1       5.965   5.768   4.655  0.00  0.00    -0.732 N 
ATOM      8  C   UNL d   1       5.483   5.998   6.000  0.00  0.00     0.284 C 
ATOM      9  H3  UNL d   1       6.904   5.378   4.610  0.00  0.00     0.395 HD
ENDBRANCH   1   7
TORSDOF 1
ENDMDL
