MODEL 1
REMARK minimizedAffinity 8.7691946
REMARK minimizedRMSD -1
REMARK  1 active torsions:
REMARK  status: ('A' for Active; 'I' for Inactive)
REMARK    1  A    between atoms: N_2  and  C1_3 
ROOT
ATOM      1  C1  UNL d   1      -5.032   3.342   4.394  0.00  0.00     0.143 A 
ATOM      2  C2  UNL d   1      -4.801   3.866   5.670  0.00  0.00    -0.057 A 
ATOM      3  C3  UNL d   1      -5.186   5.172   5.999  0.00  0.00     0.033 A 
ATOM      4  C4  UNL d   1      -5.783   5.989   5.045  0.00  0.00    -0.042 A 
ATOM      5  C5  UNL d   1      -6.000   5.496   3.762  0.00  0.00     0.033 A 
ATOM      6  C6  UNL d   1      -5.620   4.189   3.442  0.00  0.00    -0.057 A 
ENDROOT
BRANCH   1   7
ATOM      7  N   UNL d   1      -4.585   2.086   3.977  0.00  0.00    -0.732 N 
ATOM      8  C   UNL d   1      -3.287   1.935   3.355  0.00  0.00     0.284 C 
ATOM      9  H3  UNL d   1      -4.815   1.351   4.642  0.00  0.00     0.395 HD
ENDBRANCH   1   7
TORSDOF 1
ENDMDL
