MODEL 1
REMARK minimizedAffinity 14.6869068
REMARK minimizedRMSD -1
REMARK  1 active torsions:
REMARK  status: ('A' for Active; 'I' for Inactive)
REMARK    1  A    between atoms: N_2  and  C1_3 
ROOT
ATOM      1  C1  UNL d   1      -1.761  -1.933  -1.935  0.00  0.00     0.143 A 
ATOM      2  C2  UNL d   1      -2.830  -2.252  -1.092  0.00  0.00    -0.057 A 
ATOM      3  C3  UNL d   1      -2.688  -2.233   0.301  0.00  0.00     0.033 A 
ATOM      4  C4  UNL d   1      -1.460  -1.922   0.876  0.00  0.00    -0.042 A 
ATOM      5  C5  UNL d   1      -0.376  -1.626   0.057  0.00  0.00     0.033 A 
ATOM      6  C6  UNL d   1      -0.527  -1.640  -1.333  0.00  0.00    -0.057 A 
ENDROOT
BRANCH   1   7
ATOM      7  N   UNL d   1      -1.813  -2.029  -3.328  0.00  0.00    -0.732 N 
ATOM      8  C   UNL d   1      -0.838  -2.819  -4.049  0.00  0.00     0.284 C 
ATOM      9  H3  UNL d   1      -2.764  -2.124  -3.675  0.00  0.00     0.395 HD
ENDBRANCH   1   7
TORSDOF 1
ENDMDL
