MODEL 1
REMARK minimizedAffinity 10.2608576
REMARK minimizedRMSD -1
REMARK  1 active torsions:
REMARK  status: ('A' for Active; 'I' for Inactive)
REMARK    1  A    between atoms: N_2  and  C1_3 
ROOT
ATOM      1  C1  UNL d   1       2.508   0.668   2.197  0.00  0.00     0.143 A 
ATOM      2  C2  UNL d   1       3.549   0.066   2.912  0.00  0.00    -0.057 A 
ATOM      3  C3  UNL d   1       4.622  -0.546   2.253  0.00  0.00     0.033 A 
ATOM      4  C4  UNL d   1       4.659  -0.591   0.864  0.00  0.00    -0.042 A 
ATOM      5  C5  UNL d   1       3.623  -0.021   0.133  0.00  0.00     0.033 A 
ATOM      6  C6  UNL d   1       2.557   0.595   0.796  0.00  0.00    -0.057 A 
ENDROOT
BRANCH   1   7
ATOM      7  N   UNL d   1       1.364   1.206   2.793  0.00  0.00    -0.732 N 
ATOM      8  C   UNL d   1       0.819   0.622   4.000  0.00  0.00     0.284 C 
ATOM      9  H3  UNL d   1       1.364   2.223   2.786  0.00  0.00     0.395 HD
ENDBRANCH   1   7
TORSDOF 1
ENDMDL
