MODEL 1
REMARK minimizedAffinity 12.862998
REMARK minimizedRMSD -1
REMARK  1 active torsions:
REMARK  status: ('A' for Active; 'I' for Inactive)
REMARK    1  A    between atoms: N_2  and  C1_3 
ROOT
ATOM      1  C1  UNL d   1      -1.489  -1.969  -3.563  0.00  0.00     0.143 A 
ATOM      2  C2  UNL d   1      -2.645  -2.734  -3.376  0.00  0.00    -0.057 A 
ATOM      3  C3  UNL d   1      -3.251  -2.840  -2.118  0.00  0.00     0.033 A 
ATOM      4  C4  UNL d   1      -2.691  -2.203  -1.015  0.00  0.00    -0.042 A 
ATOM      5  C5  UNL d   1      -1.528  -1.458  -1.172  0.00  0.00     0.033 A 
ATOM      6  C6  UNL d   1      -0.932  -1.351  -2.432  0.00  0.00    -0.057 A 
ENDROOT
BRANCH   1   7
ATOM      7  N   UNL d   1      -0.785  -1.905  -4.768  0.00  0.00    -0.732 N 
ATOM      8  C   UNL d   1      -1.462  -1.561  -6.000  0.00  0.00     0.284 C 
ATOM      9  H3  UNL d   1       0.130  -1.472  -4.661  0.00  0.00     0.395 HD
ENDBRANCH   1   7
TORSDOF 1
ENDMDL
