MODEL 1
REMARK minimizedAffinity -3.63137555
REMARK minimizedRMSD -1
REMARK  0 active torsions:
REMARK  status: ('A' for Active; 'I' for Inactive)
ROOT
ATOM      1  C   UNL d   1       2.906   0.010   0.651  0.00  0.00     0.172 C 
ATOM      2  N   UNL d   1       1.480   0.023   0.422  0.00  0.00    -0.070 N 
ATOM      3  C1  UNL d   1       0.653  -1.067   0.477  0.00  0.00    -0.004 A 
ATOM      4  C2  UNL d   1      -0.628  -0.640   0.201  0.00  0.00    -0.047 A 
ATOM      5  C3  UNL d   1      -0.569   0.756  -0.027  0.00  0.00    -0.047 A 
ATOM      6  C4  UNL d   1       0.748   1.140   0.116  0.00  0.00    -0.004 A 
ENDROOT
TORSDOF 0
ENDMDL
