MODEL 1
REMARK minimizedAffinity -0.426950783
REMARK minimizedRMSD -1
REMARK  0 active torsions:
REMARK  status: ('A' for Active; 'I' for Inactive)
ROOT
ATOM      1  C   UNL d   1      -2.254  -0.035  -1.825  0.00  0.00     0.172 C 
ATOM      2  N   UNL d   1      -1.278   0.013  -0.761  0.00  0.00    -0.070 N 
ATOM      3  C1  UNL d   1      -0.119   0.742  -0.773  0.00  0.00    -0.004 A 
ATOM      4  C2  UNL d   1       0.532   0.520   0.420  0.00  0.00    -0.047 A 
ATOM      5  C3  UNL d   1      -0.262  -0.375   1.176  0.00  0.00    -0.047 A 
ATOM      6  C4  UNL d   1      -1.376  -0.673   0.421  0.00  0.00    -0.004 A 
ENDROOT
TORSDOF 0
ENDMDL
