MODEL 1
REMARK minimizedAffinity -2.68525457
REMARK minimizedRMSD -1
REMARK  0 active torsions:
REMARK  status: ('A' for Active; 'I' for Inactive)
ROOT
ATOM      1  C   UNL d   1       1.917   0.324   0.517  0.00  0.00     0.172 C 
ATOM      2  N   UNL d   1       0.540   0.009   0.219  0.00  0.00    -0.070 N 
ATOM      3  C1  UNL d   1      -0.239   0.640  -0.714  0.00  0.00    -0.004 A 
ATOM      4  C2  UNL d   1      -1.483   0.049  -0.695  0.00  0.00    -0.047 A 
ATOM      5  C3  UNL d   1      -1.451  -0.973   0.284  0.00  0.00    -0.047 A 
ATOM      6  C4  UNL d   1      -0.187  -0.975   0.834  0.00  0.00    -0.004 A 
ENDROOT
TORSDOF 0
ENDMDL
