MODEL 1
REMARK minimizedAffinity -3.57771087
REMARK minimizedRMSD -1
REMARK  0 active torsions:
REMARK  status: ('A' for Active; 'I' for Inactive)
ROOT
ATOM      1  C   UNL d   1      -1.466  -0.403  -3.775  0.00  0.00     0.172 C 
ATOM      2  N   UNL d   1      -0.864  -0.142  -2.489  0.00  0.00    -0.070 N 
ATOM      3  C1  UNL d   1      -1.539   0.005  -1.306  0.00  0.00    -0.004 A 
ATOM      4  C2  UNL d   1      -0.610   0.241  -0.316  0.00  0.00    -0.047 A 
ATOM      5  C3  UNL d   1       0.668   0.235  -0.925  0.00  0.00    -0.047 A 
ATOM      6  C4  UNL d   1       0.481  -0.004  -2.270  0.00  0.00    -0.004 A 
ENDROOT
TORSDOF 0
ENDMDL
