MODEL 1
REMARK minimizedAffinity -3.631989
REMARK minimizedRMSD -1
REMARK  0 active torsions:
REMARK  status: ('A' for Active; 'I' for Inactive)
ROOT
ATOM      1  C   UNL d   1       1.900  -1.544   1.147  0.00  0.00     0.172 C 
ATOM      2  N   UNL d   1       1.134  -0.502   0.505  0.00  0.00    -0.070 N 
ATOM      3  C1  UNL d   1       1.101   0.814   0.885  0.00  0.00    -0.004 A 
ATOM      4  C2  UNL d   1       0.257   1.480   0.023  0.00  0.00    -0.047 A 
ATOM      5  C3  UNL d   1      -0.234   0.533  -0.906  0.00  0.00    -0.047 A 
ATOM      6  C4  UNL d   1       0.325  -0.686  -0.584  0.00  0.00    -0.004 A 
ENDROOT
TORSDOF 0
ENDMDL
