MODEL 1
REMARK minimizedAffinity 12.5018921
REMARK minimizedRMSD -1
REMARK  1 active torsions:
REMARK  status: ('A' for Active; 'I' for Inactive)
REMARK    1  A    between atoms: C1_2  and  C2_3 
ROOT
ATOM      1  C2  UNL d   1       0.245   2.927   0.314  0.00  0.00    -0.077 A 
ATOM      2  C3  UNL d   1      -0.634   2.144  -0.447  0.00  0.00     0.002 A 
ATOM      3  C4  UNL d   1      -0.843   2.426  -1.798  0.00  0.00     0.002 A 
ATOM      4  C5  UNL d   1      -0.174   3.488  -2.401  0.00  0.00    -0.004 A 
ATOM      5  C6  UNL d   1       0.701   4.275  -1.653  0.00  0.00     0.002 A 
ATOM      6  C7  UNL d   1       0.911   3.995  -0.302  0.00  0.00     0.002 A 
ENDROOT
BRANCH   1   7
ATOM      7  C1  UNL d   1       0.509   2.595   1.759  0.00  0.00     0.055 C 
ATOM      8  C   UNL d   1       2.001   2.475   2.035  0.00  0.00     0.019 C 
ENDBRANCH   1   7
TORSDOF 1
ENDMDL
