MODEL 1
REMARK minimizedAffinity 1.6898464
REMARK minimizedRMSD -1
REMARK  1 active torsions:
REMARK  status: ('A' for Active; 'I' for Inactive)
REMARK    1  A    between atoms: C1_2  and  C2_3 
ROOT
ATOM      1  C2  UNL d   1       0.621   1.491   1.062  0.00  0.00    -0.077 A 
ATOM      2  C3  UNL d   1       1.204   2.443   1.910  0.00  0.00     0.002 A 
ATOM      3  C4  UNL d   1       1.560   3.701   1.420  0.00  0.00     0.002 A 
ATOM      4  C5  UNL d   1       1.333   4.020   0.083  0.00  0.00    -0.004 A 
ATOM      5  C6  UNL d   1       0.755   3.079  -0.768  0.00  0.00     0.002 A 
ATOM      6  C7  UNL d   1       0.400   1.821  -0.281  0.00  0.00     0.002 A 
ENDROOT
BRANCH   1   7
ATOM      7  C1  UNL d   1       0.191   0.151   1.600  0.00  0.00     0.055 C 
ATOM      8  C   UNL d   1       1.392  -0.712   1.959  0.00  0.00     0.019 C 
ENDBRANCH   1   7
TORSDOF 1
ENDMDL
