MODEL 1
REMARK minimizedAffinity 6.36609364
REMARK minimizedRMSD -1
REMARK  1 active torsions:
REMARK  status: ('A' for Active; 'I' for Inactive)
REMARK    1  A    between atoms: C1_2  and  C2_3 
ROOT
ATOM      1  C2  UNL d   1      -1.575  -4.134  -4.660  0.00  0.00    -0.077 A 
ATOM      2  C3  UNL d   1      -2.856  -3.565  -4.674  0.00  0.00     0.002 A 
ATOM      3  C4  UNL d   1      -3.908  -4.209  -5.329  0.00  0.00     0.002 A 
ATOM      4  C5  UNL d   1      -3.691  -5.426  -5.970  0.00  0.00    -0.004 A 
ATOM      5  C6  UNL d   1      -2.420  -6.000  -5.963  0.00  0.00     0.002 A 
ATOM      6  C7  UNL d   1      -1.367  -5.357  -5.310  0.00  0.00     0.002 A 
ENDROOT
BRANCH   1   7
ATOM      7  C1  UNL d   1      -0.451  -3.465  -3.913  0.00  0.00     0.055 C 
ATOM      8  C   UNL d   1      -0.725  -3.429  -2.416  0.00  0.00     0.019 C 
ENDBRANCH   1   7
TORSDOF 1
ENDMDL
