MODEL 1
REMARK minimizedAffinity 4.15804625
REMARK minimizedRMSD -1
REMARK  1 active torsions:
REMARK  status: ('A' for Active; 'I' for Inactive)
REMARK    1  A    between atoms: C1_2  and  C2_3 
ROOT
ATOM      1  C2  UNL d   1      -1.248   3.253  -1.635  0.00  0.00    -0.077 A 
ATOM      2  C3  UNL d   1      -1.233   2.655  -0.366  0.00  0.00     0.002 A 
ATOM      3  C4  UNL d   1      -0.098   2.744   0.442  0.00  0.00     0.002 A 
ATOM      4  C5  UNL d   1       1.027   3.432  -0.006  0.00  0.00    -0.004 A 
ATOM      5  C6  UNL d   1       1.023   4.028  -1.267  0.00  0.00     0.002 A 
ATOM      6  C7  UNL d   1      -0.110   3.939  -2.077  0.00  0.00     0.002 A 
ENDROOT
BRANCH   1   7
ATOM      7  C1  UNL d   1      -2.488   3.201  -2.488  0.00  0.00     0.055 C 
ATOM      8  C   UNL d   1      -3.318   1.961  -2.184  0.00  0.00     0.019 C 
ENDBRANCH   1   7
TORSDOF 1
ENDMDL
