MODEL 1
REMARK minimizedAffinity 12.6400604
REMARK minimizedRMSD -1
REMARK  0 active torsions:
REMARK  status: ('A' for Active; 'I' for Inactive)
ROOT
ATOM      1  C   UNL d   1      -3.008   5.326  -3.414  0.00  0.00     0.020 A 
ATOM      2  C1  UNL d   1      -1.834   5.696  -2.760  0.00  0.00     0.020 A 
ATOM      3  C2  UNL d   1      -1.124   4.754  -2.013  0.00  0.00     0.034 A 
ATOM      4  C3  UNL d   1      -1.587   3.436  -1.919  0.00  0.00     0.017 A 
ATOM      5  C4  UNL d   1      -2.766   3.066  -2.576  0.00  0.00     0.017 A 
ATOM      6  C5  UNL d   1      -3.473   4.014  -3.322  0.00  0.00     0.034 A 
ATOM      7 Cl   UNL d   1      -3.400   1.459  -2.507  0.00  0.00    -0.070 Cl
ATOM      8 Cl1  UNL d   1      -0.658   2.323  -0.980  0.00  0.00    -0.070 Cl
ENDROOT
TORSDOF 0
ENDMDL
