MODEL 1
REMARK minimizedAffinity 4.95983124
REMARK minimizedRMSD -1
REMARK  0 active torsions:
REMARK  status: ('A' for Active; 'I' for Inactive)
ROOT
ATOM      1  C   UNL d   1      -2.742  -5.200  -5.944  0.00  0.00     0.020 A 
ATOM      2  C1  UNL d   1      -1.598  -5.997  -5.938  0.00  0.00     0.020 A 
ATOM      3  C2  UNL d   1      -0.334  -5.404  -5.950  0.00  0.00     0.034 A 
ATOM      4  C3  UNL d   1      -0.210  -4.010  -5.966  0.00  0.00     0.017 A 
ATOM      5  C4  UNL d   1      -1.359  -3.211  -5.972  0.00  0.00     0.017 A 
ATOM      6  C5  UNL d   1      -2.623  -3.810  -5.961  0.00  0.00     0.034 A 
ATOM      7 Cl   UNL d   1      -1.287  -1.484  -5.993  0.00  0.00    -0.070 Cl
ATOM      8 Cl1  UNL d   1       1.384  -3.345  -5.979  0.00  0.00    -0.070 Cl
ENDROOT
TORSDOF 0
ENDMDL
