MODEL 1
REMARK minimizedAffinity 2.18968034
REMARK minimizedRMSD -1
REMARK  0 active torsions:
REMARK  status: ('A' for Active; 'I' for Inactive)
ROOT
ATOM      1  C   UNL d   1      -5.548  -3.097   4.880  0.00  0.00     0.020 A 
ATOM      2  C1  UNL d   1      -6.000  -2.206   5.853  0.00  0.00     0.020 A 
ATOM      3  C2  UNL d   1      -6.000  -0.834   5.597  0.00  0.00     0.034 A 
ATOM      4  C3  UNL d   1      -5.548  -0.348   4.365  0.00  0.00     0.017 A 
ATOM      5  C4  UNL d   1      -5.095  -1.243   3.389  0.00  0.00     0.017 A 
ATOM      6  C5  UNL d   1      -5.097  -2.616   3.651  0.00  0.00     0.034 A 
ATOM      7 Cl   UNL d   1      -4.523  -0.718   1.844  0.00  0.00    -0.070 Cl
ATOM      8 Cl1  UNL d   1      -5.577   1.362   4.116  0.00  0.00    -0.070 Cl
ENDROOT
TORSDOF 0
ENDMDL
