MODEL 1
REMARK minimizedAffinity 9.41482639
REMARK minimizedRMSD -1
REMARK  0 active torsions:
REMARK  status: ('A' for Active; 'I' for Inactive)
ROOT
ATOM      1  C   UNL d   1      -0.874   5.570  -3.163  0.00  0.00     0.020 A 
ATOM      2  C1  UNL d   1      -2.173   5.397  -3.641  0.00  0.00     0.020 A 
ATOM      3  C2  UNL d   1      -2.896   4.253  -3.298  0.00  0.00     0.034 A 
ATOM      4  C3  UNL d   1      -2.321   3.277  -2.475  0.00  0.00     0.017 A 
ATOM      5  C4  UNL d   1      -1.017   3.451  -1.997  0.00  0.00     0.017 A 
ATOM      6  C5  UNL d   1      -0.298   4.599  -2.343  0.00  0.00     0.034 A 
ATOM      7 Cl   UNL d   1      -0.241   2.291  -0.978  0.00  0.00    -0.070 Cl
ATOM      8 Cl1  UNL d   1      -3.273   1.887  -2.091  0.00  0.00    -0.070 Cl
ENDROOT
TORSDOF 0
ENDMDL
