MODEL 1
REMARK minimizedAffinity 3.20233202
REMARK minimizedRMSD -1
REMARK  0 active torsions:
REMARK  status: ('A' for Active; 'I' for Inactive)
ROOT
ATOM      1  C   UNL d   1      -0.179  -4.004  -5.992  0.00  0.00     0.020 A 
ATOM      2  C1  UNL d   1      -0.398  -5.381  -5.975  0.00  0.00     0.020 A 
ATOM      3  C2  UNL d   1      -1.701  -5.880  -5.966  0.00  0.00     0.034 A 
ATOM      4  C3  UNL d   1      -2.792  -5.003  -5.973  0.00  0.00     0.017 A 
ATOM      5  C4  UNL d   1      -2.571  -3.621  -5.989  0.00  0.00     0.017 A 
ATOM      6  C5  UNL d   1      -1.264  -3.126  -5.999  0.00  0.00     0.034 A 
ATOM      7 Cl   UNL d   1      -3.866  -2.476  -5.999  0.00  0.00    -0.070 Cl
ATOM      8 Cl1  UNL d   1      -4.377  -5.691  -5.961  0.00  0.00    -0.070 Cl
ENDROOT
TORSDOF 0
ENDMDL
