MODEL 1
REMARK minimizedAffinity -0.520284712
REMARK minimizedRMSD -1
REMARK  0 active torsions:
REMARK  status: ('A' for Active; 'I' for Inactive)
ROOT
ATOM      1  C   UNL d   1      -5.996  -4.114   4.507  0.00  0.00     0.020 A 
ATOM      2  C1  UNL d   1      -5.996  -3.493   5.755  0.00  0.00     0.020 A 
ATOM      3  C2  UNL d   1      -5.997  -2.099   5.841  0.00  0.00     0.034 A 
ATOM      4  C3  UNL d   1      -5.998  -1.322   4.677  0.00  0.00     0.017 A 
ATOM      5  C4  UNL d   1      -5.997  -1.946   3.425  0.00  0.00     0.017 A 
ATOM      6  C5  UNL d   1      -5.996  -3.342   3.344  0.00  0.00     0.034 A 
ATOM      7 Cl   UNL d   1      -5.998  -1.054   1.945  0.00  0.00    -0.070 Cl
ATOM      8 Cl1  UNL d   1      -5.999   0.396   4.859  0.00  0.00    -0.070 Cl
ENDROOT
TORSDOF 0
ENDMDL
