MODEL 1
REMARK minimizedAffinity 6.85037994
REMARK minimizedRMSD -1
REMARK  0 active torsions:
REMARK  status: ('A' for Active; 'I' for Inactive)
ROOT
ATOM      1  C   UNL d   1       0.067   4.182  -2.823  0.00  0.00     0.020 A 
ATOM      2  C1  UNL d   1      -0.472   5.466  -2.871  0.00  0.00     0.020 A 
ATOM      3  C2  UNL d   1      -1.109   5.999  -1.748  0.00  0.00     0.034 A 
ATOM      4  C3  UNL d   1      -1.208   5.247  -0.572  0.00  0.00     0.017 A 
ATOM      5  C4  UNL d   1      -0.666   3.958  -0.524  0.00  0.00     0.017 A 
ATOM      6  C5  UNL d   1      -0.029   3.429  -1.652  0.00  0.00     0.034 A 
ATOM      7 Cl   UNL d   1      -0.748   2.970   0.891  0.00  0.00    -0.070 Cl
ATOM      8 Cl1  UNL d   1      -2.008   5.969   0.778  0.00  0.00    -0.070 Cl
ENDROOT
TORSDOF 0
ENDMDL
