MODEL 1
REMARK minimizedAffinity 8.7574234
REMARK minimizedRMSD -1
REMARK  0 active torsions:
REMARK  status: ('A' for Active; 'I' for Inactive)
ROOT
ATOM      1  C   UNL d   1      -4.124  -4.260  -5.744  0.00  0.00     0.020 A 
ATOM      2  C1  UNL d   1      -4.081  -5.474  -5.059  0.00  0.00     0.020 A 
ATOM      3  C2  UNL d   1      -2.856  -5.989  -4.629  0.00  0.00     0.034 A 
ATOM      4  C3  UNL d   1      -1.670  -5.291  -4.884  0.00  0.00     0.017 A 
ATOM      5  C4  UNL d   1      -1.715  -4.073  -5.571  0.00  0.00     0.017 A 
ATOM      6  C5  UNL d   1      -2.944  -3.561  -5.999  0.00  0.00     0.034 A 
ATOM      7 Cl   UNL d   1      -0.294  -3.153  -5.922  0.00  0.00    -0.070 Cl
ATOM      8 Cl1  UNL d   1      -0.192  -5.987  -4.323  0.00  0.00    -0.070 Cl
ENDROOT
TORSDOF 0
ENDMDL
