MODEL 1
REMARK minimizedAffinity -2.95164537
REMARK minimizedRMSD -1
REMARK  0 active torsions:
REMARK  status: ('A' for Active; 'I' for Inactive)
ROOT
ATOM      1  C   UNL d   1      -1.839  -3.713  -5.999  0.00  0.00     0.020 A 
ATOM      2  C1  UNL d   1      -1.880  -5.107  -5.985  0.00  0.00     0.020 A 
ATOM      3  C2  UNL d   1      -3.109  -5.769  -5.972  0.00  0.00     0.034 A 
ATOM      4  C3  UNL d   1      -4.303  -5.038  -5.973  0.00  0.00     0.017 A 
ATOM      5  C4  UNL d   1      -4.260  -3.639  -5.987  0.00  0.00     0.017 A 
ATOM      6  C5  UNL d   1      -3.027  -2.981  -6.000  0.00  0.00     0.034 A 
ATOM      7 Cl   UNL d   1      -5.691  -2.668  -5.990  0.00  0.00    -0.070 Cl
ATOM      8 Cl1  UNL d   1      -5.787  -5.922  -5.958  0.00  0.00    -0.070 Cl
ENDROOT
TORSDOF 0
ENDMDL
