MODEL 1
REMARK minimizedAffinity 4.84635305
REMARK minimizedRMSD -1
REMARK  0 active torsions:
REMARK  status: ('A' for Active; 'I' for Inactive)
ROOT
ATOM      1  C   UNL d   1      -0.559   5.458  -2.718  0.00  0.00     0.020 A 
ATOM      2  C1  UNL d   1       0.019   4.190  -2.696  0.00  0.00     0.020 A 
ATOM      3  C2  UNL d   1       0.051   3.458  -1.507  0.00  0.00     0.034 A 
ATOM      4  C3  UNL d   1      -0.495   3.995  -0.335  0.00  0.00     0.017 A 
ATOM      5  C4  UNL d   1      -1.075   5.268  -0.358  0.00  0.00     0.017 A 
ATOM      6  C5  UNL d   1      -1.105   5.996  -1.552  0.00  0.00     0.034 A 
ATOM      7 Cl   UNL d   1      -1.769   5.997   1.047  0.00  0.00    -0.070 Cl
ATOM      8 Cl1  UNL d   1      -0.420   3.034   1.099  0.00  0.00    -0.070 Cl
ENDROOT
TORSDOF 0
ENDMDL
