MODEL 1
REMARK minimizedAffinity 13.2682943
REMARK minimizedRMSD -1
REMARK  0 active torsions:
REMARK  status: ('A' for Active; 'I' for Inactive)
ROOT
ATOM      1  C   UNL d   1      -3.006  -6.000   1.491  0.00  0.00     0.077 C 
ATOM      2  C1  UNL d   1      -2.499  -4.747   0.840  0.00  0.00    -0.074 A 
ATOM      3  C2  UNL d   1      -1.459  -4.009   1.414  0.00  0.00    -0.005 A 
ATOM      4  C3  UNL d   1      -0.992  -2.851   0.792  0.00  0.00     0.006 A 
ATOM      5  C4  UNL d   1      -1.560  -2.420  -0.408  0.00  0.00    -0.005 A 
ATOM      6  C5  UNL d   1      -2.600  -3.146  -0.997  0.00  0.00    -0.074 A 
ATOM      7  C6  UNL d   1      -3.215  -2.702  -2.291  0.00  0.00     0.077 C 
ATOM      8  C7  UNL d   1      -3.059  -4.312  -0.369  0.00  0.00    -0.001 A 
ENDROOT
TORSDOF 0
ENDMDL
