MODEL 1
REMARK minimizedAffinity 12.2892714
REMARK minimizedRMSD -1
REMARK  0 active torsions:
REMARK  status: ('A' for Active; 'I' for Inactive)
ROOT
ATOM      1  C   UNL d   1      -3.541  -5.183   2.137  0.00  0.00     0.077 C 
ATOM      2  C1  UNL d   1      -2.730  -4.079   1.526  0.00  0.00    -0.074 A 
ATOM      3  C2  UNL d   1      -1.667  -3.497   2.224  0.00  0.00    -0.005 A 
ATOM      4  C3  UNL d   1      -0.916  -2.477   1.639  0.00  0.00     0.006 A 
ATOM      5  C4  UNL d   1      -1.219  -2.031   0.352  0.00  0.00    -0.005 A 
ATOM      6  C5  UNL d   1      -2.277  -2.603  -0.362  0.00  0.00    -0.074 A 
ATOM      7  C6  UNL d   1      -2.610  -2.142  -1.750  0.00  0.00     0.077 C 
ATOM      8  C7  UNL d   1      -3.023  -3.631   0.230  0.00  0.00    -0.001 A 
ENDROOT
TORSDOF 0
ENDMDL
