MODEL 1
REMARK minimizedAffinity 13.2481976
REMARK minimizedRMSD -1
REMARK  0 active torsions:
REMARK  status: ('A' for Active; 'I' for Inactive)
ROOT
ATOM      1  C   UNL d   1      -4.024   1.760   3.645  0.00  0.00     0.077 C 
ATOM      2  C1  UNL d   1      -4.441   3.185   3.854  0.00  0.00    -0.074 A 
ATOM      3  C2  UNL d   1      -4.262   3.813   5.090  0.00  0.00    -0.005 A 
ATOM      4  C3  UNL d   1      -4.646   5.142   5.267  0.00  0.00     0.006 A 
ATOM      5  C4  UNL d   1      -5.213   5.856   4.210  0.00  0.00    -0.005 A 
ATOM      6  C5  UNL d   1      -5.400   5.244   2.966  0.00  0.00    -0.074 A 
ATOM      7  C6  UNL d   1      -5.998   6.000   1.817  0.00  0.00     0.077 C 
ATOM      8  C7  UNL d   1      -5.004   3.911   2.795  0.00  0.00    -0.001 A 
ENDROOT
TORSDOF 0
ENDMDL
