MODEL 1
REMARK minimizedAffinity 16.6006317
REMARK minimizedRMSD -1
REMARK  0 active torsions:
REMARK  status: ('A' for Active; 'I' for Inactive)
ROOT
ATOM      1  C   UNL d   1      -2.390  -2.300  -5.922  0.00  0.00     0.077 C 
ATOM      2  C1  UNL d   1      -2.514  -3.123  -4.675  0.00  0.00    -0.074 A 
ATOM      3  C2  UNL d   1      -2.070  -4.449  -4.641  0.00  0.00    -0.005 A 
ATOM      4  C3  UNL d   1      -2.183  -5.199  -3.470  0.00  0.00     0.006 A 
ATOM      5  C4  UNL d   1      -2.741  -4.632  -2.324  0.00  0.00    -0.005 A 
ATOM      6  C5  UNL d   1      -3.189  -3.308  -2.338  0.00  0.00    -0.074 A 
ATOM      7  C6  UNL d   1      -3.782  -2.680  -1.112  0.00  0.00     0.077 C 
ATOM      8  C7  UNL d   1      -3.066  -2.558  -3.516  0.00  0.00    -0.001 A 
ENDROOT
TORSDOF 0
ENDMDL
