MODEL 1
REMARK minimizedAffinity 7.57173681
REMARK minimizedRMSD -1
REMARK  0 active torsions:
REMARK  status: ('A' for Active; 'I' for Inactive)
ROOT
ATOM      1  C   UNL d   1       4.242  -0.276   1.873  0.00  0.00     0.077 C 
ATOM      2  C1  UNL d   1       3.327   0.430   0.917  0.00  0.00    -0.074 A 
ATOM      3  C2  UNL d   1       2.163   1.059   1.369  0.00  0.00    -0.005 A 
ATOM      4  C3  UNL d   1       1.326   1.720   0.470  0.00  0.00     0.006 A 
ATOM      5  C4  UNL d   1       1.645   1.759  -0.888  0.00  0.00    -0.005 A 
ATOM      6  C5  UNL d   1       2.806   1.136  -1.358  0.00  0.00    -0.074 A 
ATOM      7  C6  UNL d   1       3.168   1.176  -2.813  0.00  0.00     0.077 C 
ATOM      8  C7  UNL d   1       3.645   0.480  -0.447  0.00  0.00    -0.001 A 
ENDROOT
TORSDOF 0
ENDMDL
