MODEL 1
REMARK minimizedAffinity 15.0237064
REMARK minimizedRMSD -1
REMARK  0 active torsions:
REMARK  status: ('A' for Active; 'I' for Inactive)
ROOT
ATOM      1  C   UNL d   1      -4.747  -6.000   1.844  0.00  0.00     0.077 C 
ATOM      2  C1  UNL d   1      -3.364  -5.427   1.931  0.00  0.00    -0.074 A 
ATOM      3  C2  UNL d   1      -2.401  -5.997   2.771  0.00  0.00    -0.005 A 
ATOM      4  C3  UNL d   1      -1.116  -5.459   2.833  0.00  0.00     0.006 A 
ATOM      5  C4  UNL d   1      -0.780  -4.349   2.058  0.00  0.00    -0.005 A 
ATOM      6  C5  UNL d   1      -1.729  -3.767   1.211  0.00  0.00    -0.074 A 
ATOM      7  C6  UNL d   1      -1.381  -2.579   0.363  0.00  0.00     0.077 C 
ATOM      8  C7  UNL d   1      -3.016  -4.317   1.149  0.00  0.00    -0.001 A 
ENDROOT
TORSDOF 0
ENDMDL
