MODEL 1
REMARK minimizedAffinity 19.5117836
REMARK minimizedRMSD -1
REMARK  0 active torsions:
REMARK  status: ('A' for Active; 'I' for Inactive)
ROOT
ATOM      1  C   UNL d   1      -3.397  -0.436   2.357  0.00  0.00     0.077 C 
ATOM      2  C1  UNL d   1      -2.703  -1.346   1.388  0.00  0.00    -0.074 A 
ATOM      3  C2  UNL d   1      -1.501  -1.975   1.728  0.00  0.00    -0.005 A 
ATOM      4  C3  UNL d   1      -0.871  -2.827   0.820  0.00  0.00     0.006 A 
ATOM      5  C4  UNL d   1      -1.436  -3.057  -0.435  0.00  0.00    -0.005 A 
ATOM      6  C5  UNL d   1      -2.638  -2.437  -0.792  0.00  0.00    -0.074 A 
ATOM      7  C6  UNL d   1      -3.263  -2.682  -2.133  0.00  0.00     0.077 C 
ATOM      8  C7  UNL d   1      -3.268  -1.589   0.128  0.00  0.00    -0.001 A 
ENDROOT
TORSDOF 0
ENDMDL
