MODEL 1
REMARK minimizedAffinity 9.25550365
REMARK minimizedRMSD -1
REMARK  0 active torsions:
REMARK  status: ('A' for Active; 'I' for Inactive)
ROOT
ATOM      1  C   UNL d   1       4.010   1.181  -2.145  0.00  0.00     0.077 C 
ATOM      2  C1  UNL d   1       3.169   1.123  -0.905  0.00  0.00    -0.074 A 
ATOM      3  C2  UNL d   1       3.134  -0.029  -0.113  0.00  0.00    -0.005 A 
ATOM      4  C3  UNL d   1       2.354  -0.065   1.043  0.00  0.00     0.006 A 
ATOM      5  C4  UNL d   1       1.603   1.049   1.418  0.00  0.00    -0.005 A 
ATOM      6  C5  UNL d   1       1.626   2.210   0.639  0.00  0.00    -0.074 A 
ATOM      7  C6  UNL d   1       0.832   3.420   1.034  0.00  0.00     0.077 C 
ATOM      8  C7  UNL d   1       2.417   2.241  -0.517  0.00  0.00    -0.001 A 
ENDROOT
TORSDOF 0
ENDMDL
