MODEL 1
REMARK minimizedAffinity 19.2674122
REMARK minimizedRMSD -1
REMARK  0 active torsions:
REMARK  status: ('A' for Active; 'I' for Inactive)
ROOT
ATOM      1  C   UNL d   1      -3.675  -3.063  -2.539  0.00  0.00     0.077 C 
ATOM      2  C1  UNL d   1      -2.895  -2.977  -1.261  0.00  0.00    -0.074 A 
ATOM      3  C2  UNL d   1      -2.574  -1.738  -0.696  0.00  0.00    -0.005 A 
ATOM      4  C3  UNL d   1      -1.857  -1.674   0.498  0.00  0.00     0.006 A 
ATOM      5  C4  UNL d   1      -1.454  -2.846   1.139  0.00  0.00    -0.005 A 
ATOM      6  C5  UNL d   1      -1.766  -4.093   0.591  0.00  0.00    -0.074 A 
ATOM      7  C6  UNL d   1      -1.349  -5.363   1.272  0.00  0.00     0.077 C 
ATOM      8  C7  UNL d   1      -2.493  -4.150  -0.606  0.00  0.00    -0.001 A 
ENDROOT
TORSDOF 0
ENDMDL
