MODEL 1
REMARK minimizedAffinity 18.7469635
REMARK minimizedRMSD -1
REMARK  0 active torsions:
REMARK  status: ('A' for Active; 'I' for Inactive)
ROOT
ATOM      1  C   UNL d   1      -0.742  -2.509   0.475  0.00  0.00     0.077 C 
ATOM      2  C1  UNL d   1      -0.035  -1.225   0.793  0.00  0.00    -0.074 A 
ATOM      3  C2  UNL d   1       1.104  -0.836   0.081  0.00  0.00    -0.005 A 
ATOM      4  C3  UNL d   1       1.745   0.366   0.383  0.00  0.00     0.006 A 
ATOM      5  C4  UNL d   1       1.255   1.188   1.398  0.00  0.00    -0.005 A 
ATOM      6  C5  UNL d   1       0.117   0.816   2.120  0.00  0.00    -0.074 A 
ATOM      7  C6  UNL d   1      -0.428   1.693   3.207  0.00  0.00     0.077 C 
ATOM      8  C7  UNL d   1      -0.526  -0.389   1.806  0.00  0.00    -0.001 A 
ENDROOT
TORSDOF 0
ENDMDL
