MODEL 1
REMARK minimizedAffinity 13.2674227
REMARK minimizedRMSD -1
REMARK  0 active torsions:
REMARK  status: ('A' for Active; 'I' for Inactive)
ROOT
ATOM      1  C   UNL d   1       4.399  -0.469   1.910  0.00  0.00     0.077 C 
ATOM      2  C1  UNL d   1       3.452   0.190   0.951  0.00  0.00    -0.074 A 
ATOM      3  C2  UNL d   1       2.139   0.489   1.328  0.00  0.00    -0.005 A 
ATOM      4  C3  UNL d   1       1.273   1.111   0.428  0.00  0.00     0.006 A 
ATOM      5  C4  UNL d   1       1.711   1.439  -0.856  0.00  0.00    -0.005 A 
ATOM      6  C5  UNL d   1       3.021   1.148  -1.250  0.00  0.00    -0.074 A 
ATOM      7  C6  UNL d   1       3.511   1.504  -2.622  0.00  0.00     0.077 C 
ATOM      8  C7  UNL d   1       3.887   0.530  -0.338  0.00  0.00    -0.001 A 
ENDROOT
TORSDOF 0
ENDMDL
