MODEL 1
REMARK minimizedAffinity 10.40341
REMARK minimizedRMSD -1
REMARK  0 active torsions:
REMARK  status: ('A' for Active; 'I' for Inactive)
ROOT
ATOM      1  C   UNL d   1      -2.951  -3.125  -2.408  0.00  0.00     0.077 C 
ATOM      2  C1  UNL d   1      -2.508  -2.756  -1.024  0.00  0.00    -0.074 A 
ATOM      3  C2  UNL d   1      -1.186  -2.959  -0.614  0.00  0.00    -0.005 A 
ATOM      4  C3  UNL d   1      -0.786  -2.602   0.673  0.00  0.00     0.006 A 
ATOM      5  C4  UNL d   1      -1.702  -2.040   1.563  0.00  0.00    -0.005 A 
ATOM      6  C5  UNL d   1      -3.028  -1.829   1.172  0.00  0.00    -0.074 A 
ATOM      7  C6  UNL d   1      -4.022  -1.217   2.112  0.00  0.00     0.077 C 
ATOM      8  C7  UNL d   1      -3.420  -2.184  -0.126  0.00  0.00    -0.001 A 
ENDROOT
TORSDOF 0
ENDMDL
