MODEL 1
REMARK minimizedAffinity 20.7761841
REMARK minimizedRMSD -1
REMARK  0 active torsions:
REMARK  status: ('A' for Active; 'I' for Inactive)
ROOT
ATOM      1  C   UNL d   1      -2.119   2.562   3.615  0.00  0.00     0.077 C 
ATOM      2  C1  UNL d   1      -3.356   1.715   3.570  0.00  0.00    -0.074 A 
ATOM      3  C2  UNL d   1      -3.792   1.141   2.371  0.00  0.00    -0.005 A 
ATOM      4  C3  UNL d   1      -4.939   0.348   2.347  0.00  0.00     0.006 A 
ATOM      5  C4  UNL d   1      -5.661   0.121   3.519  0.00  0.00    -0.005 A 
ATOM      6  C5  UNL d   1      -5.241   0.686   4.727  0.00  0.00    -0.074 A 
ATOM      7  C6  UNL d   1      -6.000   0.444   5.998  0.00  0.00     0.077 C 
ATOM      8  C7  UNL d   1      -4.083   1.476   4.745  0.00  0.00    -0.001 A 
ENDROOT
TORSDOF 0
ENDMDL
