MODEL 1
REMARK minimizedAffinity 13.4319744
REMARK minimizedRMSD -1
REMARK  0 active torsions:
REMARK  status: ('A' for Active; 'I' for Inactive)
ROOT
ATOM      1  C   UNL d   1       6.000   0.008   3.554  0.00  0.00     0.077 C 
ATOM      2  C1  UNL d   1       5.292  -0.105   2.236  0.00  0.00    -0.074 A 
ATOM      3  C2  UNL d   1       6.000  -0.379   1.061  0.00  0.00    -0.005 A 
ATOM      4  C3  UNL d   1       5.327  -0.491  -0.155  0.00  0.00     0.006 A 
ATOM      5  C4  UNL d   1       3.942  -0.330  -0.209  0.00  0.00    -0.005 A 
ATOM      6  C5  UNL d   1       3.217  -0.057   0.955  0.00  0.00    -0.074 A 
ATOM      7  C6  UNL d   1       1.727   0.108   0.916  0.00  0.00     0.077 C 
ATOM      8  C7  UNL d   1       3.900   0.047   2.175  0.00  0.00    -0.001 A 
ENDROOT
TORSDOF 0
ENDMDL
