MODEL 1
REMARK minimizedAffinity 15.9302139
REMARK minimizedRMSD -1
REMARK  0 active torsions:
REMARK  status: ('A' for Active; 'I' for Inactive)
ROOT
ATOM      1  C   UNL d   1      -6.000   5.996   5.996  0.00  0.00     0.077 C 
ATOM      2  C1  UNL d   1      -5.170   4.906   5.384  0.00  0.00    -0.074 A 
ATOM      3  C2  UNL d   1      -3.994   4.467   5.999  0.00  0.00    -0.005 A 
ATOM      4  C3  UNL d   1      -3.238   3.446   5.423  0.00  0.00     0.006 A 
ATOM      5  C4  UNL d   1      -3.650   2.855   4.228  0.00  0.00    -0.005 A 
ATOM      6  C5  UNL d   1      -4.824   3.281   3.599  0.00  0.00    -0.074 A 
ATOM      7  C6  UNL d   1      -5.287   2.650   2.319  0.00  0.00     0.077 C 
ATOM      8  C7  UNL d   1      -5.582   4.302   4.188  0.00  0.00    -0.001 A 
ENDROOT
TORSDOF 0
ENDMDL
