MODEL 1
REMARK minimizedAffinity 14.370882
REMARK minimizedRMSD -1
REMARK  0 active torsions:
REMARK  status: ('A' for Active; 'I' for Inactive)
ROOT
ATOM      1  C   UNL d   1      -5.998   4.928   2.040  0.00  0.00     0.077 C 
ATOM      2  C1  UNL d   1      -5.418   4.992   3.421  0.00  0.00    -0.074 A 
ATOM      3  C2  UNL d   1      -6.000   5.794   4.408  0.00  0.00    -0.005 A 
ATOM      4  C3  UNL d   1      -5.454   5.836   5.691  0.00  0.00     0.006 A 
ATOM      5  C4  UNL d   1      -4.324   5.079   6.000  0.00  0.00    -0.005 A 
ATOM      6  C5  UNL d   1      -3.729   4.271   5.026  0.00  0.00    -0.074 A 
ATOM      7  C6  UNL d   1      -2.519   3.442   5.343  0.00  0.00     0.077 C 
ATOM      8  C7  UNL d   1      -4.287   4.228   3.741  0.00  0.00    -0.001 A 
ENDROOT
TORSDOF 0
ENDMDL
