MODEL 1
REMARK minimizedAffinity 15.9481325
REMARK minimizedRMSD -1
REMARK  0 active torsions:
REMARK  status: ('A' for Active; 'I' for Inactive)
ROOT
ATOM      1  C   UNL d   1       2.315   1.878  -1.496  0.00  0.00     0.077 C 
ATOM      2  C1  UNL d   1       1.902   1.340  -0.159  0.00  0.00    -0.074 A 
ATOM      3  C2  UNL d   1       2.353   0.093   0.285  0.00  0.00    -0.005 A 
ATOM      4  C3  UNL d   1       1.969  -0.391   1.535  0.00  0.00     0.006 A 
ATOM      5  C4  UNL d   1       1.129   0.367   2.353  0.00  0.00    -0.005 A 
ATOM      6  C5  UNL d   1       0.668   1.616   1.927  0.00  0.00    -0.074 A 
ATOM      7  C6  UNL d   1      -0.226   2.448   2.798  0.00  0.00     0.077 C 
ATOM      8  C7  UNL d   1       1.065   2.098   0.672  0.00  0.00    -0.001 A 
ENDROOT
TORSDOF 0
ENDMDL
