MODEL 1
REMARK minimizedAffinity 9.16829967
REMARK minimizedRMSD -1
REMARK  0 active torsions:
REMARK  status: ('A' for Active; 'I' for Inactive)
ROOT
ATOM      1  C   UNL d   1      -6.000   5.070   1.949  0.00  0.00     0.077 C 
ATOM      2  C1  UNL d   1      -5.495   5.060   3.362  0.00  0.00    -0.074 A 
ATOM      3  C2  UNL d   1      -5.993   5.960   4.309  0.00  0.00    -0.005 A 
ATOM      4  C3  UNL d   1      -5.521   5.932   5.622  0.00  0.00     0.006 A 
ATOM      5  C4  UNL d   1      -4.548   5.006   5.999  0.00  0.00    -0.005 A 
ATOM      6  C5  UNL d   1      -4.039   4.097   5.065  0.00  0.00    -0.074 A 
ATOM      7  C6  UNL d   1      -3.001   3.089   5.457  0.00  0.00     0.077 C 
ATOM      8  C7  UNL d   1      -4.524   4.127   3.750  0.00  0.00    -0.001 A 
ENDROOT
TORSDOF 0
ENDMDL
