MODEL 1
REMARK minimizedAffinity 15.6349287
REMARK minimizedRMSD -1
REMARK  0 active torsions:
REMARK  status: ('A' for Active; 'I' for Inactive)
ROOT
ATOM      1  C   UNL d   1       0.659   0.086   0.617  0.00  0.00     0.077 C 
ATOM      2  C1  UNL d   1      -0.338  -1.035   0.578  0.00  0.00    -0.074 A 
ATOM      3  C2  UNL d   1      -0.562  -1.837   1.701  0.00  0.00    -0.005 A 
ATOM      4  C3  UNL d   1      -1.499  -2.869   1.653  0.00  0.00     0.006 A 
ATOM      5  C4  UNL d   1      -2.220  -3.109   0.483  0.00  0.00    -0.005 A 
ATOM      6  C5  UNL d   1      -2.009  -2.317  -0.651  0.00  0.00    -0.074 A 
ATOM      7  C6  UNL d   1      -2.783  -2.556  -1.914  0.00  0.00     0.077 C 
ATOM      8  C7  UNL d   1      -1.071  -1.278  -0.592  0.00  0.00    -0.001 A 
ENDROOT
TORSDOF 0
ENDMDL
