MODEL 1
REMARK minimizedAffinity 5.28832531
REMARK minimizedRMSD -1
REMARK  1 active torsions:
REMARK  status: ('A' for Active; 'I' for Inactive)
REMARK    1  A    between atoms: N_2  and  C1_3 
ROOT
ATOM      1  C1  UNL d   1       3.977  -2.449  -3.098  0.00  0.00     0.143 A 
ATOM      2  C2  UNL d   1       3.530  -2.391  -1.773  0.00  0.00    -0.057 A 
ATOM      3  C3  UNL d   1       3.268  -3.557  -1.044  0.00  0.00     0.033 A 
ATOM      4  C4  UNL d   1       3.421  -4.805  -1.637  0.00  0.00    -0.042 A 
ATOM      5  C5  UNL d   1       3.840  -4.887  -2.961  0.00  0.00     0.033 A 
ATOM      6  C6  UNL d   1       4.107  -3.719  -3.682  0.00  0.00    -0.057 A 
ENDROOT
BRANCH   1   7
ATOM      7  N   UNL d   1       4.161  -1.325  -3.907  0.00  0.00    -0.732 N 
ATOM      8  C   UNL d   1       4.997  -1.394  -5.086  0.00  0.00     0.284 C 
ATOM      9  H3  UNL d   1       3.302  -0.796  -4.037  0.00  0.00     0.395 HD
ENDBRANCH   1   7
TORSDOF 1
ENDMDL
