MODEL 1
REMARK minimizedAffinity 3.84774995
REMARK minimizedRMSD -1
REMARK  1 active torsions:
REMARK  status: ('A' for Active; 'I' for Inactive)
REMARK    1  A    between atoms: N_2  and  C1_3 
ROOT
ATOM      1  C1  UNL d   1       3.658  -3.523  -0.894  0.00  0.00     0.143 A 
ATOM      2  C2  UNL d   1       3.730  -3.718   0.490  0.00  0.00    -0.057 A 
ATOM      3  C3  UNL d   1       2.841  -4.576   1.149  0.00  0.00     0.033 A 
ATOM      4  C4  UNL d   1       1.842  -5.233   0.438  0.00  0.00    -0.042 A 
ATOM      5  C5  UNL d   1       1.736  -5.034  -0.934  0.00  0.00     0.033 A 
ATOM      6  C6  UNL d   1       2.630  -4.181  -1.588  0.00  0.00    -0.057 A 
ENDROOT
BRANCH   1   7
ATOM      7  N   UNL d   1       4.449  -2.608  -1.592  0.00  0.00    -0.732 N 
ATOM      8  C   UNL d   1       4.707  -2.784  -3.005  0.00  0.00     0.284 C 
ATOM      9  H3  UNL d   1       4.261  -1.645  -1.321  0.00  0.00     0.395 HD
ENDBRANCH   1   7
TORSDOF 1
ENDMDL
