MODEL 1
REMARK minimizedAffinity 2.70498323
REMARK minimizedRMSD -1
REMARK  1 active torsions:
REMARK  status: ('A' for Active; 'I' for Inactive)
REMARK    1  A    between atoms: N_2  and  C1_3 
ROOT
ATOM      1  C1  UNL d   1      -3.362   1.644  -1.901  0.00  0.00     0.143 A 
ATOM      2  C2  UNL d   1      -3.600   2.969  -2.283  0.00  0.00    -0.057 A 
ATOM      3  C3  UNL d   1      -4.903   3.461  -2.427  0.00  0.00     0.033 A 
ATOM      4  C4  UNL d   1      -5.995   2.625  -2.219  0.00  0.00    -0.042 A 
ATOM      5  C5  UNL d   1      -5.783   1.298  -1.863  0.00  0.00     0.033 A 
ATOM      6  C6  UNL d   1      -4.479   0.814  -1.714  0.00  0.00    -0.057 A 
ENDROOT
BRANCH   1   7
ATOM      7  N   UNL d   1      -2.091   1.069  -1.837  0.00  0.00    -0.732 N 
ATOM      8  C   UNL d   1      -0.931   1.877  -1.525  0.00  0.00     0.284 C 
ATOM      9  H3  UNL d   1      -2.099   0.159  -1.381  0.00  0.00     0.395 HD
ENDBRANCH   1   7
TORSDOF 1
ENDMDL
