MODEL 1
REMARK minimizedAffinity 3.83513069
REMARK minimizedRMSD -1
REMARK  1 active torsions:
REMARK  status: ('A' for Active; 'I' for Inactive)
REMARK    1  A    between atoms: N_2  and  C1_3 
ROOT
ATOM      1  C1  UNL d   1       4.043  -2.384  -2.596  0.00  0.00     0.143 A 
ATOM      2  C2  UNL d   1       4.438  -2.181  -1.270  0.00  0.00    -0.057 A 
ATOM      3  C3  UNL d   1       4.737  -3.259  -0.427  0.00  0.00     0.033 A 
ATOM      4  C4  UNL d   1       4.617  -4.565  -0.890  0.00  0.00    -0.042 A 
ATOM      5  C5  UNL d   1       4.201  -4.792  -2.198  0.00  0.00     0.033 A 
ATOM      6  C6  UNL d   1       3.911  -3.711  -3.036  0.00  0.00    -0.057 A 
ENDROOT
BRANCH   1   7
ATOM      7  N   UNL d   1       3.637  -1.358  -3.453  0.00  0.00    -0.732 N 
ATOM      8  C   UNL d   1       4.090  -1.324  -4.827  0.00  0.00     0.284 C 
ATOM      9  H3  UNL d   1       2.657  -1.116  -3.332  0.00  0.00     0.395 HD
ENDBRANCH   1   7
TORSDOF 1
ENDMDL
