MODEL 1
REMARK minimizedAffinity 3.92206693
REMARK minimizedRMSD -1
REMARK  1 active torsions:
REMARK  status: ('A' for Active; 'I' for Inactive)
REMARK    1  A    between atoms: N_2  and  C1_3 
ROOT
ATOM      1  C1  UNL d   1       0.031   3.165  -0.492  0.00  0.00     0.143 A 
ATOM      2  C2  UNL d   1      -0.497   1.963  -0.976  0.00  0.00    -0.057 A 
ATOM      3  C3  UNL d   1      -0.942   0.962  -0.105  0.00  0.00     0.033 A 
ATOM      4  C4  UNL d   1      -0.841   1.134   1.272  0.00  0.00    -0.042 A 
ATOM      5  C5  UNL d   1      -0.297   2.310   1.776  0.00  0.00     0.033 A 
ATOM      6  C6  UNL d   1       0.141   3.309   0.900  0.00  0.00    -0.057 A 
ENDROOT
BRANCH   1   7
ATOM      7  N   UNL d   1       0.582   4.157  -1.306  0.00  0.00    -0.732 N 
ATOM      8  C   UNL d   1       1.564   5.081  -0.781  0.00  0.00     0.284 C 
ATOM      9  H3  UNL d   1       0.787   3.820  -2.244  0.00  0.00     0.395 HD
ENDBRANCH   1   7
TORSDOF 1
ENDMDL
