MODEL 1
REMARK minimizedAffinity 0.308471292
REMARK minimizedRMSD -1
REMARK  1 active torsions:
REMARK  status: ('A' for Active; 'I' for Inactive)
REMARK    1  A    between atoms: N_2  and  C1_3 
ROOT
ATOM      1  C1  UNL d   1       3.905  -3.775  -1.570  0.00  0.00     0.143 A 
ATOM      2  C2  UNL d   1       3.517  -3.792  -2.914  0.00  0.00    -0.057 A 
ATOM      3  C3  UNL d   1       3.779  -4.898  -3.732  0.00  0.00     0.033 A 
ATOM      4  C4  UNL d   1       4.461  -6.000  -3.225  0.00  0.00    -0.042 A 
ATOM      5  C5  UNL d   1       4.877  -5.995  -1.898  0.00  0.00     0.033 A 
ATOM      6  C6  UNL d   1       4.608  -4.890  -1.085  0.00  0.00    -0.057 A 
ENDROOT
BRANCH   1   7
ATOM      7  N   UNL d   1       3.762  -2.666  -0.733  0.00  0.00    -0.732 N 
ATOM      8  C   UNL d   1       4.901  -2.129  -0.020  0.00  0.00     0.284 C 
ATOM      9  H3  UNL d   1       3.146  -1.959  -1.127  0.00  0.00     0.395 HD
ENDBRANCH   1   7
TORSDOF 1
ENDMDL
