MODEL 1
REMARK minimizedAffinity -3.62334871
REMARK minimizedRMSD -1
REMARK  1 active torsions:
REMARK  status: ('A' for Active; 'I' for Inactive)
REMARK    1  A    between atoms: N_2  and  C1_3 
ROOT
ATOM      1  C1  UNL d   1      -0.741   0.027  -0.261  0.00  0.00     0.143 A 
ATOM      2  C2  UNL d   1       0.283   0.839   0.240  0.00  0.00    -0.057 A 
ATOM      3  C3  UNL d   1       1.590   0.357   0.378  0.00  0.00     0.033 A 
ATOM      4  C4  UNL d   1       1.892  -0.959   0.043  0.00  0.00    -0.042 A 
ATOM      5  C5  UNL d   1       0.885  -1.791  -0.434  0.00  0.00     0.033 A 
ATOM      6  C6  UNL d   1      -0.417  -1.302  -0.575  0.00  0.00    -0.057 A 
ENDROOT
BRANCH   1   7
ATOM      7  N   UNL d   1      -2.080   0.417  -0.328  0.00  0.00    -0.732 N 
ATOM      8  C   UNL d   1      -2.753   0.950   0.837  0.00  0.00     0.284 C 
ATOM      9  H3  UNL d   1      -2.300   0.905  -1.194  0.00  0.00     0.395 HD
ENDBRANCH   1   7
TORSDOF 1
ENDMDL
