MODEL 1
REMARK minimizedAffinity -1.82994902
REMARK minimizedRMSD -1
REMARK  1 active torsions:
REMARK  status: ('A' for Active; 'I' for Inactive)
REMARK    1  A    between atoms: N_2  and  C1_3 
ROOT
ATOM      1  C1  UNL d   1      -1.141   0.454  -0.118  0.00  0.00     0.143 A 
ATOM      2  C2  UNL d   1      -0.241   1.295   0.545  0.00  0.00    -0.057 A 
ATOM      3  C3  UNL d   1       1.061   0.875   0.843  0.00  0.00     0.033 A 
ATOM      4  C4  UNL d   1       1.478  -0.409   0.507  0.00  0.00    -0.042 A 
ATOM      5  C5  UNL d   1       0.592  -1.271  -0.130  0.00  0.00     0.033 A 
ATOM      6  C6  UNL d   1      -0.705  -0.844  -0.430  0.00  0.00    -0.057 A 
ENDROOT
BRANCH   1   7
ATOM      7  N   UNL d   1      -2.479   0.778  -0.354  0.00  0.00    -0.732 N 
ATOM      8  C   UNL d   1      -3.377   1.051   0.747  0.00  0.00     0.284 C 
ATOM      9  H3  UNL d   1      -2.593   1.404  -1.148  0.00  0.00     0.395 HD
ENDBRANCH   1   7
TORSDOF 1
ENDMDL
