MODEL 1
REMARK minimizedAffinity 0.958784699
REMARK minimizedRMSD -1
REMARK  1 active torsions:
REMARK  status: ('A' for Active; 'I' for Inactive)
REMARK    1  A    between atoms: N_2  and  C1_3 
ROOT
ATOM      1  C1  UNL d   1       0.245  -1.208  -0.715  0.00  0.00     0.143 A 
ATOM      2  C2  UNL d   1       1.335  -1.400  -1.570  0.00  0.00    -0.057 A 
ATOM      3  C3  UNL d   1       2.538  -1.944  -1.102  0.00  0.00     0.033 A 
ATOM      4  C4  UNL d   1       2.680  -2.280   0.240  0.00  0.00    -0.042 A 
ATOM      5  C5  UNL d   1       1.618  -2.075   1.113  0.00  0.00     0.033 A 
ATOM      6  C6  UNL d   1       0.417  -1.537   0.638  0.00  0.00    -0.057 A 
ENDROOT
BRANCH   1   7
ATOM      7  N   UNL d   1      -0.943  -0.580  -1.099  0.00  0.00    -0.732 N 
ATOM      8  C   UNL d   1      -1.278   0.734  -0.595  0.00  0.00     0.284 C 
ATOM      9  H3  UNL d   1      -1.151  -0.712  -2.086  0.00  0.00     0.395 HD
ENDBRANCH   1   7
TORSDOF 1
ENDMDL
