MODEL 1
REMARK minimizedAffinity -3.06604147
REMARK minimizedRMSD -1
REMARK  1 active torsions:
REMARK  status: ('A' for Active; 'I' for Inactive)
REMARK    1  A    between atoms: N_2  and  C1_3 
ROOT
ATOM      1  C1  UNL d   1       0.518   0.362  -0.464  0.00  0.00     0.143 A 
ATOM      2  C2  UNL d   1       1.855   0.601  -0.131  0.00  0.00    -0.057 A 
ATOM      3  C3  UNL d   1       2.778  -0.447  -0.035  0.00  0.00     0.033 A 
ATOM      4  C4  UNL d   1       2.372  -1.761  -0.243  0.00  0.00    -0.042 A 
ATOM      5  C5  UNL d   1       1.042  -2.025  -0.551  0.00  0.00     0.033 A 
ATOM      6  C6  UNL d   1       0.126  -0.973  -0.652  0.00  0.00    -0.057 A 
ENDROOT
BRANCH   1   7
ATOM      7  N   UNL d   1      -0.469   1.351  -0.479  0.00  0.00    -0.732 N 
ATOM      8  C   UNL d   1      -1.859   1.008  -0.269  0.00  0.00     0.284 C 
ATOM      9  H3  UNL d   1      -0.174   2.201  -0.003  0.00  0.00     0.395 HD
ENDBRANCH   1   7
TORSDOF 1
ENDMDL
