MODEL 1
REMARK minimizedAffinity -3.22012591
REMARK minimizedRMSD -1
REMARK  1 active torsions:
REMARK  status: ('A' for Active; 'I' for Inactive)
REMARK    1  A    between atoms: N_2  and  C1_3 
ROOT
ATOM      1  C1  UNL d   1       1.056  -0.348   0.681  0.00  0.00     0.143 A 
ATOM      2  C2  UNL d   1       1.034   1.050   0.672  0.00  0.00    -0.057 A 
ATOM      3  C3  UNL d   1      -0.030   1.756   0.097  0.00  0.00     0.033 A 
ATOM      4  C4  UNL d   1      -1.081   1.073  -0.506  0.00  0.00    -0.042 A 
ATOM      5  C5  UNL d   1      -1.068  -0.317  -0.530  0.00  0.00     0.033 A 
ATOM      6  C6  UNL d   1      -0.006  -1.017   0.051  0.00  0.00    -0.057 A 
ENDROOT
BRANCH   1   7
ATOM      7  N   UNL d   1       2.132  -1.106   1.149  0.00  0.00    -0.732 N 
ATOM      8  C   UNL d   1       2.975  -1.837   0.227  0.00  0.00     0.284 C 
ATOM      9  H3  UNL d   1       2.641  -0.639   1.896  0.00  0.00     0.395 HD
ENDBRANCH   1   7
TORSDOF 1
ENDMDL
