MODEL 1
REMARK minimizedAffinity -4.4796505
REMARK minimizedRMSD -1
REMARK  1 active torsions:
REMARK  status: ('A' for Active; 'I' for Inactive)
REMARK    1  A    between atoms: N_2  and  C1_3 
ROOT
ATOM      1  C1  UNL d   1       0.200   0.537  -0.398  0.00  0.00     0.143 A 
ATOM      2  C2  UNL d   1       1.328   0.678   0.416  0.00  0.00    -0.057 A 
ATOM      3  C3  UNL d   1       2.224  -0.381   0.605  0.00  0.00     0.033 A 
ATOM      4  C4  UNL d   1       1.991  -1.614   0.004  0.00  0.00    -0.042 A 
ATOM      5  C5  UNL d   1       0.862  -1.785  -0.789  0.00  0.00     0.033 A 
ATOM      6  C6  UNL d   1      -0.026  -0.721  -0.980  0.00  0.00    -0.057 A 
ENDROOT
BRANCH   1   7
ATOM      7  N   UNL d   1      -0.781   1.521  -0.547  0.00  0.00    -0.732 N 
ATOM      8  C   UNL d   1      -2.130   1.295  -0.075  0.00  0.00     0.284 C 
ATOM      9  H3  UNL d   1      -0.425   2.455  -0.356  0.00  0.00     0.395 HD
ENDBRANCH   1   7
TORSDOF 1
ENDMDL
