MODEL 1
REMARK minimizedAffinity -2.29943061
REMARK minimizedRMSD -1
REMARK  1 active torsions:
REMARK  status: ('A' for Active; 'I' for Inactive)
REMARK    1  A    between atoms: N_2  and  C1_3 
ROOT
ATOM      1  C1  UNL d   1      -1.108   0.250  -0.409  0.00  0.00     0.143 A 
ATOM      2  C2  UNL d   1      -0.826  -1.117  -0.502  0.00  0.00    -0.057 A 
ATOM      3  C3  UNL d   1       0.493  -1.589  -0.490  0.00  0.00     0.033 A 
ATOM      4  C4  UNL d   1       1.556  -0.695  -0.414  0.00  0.00    -0.042 A 
ATOM      5  C5  UNL d   1       1.300   0.670  -0.347  0.00  0.00     0.033 A 
ATOM      6  C6  UNL d   1      -0.019   1.133  -0.353  0.00  0.00    -0.057 A 
ENDROOT
BRANCH   1   7
ATOM      7  N   UNL d   1      -2.394   0.787  -0.515  0.00  0.00    -0.732 N 
ATOM      8  C   UNL d   1      -3.165   1.093   0.671  0.00  0.00     0.284 C 
ATOM      9  H3  UNL d   1      -2.462   1.489  -1.248  0.00  0.00     0.395 HD
ENDBRANCH   1   7
TORSDOF 1
ENDMDL
