MODEL 1
REMARK minimizedAffinity -3.44545746
REMARK minimizedRMSD -1
REMARK  1 active torsions:
REMARK  status: ('A' for Active; 'I' for Inactive)
REMARK    1  A    between atoms: N_2  and  C1_3 
ROOT
ATOM      1  C1  UNL d   1       0.749   0.072   0.096  0.00  0.00     0.143 A 
ATOM      2  C2  UNL d   1       1.340  -1.037  -0.520  0.00  0.00    -0.057 A 
ATOM      3  C3  UNL d   1       2.630  -1.457  -0.175  0.00  0.00     0.033 A 
ATOM      4  C4  UNL d   1       3.366  -0.755   0.774  0.00  0.00    -0.042 A 
ATOM      5  C5  UNL d   1       2.809   0.365   1.381  0.00  0.00     0.033 A 
ATOM      6  C6  UNL d   1       1.517   0.776   1.037  0.00  0.00    -0.057 A 
ENDROOT
BRANCH   1   7
ATOM      7  N   UNL d   1      -0.491   0.598  -0.274  0.00  0.00    -0.732 N 
ATOM      8  C   UNL d   1      -1.617   0.541   0.634  0.00  0.00     0.284 C 
ATOM      9  H3  UNL d   1      -0.406   1.480  -0.775  0.00  0.00     0.395 HD
ENDBRANCH   1   7
TORSDOF 1
ENDMDL
