MODEL 1
REMARK minimizedAffinity 16.1978722
REMARK minimizedRMSD -1
REMARK  1 active torsions:
REMARK  status: ('A' for Active; 'I' for Inactive)
REMARK    1  A    between atoms: C3_4  and  O_7 
ROOT
ATOM      1  C   UNL d   1       1.842  -0.473  -1.898  0.00  0.00    -0.033 A 
ATOM      2  C1  UNL d   1       1.084  -1.564  -2.327  0.00  0.00     0.039 A 
ATOM      3  C2  UNL d   1       1.208  -2.798  -1.687  0.00  0.00    -0.080 A 
ATOM      4  C3  UNL d   1       2.093  -2.928  -0.619  0.00  0.00     0.150 A 
ATOM      5  C4  UNL d   1       2.848  -1.845  -0.184  0.00  0.00    -0.007 A 
ATOM      6  C5  UNL d   1       2.724  -0.613  -0.826  0.00  0.00     0.039 A 
ENDROOT
BRANCH   4   7
ATOM      7  O   UNL d   1       2.252  -4.114   0.034  0.00  0.00    -0.526 OA
ATOM      8  H5  UNL d   1       1.687  -4.779  -0.394  0.00  0.00     0.418 HD
ENDBRANCH   4   7
TORSDOF 1
ENDMDL
