MODEL 1
REMARK minimizedAffinity 13.7746944
REMARK minimizedRMSD -1
REMARK  1 active torsions:
REMARK  status: ('A' for Active; 'I' for Inactive)
REMARK    1  A    between atoms: C3_4  and  O_7 
ROOT
ATOM      1  C   UNL d   1       2.755   1.258  -1.190  0.00  0.00    -0.033 A 
ATOM      2  C1  UNL d   1       2.150   0.006  -1.312  0.00  0.00     0.039 A 
ATOM      3  C2  UNL d   1       2.774  -1.127  -0.787  0.00  0.00    -0.080 A 
ATOM      4  C3  UNL d   1       4.000  -0.995  -0.141  0.00  0.00     0.150 A 
ATOM      5  C4  UNL d   1       4.607   0.250  -0.012  0.00  0.00    -0.007 A 
ATOM      6  C5  UNL d   1       3.982   1.381  -0.538  0.00  0.00     0.039 A 
ENDROOT
BRANCH   4   7
ATOM      7  O   UNL d   1       4.649  -2.072   0.383  0.00  0.00    -0.526 OA
ATOM      8  H5  UNL d   1       4.126  -2.869   0.194  0.00  0.00     0.418 HD
ENDBRANCH   4   7
TORSDOF 1
ENDMDL
