MODEL 1
REMARK minimizedAffinity -0.113150388
REMARK minimizedRMSD -1
REMARK  1 active torsions:
REMARK  status: ('A' for Active; 'I' for Inactive)
REMARK    1  A    between atoms: C3_4  and  O_7 
ROOT
ATOM      1  C   UNL d   1       5.957  -4.653   0.426  0.00  0.00    -0.033 A 
ATOM      2  C1  UNL d   1       5.996  -3.325   0.853  0.00  0.00     0.039 A 
ATOM      3  C2  UNL d   1       4.870  -2.511   0.711  0.00  0.00    -0.080 A 
ATOM      4  C3  UNL d   1       3.714  -3.037   0.141  0.00  0.00     0.150 A 
ATOM      5  C4  UNL d   1       3.668  -4.361  -0.284  0.00  0.00    -0.007 A 
ATOM      6  C5  UNL d   1       4.793  -5.172  -0.141  0.00  0.00     0.039 A 
ENDROOT
BRANCH   4   7
ATOM      7  O   UNL d   1       2.593  -2.280  -0.023  0.00  0.00    -0.526 OA
ATOM      8  H5  UNL d   1       2.781  -1.379   0.289  0.00  0.00     0.418 HD
ENDBRANCH   4   7
TORSDOF 1
ENDMDL
