MODEL 1
REMARK minimizedAffinity 17.7487278
REMARK minimizedRMSD -1
REMARK  1 active torsions:
REMARK  status: ('A' for Active; 'I' for Inactive)
REMARK    1  A    between atoms: C3_4  and  O_7 
ROOT
ATOM      1  C   UNL d   1      -4.002  -1.474  -5.523  0.00  0.00    -0.033 A 
ATOM      2  C1  UNL d   1      -3.104  -2.531  -5.364  0.00  0.00     0.039 A 
ATOM      3  C2  UNL d   1      -3.539  -3.849  -5.520  0.00  0.00    -0.080 A 
ATOM      4  C3  UNL d   1      -4.872  -4.095  -5.835  0.00  0.00     0.150 A 
ATOM      5  C4  UNL d   1      -5.772  -3.047  -5.999  0.00  0.00    -0.007 A 
ATOM      6  C5  UNL d   1      -5.336  -1.732  -5.842  0.00  0.00     0.039 A 
ENDROOT
BRANCH   4   7
ATOM      7  O   UNL d   1      -5.345  -5.365  -5.992  0.00  0.00    -0.526 OA
ATOM      8  H5  UNL d   1      -4.618  -5.987  -5.821  0.00  0.00     0.418 HD
ENDBRANCH   4   7
TORSDOF 1
ENDMDL
