MODEL 1
REMARK minimizedAffinity 12.9241686
REMARK minimizedRMSD -1
REMARK  1 active torsions:
REMARK  status: ('A' for Active; 'I' for Inactive)
REMARK    1  A    between atoms: C3_4  and  O_7 
ROOT
ATOM      1  C   UNL d   1       2.501   4.310  -0.363  0.00  0.00    -0.033 A 
ATOM      2  C1  UNL d   1       2.614   3.718  -1.623  0.00  0.00     0.039 A 
ATOM      3  C2  UNL d   1       2.857   2.347  -1.732  0.00  0.00    -0.080 A 
ATOM      4  C3  UNL d   1       2.984   1.581  -0.577  0.00  0.00     0.150 A 
ATOM      5  C4  UNL d   1       2.868   2.164   0.681  0.00  0.00    -0.007 A 
ATOM      6  C5  UNL d   1       2.626   3.533   0.788  0.00  0.00     0.039 A 
ENDROOT
BRANCH   4   7
ATOM      7  O   UNL d   1       3.226   0.241  -0.633  0.00  0.00    -0.526 OA
ATOM      8  H5  UNL d   1       3.310  -0.018  -1.566  0.00  0.00     0.418 HD
ENDBRANCH   4   7
TORSDOF 1
ENDMDL
