MODEL 1
REMARK minimizedAffinity 13.5081816
REMARK minimizedRMSD -1
REMARK  1 active torsions:
REMARK  status: ('A' for Active; 'I' for Inactive)
REMARK    1  A    between atoms: C3_4  and  O_7 
ROOT
ATOM      1  C   UNL d   1       2.259   4.775  -1.866  0.00  0.00    -0.033 A 
ATOM      2  C1  UNL d   1       1.195   4.388  -2.683  0.00  0.00     0.039 A 
ATOM      3  C2  UNL d   1       1.193   3.125  -3.278  0.00  0.00    -0.080 A 
ATOM      4  C3  UNL d   1       2.258   2.259  -3.047  0.00  0.00     0.150 A 
ATOM      5  C4  UNL d   1       3.320   2.636  -2.231  0.00  0.00    -0.007 A 
ATOM      6  C5  UNL d   1       3.321   3.898  -1.639  0.00  0.00     0.039 A 
ENDROOT
BRANCH   4   7
ATOM      7  O   UNL d   1       2.302   1.018  -3.610  0.00  0.00    -0.526 OA
ATOM      8  H5  UNL d   1       1.517   0.906  -4.171  0.00  0.00     0.418 HD
ENDBRANCH   4   7
TORSDOF 1
ENDMDL
