MODEL 1
REMARK minimizedAffinity 16.3119926
REMARK minimizedRMSD -1
REMARK  1 active torsions:
REMARK  status: ('A' for Active; 'I' for Inactive)
REMARK    1  A    between atoms: C3_4  and  O_7 
ROOT
ATOM      1  C   UNL d   1       2.973   0.157  -0.616  0.00  0.00    -0.033 A 
ATOM      2  C1  UNL d   1       4.039  -0.352   0.127  0.00  0.00     0.039 A 
ATOM      3  C2  UNL d   1       4.106  -1.717   0.411  0.00  0.00    -0.080 A 
ATOM      4  C3  UNL d   1       3.101  -2.562  -0.054  0.00  0.00     0.150 A 
ATOM      5  C4  UNL d   1       2.038  -2.062  -0.798  0.00  0.00    -0.007 A 
ATOM      6  C5  UNL d   1       1.973  -0.698  -1.080  0.00  0.00     0.039 A 
ENDROOT
BRANCH   4   7
ATOM      7  O   UNL d   1       3.121  -3.901   0.202  0.00  0.00    -0.526 OA
ATOM      8  H5  UNL d   1       3.898  -4.098   0.750  0.00  0.00     0.418 HD
ENDBRANCH   4   7
TORSDOF 1
ENDMDL
