MODEL 1
REMARK minimizedAffinity 8.27528286
REMARK minimizedRMSD -1
REMARK  1 active torsions:
REMARK  status: ('A' for Active; 'I' for Inactive)
REMARK    1  A    between atoms: C3_4  and  O_7 
ROOT
ATOM      1  C   UNL d   1       0.557   1.173   1.807  0.00  0.00    -0.033 A 
ATOM      2  C1  UNL d   1       0.304   1.919   2.960  0.00  0.00     0.039 A 
ATOM      3  C2  UNL d   1      -1.010   2.157   3.366  0.00  0.00    -0.080 A 
ATOM      4  C3  UNL d   1      -2.062   1.643   2.612  0.00  0.00     0.150 A 
ATOM      5  C4  UNL d   1      -1.817   0.895   1.465  0.00  0.00    -0.007 A 
ATOM      6  C5  UNL d   1      -0.504   0.660   1.060  0.00  0.00     0.039 A 
ENDROOT
BRANCH   4   7
ATOM      7  O   UNL d   1      -3.361   1.852   2.966  0.00  0.00    -0.526 OA
ATOM      8  H5  UNL d   1      -3.378   2.409   3.762  0.00  0.00     0.418 HD
ENDBRANCH   4   7
TORSDOF 1
ENDMDL
