MODEL 1
REMARK minimizedAffinity -2.96015358
REMARK minimizedRMSD -1
REMARK  1 active torsions:
REMARK  status: ('A' for Active; 'I' for Inactive)
REMARK    1  A    between atoms: C3_4  and  O_7 
ROOT
ATOM      1  C   UNL d   1       2.918  -5.586  -1.789  0.00  0.00    -0.033 A 
ATOM      2  C1  UNL d   1       2.086  -5.139  -2.816  0.00  0.00     0.039 A 
ATOM      3  C2  UNL d   1       1.729  -3.791  -2.890  0.00  0.00    -0.080 A 
ATOM      4  C3  UNL d   1       2.211  -2.902  -1.933  0.00  0.00     0.150 A 
ATOM      5  C4  UNL d   1       3.045  -3.341  -0.910  0.00  0.00    -0.007 A 
ATOM      6  C5  UNL d   1       3.399  -4.687  -0.837  0.00  0.00     0.039 A 
ENDROOT
BRANCH   4   7
ATOM      7  O   UNL d   1       1.886  -1.579  -1.962  0.00  0.00    -0.526 OA
ATOM      8  H5  UNL d   1       1.282  -1.426  -2.707  0.00  0.00     0.418 HD
ENDBRANCH   4   7
TORSDOF 1
ENDMDL
