MODEL 1
REMARK minimizedAffinity 11.524972
REMARK minimizedRMSD -1
REMARK  1 active torsions:
REMARK  status: ('A' for Active; 'I' for Inactive)
REMARK    1  A    between atoms: C3_4  and  O_7 
ROOT
ATOM      1  C   UNL d   1       0.863   1.590   2.508  0.00  0.00    -0.033 A 
ATOM      2  C1  UNL d   1       0.148   2.673   1.993  0.00  0.00     0.039 A 
ATOM      3  C2  UNL d   1      -1.248   2.654   1.992  0.00  0.00    -0.080 A 
ATOM      4  C3  UNL d   1      -1.916   1.547   2.510  0.00  0.00     0.150 A 
ATOM      5  C4  UNL d   1      -1.210   0.467   3.029  0.00  0.00    -0.007 A 
ATOM      6  C5  UNL d   1       0.184   0.488   3.028  0.00  0.00     0.039 A 
ENDROOT
BRANCH   4   7
ATOM      7  O   UNL d   1      -3.277   1.481   2.527  0.00  0.00    -0.526 OA
ATOM      8  H5  UNL d   1      -3.630   2.285   2.110  0.00  0.00     0.418 HD
ENDBRANCH   4   7
TORSDOF 1
ENDMDL
