MODEL 1
REMARK minimizedAffinity 8.86122894
REMARK minimizedRMSD -1
REMARK  1 active torsions:
REMARK  status: ('A' for Active; 'I' for Inactive)
REMARK    1  A    between atoms: C3_4  and  O_7 
ROOT
ATOM      1  C   UNL d   1      -2.603   1.591   5.188  0.00  0.00    -0.033 A 
ATOM      2  C1  UNL d   1      -3.410   2.435   5.953  0.00  0.00     0.039 A 
ATOM      3  C2  UNL d   1      -4.559   2.999   5.396  0.00  0.00    -0.080 A 
ATOM      4  C3  UNL d   1      -4.889   2.712   4.074  0.00  0.00     0.150 A 
ATOM      5  C4  UNL d   1      -4.091   1.869   3.307  0.00  0.00    -0.007 A 
ATOM      6  C5  UNL d   1      -2.944   1.308   3.865  0.00  0.00     0.039 A 
ENDROOT
BRANCH   4   7
ATOM      7  O   UNL d   1      -5.998   3.243   3.486  0.00  0.00    -0.526 OA
ATOM      8  H5  UNL d   1      -6.437   3.827   4.126  0.00  0.00     0.418 HD
ENDBRANCH   4   7
TORSDOF 1
ENDMDL
