MODEL 1
REMARK minimizedAffinity 8.85699463
REMARK minimizedRMSD -1
REMARK  1 active torsions:
REMARK  status: ('A' for Active; 'I' for Inactive)
REMARK    1  A    between atoms: C3_4  and  O_7 
ROOT
ATOM      1  C   UNL d   1       2.081   0.629  -1.226  0.00  0.00    -0.033 A 
ATOM      2  C1  UNL d   1       1.921  -0.703  -1.613  0.00  0.00     0.039 A 
ATOM      3  C2  UNL d   1       2.733  -1.694  -1.059  0.00  0.00    -0.080 A 
ATOM      4  C3  UNL d   1       3.697  -1.342  -0.119  0.00  0.00     0.150 A 
ATOM      5  C4  UNL d   1       3.859  -0.018   0.274  0.00  0.00    -0.007 A 
ATOM      6  C5  UNL d   1       3.049   0.972  -0.281  0.00  0.00     0.039 A 
ENDROOT
BRANCH   4   7
ATOM      7  O   UNL d   1       4.516  -2.274   0.446  0.00  0.00    -0.526 OA
ATOM      8  H5  UNL d   1       4.309  -3.141   0.057  0.00  0.00     0.418 HD
ENDBRANCH   4   7
TORSDOF 1
ENDMDL
