MODEL 1
REMARK minimizedAffinity 6.90143394
REMARK minimizedRMSD -1
REMARK  1 active torsions:
REMARK  status: ('A' for Active; 'I' for Inactive)
REMARK    1  A    between atoms: C3_4  and  O_7 
ROOT
ATOM      1  C   UNL d   1       2.239   5.998   0.324  0.00  0.00    -0.033 A 
ATOM      2  C1  UNL d   1       2.570   6.000  -1.033  0.00  0.00     0.039 A 
ATOM      3  C2  UNL d   1       1.561   5.999  -1.999  0.00  0.00    -0.080 A 
ATOM      4  C3  UNL d   1       0.229   5.997  -1.596  0.00  0.00     0.150 A 
ATOM      5  C4  UNL d   1      -0.107   6.000  -0.246  0.00  0.00    -0.007 A 
ATOM      6  C5  UNL d   1       0.901   5.999   0.717  0.00  0.00     0.039 A 
ENDROOT
BRANCH   4   7
ATOM      7  O   UNL d   1      -0.790   5.992  -2.502  0.00  0.00    -0.526 OA
ATOM      8  H5  UNL d   1      -0.407   5.962  -3.394  0.00  0.00     0.418 HD
ENDBRANCH   4   7
TORSDOF 1
ENDMDL
