MODEL 1
REMARK minimizedAffinity 10.648819
REMARK minimizedRMSD -1
REMARK  1 active torsions:
REMARK  status: ('A' for Active; 'I' for Inactive)
REMARK    1  A    between atoms: C3_4  and  O_7 
ROOT
ATOM      1  C   UNL d   1       3.177   0.606  -0.087  0.00  0.00    -0.033 A 
ATOM      2  C1  UNL d   1       2.075  -0.118  -0.548  0.00  0.00     0.039 A 
ATOM      3  C2  UNL d   1       0.846  -0.013   0.106  0.00  0.00    -0.080 A 
ATOM      4  C3  UNL d   1       0.731   0.818   1.217  0.00  0.00     0.150 A 
ATOM      5  C4  UNL d   1       1.824   1.545   1.679  0.00  0.00    -0.007 A 
ATOM      6  C5  UNL d   1       3.051   1.438   1.025  0.00  0.00     0.039 A 
ENDROOT
BRANCH   4   7
ATOM      7  O   UNL d   1      -0.447   0.949   1.890  0.00  0.00    -0.526 OA
ATOM      8  H5  UNL d   1      -1.105   0.366   1.476  0.00  0.00     0.418 HD
ENDBRANCH   4   7
TORSDOF 1
ENDMDL
