MODEL 1
REMARK minimizedAffinity 6.23099518
REMARK minimizedRMSD -1
REMARK  1 active torsions:
REMARK  status: ('A' for Active; 'I' for Inactive)
REMARK    1  A    between atoms: C3_4  and  O_7 
ROOT
ATOM      1  C   UNL d   1       0.836   1.851   3.107  0.00  0.00    -0.033 A 
ATOM      2  C1  UNL d   1       0.906   0.798   2.192  0.00  0.00     0.039 A 
ATOM      3  C2  UNL d   1      -0.231   0.410   1.482  0.00  0.00    -0.080 A 
ATOM      4  C3  UNL d   1      -1.431   1.083   1.694  0.00  0.00     0.150 A 
ATOM      5  C4  UNL d   1      -1.508   2.135   2.600  0.00  0.00    -0.007 A 
ATOM      6  C5  UNL d   1      -0.371   2.520   3.309  0.00  0.00     0.039 A 
ENDROOT
BRANCH   4   7
ATOM      7  O   UNL d   1      -2.569   0.737   1.027  0.00  0.00    -0.526 OA
ATOM      8  H5  UNL d   1      -2.372  -0.024   0.456  0.00  0.00     0.418 HD
ENDBRANCH   4   7
TORSDOF 1
ENDMDL
