MODEL 1
REMARK minimizedAffinity 11.5505381
REMARK minimizedRMSD -1
REMARK  1 active torsions:
REMARK  status: ('A' for Active; 'I' for Inactive)
REMARK    1  A    between atoms: C3_4  and  O_7 
ROOT
ATOM      1  C   UNL d   1      -1.225  -4.438  -4.478  0.00  0.00    -0.033 A 
ATOM      2  C1  UNL d   1      -1.894  -3.797  -3.433  0.00  0.00     0.039 A 
ATOM      3  C2  UNL d   1      -3.110  -3.154  -3.670  0.00  0.00    -0.080 A 
ATOM      4  C3  UNL d   1      -3.647  -3.160  -4.955  0.00  0.00     0.150 A 
ATOM      5  C4  UNL d   1      -2.988  -3.799  -6.000  0.00  0.00    -0.007 A 
ATOM      6  C5  UNL d   1      -1.773  -4.440  -5.761  0.00  0.00     0.039 A 
ENDROOT
BRANCH   4   7
ATOM      7  O   UNL d   1      -4.829  -2.542  -5.236  0.00  0.00    -0.526 OA
ATOM      8  H5  UNL d   1      -5.155  -2.118  -4.424  0.00  0.00     0.418 HD
ENDBRANCH   4   7
TORSDOF 1
ENDMDL
