MODEL 1
REMARK minimizedAffinity 4.61374521
REMARK minimizedRMSD -1
REMARK  1 active torsions:
REMARK  status: ('A' for Active; 'I' for Inactive)
REMARK    1  A    between atoms: C3_4  and  O_7 
ROOT
ATOM      1  C   UNL d   1      -4.484   2.977   5.872  0.00  0.00    -0.033 A 
ATOM      2  C1  UNL d   1      -4.974   3.330   4.613  0.00  0.00     0.039 A 
ATOM      3  C2  UNL d   1      -4.560   2.629   3.479  0.00  0.00    -0.080 A 
ATOM      4  C3  UNL d   1      -3.656   1.579   3.616  0.00  0.00     0.150 A 
ATOM      5  C4  UNL d   1      -3.167   1.220   4.868  0.00  0.00    -0.007 A 
ATOM      6  C5  UNL d   1      -3.581   1.921   5.999  0.00  0.00     0.039 A 
ENDROOT
BRANCH   4   7
ATOM      7  O   UNL d   1      -3.219   0.869   2.538  0.00  0.00    -0.526 OA
ATOM      8  H5  UNL d   1      -3.620   1.248   1.737  0.00  0.00     0.418 HD
ENDBRANCH   4   7
TORSDOF 1
ENDMDL
