MODEL 1
REMARK minimizedAffinity 0.257971883
REMARK minimizedRMSD -1
REMARK  0 active torsions:
REMARK  status: ('A' for Active; 'I' for Inactive)
ROOT
ATOM      1  C   UNL d   1      -4.549   4.705   3.286  0.00  0.00     0.172 C 
ATOM      2  N   UNL d   1      -3.303   4.551   2.572  0.00  0.00    -0.070 N 
ATOM      3  C1  UNL d   1      -2.155   5.258   2.809  0.00  0.00    -0.004 A 
ATOM      4  C2  UNL d   1      -1.197   4.818   1.922  0.00  0.00    -0.047 A 
ATOM      5  C3  UNL d   1      -1.790   3.811   1.124  0.00  0.00    -0.047 A 
ATOM      6  C4  UNL d   1      -3.094   3.666   1.547  0.00  0.00    -0.004 A 
ENDROOT
TORSDOF 0
ENDMDL
