MODEL 1
REMARK minimizedAffinity 1.3199203
REMARK minimizedRMSD -1
REMARK  0 active torsions:
REMARK  status: ('A' for Active; 'I' for Inactive)
ROOT
ATOM      1  C   UNL d   1       2.481   0.004  -0.747  0.00  0.00     0.172 C 
ATOM      2  N   UNL d   1       3.824   0.534  -0.750  0.00  0.00    -0.070 N 
ATOM      3  C1  UNL d   1       4.909  -0.037  -0.139  0.00  0.00    -0.004 A 
ATOM      4  C2  UNL d   1       6.000   0.771  -0.374  0.00  0.00    -0.047 A 
ATOM      5  C3  UNL d   1       5.556   1.866  -1.153  0.00  0.00    -0.047 A 
ATOM      6  C4  UNL d   1       4.205   1.694  -1.371  0.00  0.00    -0.004 A 
ENDROOT
TORSDOF 0
ENDMDL
