MODEL 1
REMARK minimizedAffinity 0.932962775
REMARK minimizedRMSD -1
REMARK  0 active torsions:
REMARK  status: ('A' for Active; 'I' for Inactive)
ROOT
ATOM      1  C   UNL d   1       5.769   2.939  -0.964  0.00  0.00     0.172 C 
ATOM      2  N   UNL d   1       5.068   1.680  -0.868  0.00  0.00    -0.070 N 
ATOM      3  C1  UNL d   1       4.515   0.993  -1.916  0.00  0.00    -0.004 A 
ATOM      4  C2  UNL d   1       3.941  -0.154  -1.412  0.00  0.00    -0.047 A 
ATOM      5  C3  UNL d   1       4.155  -0.156  -0.013  0.00  0.00    -0.047 A 
ATOM      6  C4  UNL d   1       4.855   0.991   0.297  0.00  0.00    -0.004 A 
ENDROOT
TORSDOF 0
ENDMDL
