MODEL 1
REMARK minimizedAffinity 8.62462616
REMARK minimizedRMSD -1
REMARK  0 active torsions:
REMARK  status: ('A' for Active; 'I' for Inactive)
ROOT
ATOM      1  C   UNL d   1      -0.576   0.626  -1.413  0.00  0.00     0.172 C 
ATOM      2  N   UNL d   1      -0.510   1.295  -0.135  0.00  0.00    -0.070 N 
ATOM      3  C1  UNL d   1      -1.267   2.372   0.243  0.00  0.00    -0.004 A 
ATOM      4  C2  UNL d   1      -0.905   2.712   1.528  0.00  0.00    -0.047 A 
ATOM      5  C3  UNL d   1       0.105   1.809   1.937  0.00  0.00    -0.047 A 
ATOM      6  C4  UNL d   1       0.331   0.943   0.888  0.00  0.00    -0.004 A 
ENDROOT
TORSDOF 0
ENDMDL
