MODEL 1
REMARK minimizedAffinity 4.86879301
REMARK minimizedRMSD -1
REMARK  0 active torsions:
REMARK  status: ('A' for Active; 'I' for Inactive)
ROOT
ATOM      1  C   UNL d   1       5.997   3.393   1.466  0.00  0.00     0.172 C 
ATOM      2  N   UNL d   1       5.485   2.540   0.420  0.00  0.00    -0.070 N 
ATOM      3  C1  UNL d   1       5.467   2.837  -0.916  0.00  0.00    -0.004 A 
ATOM      4  C2  UNL d   1       4.901   1.769  -1.579  0.00  0.00    -0.047 A 
ATOM      5  C3  UNL d   1       4.565   0.797  -0.607  0.00  0.00    -0.047 A 
ATOM      6  C4  UNL d   1       4.938   1.300   0.622  0.00  0.00    -0.004 A 
ENDROOT
TORSDOF 0
ENDMDL
