MODEL 1
REMARK minimizedAffinity 5.10850239
REMARK minimizedRMSD -1
REMARK  0 active torsions:
REMARK  status: ('A' for Active; 'I' for Inactive)
ROOT
ATOM      1  C   UNL d   1       5.522   2.245  -1.451  0.00  0.00     0.172 C 
ATOM      2  N   UNL d   1       4.700   1.207  -0.875  0.00  0.00    -0.070 N 
ATOM      3  C1  UNL d   1       3.459   0.833  -1.317  0.00  0.00    -0.004 A 
ATOM      4  C2  UNL d   1       3.012  -0.187  -0.505  0.00  0.00    -0.047 A 
ATOM      5  C3  UNL d   1       4.018  -0.434   0.458  0.00  0.00    -0.047 A 
ATOM      6  C4  UNL d   1       5.052   0.443   0.206  0.00  0.00    -0.004 A 
ENDROOT
TORSDOF 0
ENDMDL
