MODEL 1
REMARK minimizedAffinity 7.57187939
REMARK minimizedRMSD -1
REMARK  0 active torsions:
REMARK  status: ('A' for Active; 'I' for Inactive)
ROOT
ATOM      1  C   UNL d   1      -4.764   3.681  -4.988  0.00  0.00     0.172 C 
ATOM      2  N   UNL d   1      -4.094   2.438  -5.291  0.00  0.00    -0.070 N 
ATOM      3  C1  UNL d   1      -2.867   2.317  -5.887  0.00  0.00    -0.004 A 
ATOM      4  C2  UNL d   1      -2.582   0.973  -5.999  0.00  0.00    -0.047 A 
ATOM      5  C3  UNL d   1      -3.677   0.262  -5.453  0.00  0.00    -0.047 A 
ATOM      6  C4  UNL d   1      -4.598   1.193  -5.022  0.00  0.00    -0.004 A 
ENDROOT
TORSDOF 0
ENDMDL
