MODEL 1
REMARK minimizedAffinity -0.752781689
REMARK minimizedRMSD -1
REMARK  0 active torsions:
REMARK  status: ('A' for Active; 'I' for Inactive)
ROOT
ATOM      1  C   UNL d   1       0.426   0.011   2.738  0.00  0.00    -0.002 A 
ATOM      2  C1  UNL d   1       0.181  -1.331   2.489  0.00  0.00     0.010 A 
ATOM      3  C2  UNL d   1       0.112  -1.810   1.179  0.00  0.00     0.041 A 
ATOM      4  C3  UNL d   1       0.299  -0.908   0.113  0.00  0.00    -0.075 A 
ATOM      5  S   UNL d   1       0.259  -1.269  -1.572  0.00  0.00     0.015 SA
ATOM      6  C4  UNL d   1       0.569   0.351  -2.002  0.00  0.00     0.022 A 
ATOM      7  C5  UNL d   1       0.702   1.161  -0.899  0.00  0.00     0.026 A 
ATOM      8  C6  UNL d   1       0.549   0.448   0.339  0.00  0.00    -0.082 A 
ATOM      9  C7  UNL d   1       0.611   0.903   1.678  0.00  0.00     0.045 A 
ENDROOT
TORSDOF 0
ENDMDL
