MODEL 1
REMARK minimizedAffinity -3.44959569
REMARK minimizedRMSD -1
REMARK  0 active torsions:
REMARK  status: ('A' for Active; 'I' for Inactive)
ROOT
ATOM      1  C   UNL d   1      -1.497  -0.080   3.305  0.00  0.00    -0.002 A 
ATOM      2  C1  UNL d   1      -2.523   0.240   2.427  0.00  0.00     0.010 A 
ATOM      3  C2  UNL d   1      -2.259   0.448   1.072  0.00  0.00     0.041 A 
ATOM      4  C3  UNL d   1      -0.934   0.327   0.610  0.00  0.00    -0.075 A 
ATOM      5  S   UNL d   1      -0.374   0.536  -1.008  0.00  0.00     0.015 SA
ATOM      6  C4  UNL d   1       1.240   0.205  -0.571  0.00  0.00     0.022 A 
ATOM      7  C5  UNL d   1       1.367  -0.060   0.772  0.00  0.00     0.026 A 
ATOM      8  C6  UNL d   1       0.116   0.005   1.474  0.00  0.00    -0.082 A 
ATOM      9  C7  UNL d   1      -0.184  -0.200   2.843  0.00  0.00     0.045 A 
ENDROOT
TORSDOF 0
ENDMDL
