MODEL 1
REMARK minimizedAffinity -4.07817173
REMARK minimizedRMSD -1
REMARK  0 active torsions:
REMARK  status: ('A' for Active; 'I' for Inactive)
ROOT
ATOM      1  C   UNL d   1      -1.279  -1.281   3.805  0.00  0.00    -0.002 A 
ATOM      2  C1  UNL d   1      -2.294  -1.070   2.883  0.00  0.00     0.010 A 
ATOM      3  C2  UNL d   1      -1.996  -0.687   1.574  0.00  0.00     0.041 A 
ATOM      4  C3  UNL d   1      -0.647  -0.521   1.203  0.00  0.00    -0.075 A 
ATOM      5  S   UNL d   1      -0.044  -0.058  -0.344  0.00  0.00     0.015 SA
ATOM      6  C4  UNL d   1       1.575  -0.130   0.182  0.00  0.00     0.022 A 
ATOM      7  C5  UNL d   1       1.672  -0.497   1.504  0.00  0.00     0.026 A 
ATOM      8  C6  UNL d   1       0.393  -0.728   2.114  0.00  0.00    -0.082 A 
ATOM      9  C7  UNL d   1       0.058  -1.115   3.434  0.00  0.00     0.045 A 
ENDROOT
TORSDOF 0
ENDMDL
