MODEL 1
REMARK minimizedAffinity 2.38462257
REMARK minimizedRMSD -1
REMARK  0 active torsions:
REMARK  status: ('A' for Active; 'I' for Inactive)
ROOT
ATOM      1  C   UNL d   1       1.161   0.050   2.110  0.00  0.00    -0.002 A 
ATOM      2  C1  UNL d   1       1.142  -0.269   0.759  0.00  0.00     0.010 A 
ATOM      3  C2  UNL d   1      -0.044  -0.184   0.026  0.00  0.00     0.041 A 
ATOM      4  C3  UNL d   1      -1.220   0.233   0.679  0.00  0.00    -0.075 A 
ATOM      5  S   UNL d   1      -2.787   0.413  -0.017  0.00  0.00     0.015 SA
ATOM      6  C4  UNL d   1      -3.468   0.918   1.462  0.00  0.00     0.022 A 
ATOM      7  C5  UNL d   1      -2.537   0.955   2.473  0.00  0.00     0.026 A 
ATOM      8  C6  UNL d   1      -1.226   0.561   2.038  0.00  0.00    -0.082 A 
ATOM      9  C7  UNL d   1      -0.008   0.463   2.754  0.00  0.00     0.045 A 
ENDROOT
TORSDOF 0
ENDMDL
