MODEL 1
REMARK minimizedAffinity -1.79131746
REMARK minimizedRMSD -1
REMARK  0 active torsions:
REMARK  status: ('A' for Active; 'I' for Inactive)
ROOT
ATOM      1  C   UNL d   1      -0.049   0.019   2.695  0.00  0.00    -0.002 A 
ATOM      2  C1  UNL d   1      -1.400   0.309   2.566  0.00  0.00     0.010 A 
ATOM      3  C2  UNL d   1      -1.945   0.612   1.316  0.00  0.00     0.041 A 
ATOM      4  C3  UNL d   1      -1.101   0.617   0.188  0.00  0.00    -0.075 A 
ATOM      5  S   UNL d   1      -1.546   0.958  -1.442  0.00  0.00     0.015 SA
ATOM      6  C4  UNL d   1       0.046   0.727  -2.005  0.00  0.00     0.022 A 
ATOM      7  C5  UNL d   1       0.909   0.397  -0.987  0.00  0.00     0.026 A 
ATOM      8  C6  UNL d   1       0.263   0.328   0.293  0.00  0.00    -0.082 A 
ATOM      9  C7  UNL d   1       0.785   0.025   1.574  0.00  0.00     0.045 A 
ENDROOT
TORSDOF 0
ENDMDL
