MODEL 1
REMARK minimizedAffinity -3.86504269
REMARK minimizedRMSD -1
REMARK  0 active torsions:
REMARK  status: ('A' for Active; 'I' for Inactive)
ROOT
ATOM      1  C   UNL d   1      -2.561  -0.315   2.572  0.00  0.00    -0.002 A 
ATOM      2  C1  UNL d   1      -1.427  -0.298   3.372  0.00  0.00     0.010 A 
ATOM      3  C2  UNL d   1      -0.161  -0.130   2.806  0.00  0.00     0.041 A 
ATOM      4  C3  UNL d   1      -0.054   0.025   1.410  0.00  0.00    -0.075 A 
ATOM      5  S   UNL d   1       1.392   0.246   0.497  0.00  0.00     0.015 SA
ATOM      6  C4  UNL d   1       0.538   0.324  -0.976  0.00  0.00     0.022 A 
ATOM      7  C5  UNL d   1      -0.817   0.187  -0.794  0.00  0.00     0.026 A 
ATOM      8  C6  UNL d   1      -1.181   0.012   0.584  0.00  0.00    -0.082 A 
ATOM      9  C7  UNL d   1      -2.450  -0.161   1.187  0.00  0.00     0.045 A 
ENDROOT
TORSDOF 0
ENDMDL
