MODEL 1
REMARK minimizedAffinity -3.40571332
REMARK minimizedRMSD -1
REMARK  0 active torsions:
REMARK  status: ('A' for Active; 'I' for Inactive)
ROOT
ATOM      1  C   UNL d   1      -2.940   1.184   2.501  0.00  0.00    -0.002 A 
ATOM      2  C1  UNL d   1      -3.166   1.192   1.132  0.00  0.00     0.010 A 
ATOM      3  C2  UNL d   1      -2.185   0.738   0.247  0.00  0.00     0.041 A 
ATOM      4  C3  UNL d   1      -0.963   0.269   0.767  0.00  0.00    -0.075 A 
ATOM      5  S   UNL d   1       0.382  -0.335  -0.126  0.00  0.00     0.015 SA
ATOM      6  C4  UNL d   1       1.289  -0.620   1.289  0.00  0.00     0.022 A 
ATOM      7  C5  UNL d   1       0.597  -0.268   2.424  0.00  0.00     0.026 A 
ATOM      8  C6  UNL d   1      -0.712   0.250   2.142  0.00  0.00    -0.082 A 
ATOM      9  C7  UNL d   1      -1.726   0.718   3.013  0.00  0.00     0.045 A 
ENDROOT
TORSDOF 0
ENDMDL
