MODEL 1
REMARK minimizedAffinity -0.303081244
REMARK minimizedRMSD -1
REMARK  0 active torsions:
REMARK  status: ('A' for Active; 'I' for Inactive)
ROOT
ATOM      1  C   UNL d   1      -0.050   0.889   0.259  0.00  0.00    -0.002 A 
ATOM      2  C1  UNL d   1      -0.249  -0.435   0.626  0.00  0.00     0.010 A 
ATOM      3  C2  UNL d   1       0.048  -1.470  -0.263  0.00  0.00     0.041 A 
ATOM      4  C3  UNL d   1       0.556  -1.149  -1.537  0.00  0.00    -0.075 A 
ATOM      5  S   UNL d   1       0.992  -2.251  -2.790  0.00  0.00     0.015 SA
ATOM      6  C4  UNL d   1       1.453  -0.991  -3.840  0.00  0.00     0.022 A 
ATOM      7  C5  UNL d   1       1.284   0.247  -3.266  0.00  0.00     0.026 A 
ATOM      8  C6  UNL d   1       0.765   0.176  -1.929  0.00  0.00    -0.082 A 
ATOM      9  C7  UNL d   1       0.453   1.203  -1.006  0.00  0.00     0.045 A 
ENDROOT
TORSDOF 0
ENDMDL
