MODEL 1
REMARK minimizedAffinity -6.12049723
REMARK minimizedRMSD -1
REMARK  0 active torsions:
REMARK  status: ('A' for Active; 'I' for Inactive)
ROOT
ATOM      1  C   UNL d   1      -2.450  -0.385   3.304  0.00  0.00    -0.002 A 
ATOM      2  C1  UNL d   1      -3.343  -0.152   2.268  0.00  0.00     0.010 A 
ATOM      3  C2  UNL d   1      -2.882   0.229   1.006  0.00  0.00     0.041 A 
ATOM      4  C3  UNL d   1      -1.495   0.372   0.801  0.00  0.00    -0.075 A 
ATOM      5  S   UNL d   1      -0.702   0.828  -0.660  0.00  0.00     0.015 SA
ATOM      6  C4  UNL d   1       0.841   0.723   0.057  0.00  0.00     0.022 A 
ATOM      7  C5  UNL d   1       0.771   0.351   1.379  0.00  0.00     0.026 A 
ATOM      8  C6  UNL d   1      -0.577   0.142   1.829  0.00  0.00    -0.082 A 
ATOM      9  C7  UNL d   1      -1.075  -0.243   3.097  0.00  0.00     0.045 A 
ENDROOT
TORSDOF 0
ENDMDL
