MODEL 1
REMARK minimizedAffinity -6.00835609
REMARK minimizedRMSD -1
REMARK  0 active torsions:
REMARK  status: ('A' for Active; 'I' for Inactive)
ROOT
ATOM      1  C   UNL d   1      -2.954  -0.276   3.478  0.00  0.00    -0.002 A 
ATOM      2  C1  UNL d   1      -1.688  -0.753   3.784  0.00  0.00     0.010 A 
ATOM      3  C2  UNL d   1      -0.676  -0.747   2.822  0.00  0.00     0.041 A 
ATOM      4  C3  UNL d   1      -0.961  -0.248   1.535  0.00  0.00    -0.075 A 
ATOM      5  S   UNL d   1       0.122  -0.143   0.198  0.00  0.00     0.015 SA
ATOM      6  C4  UNL d   1      -1.071   0.538  -0.810  0.00  0.00     0.022 A 
ATOM      7  C5  UNL d   1      -2.272   0.688  -0.159  0.00  0.00     0.026 A 
ATOM      8  C6  UNL d   1      -2.228   0.238   1.204  0.00  0.00    -0.082 A 
ATOM      9  C7  UNL d   1      -3.233   0.218   2.201  0.00  0.00     0.045 A 
ENDROOT
TORSDOF 0
ENDMDL
