MODEL 1
REMARK minimizedAffinity -3.13399315
REMARK minimizedRMSD -1
REMARK  0 active torsions:
REMARK  status: ('A' for Active; 'I' for Inactive)
ROOT
ATOM      1  C   UNL d   1       0.809   2.860   1.567  0.00  0.00    -0.002 A 
ATOM      2  C1  UNL d   1       1.537   2.668   0.401  0.00  0.00     0.010 A 
ATOM      3  C2  UNL d   1       1.409   1.485  -0.329  0.00  0.00     0.041 A 
ATOM      4  C3  UNL d   1       0.528   0.489   0.136  0.00  0.00    -0.075 A 
ATOM      5  S   UNL d   1       0.209  -1.040  -0.594  0.00  0.00     0.015 SA
ATOM      6  C4  UNL d   1      -0.902  -1.474   0.623  0.00  0.00     0.022 A 
ATOM      7  C5  UNL d   1      -1.038  -0.488   1.572  0.00  0.00     0.026 A 
ATOM      8  C6  UNL d   1      -0.217   0.660   1.306  0.00  0.00    -0.082 A 
ATOM      9  C7  UNL d   1      -0.065   1.870   2.025  0.00  0.00     0.045 A 
ENDROOT
TORSDOF 0
ENDMDL
