MODEL 1
REMARK minimizedAffinity -1.81240964
REMARK minimizedRMSD -1
REMARK  0 active torsions:
REMARK  status: ('A' for Active; 'I' for Inactive)
ROOT
ATOM      1  C   UNL d   1       1.371   2.787   1.136  0.00  0.00    -0.002 A 
ATOM      2  C1  UNL d   1       0.484   2.437   2.144  0.00  0.00     0.010 A 
ATOM      3  C2  UNL d   1      -0.167   1.202   2.120  0.00  0.00     0.041 A 
ATOM      4  C3  UNL d   1       0.093   0.315   1.056  0.00  0.00    -0.075 A 
ATOM      5  S   UNL d   1      -0.588  -1.251   0.819  0.00  0.00     0.015 SA
ATOM      6  C4  UNL d   1       0.284  -1.493  -0.626  0.00  0.00     0.022 A 
ATOM      7  C5  UNL d   1       1.079  -0.415  -0.935  0.00  0.00     0.026 A 
ATOM      8  C6  UNL d   1       0.982   0.645   0.030  0.00  0.00    -0.082 A 
ATOM      9  C7  UNL d   1       1.626   1.905   0.082  0.00  0.00     0.045 A 
ENDROOT
TORSDOF 0
ENDMDL
