MODEL 1
REMARK minimizedAffinity -2.06702638
REMARK minimizedRMSD -1
REMARK  0 active torsions:
REMARK  status: ('A' for Active; 'I' for Inactive)
ROOT
ATOM      1  C   UNL d   1       1.068   2.425   1.433  0.00  0.00    -0.002 A 
ATOM      2  C1  UNL d   1       2.143   2.147   0.601  0.00  0.00     0.010 A 
ATOM      3  C2  UNL d   1       2.246   0.909  -0.037  0.00  0.00     0.041 A 
ATOM      4  C3  UNL d   1       1.239  -0.053   0.176  0.00  0.00    -0.075 A 
ATOM      5  S   UNL d   1       1.155  -1.637  -0.501  0.00  0.00     0.015 SA
ATOM      6  C4  UNL d   1      -0.311  -1.981   0.298  0.00  0.00     0.022 A 
ATOM      7  C5  UNL d   1      -0.739  -0.925   1.066  0.00  0.00     0.026 A 
ATOM      8  C6  UNL d   1       0.146   0.204   1.008  0.00  0.00    -0.082 A 
ATOM      9  C7  UNL d   1       0.071   1.468   1.641  0.00  0.00     0.045 A 
ENDROOT
TORSDOF 0
ENDMDL
