MODEL 1
REMARK minimizedAffinity 0.979567468
REMARK minimizedRMSD -1
REMARK  0 active torsions:
REMARK  status: ('A' for Active; 'I' for Inactive)
ROOT
ATOM      1  C   UNL d   1      -1.830  -1.167  -2.583  0.00  0.00    -0.002 A 
ATOM      2  C1  UNL d   1      -0.792  -0.540  -1.908  0.00  0.00     0.010 A 
ATOM      3  C2  UNL d   1      -0.407  -0.973  -0.638  0.00  0.00     0.041 A 
ATOM      4  C3  UNL d   1      -1.087  -2.058  -0.053  0.00  0.00    -0.075 A 
ATOM      5  S   UNL d   1      -0.788  -2.762   1.493  0.00  0.00     0.015 SA
ATOM      6  C4  UNL d   1      -2.031  -3.911   1.293  0.00  0.00     0.022 A 
ATOM      7  C5  UNL d   1      -2.669  -3.776   0.083  0.00  0.00     0.026 A 
ATOM      8  C6  UNL d   1      -2.135  -2.706  -0.713  0.00  0.00    -0.082 A 
ATOM      9  C7  UNL d   1      -2.503  -2.243  -1.999  0.00  0.00     0.045 A 
ENDROOT
TORSDOF 0
ENDMDL
