MODEL 1
REMARK minimizedAffinity -3.02537465
REMARK minimizedRMSD -1
REMARK  0 active torsions:
REMARK  status: ('A' for Active; 'I' for Inactive)
ROOT
ATOM      1  C   UNL d   1      -1.679  -1.957   3.021  0.00  0.00    -0.002 A 
ATOM      2  C1  UNL d   1      -1.446  -3.094   2.261  0.00  0.00     0.010 A 
ATOM      3  C2  UNL d   1      -0.930  -2.991   0.967  0.00  0.00     0.041 A 
ATOM      4  C3  UNL d   1      -0.647  -1.712   0.447  0.00  0.00    -0.075 A 
ATOM      5  S   UNL d   1      -0.009  -1.342  -1.111  0.00  0.00     0.015 SA
ATOM      6  C4  UNL d   1      -0.029   0.334  -0.804  0.00  0.00     0.022 A 
ATOM      7  C5  UNL d   1      -0.509   0.622   0.452  0.00  0.00     0.026 A 
ATOM      8  C6  UNL d   1      -0.872  -0.553   1.194  0.00  0.00    -0.082 A 
ATOM      9  C7  UNL d   1      -1.397  -0.691   2.502  0.00  0.00     0.045 A 
ENDROOT
TORSDOF 0
ENDMDL
