MODEL 1
REMARK minimizedAffinity -1.04144561
REMARK minimizedRMSD -1
REMARK  0 active torsions:
REMARK  status: ('A' for Active; 'I' for Inactive)
ROOT
ATOM      1  C   UNL d   1       1.145   2.777   1.219  0.00  0.00    -0.002 A 
ATOM      2  C1  UNL d   1       1.902   2.666   0.062  0.00  0.00     0.010 A 
ATOM      3  C2  UNL d   1       1.741   1.572  -0.790  0.00  0.00     0.041 A 
ATOM      4  C3  UNL d   1       0.796   0.582  -0.457  0.00  0.00    -0.075 A 
ATOM      5  S   UNL d   1       0.426  -0.845  -1.351  0.00  0.00     0.015 SA
ATOM      6  C4  UNL d   1      -0.746  -1.341  -0.218  0.00  0.00     0.022 A 
ATOM      7  C5  UNL d   1      -0.866  -0.451   0.823  0.00  0.00     0.026 A 
ATOM      8  C6  UNL d   1       0.020   0.672   0.702  0.00  0.00    -0.082 A 
ATOM      9  C7  UNL d   1       0.208   1.793   1.546  0.00  0.00     0.045 A 
ENDROOT
TORSDOF 0
ENDMDL
