MODEL 1
REMARK minimizedAffinity 0.426052183
REMARK minimizedRMSD -1
REMARK  0 active torsions:
REMARK  status: ('A' for Active; 'I' for Inactive)
ROOT
ATOM      1  C   UNL d   1       1.849   0.187  -1.020  0.00  0.00    -0.002 A 
ATOM      2  C1  UNL d   1       0.797   0.804  -0.357  0.00  0.00     0.010 A 
ATOM      3  C2  UNL d   1      -0.349   0.082  -0.019  0.00  0.00     0.041 A 
ATOM      4  C3  UNL d   1      -0.421  -1.283  -0.361  0.00  0.00    -0.075 A 
ATOM      5  S   UNL d   1      -1.726  -2.366  -0.048  0.00  0.00     0.015 SA
ATOM      6  C4  UNL d   1      -0.917  -3.672  -0.786  0.00  0.00     0.022 A 
ATOM      7  C5  UNL d   1       0.319  -3.308  -1.265  0.00  0.00     0.026 A 
ATOM      8  C6  UNL d   1       0.626  -1.926  -1.028  0.00  0.00    -0.082 A 
ATOM      9  C7  UNL d   1       1.774  -1.167  -1.357  0.00  0.00     0.045 A 
ENDROOT
TORSDOF 0
ENDMDL
