MODEL 1
REMARK minimizedAffinity -5.11589193
REMARK minimizedRMSD -1
REMARK  0 active torsions:
REMARK  status: ('A' for Active; 'I' for Inactive)
ROOT
ATOM      1  C   UNL d   1       1.997   2.706   1.292  0.00  0.00    -0.002 A 
ATOM      2  C1  UNL d   1       2.946   2.143   0.450  0.00  0.00     0.010 A 
ATOM      3  C2  UNL d   1       2.658   0.980  -0.267  0.00  0.00     0.041 A 
ATOM      4  C3  UNL d   1       1.388   0.388  -0.124  0.00  0.00    -0.075 A 
ATOM      5  S   UNL d   1       0.813  -1.038  -0.904  0.00  0.00     0.015 SA
ATOM      6  C4  UNL d   1      -0.707  -0.933  -0.139  0.00  0.00     0.022 A 
ATOM      7  C5  UNL d   1      -0.790   0.157   0.695  0.00  0.00     0.026 A 
ATOM      8  C6  UNL d   1       0.416   0.937   0.717  0.00  0.00    -0.082 A 
ATOM      9  C7  UNL d   1       0.738   2.116   1.431  0.00  0.00     0.045 A 
ENDROOT
TORSDOF 0
ENDMDL
