MODEL 1
REMARK minimizedAffinity -4.03546762
REMARK minimizedRMSD -1
REMARK  0 active torsions:
REMARK  status: ('A' for Active; 'I' for Inactive)
ROOT
ATOM      1  C   UNL d   1       1.194   2.626   0.960  0.00  0.00    -0.002 A 
ATOM      2  C1  UNL d   1       0.038   2.229   1.617  0.00  0.00     0.010 A 
ATOM      3  C2  UNL d   1      -0.508   0.964   1.394  0.00  0.00     0.041 A 
ATOM      4  C3  UNL d   1       0.135   0.094   0.491  0.00  0.00    -0.075 A 
ATOM      5  S   UNL d   1      -0.352  -1.503   0.061  0.00  0.00     0.015 SA
ATOM      6  C4  UNL d   1       0.963  -1.697  -1.005  0.00  0.00     0.022 A 
ATOM      7  C5  UNL d   1       1.764  -0.581  -1.045  0.00  0.00     0.026 A 
ATOM      8  C6  UNL d   1       1.300   0.470  -0.183  0.00  0.00    -0.082 A 
ATOM      9  C7  UNL d   1       1.829   1.760   0.065  0.00  0.00     0.045 A 
ENDROOT
TORSDOF 0
ENDMDL
