MODEL 1
REMARK minimizedAffinity -2.24400759
REMARK minimizedRMSD -1
REMARK  0 active torsions:
REMARK  status: ('A' for Active; 'I' for Inactive)
ROOT
ATOM      1  C   UNL d   1       0.503   2.526   0.523  0.00  0.00    -0.002 A 
ATOM      2  C1  UNL d   1      -0.088   2.326   1.763  0.00  0.00     0.010 A 
ATOM      3  C2  UNL d   1      -0.514   1.054   2.150  0.00  0.00     0.041 A 
ATOM      4  C3  UNL d   1      -0.333  -0.025   1.262  0.00  0.00    -0.075 A 
ATOM      5  S   UNL d   1      -0.776  -1.671   1.523  0.00  0.00     0.015 SA
ATOM      6  C4  UNL d   1      -0.190  -2.148  -0.005  0.00  0.00     0.022 A 
ATOM      7  C5  UNL d   1       0.334  -1.090  -0.710  0.00  0.00     0.026 A 
ATOM      8  C6  UNL d   1       0.261   0.151   0.009  0.00  0.00    -0.082 A 
ATOM      9  C7  UNL d   1       0.681   1.453  -0.354  0.00  0.00     0.045 A 
ENDROOT
TORSDOF 0
ENDMDL
