MODEL 1
REMARK minimizedAffinity 8.9337101
REMARK minimizedRMSD -1
REMARK  0 active torsions:
REMARK  status: ('A' for Active; 'I' for Inactive)
ROOT
ATOM      1  C2' OXE d   1      -1.120   3.341   1.643  0.00  0.00     0.078 C 
ATOM      2  C1' OXE d   1      -1.925   5.992   1.188  0.00  0.00     0.078 C 
ATOM      3  C1  OXE d   1      -1.073   5.325   0.137  0.00  0.00    -0.078 A 
ATOM      4  C2  OXE d   1      -0.645   4.044   0.390  0.00  0.00    -0.078 A 
ATOM      5  C3  OXE d   1       0.098   3.363  -0.571  0.00  0.00     0.003 A 
ATOM      6  C4  OXE d   1       0.542   4.024  -1.723  0.00  0.00    -0.002 A 
ATOM      7  C5  OXE d   1       0.151   5.342  -1.981  0.00  0.00    -0.002 A 
ATOM      8  C6  OXE d   1      -0.690   5.991  -1.083  0.00  0.00     0.003 A 
ENDROOT
TORSDOF 0
ENDMDL
