MODEL 1
REMARK minimizedAffinity 11.1075258
REMARK minimizedRMSD -1
REMARK  0 active torsions:
REMARK  status: ('A' for Active; 'I' for Inactive)
ROOT
ATOM      1  C2' OXE d   1      -0.889   5.955  -3.682  0.00  0.00     0.078 C 
ATOM      2  C1' OXE d   1      -2.771   4.281  -2.443  0.00  0.00     0.078 C 
ATOM      3  C1  OXE d   1      -1.355   4.251  -1.925  0.00  0.00    -0.078 A 
ATOM      4  C2  OXE d   1      -0.430   5.038  -2.568  0.00  0.00    -0.078 A 
ATOM      5  C3  OXE d   1       0.878   5.089  -2.096  0.00  0.00     0.003 A 
ATOM      6  C4  OXE d   1       1.296   4.231  -1.072  0.00  0.00    -0.002 A 
ATOM      7  C5  OXE d   1       0.379   3.392  -0.430  0.00  0.00    -0.002 A 
ATOM      8  C6  OXE d   1      -0.956   3.421  -0.816  0.00  0.00     0.003 A 
ENDROOT
TORSDOF 0
ENDMDL
