MODEL 1
REMARK minimizedAffinity 5.34462547
REMARK minimizedRMSD -1
REMARK  0 active torsions:
REMARK  status: ('A' for Active; 'I' for Inactive)
ROOT
ATOM      1  C2' OXE d   1      -1.366   5.610  -2.354  0.00  0.00     0.078 C 
ATOM      2  C1' OXE d   1       1.143   5.999  -1.155  0.00  0.00     0.078 C 
ATOM      3  C1  OXE d   1       0.400   4.727  -0.834  0.00  0.00    -0.078 A 
ATOM      4  C2  OXE d   1      -0.847   4.566  -1.388  0.00  0.00    -0.078 A 
ATOM      5  C3  OXE d   1      -1.552   3.386  -1.169  0.00  0.00     0.003 A 
ATOM      6  C4  OXE d   1      -1.070   2.429  -0.267  0.00  0.00    -0.002 A 
ATOM      7  C5  OXE d   1       0.180   2.592   0.340  0.00  0.00    -0.002 A 
ATOM      8  C6  OXE d   1       0.945   3.712   0.034  0.00  0.00     0.003 A 
ENDROOT
TORSDOF 0
ENDMDL
