MODEL 1
REMARK minimizedAffinity 5.87171125
REMARK minimizedRMSD -1
REMARK  0 active torsions:
REMARK  status: ('A' for Active; 'I' for Inactive)
ROOT
ATOM      1  C2' OXE d   1      -2.197   4.869  -2.331  0.00  0.00     0.078 C 
ATOM      2  C1' OXE d   1       0.373   6.000  -2.317  0.00  0.00     0.078 C 
ATOM      3  C1  OXE d   1       0.142   4.767  -1.480  0.00  0.00    -0.078 A 
ATOM      4  C2  OXE d   1      -1.130   4.247  -1.456  0.00  0.00    -0.078 A 
ATOM      5  C3  OXE d   1      -1.384   3.079  -0.743  0.00  0.00     0.003 A 
ATOM      6  C4  OXE d   1      -0.394   2.516   0.072  0.00  0.00    -0.002 A 
ATOM      7  C5  OXE d   1       0.897   3.053   0.093  0.00  0.00    -0.002 A 
ATOM      8  C6  OXE d   1       1.193   4.150  -0.708  0.00  0.00     0.003 A 
ENDROOT
TORSDOF 0
ENDMDL
