MODEL 1
REMARK minimizedAffinity 6.29656076
REMARK minimizedRMSD -1
REMARK  0 active torsions:
REMARK  status: ('A' for Active; 'I' for Inactive)
ROOT
ATOM      1  C2' OXE d   1      -1.006   1.941  -1.696  0.00  0.00     0.078 C 
ATOM      2  C1' OXE d   1       0.564   4.098  -0.823  0.00  0.00     0.078 C 
ATOM      3  C1  OXE d   1       0.177   3.053   0.194  0.00  0.00    -0.078 A 
ATOM      4  C2  OXE d   1      -0.630   2.026  -0.232  0.00  0.00    -0.078 A 
ATOM      5  C3  OXE d   1      -0.972   1.006   0.652  0.00  0.00     0.003 A 
ATOM      6  C4  OXE d   1      -0.629   1.098   2.006  0.00  0.00    -0.002 A 
ATOM      7  C5  OXE d   1       0.159   2.156   2.469  0.00  0.00    -0.002 A 
ATOM      8  C6  OXE d   1       0.605   3.118   1.569  0.00  0.00     0.003 A 
ENDROOT
TORSDOF 0
ENDMDL
