MODEL 1
REMARK minimizedAffinity 8.30442333
REMARK minimizedRMSD -1
REMARK  0 active torsions:
REMARK  status: ('A' for Active; 'I' for Inactive)
ROOT
ATOM      1  C2' OXE d   1      -1.789   5.417   1.034  0.00  0.00     0.078 C 
ATOM      2  C1' OXE d   1      -1.334   2.684   1.487  0.00  0.00     0.078 C 
ATOM      3  C1  OXE d   1      -0.521   3.364   0.414  0.00  0.00    -0.078 A 
ATOM      4  C2  OXE d   1      -0.783   4.690   0.167  0.00  0.00    -0.078 A 
ATOM      5  C3  OXE d   1      -0.025   5.379  -0.775  0.00  0.00     0.003 A 
ATOM      6  C4  OXE d   1       0.896   4.697  -1.579  0.00  0.00    -0.002 A 
ATOM      7  C5  OXE d   1       1.150   3.337  -1.371  0.00  0.00    -0.002 A 
ATOM      8  C6  OXE d   1       0.482   2.667  -0.353  0.00  0.00     0.003 A 
ENDROOT
TORSDOF 0
ENDMDL
