MODEL 1
REMARK minimizedAffinity 8.15299225
REMARK minimizedRMSD -1
REMARK  0 active torsions:
REMARK  status: ('A' for Active; 'I' for Inactive)
ROOT
ATOM      1  C2' OXE d   1      -3.454   4.060  -2.998  0.00  0.00     0.078 C 
ATOM      2  C1' OXE d   1      -3.333   1.428  -2.031  0.00  0.00     0.078 C 
ATOM      3  C1  OXE d   1      -2.255   2.388  -1.595  0.00  0.00    -0.078 A 
ATOM      4  C2  OXE d   1      -2.295   3.661  -2.110  0.00  0.00    -0.078 A 
ATOM      5  C3  OXE d   1      -1.356   4.602  -1.697  0.00  0.00     0.003 A 
ATOM      6  C4  OXE d   1      -0.282   4.222  -0.883  0.00  0.00    -0.002 A 
ATOM      7  C5  OXE d   1      -0.200   2.919  -0.379  0.00  0.00    -0.002 A 
ATOM      8  C6  OXE d   1      -1.199   2.004  -0.690  0.00  0.00     0.003 A 
ENDROOT
TORSDOF 0
ENDMDL
