MODEL 1
REMARK minimizedAffinity 11.1179914
REMARK minimizedRMSD -1
REMARK  0 active torsions:
REMARK  status: ('A' for Active; 'I' for Inactive)
ROOT
ATOM      1  C2' OXE d   1      -0.241   3.363   1.009  0.00  0.00     0.078 C 
ATOM      2  C1' OXE d   1      -1.374   5.914   0.708  0.00  0.00     0.078 C 
ATOM      3  C1  OXE d   1      -0.816   5.243  -0.521  0.00  0.00    -0.078 A 
ATOM      4  C2  OXE d   1      -0.221   4.015  -0.357  0.00  0.00    -0.078 A 
ATOM      5  C3  OXE d   1       0.261   3.328  -1.467  0.00  0.00     0.003 A 
ATOM      6  C4  OXE d   1       0.284   3.942  -2.725  0.00  0.00    -0.002 A 
ATOM      7  C5  OXE d   1      -0.280   5.208  -2.908  0.00  0.00    -0.002 A 
ATOM      8  C6  OXE d   1      -0.871   5.853  -1.827  0.00  0.00     0.003 A 
ENDROOT
TORSDOF 0
ENDMDL
