MODEL 1
REMARK minimizedAffinity 6.10442448
REMARK minimizedRMSD -1
REMARK  0 active torsions:
REMARK  status: ('A' for Active; 'I' for Inactive)
ROOT
ATOM      1  C4' PXY d   1       5.358  -3.979   0.459  0.00  0.00     0.077 C 
ATOM      2  C1' PXY d   1       2.770   1.171   0.020  0.00  0.00     0.077 C 
ATOM      3  C1  PXY d   1       3.437  -0.184   0.139  0.00  0.00    -0.082 A 
ATOM      4  C2  PXY d   1       4.748  -0.256   0.302  0.00  0.00     0.003 A 
ATOM      5  C3  PXY d   1       5.372  -1.475   0.380  0.00  0.00     0.003 A 
ATOM      6  C4  PXY d   1       4.640  -2.631   0.343  0.00  0.00    -0.082 A 
ATOM      7  C5  PXY d   1       3.301  -2.566   0.188  0.00  0.00     0.003 A 
ATOM      8  C6  PXY d   1       2.692  -1.320   0.070  0.00  0.00     0.003 A 
ENDROOT
TORSDOF 0
ENDMDL
