MODEL 1
REMARK minimizedAffinity 0.74736166
REMARK minimizedRMSD -1
REMARK  0 active torsions:
REMARK  status: ('A' for Active; 'I' for Inactive)
ROOT
ATOM      1  C4' PXY d   1      -1.494  -2.115  -5.010  0.00  0.00     0.077 C 
ATOM      2  C1' PXY d   1      -5.999   1.503  -4.848  0.00  0.00     0.077 C 
ATOM      3  C1  PXY d   1      -4.818   0.554  -4.877  0.00  0.00    -0.082 A 
ATOM      4  C2  PXY d   1      -4.035   0.517  -5.943  0.00  0.00     0.003 A 
ATOM      5  C3  PXY d   1      -2.980  -0.358  -6.000  0.00  0.00     0.003 A 
ATOM      6  C4  PXY d   1      -2.693  -1.166  -4.932  0.00  0.00    -0.082 A 
ATOM      7  C5  PXY d   1      -3.481  -1.127  -3.837  0.00  0.00     0.003 A 
ATOM      8  C6  PXY d   1      -4.570  -0.261  -3.816  0.00  0.00     0.003 A 
ENDROOT
TORSDOF 0
ENDMDL
