MODEL 1
REMARK minimizedAffinity 0.691561222
REMARK minimizedRMSD -1
REMARK  0 active torsions:
REMARK  status: ('A' for Active; 'I' for Inactive)
ROOT
ATOM      1  C4' PXY d   1      -1.874  -2.168  -4.535  0.00  0.00     0.077 C 
ATOM      2  C1' PXY d   1      -6.000   1.768  -5.482  0.00  0.00     0.077 C 
ATOM      3  C1  PXY d   1      -4.924   0.732  -5.223  0.00  0.00    -0.082 A 
ATOM      4  C2  PXY d   1      -3.714   0.905  -5.730  0.00  0.00     0.003 A 
ATOM      5  C3  PXY d   1      -2.738  -0.038  -5.532  0.00  0.00     0.003 A 
ATOM      6  C4  PXY d   1      -2.988  -1.143  -4.763  0.00  0.00    -0.082 A 
ATOM      7  C5  PXY d   1      -4.217  -1.321  -4.233  0.00  0.00     0.003 A 
ATOM      8  C6  PXY d   1      -5.206  -0.372  -4.480  0.00  0.00     0.003 A 
ENDROOT
TORSDOF 0
ENDMDL
