MODEL 1
REMARK minimizedAffinity 4.8733654
REMARK minimizedRMSD -1
REMARK  0 active torsions:
REMARK  status: ('A' for Active; 'I' for Inactive)
ROOT
ATOM      1  C4' PXY d   1      -2.659  -1.627  -4.531  0.00  0.00     0.077 C 
ATOM      2  C1' PXY d   1      -4.201   3.848  -3.500  0.00  0.00     0.077 C 
ATOM      3  C1  PXY d   1      -3.803   2.412  -3.782  0.00  0.00    -0.082 A 
ATOM      4  C2  PXY d   1      -3.447   1.624  -2.781  0.00  0.00     0.003 A 
ATOM      5  C3  PXY d   1      -3.053   0.333  -3.021  0.00  0.00     0.003 A 
ATOM      6  C4  PXY d   1      -3.077  -0.173  -4.293  0.00  0.00    -0.082 A 
ATOM      7  C5  PXY d   1      -3.450   0.621  -5.318  0.00  0.00     0.003 A 
ATOM      8  C6  PXY d   1      -3.806   1.942  -5.058  0.00  0.00     0.003 A 
ENDROOT
TORSDOF 0
ENDMDL
