MODEL 1
REMARK minimizedAffinity -0.0244149566
REMARK minimizedRMSD -1
REMARK  0 active torsions:
REMARK  status: ('A' for Active; 'I' for Inactive)
ROOT
ATOM      1  C4' PXY d   1      -5.285  -2.528  -3.149  0.00  0.00     0.077 C 
ATOM      2  C1' PXY d   1      -2.268   1.496  -5.999  0.00  0.00     0.077 C 
ATOM      3  C1  PXY d   1      -3.070   0.449  -5.251  0.00  0.00    -0.082 A 
ATOM      4  C2  PXY d   1      -2.440  -0.521  -4.607  0.00  0.00     0.003 A 
ATOM      5  C3  PXY d   1      -3.149  -1.494  -3.952  0.00  0.00     0.003 A 
ATOM      6  C4  PXY d   1      -4.517  -1.444  -3.910  0.00  0.00    -0.082 A 
ATOM      7  C5  PXY d   1      -5.167  -0.452  -4.556  0.00  0.00     0.003 A 
ATOM      8  C6  PXY d   1      -4.429   0.502  -5.249  0.00  0.00     0.003 A 
ENDROOT
TORSDOF 0
ENDMDL
