MODEL 1
REMARK minimizedAffinity -1.73171139
REMARK minimizedRMSD -1
REMARK  0 active torsions:
REMARK  status: ('A' for Active; 'I' for Inactive)
ROOT
ATOM      1  C4' PXY d   1      -2.504   3.371  -3.129  0.00  0.00     0.077 C 
ATOM      2  C1' PXY d   1      -4.296  -1.996  -4.314  0.00  0.00     0.077 C 
ATOM      3  C1  PXY d   1      -3.827  -0.591  -3.991  0.00  0.00    -0.082 A 
ATOM      4  C2  PXY d   1      -3.926   0.359  -4.907  0.00  0.00     0.003 A 
ATOM      5  C3  PXY d   1      -3.479   1.627  -4.642  0.00  0.00     0.003 A 
ATOM      6  C4  PXY d   1      -2.973   1.940  -3.409  0.00  0.00    -0.082 A 
ATOM      7  C5  PXY d   1      -2.879   0.979  -2.465  0.00  0.00     0.003 A 
ATOM      8  C6  PXY d   1      -3.301  -0.312  -2.768  0.00  0.00     0.003 A 
ENDROOT
TORSDOF 0
ENDMDL
