MODEL 1
REMARK minimizedAffinity 3.5598731
REMARK minimizedRMSD -1
REMARK  0 active torsions:
REMARK  status: ('A' for Active; 'I' for Inactive)
ROOT
ATOM      1  C4' PXY d   1       5.305  -4.515   6.000  0.00  0.00     0.077 C 
ATOM      2  C1' PXY d   1       3.160  -3.898   0.668  0.00  0.00     0.077 C 
ATOM      3  C1  PXY d   1       3.721  -4.047   2.068  0.00  0.00    -0.082 A 
ATOM      4  C2  PXY d   1       4.541  -5.049   2.341  0.00  0.00     0.003 A 
ATOM      5  C3  PXY d   1       5.032  -5.217   3.610  0.00  0.00     0.003 A 
ATOM      6  C4  PXY d   1       4.722  -4.320   4.597  0.00  0.00    -0.082 A 
ATOM      7  C5  PXY d   1       3.894  -3.290   4.324  0.00  0.00     0.003 A 
ATOM      8  C6  PXY d   1       3.374  -3.160   3.040  0.00  0.00     0.003 A 
ENDROOT
TORSDOF 0
ENDMDL
