MODEL 1
REMARK minimizedAffinity 2.33533621
REMARK minimizedRMSD -1
REMARK  0 active torsions:
REMARK  status: ('A' for Active; 'I' for Inactive)
ROOT
ATOM      1  C4' PXY d   1      -2.224  -1.537  -3.677  0.00  0.00     0.077 C 
ATOM      2  C1' PXY d   1      -5.998   2.233  -5.904  0.00  0.00     0.077 C 
ATOM      3  C1  PXY d   1      -5.001   1.246  -5.331  0.00  0.00    -0.082 A 
ATOM      4  C2  PXY d   1      -5.405   0.342  -4.453  0.00  0.00     0.003 A 
ATOM      5  C3  PXY d   1      -4.510  -0.537  -3.900  0.00  0.00     0.003 A 
ATOM      6  C4  PXY d   1      -3.198  -0.527  -4.289  0.00  0.00    -0.082 A 
ATOM      7  C5  PXY d   1      -2.779   0.385  -5.193  0.00  0.00     0.003 A 
ATOM      8  C6  PXY d   1      -3.695   1.296  -5.711  0.00  0.00     0.003 A 
ENDROOT
TORSDOF 0
ENDMDL
