MODEL 1
REMARK minimizedAffinity 0.638573349
REMARK minimizedRMSD -1
REMARK  0 active torsions:
REMARK  status: ('A' for Active; 'I' for Inactive)
ROOT
ATOM      1  C4' PXY d   1       1.930  -3.817   1.283  0.00  0.00     0.077 C 
ATOM      2  C1' PXY d   1       5.410   0.409  -0.572  0.00  0.00     0.077 C 
ATOM      3  C1  PXY d   1       4.508  -0.708  -0.087  0.00  0.00    -0.082 A 
ATOM      4  C2  PXY d   1       3.198  -0.605  -0.243  0.00  0.00     0.003 A 
ATOM      5  C3  PXY d   1       2.364  -1.591   0.219  0.00  0.00     0.003 A 
ATOM      6  C4  PXY d   1       2.880  -2.718   0.800  0.00  0.00    -0.082 A 
ATOM      7  C5  PXY d   1       4.216  -2.836   0.953  0.00  0.00     0.003 A 
ATOM      8  C6  PXY d   1       5.043  -1.805   0.514  0.00  0.00     0.003 A 
ENDROOT
TORSDOF 0
ENDMDL
