MODEL 1
REMARK minimizedAffinity 9.23669243
REMARK minimizedRMSD -1
REMARK  0 active torsions:
REMARK  status: ('A' for Active; 'I' for Inactive)
ROOT
ATOM      1  C4' PXY d   1      -1.558  -1.701  -4.934  0.00  0.00     0.077 C 
ATOM      2  C1' PXY d   1      -5.955   2.050  -4.883  0.00  0.00     0.077 C 
ATOM      3  C1  PXY d   1      -4.801   1.067  -4.883  0.00  0.00    -0.082 A 
ATOM      4  C2  PXY d   1      -4.056   0.933  -5.968  0.00  0.00     0.003 A 
ATOM      5  C3  PXY d   1      -3.029   0.026  -5.997  0.00  0.00     0.003 A 
ATOM      6  C4  PXY d   1      -2.727  -0.714  -4.885  0.00  0.00    -0.082 A 
ATOM      7  C5  PXY d   1      -3.476  -0.576  -3.770  0.00  0.00     0.003 A 
ATOM      8  C6  PXY d   1      -4.540   0.321  -3.776  0.00  0.00     0.003 A 
ENDROOT
TORSDOF 0
ENDMDL
