MODEL 1
REMARK minimizedAffinity -1.25387752
REMARK minimizedRMSD -1
REMARK  0 active torsions:
REMARK  status: ('A' for Active; 'I' for Inactive)
ROOT
ATOM      1  C4' PXY d   1       4.545   1.661  -0.357  0.00  0.00     0.077 C 
ATOM      2  C1' PXY d   1       2.844  -3.741   0.801  0.00  0.00     0.077 C 
ATOM      3  C1  PXY d   1       3.301  -2.326   0.504  0.00  0.00    -0.082 A 
ATOM      4  C2  PXY d   1       2.404  -1.391   0.236  0.00  0.00     0.003 A 
ATOM      5  C3  PXY d   1       2.802  -0.115  -0.066  0.00  0.00     0.003 A 
ATOM      6  C4  PXY d   1       4.129   0.222  -0.042  0.00  0.00    -0.082 A 
ATOM      7  C5  PXY d   1       5.050  -0.724   0.240  0.00  0.00     0.003 A 
ATOM      8  C6  PXY d   1       4.628  -2.024   0.504  0.00  0.00     0.003 A 
ENDROOT
TORSDOF 0
ENDMDL
