MODEL 1
REMARK minimizedAffinity 1.37477279
REMARK minimizedRMSD -1
REMARK  0 active torsions:
REMARK  status: ('A' for Active; 'I' for Inactive)
ROOT
ATOM      1  C4' PXY d   1       5.501  -5.807   1.088  0.00  0.00     0.077 C 
ATOM      2  C1' PXY d   1       4.932  -2.272   5.626  0.00  0.00     0.077 C 
ATOM      3  C1  PXY d   1       5.076  -3.189   4.428  0.00  0.00    -0.082 A 
ATOM      4  C2  PXY d   1       5.100  -4.500   4.607  0.00  0.00     0.003 A 
ATOM      5  C3  PXY d   1       5.262  -5.343   3.538  0.00  0.00     0.003 A 
ATOM      6  C4  PXY d   1       5.348  -4.842   2.267  0.00  0.00    -0.082 A 
ATOM      7  C5  PXY d   1       5.314  -3.506   2.075  0.00  0.00     0.003 A 
ATOM      8  C6  PXY d   1       5.190  -2.666   3.177  0.00  0.00     0.003 A 
ENDROOT
TORSDOF 0
ENDMDL
