MODEL 1
REMARK minimizedAffinity 2.74641514
REMARK minimizedRMSD -1
REMARK  0 active torsions:
REMARK  status: ('A' for Active; 'I' for Inactive)
ROOT
ATOM      1  C4' PXY d   1      -3.751   2.900  -3.305  0.00  0.00     0.077 C 
ATOM      2  C1' PXY d   1      -2.285  -2.190  -5.620  0.00  0.00     0.077 C 
ATOM      3  C1  PXY d   1      -2.662  -0.849  -5.022  0.00  0.00    -0.082 A 
ATOM      4  C2  PXY d   1      -3.000  -0.774  -3.745  0.00  0.00     0.003 A 
ATOM      5  C3  PXY d   1      -3.375   0.425  -3.196  0.00  0.00     0.003 A 
ATOM      6  C4  PXY d   1      -3.353   1.569  -3.949  0.00  0.00    -0.082 A 
ATOM      7  C5  PXY d   1      -3.000   1.502  -5.250  0.00  0.00     0.003 A 
ATOM      8  C6  PXY d   1      -2.662   0.268  -5.799  0.00  0.00     0.003 A 
ENDROOT
TORSDOF 0
ENDMDL
