MODEL 1
REMARK minimizedAffinity 1.31570983
REMARK minimizedRMSD -1
REMARK  0 active torsions:
REMARK  status: ('A' for Active; 'I' for Inactive)
ROOT
ATOM      1  C4' PXY d   1      -1.878  -1.916  -5.454  0.00  0.00     0.077 C 
ATOM      2  C1' PXY d   1      -6.000   2.065  -4.696  0.00  0.00     0.077 C 
ATOM      3  C1  PXY d   1      -4.928   1.013  -4.899  0.00  0.00    -0.082 A 
ATOM      4  C2  PXY d   1      -3.813   1.069  -4.189  0.00  0.00     0.003 A 
ATOM      5  C3  PXY d   1      -2.820   0.144  -4.383  0.00  0.00     0.003 A 
ATOM      6  C4  PXY d   1      -2.992  -0.880  -5.275  0.00  0.00    -0.082 A 
ATOM      7  C5  PXY d   1      -4.131  -0.950  -5.997  0.00  0.00     0.003 A 
ATOM      8  C6  PXY d   1      -5.109   0.022  -5.814  0.00  0.00     0.003 A 
ENDROOT
TORSDOF 0
ENDMDL
