MODEL 1
REMARK minimizedAffinity 1.08935952
REMARK minimizedRMSD -1
REMARK  0 active torsions:
REMARK  status: ('A' for Active; 'I' for Inactive)
ROOT
ATOM      1  C   UNL d   1       5.999   4.615   6.000  0.00  0.00     0.020 A 
ATOM      2  C1  UNL d   1       5.783   5.578   5.015  0.00  0.00     0.020 A 
ATOM      3  C2  UNL d   1       5.076   5.246   3.857  0.00  0.00     0.034 A 
ATOM      4  C3  UNL d   1       4.581   3.948   3.682  0.00  0.00     0.017 A 
ATOM      5  C4  UNL d   1       4.799   2.983   4.671  0.00  0.00     0.017 A 
ATOM      6  C5  UNL d   1       5.508   3.320   5.828  0.00  0.00     0.034 A 
ATOM      7 Cl   UNL d   1       4.220   1.361   4.526  0.00  0.00    -0.070 Cl
ATOM      8 Cl1  UNL d   1       3.715   3.609   2.226  0.00  0.00    -0.070 Cl
ENDROOT
TORSDOF 0
ENDMDL
