MODEL 1
REMARK minimizedAffinity -1.06977451
REMARK minimizedRMSD -1
REMARK  0 active torsions:
REMARK  status: ('A' for Active; 'I' for Inactive)
ROOT
ATOM      1  C   UNL d   1      -2.363   3.115  -4.878  0.00  0.00     0.020 A 
ATOM      2  C1  UNL d   1      -3.250   3.031  -5.950  0.00  0.00     0.020 A 
ATOM      3  C2  UNL d   1      -4.367   3.868  -6.000  0.00  0.00     0.034 A 
ATOM      4  C3  UNL d   1      -4.599   4.793  -4.975  0.00  0.00     0.017 A 
ATOM      5  C4  UNL d   1      -3.708   4.877  -3.900  0.00  0.00     0.017 A 
ATOM      6  C5  UNL d   1      -2.591   4.036  -3.855  0.00  0.00     0.034 A 
ATOM      7 Cl   UNL d   1      -3.928   5.993  -2.599  0.00  0.00    -0.070 Cl
ATOM      8 Cl1  UNL d   1      -6.000   5.797  -5.102  0.00  0.00    -0.070 Cl
ENDROOT
TORSDOF 0
ENDMDL
