MODEL 1
REMARK minimizedAffinity 4.17844915
REMARK minimizedRMSD -1
REMARK  0 active torsions:
REMARK  status: ('A' for Active; 'I' for Inactive)
ROOT
ATOM      1  C   UNL d   1      -5.433   5.999   3.035  0.00  0.00     0.020 A 
ATOM      2  C1  UNL d   1      -5.999   5.928   4.307  0.00  0.00     0.020 A 
ATOM      3  C2  UNL d   1      -5.797   4.795   5.099  0.00  0.00     0.034 A 
ATOM      4  C3  UNL d   1      -5.027   3.729   4.619  0.00  0.00     0.017 A 
ATOM      5  C4  UNL d   1      -4.459   3.801   3.342  0.00  0.00     0.017 A 
ATOM      6  C5  UNL d   1      -4.665   4.938   2.553  0.00  0.00     0.034 A 
ATOM      7 Cl   UNL d   1      -3.497   2.526   2.682  0.00  0.00    -0.070 Cl
ATOM      8 Cl1  UNL d   1      -4.818   2.360   5.652  0.00  0.00    -0.070 Cl
ENDROOT
TORSDOF 0
ENDMDL
