MODEL 1
REMARK minimizedAffinity 0.551273227
REMARK minimizedRMSD -1
REMARK  0 active torsions:
REMARK  status: ('A' for Active; 'I' for Inactive)
ROOT
ATOM      1  C   UNL d   1      -5.999   5.998  -4.363  0.00  0.00     0.020 A 
ATOM      2  C1  UNL d   1      -5.635   5.515  -5.619  0.00  0.00     0.020 A 
ATOM      3  C2  UNL d   1      -4.429   4.829  -5.781  0.00  0.00     0.034 A 
ATOM      4  C3  UNL d   1      -3.583   4.624  -4.684  0.00  0.00     0.017 A 
ATOM      5  C4  UNL d   1      -3.950   5.109  -3.424  0.00  0.00     0.017 A 
ATOM      6  C5  UNL d   1      -5.158   5.795  -3.267  0.00  0.00     0.034 A 
ATOM      7 Cl   UNL d   1      -2.959   4.895  -2.024  0.00  0.00    -0.070 Cl
ATOM      8 Cl1  UNL d   1      -2.108   3.768  -4.957  0.00  0.00    -0.070 Cl
ENDROOT
TORSDOF 0
ENDMDL
