MODEL 1
REMARK minimizedAffinity 14.1334496
REMARK minimizedRMSD -1
REMARK  0 active torsions:
REMARK  status: ('A' for Active; 'I' for Inactive)
ROOT
ATOM      1  C   UNL d   1       0.068  -2.521   1.053  0.00  0.00     0.020 A 
ATOM      2  C1  UNL d   1      -0.659  -2.211   2.201  0.00  0.00     0.020 A 
ATOM      3  C2  UNL d   1      -1.530  -1.119   2.203  0.00  0.00     0.034 A 
ATOM      4  C3  UNL d   1      -1.676  -0.333   1.055  0.00  0.00     0.017 A 
ATOM      5  C4  UNL d   1      -0.946  -0.645  -0.098  0.00  0.00     0.017 A 
ATOM      6  C5  UNL d   1      -0.075  -1.739  -0.095  0.00  0.00     0.034 A 
ATOM      7 Cl   UNL d   1      -1.073   0.278  -1.554  0.00  0.00    -0.070 Cl
ATOM      8 Cl1  UNL d   1      -2.771   1.002   1.128  0.00  0.00    -0.070 Cl
ENDROOT
TORSDOF 0
ENDMDL
