MODEL 1
REMARK minimizedAffinity 5.83198071
REMARK minimizedRMSD -1
REMARK  0 active torsions:
REMARK  status: ('A' for Active; 'I' for Inactive)
ROOT
ATOM      1  C   UNL d   1      -2.911  -3.368   5.341  0.00  0.00     0.020 A 
ATOM      2  C1  UNL d   1      -2.871  -4.225   4.242  0.00  0.00     0.020 A 
ATOM      3  C2  UNL d   1      -2.215  -3.832   3.074  0.00  0.00     0.034 A 
ATOM      4  C3  UNL d   1      -1.596  -2.579   3.001  0.00  0.00     0.017 A 
ATOM      5  C4  UNL d   1      -1.637  -1.719   4.105  0.00  0.00     0.017 A 
ATOM      6  C5  UNL d   1      -2.295  -2.117   5.272  0.00  0.00     0.034 A 
ATOM      7 Cl   UNL d   1      -0.897  -0.157   4.091  0.00  0.00    -0.070 Cl
ATOM      8 Cl1  UNL d   1      -0.803  -2.158   1.525  0.00  0.00    -0.070 Cl
ENDROOT
TORSDOF 0
ENDMDL
