MODEL 1
REMARK minimizedAffinity 15.2260714
REMARK minimizedRMSD -1
REMARK  0 active torsions:
REMARK  status: ('A' for Active; 'I' for Inactive)
ROOT
ATOM      1  C   UNL d   1      -1.289  -1.836  -1.074  0.00  0.00     0.020 A 
ATOM      2  C1  UNL d   1      -1.015  -0.555  -0.597  0.00  0.00     0.020 A 
ATOM      3  C2  UNL d   1      -0.793  -0.350   0.766  0.00  0.00     0.034 A 
ATOM      4  C3  UNL d   1      -0.845  -1.428   1.657  0.00  0.00     0.017 A 
ATOM      5  C4  UNL d   1      -1.119  -2.714   1.177  0.00  0.00     0.017 A 
ATOM      6  C5  UNL d   1      -1.341  -2.914  -0.189  0.00  0.00     0.034 A 
ATOM      7 Cl   UNL d   1      -1.199  -4.094   2.216  0.00  0.00    -0.070 Cl
ATOM      8 Cl1  UNL d   1      -0.560  -1.102   3.330  0.00  0.00    -0.070 Cl
ENDROOT
TORSDOF 0
ENDMDL
