MODEL 1
REMARK minimizedAffinity 8.27056026
REMARK minimizedRMSD -1
REMARK  0 active torsions:
REMARK  status: ('A' for Active; 'I' for Inactive)
ROOT
ATOM      1  C   UNL d   1       5.656   5.565   5.809  0.00  0.00     0.020 A 
ATOM      2  C1  UNL d   1       4.873   4.427   5.997  0.00  0.00     0.020 A 
ATOM      3  C2  UNL d   1       4.424   3.698   4.894  0.00  0.00     0.034 A 
ATOM      4  C3  UNL d   1       4.758   4.105   3.597  0.00  0.00     0.017 A 
ATOM      5  C4  UNL d   1       5.545   5.248   3.409  0.00  0.00     0.017 A 
ATOM      6  C5  UNL d   1       5.992   5.974   4.517  0.00  0.00     0.034 A 
ATOM      7 Cl   UNL d   1       5.998   5.813   1.840  0.00  0.00    -0.070 Cl
ATOM      8 Cl1  UNL d   1       4.169   3.156   2.280  0.00  0.00    -0.070 Cl
ENDROOT
TORSDOF 0
ENDMDL
