MODEL 1
REMARK minimizedAffinity 10.3372364
REMARK minimizedRMSD -1
REMARK  0 active torsions:
REMARK  status: ('A' for Active; 'I' for Inactive)
ROOT
ATOM      1  C   UNL d   1       4.827   3.316  -0.803  0.00  0.00     0.020 A 
ATOM      2  C1  UNL d   1       4.928   2.283  -1.733  0.00  0.00     0.020 A 
ATOM      3  C2  UNL d   1       3.776   1.768  -2.331  0.00  0.00     0.034 A 
ATOM      4  C3  UNL d   1       2.519   2.286  -2.000  0.00  0.00     0.017 A 
ATOM      5  C4  UNL d   1       2.419   3.323  -1.066  0.00  0.00     0.017 A 
ATOM      6  C5  UNL d   1       3.576   3.835  -0.470  0.00  0.00     0.034 A 
ATOM      7 Cl   UNL d   1       0.903   4.014  -0.606  0.00  0.00    -0.070 Cl
ATOM      8 Cl1  UNL d   1       1.137   1.601  -2.779  0.00  0.00    -0.070 Cl
ENDROOT
TORSDOF 0
ENDMDL
