MODEL 1
REMARK minimizedAffinity 1.77580285
REMARK minimizedRMSD -1
REMARK  0 active torsions:
REMARK  status: ('A' for Active; 'I' for Inactive)
ROOT
ATOM      1  C   UNL d   1      -5.999   4.184   5.344  0.00  0.00     0.020 A 
ATOM      2  C1  UNL d   1      -4.874   4.815   5.874  0.00  0.00     0.020 A 
ATOM      3  C2  UNL d   1      -3.659   4.766   5.187  0.00  0.00     0.034 A 
ATOM      4  C3  UNL d   1      -3.566   4.085   3.968  0.00  0.00     0.017 A 
ATOM      5  C4  UNL d   1      -4.696   3.453   3.437  0.00  0.00     0.017 A 
ATOM      6  C5  UNL d   1      -5.910   3.505   4.129  0.00  0.00     0.034 A 
ATOM      7 Cl   UNL d   1      -4.659   2.593   1.938  0.00  0.00    -0.070 Cl
ATOM      8 Cl1  UNL d   1      -2.032   4.066   3.173  0.00  0.00    -0.070 Cl
ENDROOT
TORSDOF 0
ENDMDL
