MODEL 1
REMARK minimizedAffinity 3.91602707
REMARK minimizedRMSD -1
REMARK  0 active torsions:
REMARK  status: ('A' for Active; 'I' for Inactive)
ROOT
ATOM      1  C   UNL d   1      -1.869   3.762   5.642  0.00  0.00     0.020 A 
ATOM      2  C1  UNL d   1      -1.967   2.371   5.640  0.00  0.00     0.020 A 
ATOM      3  C2  UNL d   1      -3.218   1.759   5.750  0.00  0.00     0.034 A 
ATOM      4  C3  UNL d   1      -4.375   2.538   5.861  0.00  0.00     0.017 A 
ATOM      5  C4  UNL d   1      -4.276   3.934   5.862  0.00  0.00     0.017 A 
ATOM      6  C5  UNL d   1      -3.021   4.541   5.753  0.00  0.00     0.034 A 
ATOM      7 Cl   UNL d   1      -5.659   4.961   5.996  0.00  0.00    -0.070 Cl
ATOM      8 Cl1  UNL d   1      -5.888   1.714   5.992  0.00  0.00    -0.070 Cl
ENDROOT
TORSDOF 0
ENDMDL
