MODEL 1
REMARK minimizedAffinity 11.3407373
REMARK minimizedRMSD -1
REMARK  0 active torsions:
REMARK  status: ('A' for Active; 'I' for Inactive)
ROOT
ATOM      1  C   UNL d   1       5.272   3.040  -2.512  0.00  0.00     0.020 A 
ATOM      2  C1  UNL d   1       6.000   2.404  -1.507  0.00  0.00     0.020 A 
ATOM      3  C2  UNL d   1       5.572   2.481  -0.180  0.00  0.00     0.034 A 
ATOM      4  C3  UNL d   1       4.414   3.196   0.146  0.00  0.00     0.017 A 
ATOM      5  C4  UNL d   1       3.684   3.834  -0.864  0.00  0.00     0.017 A 
ATOM      6  C5  UNL d   1       4.117   3.754  -2.191  0.00  0.00     0.034 A 
ATOM      7 Cl   UNL d   1       2.245   4.735  -0.540  0.00  0.00    -0.070 Cl
ATOM      8 Cl1  UNL d   1       3.943   3.249   1.807  0.00  0.00    -0.070 Cl
ENDROOT
TORSDOF 0
ENDMDL
