MODEL 1
REMARK minimizedAffinity 20.2225208
REMARK minimizedRMSD -1
REMARK  0 active torsions:
REMARK  status: ('A' for Active; 'I' for Inactive)
ROOT
ATOM      1  C   UNL d   1      -2.607  -1.192   1.484  0.00  0.00     0.020 A 
ATOM      2  C1  UNL d   1      -3.015  -0.090   0.734  0.00  0.00     0.020 A 
ATOM      3  C2  UNL d   1      -2.829   1.201   1.232  0.00  0.00     0.034 A 
ATOM      4  C3  UNL d   1      -2.232   1.393   2.484  0.00  0.00     0.017 A 
ATOM      5  C4  UNL d   1      -1.823   0.286   3.236  0.00  0.00     0.017 A 
ATOM      6  C5  UNL d   1      -2.012  -1.004   2.732  0.00  0.00     0.034 A 
ATOM      7 Cl   UNL d   1      -1.080   0.444   4.788  0.00  0.00    -0.070 Cl
ATOM      8 Cl1  UNL d   1      -2.032   3.018   3.038  0.00  0.00    -0.070 Cl
ENDROOT
TORSDOF 0
ENDMDL
