MODEL 1
REMARK minimizedAffinity 6.5054245
REMARK minimizedRMSD -1
REMARK  0 active torsions:
REMARK  status: ('A' for Active; 'I' for Inactive)
ROOT
ATOM      1  C   UNL d   1      -1.077  -0.752  -2.057  0.00  0.00     0.020 A 
ATOM      2  C1  UNL d   1      -1.888  -0.194  -3.044  0.00  0.00     0.020 A 
ATOM      3  C2  UNL d   1      -1.401   0.843  -3.844  0.00  0.00     0.034 A 
ATOM      4  C3  UNL d   1      -0.099   1.323  -3.658  0.00  0.00     0.017 A 
ATOM      5  C4  UNL d   1       0.714   0.762  -2.667  0.00  0.00     0.017 A 
ATOM      6  C5  UNL d   1       0.221  -0.275  -1.869  0.00  0.00     0.034 A 
ATOM      7 Cl   UNL d   1       2.330   1.302  -2.378  0.00  0.00    -0.070 Cl
ATOM      8 Cl1  UNL d   1       0.437   2.607  -4.683  0.00  0.00    -0.070 Cl
ENDROOT
TORSDOF 0
ENDMDL
