MODEL 1
REMARK minimizedAffinity 9.51252842
REMARK minimizedRMSD -1
REMARK  0 active torsions:
REMARK  status: ('A' for Active; 'I' for Inactive)
ROOT
ATOM      1  C   UNL d   1      -1.467  -3.116   1.343  0.00  0.00     0.020 A 
ATOM      2  C1  UNL d   1      -2.394  -2.569   2.230  0.00  0.00     0.020 A 
ATOM      3  C2  UNL d   1      -2.840  -1.257   2.052  0.00  0.00     0.034 A 
ATOM      4  C3  UNL d   1      -2.360  -0.489   0.985  0.00  0.00     0.017 A 
ATOM      5  C4  UNL d   1      -1.430  -1.039   0.095  0.00  0.00     0.017 A 
ATOM      6  C5  UNL d   1      -0.987  -2.353   0.278  0.00  0.00     0.034 A 
ATOM      7 Cl   UNL d   1      -0.793  -0.153  -1.245  0.00  0.00    -0.070 Cl
ATOM      8 Cl1  UNL d   1      -2.956   1.125   0.825  0.00  0.00    -0.070 Cl
ENDROOT
TORSDOF 0
ENDMDL
