MODEL 1
REMARK minimizedAffinity 9.98043537
REMARK minimizedRMSD -1
REMARK  0 active torsions:
REMARK  status: ('A' for Active; 'I' for Inactive)
ROOT
ATOM      1  C   UNL d   1      -5.038   5.187   1.698  0.00  0.00     0.020 A 
ATOM      2  C1  UNL d   1      -5.732   6.000   2.592  0.00  0.00     0.020 A 
ATOM      3  C2  UNL d   1      -5.999   5.546   3.886  0.00  0.00     0.034 A 
ATOM      4  C3  UNL d   1      -5.572   4.275   4.288  0.00  0.00     0.017 A 
ATOM      5  C4  UNL d   1      -4.876   3.459   3.389  0.00  0.00     0.017 A 
ATOM      6  C5  UNL d   1      -4.610   3.919   2.095  0.00  0.00     0.034 A 
ATOM      7 Cl   UNL d   1      -4.317   1.880   3.813  0.00  0.00    -0.070 Cl
ATOM      8 Cl1  UNL d   1      -5.937   3.779   5.902  0.00  0.00    -0.070 Cl
ENDROOT
TORSDOF 0
ENDMDL
