MODEL 1
REMARK minimizedAffinity 0.248535156
REMARK minimizedRMSD -1
REMARK  0 active torsions:
REMARK  status: ('A' for Active; 'I' for Inactive)
ROOT
ATOM      1  C   UNL d   1       0.218   1.089   0.881  0.00  0.00     0.020 A 
ATOM      2  C1  UNL d   1       0.151  -0.017   1.726  0.00  0.00     0.020 A 
ATOM      3  C2  UNL d   1      -0.254  -1.256   1.225  0.00  0.00     0.034 A 
ATOM      4  C3  UNL d   1      -0.593  -1.391  -0.126  0.00  0.00     0.017 A 
ATOM      5  C4  UNL d   1      -0.526  -0.280  -0.974  0.00  0.00     0.017 A 
ATOM      6  C5  UNL d   1      -0.120   0.958  -0.467  0.00  0.00     0.034 A 
ATOM      7 Cl   UNL d   1      -0.930  -0.369  -2.653  0.00  0.00    -0.070 Cl
ATOM      8 Cl1  UNL d   1      -1.085  -2.953  -0.678  0.00  0.00    -0.070 Cl
ENDROOT
TORSDOF 0
ENDMDL
