MODEL 1
REMARK minimizedAffinity 0.6567716
REMARK minimizedRMSD -1
REMARK  3 active torsions:
REMARK  status: ('A' for Active; 'I' for Inactive)
REMARK    1  A    between atoms: C3'_2  and  C2'_3 
REMARK    2  A    between atoms: C2'_3  and  C1'_4 
REMARK    3  A    between atoms: C1'_4  and  C1_5 
ROOT
ATOM      1  C1  N4B d   1      -0.405  -0.681   0.097  0.00  0.00    -0.075 A 
ATOM      2  C2  N4B d   1      -1.440  -1.523  -0.367  0.00  0.00     0.002 A 
ATOM      3  C3  N4B d   1      -2.263  -1.104  -1.382  0.00  0.00     0.002 A 
ATOM      4  C4  N4B d   1      -2.084   0.156  -1.934  0.00  0.00    -0.004 A 
ATOM      5  C5  N4B d   1      -1.067   0.953  -1.498  0.00  0.00     0.002 A 
ATOM      6  C6  N4B d   1      -0.229   0.543  -0.480  0.00  0.00     0.002 A 
ENDROOT
BRANCH   1   7
ATOM      7  C1' N4B d   1       0.466  -1.062   1.263  0.00  0.00     0.057 C 
BRANCH   7   8
ATOM      8  C2' N4B d   1      -0.267  -0.739   2.562  0.00  0.00     0.009 C 
BRANCH   8   9
ATOM      9  C3' N4B d   1      -0.085   0.713   2.971  0.00  0.00     0.004 C 
ATOM     10  C4' N4B d   1       1.339   1.049   3.302  0.00  0.00     0.003 C 
ENDBRANCH   8   9
ENDBRANCH   7   8
ENDBRANCH   1   7
TORSDOF 3
ENDMDL
