MODEL 1
REMARK minimizedAffinity -1.5343641
REMARK minimizedRMSD -1
REMARK  3 active torsions:
REMARK  status: ('A' for Active; 'I' for Inactive)
REMARK    1  A    between atoms: C3'_2  and  C2'_3 
REMARK    2  A    between atoms: C2'_3  and  C1'_4 
REMARK    3  A    between atoms: C1'_4  and  C1_5 
ROOT
ATOM      1  C1  N4B d   1       0.370   0.156  -0.263  0.00  0.00    -0.075 A 
ATOM      2  C2  N4B d   1      -0.259  -1.027   0.184  0.00  0.00     0.002 A 
ATOM      3  C3  N4B d   1      -1.456  -1.417  -0.365  0.00  0.00     0.002 A 
ATOM      4  C4  N4B d   1      -2.048  -0.635  -1.346  0.00  0.00    -0.004 A 
ATOM      5  C5  N4B d   1      -1.421   0.492  -1.790  0.00  0.00     0.002 A 
ATOM      6  C6  N4B d   1      -0.216   0.894  -1.249  0.00  0.00     0.002 A 
ENDROOT
BRANCH   1   7
ATOM      7  C1' N4B d   1       1.636   0.668   0.368  0.00  0.00     0.057 C 
BRANCH   7   8
ATOM      8  C2' N4B d   1       1.279   1.646   1.484  0.00  0.00     0.009 C 
BRANCH   8   9
ATOM      9  C3' N4B d   1       2.436   2.571   1.821  0.00  0.00     0.004 C 
ATOM     10  C4' N4B d   1       2.396   3.855   1.048  0.00  0.00     0.003 C 
ENDBRANCH   8   9
ENDBRANCH   7   8
ENDBRANCH   1   7
TORSDOF 3
ENDMDL
