MODEL 1
REMARK minimizedAffinity 3.0345552
REMARK minimizedRMSD -1
REMARK  3 active torsions:
REMARK  status: ('A' for Active; 'I' for Inactive)
REMARK    1  A    between atoms: C3'_2  and  C2'_3 
REMARK    2  A    between atoms: C2'_3  and  C1'_4 
REMARK    3  A    between atoms: C1'_4  and  C1_5 
ROOT
ATOM      1  C1  N4B d   1       1.699   1.656   1.129  0.00  0.00    -0.075 A 
ATOM      2  C2  N4B d   1       2.216   2.799   1.777  0.00  0.00     0.002 A 
ATOM      3  C3  N4B d   1       3.104   3.616   1.121  0.00  0.00     0.002 A 
ATOM      4  C4  N4B d   1       3.502   3.302  -0.169  0.00  0.00    -0.004 A 
ATOM      5  C5  N4B d   1       2.978   2.209  -0.797  0.00  0.00     0.002 A 
ATOM      6  C6  N4B d   1       2.082   1.381  -0.152  0.00  0.00     0.002 A 
ENDROOT
BRANCH   1   7
ATOM      7  C1' N4B d   1       0.792   0.685   1.835  0.00  0.00     0.057 C 
BRANCH   7   8
ATOM      8  C2' N4B d   1       0.887  -0.676   1.154  0.00  0.00     0.009 C 
BRANCH   8   9
ATOM      9  C3' N4B d   1      -0.189  -1.632   1.639  0.00  0.00     0.004 C 
ATOM     10  C4' N4B d   1       0.297  -2.558   2.714  0.00  0.00     0.003 C 
ENDBRANCH   8   9
ENDBRANCH   7   8
ENDBRANCH   1   7
TORSDOF 3
ENDMDL
