MODEL 1
REMARK minimizedAffinity 5.39194107
REMARK minimizedRMSD -1
REMARK  3 active torsions:
REMARK  status: ('A' for Active; 'I' for Inactive)
REMARK    1  A    between atoms: C3'_2  and  C2'_3 
REMARK    2  A    between atoms: C2'_3  and  C1'_4 
REMARK    3  A    between atoms: C1'_4  and  C1_5 
ROOT
ATOM      1  C1  N4B d   1      -0.877  -1.575   1.118  0.00  0.00    -0.075 A 
ATOM      2  C2  N4B d   1      -2.016  -1.224   1.877  0.00  0.00     0.002 A 
ATOM      3  C3  N4B d   1      -3.196  -0.922   1.244  0.00  0.00     0.002 A 
ATOM      4  C4  N4B d   1      -3.257  -0.945  -0.142  0.00  0.00    -0.004 A 
ATOM      5  C5  N4B d   1      -2.160  -1.309  -0.866  0.00  0.00     0.002 A 
ATOM      6  C6  N4B d   1      -0.968  -1.620  -0.243  0.00  0.00     0.002 A 
ENDROOT
BRANCH   1   7
ATOM      7  C1' N4B d   1       0.458  -1.830   1.762  0.00  0.00     0.057 C 
BRANCH   7   8
ATOM      8  C2' N4B d   1       1.439  -0.746   1.327  0.00  0.00     0.009 C 
BRANCH   8   9
ATOM      9  C3' N4B d   1       1.331   0.498   2.192  0.00  0.00     0.004 C 
ATOM     10  C4' N4B d   1       2.250   1.597   1.747  0.00  0.00     0.003 C 
ENDBRANCH   8   9
ENDBRANCH   7   8
ENDBRANCH   1   7
TORSDOF 3
ENDMDL
