MODEL 1
REMARK minimizedAffinity 1.31131053
REMARK minimizedRMSD -1
REMARK  3 active torsions:
REMARK  status: ('A' for Active; 'I' for Inactive)
REMARK    1  A    between atoms: C3'_2  and  C2'_3 
REMARK    2  A    between atoms: C2'_3  and  C1'_4 
REMARK    3  A    between atoms: C1'_4  and  C1_5 
ROOT
ATOM      1  C1  N4B d   1       0.852   0.642   2.526  0.00  0.00    -0.075 A 
ATOM      2  C2  N4B d   1      -0.480   0.226   2.310  0.00  0.00     0.002 A 
ATOM      3  C3  N4B d   1      -0.746  -1.079   1.973  0.00  0.00     0.002 A 
ATOM      4  C4  N4B d   1       0.301  -1.977   1.830  0.00  0.00    -0.004 A 
ATOM      5  C5  N4B d   1       1.583  -1.573   2.065  0.00  0.00     0.002 A 
ATOM      6  C6  N4B d   1       1.864  -0.266   2.408  0.00  0.00     0.002 A 
ENDROOT
BRANCH   1   7
ATOM      7  C1' N4B d   1       1.199   2.078   2.812  0.00  0.00     0.057 C 
BRANCH   7   8
ATOM      8  C2' N4B d   1       2.696   2.282   2.600  0.00  0.00     0.009 C 
BRANCH   8   9
ATOM      9  C3' N4B d   1       2.984   3.455   1.678  0.00  0.00     0.004 C 
ATOM     10  C4' N4B d   1       3.713   3.050   0.432  0.00  0.00     0.003 C 
ENDBRANCH   8   9
ENDBRANCH   7   8
ENDBRANCH   1   7
TORSDOF 3
ENDMDL
