MODEL 1
REMARK minimizedAffinity 3.05409575
REMARK minimizedRMSD -1
REMARK  3 active torsions:
REMARK  status: ('A' for Active; 'I' for Inactive)
REMARK    1  A    between atoms: C3'_2  and  C2'_3 
REMARK    2  A    between atoms: C2'_3  and  C1'_4 
REMARK    3  A    between atoms: C1'_4  and  C1_5 
ROOT
ATOM      1  C1  N4B d   1       3.837   2.722   0.573  0.00  0.00    -0.075 A 
ATOM      2  C2  N4B d   1       4.925   2.255   1.343  0.00  0.00     0.002 A 
ATOM      3  C3  N4B d   1       6.000   1.664   0.725  0.00  0.00     0.002 A 
ATOM      4  C4  N4B d   1       6.000   1.512  -0.654  0.00  0.00    -0.004 A 
ATOM      5  C5  N4B d   1       4.956   1.989  -1.392  0.00  0.00     0.002 A 
ATOM      6  C6  N4B d   1       3.872   2.589  -0.785  0.00  0.00     0.002 A 
ENDROOT
BRANCH   1   7
ATOM      7  C1' N4B d   1       2.603   3.298   1.211  0.00  0.00     0.057 C 
BRANCH   7   8
ATOM      8  C2' N4B d   1       1.486   2.260   1.168  0.00  0.00     0.009 C 
BRANCH   8   9
ATOM      9  C3' N4B d   1       1.003   1.886   2.560  0.00  0.00     0.004 C 
ATOM     10  C4' N4B d   1      -0.492   1.886   2.675  0.00  0.00     0.003 C 
ENDBRANCH   8   9
ENDBRANCH   7   8
ENDBRANCH   1   7
TORSDOF 3
ENDMDL
