MODEL 1
REMARK minimizedAffinity -1.68644607
REMARK minimizedRMSD -1
REMARK  3 active torsions:
REMARK  status: ('A' for Active; 'I' for Inactive)
REMARK    1  A    between atoms: C3'_2  and  C2'_3 
REMARK    2  A    between atoms: C2'_3  and  C1'_4 
REMARK    3  A    between atoms: C1'_4  and  C1_5 
ROOT
ATOM      1  C1  N4B d   1       4.862   3.378  -2.284  0.00  0.00    -0.075 A 
ATOM      2  C2  N4B d   1       5.081   2.930  -0.962  0.00  0.00     0.002 A 
ATOM      3  C3  N4B d   1       4.021   2.785  -0.102  0.00  0.00     0.002 A 
ATOM      4  C4  N4B d   1       2.740   3.100  -0.532  0.00  0.00    -0.004 A 
ATOM      5  C5  N4B d   1       2.534   3.508  -1.817  0.00  0.00     0.002 A 
ATOM      6  C6  N4B d   1       3.590   3.654  -2.694  0.00  0.00     0.002 A 
ENDROOT
BRANCH   1   7
ATOM      7  C1' N4B d   1       5.999   3.633  -3.235  0.00  0.00     0.057 C 
BRANCH   7   8
ATOM      8  C2' N4B d   1       5.999   5.106  -3.632  0.00  0.00     0.009 C 
BRANCH   8   9
ATOM      9  C3' N4B d   1       5.993   5.288  -5.140  0.00  0.00     0.004 C 
ATOM     10  C4' N4B d   1       5.997   3.985  -5.882  0.00  0.00     0.003 C 
ENDBRANCH   8   9
ENDBRANCH   7   8
ENDBRANCH   1   7
TORSDOF 3
ENDMDL
