MODEL 1
REMARK minimizedAffinity -3.71031046
REMARK minimizedRMSD -1
REMARK  0 active torsions:
REMARK  status: ('A' for Active; 'I' for Inactive)
ROOT
ATOM      1  C1  DEN d   1       2.009  -1.926  -1.386  0.00  0.00     0.130 A 
ATOM      2  C2  DEN d   1       3.165  -1.040  -1.486  0.00  0.00    -0.031 A 
ATOM      3  C3  DEN d   1       2.800   0.257  -0.883  0.00  0.00     0.027 A 
ATOM      4  C4  DEN d   1       0.569   0.974   0.195  0.00  0.00     0.027 A 
ATOM      5  C5  DEN d   1      -0.711   0.569   0.502  0.00  0.00    -0.003 A 
ATOM      6  C6  DEN d   1      -1.181  -0.675   0.174  0.00  0.00     0.001 A 
ATOM      7  C7  DEN d   1      -0.351  -1.574  -0.442  0.00  0.00     0.017 A 
ATOM      8  C8  DEN d   1       0.939  -1.170  -0.761  0.00  0.00    -0.094 A 
ATOM      9  C9  DEN d   1       1.400   0.088  -0.410  0.00  0.00    -0.072 A 
ENDROOT
TORSDOF 0
ENDMDL
