MODEL 1
REMARK minimizedAffinity -5.27987766
REMARK minimizedRMSD -1
REMARK  0 active torsions:
REMARK  status: ('A' for Active; 'I' for Inactive)
ROOT
ATOM      1  C1  DEN d   1      -0.502   0.424   0.974  0.00  0.00     0.130 A 
ATOM      2  C2  DEN d   1      -0.778  -0.167  -0.333  0.00  0.00    -0.031 A 
ATOM      3  C3  DEN d   1      -2.113  -0.796  -0.276  0.00  0.00     0.027 A 
ATOM      4  C4  DEN d   1      -3.772  -0.908   1.695  0.00  0.00     0.027 A 
ATOM      5  C5  DEN d   1      -3.976  -0.559   3.012  0.00  0.00    -0.003 A 
ATOM      6  C6  DEN d   1      -3.030   0.107   3.746  0.00  0.00     0.001 A 
ATOM      7  C7  DEN d   1      -1.854   0.485   3.154  0.00  0.00     0.017 A 
ATOM      8  C8  DEN d   1      -1.638   0.130   1.829  0.00  0.00    -0.094 A 
ATOM      9  C9  DEN d   1      -2.611  -0.532   1.100  0.00  0.00    -0.072 A 
ENDROOT
TORSDOF 0
ENDMDL
