MODEL 1
REMARK minimizedAffinity -5.23173809
REMARK minimizedRMSD -1
REMARK  0 active torsions:
REMARK  status: ('A' for Active; 'I' for Inactive)
ROOT
ATOM      1  C1  DEN d   1       1.919   0.740  -1.662  0.00  0.00     0.130 A 
ATOM      2  C2  DEN d   1       1.189   1.697  -0.835  0.00  0.00    -0.031 A 
ATOM      3  C3  DEN d   1       0.348   0.936   0.111  0.00  0.00     0.027 A 
ATOM      4  C4  DEN d   1       0.111  -1.619   0.376  0.00  0.00     0.027 A 
ATOM      5  C5  DEN d   1       0.522  -2.841  -0.108  0.00  0.00    -0.003 A 
ATOM      6  C6  DEN d   1       1.394  -2.954  -1.158  0.00  0.00     0.001 A 
ATOM      7  C7  DEN d   1       1.919  -1.825  -1.729  0.00  0.00     0.017 A 
ATOM      8  C8  DEN d   1       1.504  -0.589  -1.251  0.00  0.00    -0.094 A 
ATOM      9  C9  DEN d   1       0.631  -0.496  -0.180  0.00  0.00    -0.072 A 
ENDROOT
TORSDOF 0
ENDMDL
