MODEL 1
REMARK minimizedAffinity -2.91481757
REMARK minimizedRMSD -1
REMARK  0 active torsions:
REMARK  status: ('A' for Active; 'I' for Inactive)
ROOT
ATOM      1  C1  DEN d   1       0.951   1.993  -1.052  0.00  0.00     0.130 A 
ATOM      2  C2  DEN d   1      -0.460   2.172  -0.724  0.00  0.00    -0.031 A 
ATOM      3  C3  DEN d   1      -1.033   0.844  -0.429  0.00  0.00     0.027 A 
ATOM      4  C4  DEN d   1       0.125  -1.461  -0.443  0.00  0.00     0.027 A 
ATOM      5  C5  DEN d   1       1.313  -2.119  -0.672  0.00  0.00    -0.003 A 
ATOM      6  C6  DEN d   1       2.446  -1.462  -1.073  0.00  0.00     0.001 A 
ATOM      7  C7  DEN d   1       2.426  -0.100  -1.214  0.00  0.00     0.017 A 
ATOM      8  C8  DEN d   1       1.230   0.570  -0.993  0.00  0.00    -0.094 A 
ATOM      9  C9  DEN d   1       0.099  -0.111  -0.576  0.00  0.00    -0.072 A 
ENDROOT
TORSDOF 0
ENDMDL
