MODEL 1
REMARK minimizedAffinity -4.53421593
REMARK minimizedRMSD -1
REMARK  0 active torsions:
REMARK  status: ('A' for Active; 'I' for Inactive)
ROOT
ATOM      1  C1  DEN d   1      -1.343  -0.274   1.072  0.00  0.00     0.130 A 
ATOM      2  C2  DEN d   1      -1.018   1.021   1.663  0.00  0.00    -0.031 A 
ATOM      3  C3  DEN d   1       0.326   1.413   1.193  0.00  0.00     0.027 A 
ATOM      4  C4  DEN d   1       1.925   0.149  -0.387  0.00  0.00     0.027 A 
ATOM      5  C5  DEN d   1       2.093  -0.997  -1.133  0.00  0.00    -0.003 A 
ATOM      6  C6  DEN d   1       1.150  -1.989  -1.169  0.00  0.00     0.001 A 
ATOM      7  C7  DEN d   1      -0.024  -1.835  -0.481  0.00  0.00     0.017 A 
ATOM      8  C8  DEN d   1      -0.198  -0.686   0.279  0.00  0.00    -0.094 A 
ATOM      9  C9  DEN d   1       0.762   0.312   0.293  0.00  0.00    -0.072 A 
ENDROOT
TORSDOF 0
ENDMDL
