MODEL 1
REMARK minimizedAffinity 0.727947593
REMARK minimizedRMSD -1
REMARK  0 active torsions:
REMARK  status: ('A' for Active; 'I' for Inactive)
ROOT
ATOM      1  C1  DEN d   1       0.994  -1.048   1.862  0.00  0.00     0.130 A 
ATOM      2  C2  DEN d   1       0.060  -0.108   2.476  0.00  0.00    -0.031 A 
ATOM      3  C3  DEN d   1      -0.437   0.797   1.420  0.00  0.00     0.027 A 
ATOM      4  C4  DEN d   1       0.143   0.831  -1.093  0.00  0.00     0.027 A 
ATOM      5  C5  DEN d   1       0.898   0.234  -2.079  0.00  0.00    -0.003 A 
ATOM      6  C6  DEN d   1       1.755  -0.801  -1.817  0.00  0.00     0.001 A 
ATOM      7  C7  DEN d   1       1.846  -1.301  -0.545  0.00  0.00     0.017 A 
ATOM      8  C8  DEN d   1       1.095  -0.700   0.456  0.00  0.00    -0.094 A 
ATOM      9  C9  DEN d   1       0.224   0.338   0.168  0.00  0.00    -0.072 A 
ENDROOT
TORSDOF 0
ENDMDL
