MODEL 1
REMARK minimizedAffinity -4.95160723
REMARK minimizedRMSD -1
REMARK  0 active torsions:
REMARK  status: ('A' for Active; 'I' for Inactive)
ROOT
ATOM      1  C1  DEN d   1      -0.909  -0.677  -0.173  0.00  0.00     0.130 A 
ATOM      2  C2  DEN d   1      -0.309  -2.004  -0.071  0.00  0.00    -0.031 A 
ATOM      3  C3  DEN d   1       1.125  -1.884  -0.400  0.00  0.00     0.027 A 
ATOM      4  C4  DEN d   1       2.470   0.220  -1.049  0.00  0.00     0.027 A 
ATOM      5  C5  DEN d   1       2.392   1.575  -1.279  0.00  0.00    -0.003 A 
ATOM      6  C6  DEN d   1       1.211   2.264  -1.191  0.00  0.00     0.001 A 
ATOM      7  C7  DEN d   1       0.068   1.606  -0.820  0.00  0.00     0.017 A 
ATOM      8  C8  DEN d   1       0.138   0.238  -0.593  0.00  0.00    -0.094 A 
ATOM      9  C9  DEN d   1       1.343  -0.438  -0.676  0.00  0.00    -0.072 A 
ENDROOT
TORSDOF 0
ENDMDL
