MODEL 1
REMARK minimizedAffinity -3.57849765
REMARK minimizedRMSD -1
REMARK  0 active torsions:
REMARK  status: ('A' for Active; 'I' for Inactive)
ROOT
ATOM      1  C1  DEN d   1       0.302   1.199  -1.990  0.00  0.00     0.130 A 
ATOM      2  C2  DEN d   1      -0.885   1.424  -1.169  0.00  0.00    -0.031 A 
ATOM      3  C3  DEN d   1      -0.993   0.309  -0.207  0.00  0.00     0.027 A 
ATOM      4  C4  DEN d   1       0.555  -1.732   0.092  0.00  0.00     0.027 A 
ATOM      5  C5  DEN d   1       1.684  -2.364  -0.382  0.00  0.00    -0.003 A 
ATOM      6  C6  DEN d   1       2.406  -1.874  -1.437  0.00  0.00     0.001 A 
ATOM      7  C7  DEN d   1       2.033  -0.694  -2.026  0.00  0.00     0.017 A 
ATOM      8  C8  DEN d   1       0.891  -0.056  -1.559  0.00  0.00    -0.094 A 
ATOM      9  C9  DEN d   1       0.182  -0.561  -0.483  0.00  0.00    -0.072 A 
ENDROOT
TORSDOF 0
ENDMDL
