MODEL 1
REMARK minimizedAffinity -4.7302165
REMARK minimizedRMSD -1
REMARK  0 active torsions:
REMARK  status: ('A' for Active; 'I' for Inactive)
ROOT
ATOM      1  C1  DEN d   1      -0.407   1.501  -0.353  0.00  0.00     0.130 A 
ATOM      2  C2  DEN d   1      -1.421   0.747   0.378  0.00  0.00    -0.031 A 
ATOM      3  C3  DEN d   1      -0.946  -0.645   0.512  0.00  0.00     0.027 A 
ATOM      4  C4  DEN d   1       1.252  -1.698  -0.332  0.00  0.00     0.027 A 
ATOM      5  C5  DEN d   1       2.423  -1.455  -1.017  0.00  0.00    -0.003 A 
ATOM      6  C6  DEN d   1       2.714  -0.229  -1.553  0.00  0.00     0.001 A 
ATOM      7  C7  DEN d   1       1.844   0.814  -1.375  0.00  0.00     0.017 A 
ATOM      8  C8  DEN d   1       0.659   0.575  -0.692  0.00  0.00    -0.094 A 
ATOM      9  C9  DEN d   1       0.388  -0.668  -0.147  0.00  0.00    -0.072 A 
ENDROOT
TORSDOF 0
ENDMDL
