MODEL 1
REMARK minimizedAffinity -5.1801753
REMARK minimizedRMSD -1
REMARK  0 active torsions:
REMARK  status: ('A' for Active; 'I' for Inactive)
ROOT
ATOM      1  C1  DEN d   1       1.355  -3.125  -0.767  0.00  0.00     0.130 A 
ATOM      2  C2  DEN d   1      -0.040  -3.530  -0.615  0.00  0.00    -0.031 A 
ATOM      3  C3  DEN d   1      -0.859  -2.308  -0.489  0.00  0.00     0.027 A 
ATOM      4  C4  DEN d   1      -0.109   0.159  -0.519  0.00  0.00     0.027 A 
ATOM      5  C5  DEN d   1       0.978   1.001  -0.613  0.00  0.00    -0.003 A 
ATOM      6  C6  DEN d   1       2.258   0.530  -0.730  0.00  0.00     0.001 A 
ATOM      7  C7  DEN d   1       2.482  -0.820  -0.801  0.00  0.00     0.017 A 
ATOM      8  C8  DEN d   1       1.392  -1.675  -0.700  0.00  0.00    -0.094 A 
ATOM      9  C9  DEN d   1       0.104  -1.179  -0.595  0.00  0.00    -0.072 A 
ENDROOT
TORSDOF 0
ENDMDL
