MODEL 1
REMARK minimizedAffinity -5.71098089
REMARK minimizedRMSD -1
REMARK  0 active torsions:
REMARK  status: ('A' for Active; 'I' for Inactive)
ROOT
ATOM      1  C1  DEN d   1       0.696  -2.353  -0.286  0.00  0.00     0.130 A 
ATOM      2  C2  DEN d   1       2.054  -2.268  -0.816  0.00  0.00    -0.031 A 
ATOM      3  C3  DEN d   1       2.270  -0.889  -1.299  0.00  0.00     0.027 A 
ATOM      4  C4  DEN d   1       0.644   1.113  -1.273  0.00  0.00     0.027 A 
ATOM      5  C5  DEN d   1      -0.627   1.522  -0.933  0.00  0.00    -0.003 A 
ATOM      6  C6  DEN d   1      -1.548   0.668  -0.389  0.00  0.00     0.001 A 
ATOM      7  C7  DEN d   1      -1.199  -0.630  -0.127  0.00  0.00     0.017 A 
ATOM      8  C8  DEN d   1       0.078  -1.053  -0.474  0.00  0.00    -0.094 A 
ATOM      9  C9  DEN d   1       0.999  -0.171  -1.012  0.00  0.00    -0.072 A 
ENDROOT
TORSDOF 0
ENDMDL
