MODEL 1
REMARK minimizedAffinity -5.68786669
REMARK minimizedRMSD -1
REMARK  0 active torsions:
REMARK  status: ('A' for Active; 'I' for Inactive)
ROOT
ATOM      1  C1  DEN d   1      -1.376   0.443   0.018  0.00  0.00     0.130 A 
ATOM      2  C2  DEN d   1      -2.340  -0.641  -0.148  0.00  0.00    -0.031 A 
ATOM      3  C3  DEN d   1      -1.621  -1.811  -0.693  0.00  0.00     0.027 A 
ATOM      4  C4  DEN d   1       0.877  -2.049  -1.287  0.00  0.00     0.027 A 
ATOM      5  C5  DEN d   1       2.088  -1.394  -1.329  0.00  0.00    -0.003 A 
ATOM      6  C6  DEN d   1       2.222  -0.081  -0.961  0.00  0.00     0.001 A 
ATOM      7  C7  DEN d   1       1.134   0.606  -0.490  0.00  0.00     0.017 A 
ATOM      8  C8  DEN d   1      -0.092  -0.046  -0.452  0.00  0.00    -0.094 A 
ATOM      9  C9  DEN d   1      -0.204  -1.376  -0.817  0.00  0.00    -0.072 A 
ENDROOT
TORSDOF 0
ENDMDL
