MODEL 1
REMARK minimizedAffinity -5.5928216
REMARK minimizedRMSD -1
REMARK  0 active torsions:
REMARK  status: ('A' for Active; 'I' for Inactive)
ROOT
ATOM      1  C1  DEN d   1      -0.805   0.250   0.588  0.00  0.00     0.130 A 
ATOM      2  C2  DEN d   1      -0.510   1.680   0.645  0.00  0.00    -0.031 A 
ATOM      3  C3  DEN d   1       0.771   1.909  -0.054  0.00  0.00     0.027 A 
ATOM      4  C4  DEN d   1       2.315   0.201  -1.216  0.00  0.00     0.027 A 
ATOM      5  C5  DEN d   1       2.490  -1.132  -1.514  0.00  0.00    -0.003 A 
ATOM      6  C6  DEN d   1       1.604  -2.094  -1.107  0.00  0.00     0.001 A 
ATOM      7  C7  DEN d   1       0.478  -1.731  -0.417  0.00  0.00     0.017 A 
ATOM      8  C8  DEN d   1       0.298  -0.390  -0.106  0.00  0.00    -0.094 A 
ATOM      9  C9  DEN d   1       1.199   0.569  -0.537  0.00  0.00    -0.072 A 
ENDROOT
TORSDOF 0
ENDMDL
