MODEL 1
REMARK minimizedAffinity -5.15102339
REMARK minimizedRMSD -1
REMARK  0 active torsions:
REMARK  status: ('A' for Active; 'I' for Inactive)
ROOT
ATOM      1  N1  IND d   1      -4.186   4.207  -2.329  0.00  0.00    -0.196 N 
ATOM      2  C2  IND d   1      -5.152   3.347  -2.772  0.00  0.00     0.054 A 
ATOM      3  C3  IND d   1      -4.628   2.119  -2.983  0.00  0.00    -0.031 A 
ATOM      4  C4  IND d   1      -2.233   1.270  -2.571  0.00  0.00     0.051 A 
ATOM      5  C5  IND d   1      -0.987   1.697  -2.204  0.00  0.00    -0.031 A 
ATOM      6  C6  IND d   1      -0.740   3.008  -1.851  0.00  0.00     0.015 A 
ATOM      7  C7  IND d   1      -1.736   3.943  -1.840  0.00  0.00    -0.016 A 
ATOM      8  C8  IND d   1      -3.001   3.515  -2.218  0.00  0.00    -0.047 A 
ATOM      9  C9  IND d   1      -3.249   2.195  -2.619  0.00  0.00    -0.096 A 
ATOM     10  HN1 IND d   1      -4.300   5.040  -2.150  0.00  0.00     0.298 HD
ENDROOT
TORSDOF 0
ENDMDL
