MODEL 1
REMARK minimizedAffinity -5.94125223
REMARK minimizedRMSD -1
REMARK  0 active torsions:
REMARK  status: ('A' for Active; 'I' for Inactive)
ROOT
ATOM      1  N1  IND d   1      -3.941   3.793  -3.097  0.00  0.00    -0.196 N 
ATOM      2  C2  IND d   1      -4.932   2.934  -2.710  0.00  0.00     0.054 A 
ATOM      3  C3  IND d   1      -4.400   1.811  -2.179  0.00  0.00    -0.031 A 
ATOM      4  C4  IND d   1      -1.933   1.213  -1.752  0.00  0.00     0.051 A 
ATOM      5  C5  IND d   1      -0.661   1.666  -1.969  0.00  0.00    -0.031 A 
ATOM      6  C6  IND d   1      -0.414   2.876  -2.584  0.00  0.00     0.015 A 
ATOM      7  C7  IND d   1      -1.433   3.688  -2.995  0.00  0.00    -0.016 A 
ATOM      8  C8  IND d   1      -2.725   3.228  -2.782  0.00  0.00    -0.047 A 
ATOM      9  C9  IND d   1      -2.982   1.982  -2.198  0.00  0.00    -0.096 A 
ATOM     10  HN1 IND d   1      -4.058   4.557  -3.473  0.00  0.00     0.298 HD
ENDROOT
TORSDOF 0
ENDMDL
