MODEL 1
REMARK minimizedAffinity -3.83121657
REMARK minimizedRMSD -1
REMARK  0 active torsions:
REMARK  status: ('A' for Active; 'I' for Inactive)
ROOT
ATOM      1  N1  IND d   1       0.466   0.132  -1.009  0.00  0.00    -0.196 N 
ATOM      2  C2  IND d   1      -0.876  -0.007  -1.227  0.00  0.00     0.054 A 
ATOM      3  C3  IND d   1      -1.504  -0.359  -0.082  0.00  0.00    -0.031 A 
ATOM      4  C4  IND d   1      -0.541  -0.663   2.285  0.00  0.00     0.051 A 
ATOM      5  C5  IND d   1       0.639  -0.679   2.974  0.00  0.00    -0.031 A 
ATOM      6  C6  IND d   1       1.846  -0.417   2.359  0.00  0.00     0.015 A 
ATOM      7  C7  IND d   1       1.917  -0.117   1.028  0.00  0.00    -0.016 A 
ATOM      8  C8  IND d   1       0.721  -0.107   0.324  0.00  0.00    -0.047 A 
ATOM      9  C9  IND d   1      -0.502  -0.414   0.934  0.00  0.00    -0.096 A 
ATOM     10  HN1 IND d   1       1.053   0.335  -1.604  0.00  0.00     0.298 HD
ENDROOT
TORSDOF 0
ENDMDL
