MODEL 1
REMARK minimizedAffinity 2.03448939
REMARK minimizedRMSD -1
REMARK  0 active torsions:
REMARK  status: ('A' for Active; 'I' for Inactive)
ROOT
ATOM      1  N1  IND d   1       0.594  -0.812  -1.011  0.00  0.00    -0.196 N 
ATOM      2  C2  IND d   1       1.905  -0.657  -1.366  0.00  0.00     0.054 A 
ATOM      3  C3  IND d   1       2.679  -0.526  -0.266  0.00  0.00    -0.031 A 
ATOM      4  C4  IND d   1       2.019  -0.638   2.220  0.00  0.00     0.051 A 
ATOM      5  C5  IND d   1       0.931  -0.728   3.043  0.00  0.00    -0.031 A 
ATOM      6  C6  IND d   1      -0.350  -0.856   2.547  0.00  0.00     0.015 A 
ATOM      7  C7  IND d   1      -0.591  -0.910   1.203  0.00  0.00    -0.016 A 
ATOM      8  C8  IND d   1       0.510  -0.812   0.364  0.00  0.00    -0.047 A 
ATOM      9  C9  IND d   1       1.808  -0.639   0.862  0.00  0.00    -0.096 A 
ATOM     10  HN1 IND d   1      -0.067  -0.895  -1.554  0.00  0.00     0.298 HD
ENDROOT
TORSDOF 0
ENDMDL
