MODEL 1
REMARK minimizedAffinity -3.27694535
REMARK minimizedRMSD -1
REMARK  0 active torsions:
REMARK  status: ('A' for Active; 'I' for Inactive)
ROOT
ATOM      1  N1  IND d   1       1.138  -1.777  -1.462  0.00  0.00    -0.196 N 
ATOM      2  C2  IND d   1       2.501  -1.761  -1.357  0.00  0.00     0.054 A 
ATOM      3  C3  IND d   1       2.878  -1.145  -0.214  0.00  0.00    -0.031 A 
ATOM      4  C4  IND d   1       1.424  -0.177   1.678  0.00  0.00     0.051 A 
ATOM      5  C5  IND d   1       0.124   0.075   2.016  0.00  0.00    -0.031 A 
ATOM      6  C6  IND d   1      -0.926  -0.287   1.197  0.00  0.00     0.015 A 
ATOM      7  C7  IND d   1      -0.714  -0.928   0.009  0.00  0.00    -0.016 A 
ATOM      8  C8  IND d   1       0.605  -1.179  -0.341  0.00  0.00    -0.047 A 
ATOM      9  C9  IND d   1       1.677  -0.776   0.466  0.00  0.00    -0.096 A 
ATOM     10  HN1 IND d   1       0.690  -2.104  -2.119  0.00  0.00     0.298 HD
ENDROOT
TORSDOF 0
ENDMDL
