MODEL 1
REMARK minimizedAffinity -3.48006415
REMARK minimizedRMSD -1
REMARK  0 active torsions:
REMARK  status: ('A' for Active; 'I' for Inactive)
ROOT
ATOM      1  N1  IND d   1       0.784  -0.947  -1.580  0.00  0.00    -0.196 N 
ATOM      2  C2  IND d   1       2.117  -1.206  -1.423  0.00  0.00     0.054 A 
ATOM      3  C3  IND d   1       2.470  -1.087  -0.124  0.00  0.00    -0.031 A 
ATOM      4  C4  IND d   1       1.003  -0.574   1.929  0.00  0.00     0.051 A 
ATOM      5  C5  IND d   1      -0.271  -0.228   2.283  0.00  0.00    -0.031 A 
ATOM      6  C6  IND d   1      -1.279  -0.104   1.349  0.00  0.00     0.015 A 
ATOM      7  C7  IND d   1      -1.052  -0.334   0.021  0.00  0.00    -0.016 A 
ATOM      8  C8  IND d   1       0.242  -0.678  -0.343  0.00  0.00    -0.047 A 
ATOM      9  C9  IND d   1       1.278  -0.764   0.595  0.00  0.00    -0.096 A 
ATOM     10  HN1 IND d   1       0.357  -0.951  -2.326  0.00  0.00     0.298 HD
ENDROOT
TORSDOF 0
ENDMDL
