MODEL 1
REMARK minimizedAffinity 6.92925262
REMARK minimizedRMSD -1
REMARK  0 active torsions:
REMARK  status: ('A' for Active; 'I' for Inactive)
ROOT
ATOM      1  N1  IND d   1      -3.026   4.567  -1.817  0.00  0.00    -0.196 N 
ATOM      2  C2  IND d   1      -3.818   3.468  -1.635  0.00  0.00     0.054 A 
ATOM      3  C3  IND d   1      -3.294   2.398  -2.273  0.00  0.00    -0.031 A 
ATOM      4  C4  IND d   1      -1.091   2.199  -3.592  0.00  0.00     0.051 A 
ATOM      5  C5  IND d   1      -0.046   2.943  -4.061  0.00  0.00    -0.031 A 
ATOM      6  C6  IND d   1       0.063   4.294  -3.799  0.00  0.00     0.015 A 
ATOM      7  C7  IND d   1      -0.867   4.950  -3.045  0.00  0.00    -0.016 A 
ATOM      8  C8  IND d   1      -1.934   4.199  -2.572  0.00  0.00    -0.047 A 
ATOM      9  C9  IND d   1      -2.072   2.837  -2.870  0.00  0.00    -0.096 A 
ATOM     10  HN1 IND d   1      -3.182   5.355  -1.511  0.00  0.00     0.298 HD
ENDROOT
TORSDOF 0
ENDMDL
