MODEL 1
REMARK minimizedAffinity -3.86424875
REMARK minimizedRMSD -1
REMARK  0 active torsions:
REMARK  status: ('A' for Active; 'I' for Inactive)
ROOT
ATOM      1  N1  IND d   1       2.185  -1.287  -0.817  0.00  0.00    -0.196 N 
ATOM      2  C2  IND d   1       1.571  -1.214  -2.037  0.00  0.00     0.054 A 
ATOM      3  C3  IND d   1       0.239  -1.047  -1.883  0.00  0.00    -0.031 A 
ATOM      4  C4  IND d   1      -1.136  -0.764   0.275  0.00  0.00     0.051 A 
ATOM      5  C5  IND d   1      -1.023  -0.796   1.636  0.00  0.00    -0.031 A 
ATOM      6  C6  IND d   1       0.191  -0.994   2.262  0.00  0.00     0.015 A 
ATOM      7  C7  IND d   1       1.343  -1.158   1.547  0.00  0.00    -0.016 A 
ATOM      8  C8  IND d   1       1.230  -1.133   0.164  0.00  0.00    -0.047 A 
ATOM      9  C9  IND d   1      -0.005  -0.974  -0.477  0.00  0.00    -0.096 A 
ATOM     10  HN1 IND d   1       3.026  -1.408  -0.686  0.00  0.00     0.298 HD
ENDROOT
TORSDOF 0
ENDMDL
