MODEL 1
REMARK minimizedAffinity 4.97239399
REMARK minimizedRMSD -1
REMARK  1 active torsions:
REMARK  status: ('A' for Active; 'I' for Inactive)
REMARK    1  A    between atoms: C1_2  and  C2_3 
ROOT
ATOM      1  C2  UNL d   1       3.138  -1.192  -1.081  0.00  0.00    -0.073 A 
ATOM      2  C3  UNL d   1       2.614  -0.002  -0.564  0.00  0.00    -0.002 A 
ATOM      3  C4  UNL d   1       3.183   1.226  -0.907  0.00  0.00     0.004 A 
ATOM      4  C5  UNL d   1       4.274   1.277  -1.773  0.00  0.00    -0.004 A 
ATOM      5  C6  UNL d   1       4.805   0.099  -2.309  0.00  0.00    -0.075 A 
ATOM      6  C7  UNL d   1       5.980   0.136  -3.241  0.00  0.00     0.076 C 
ATOM      7  C8  UNL d   1       4.230  -1.130  -1.959  0.00  0.00     0.001 A 
ENDROOT
BRANCH   1   8
ATOM      8  C1  UNL d   1       2.523  -2.520  -0.720  0.00  0.00     0.053 C 
ATOM      9  C   UNL d   1       1.304  -2.358   0.174  0.00  0.00     0.018 C 
ENDBRANCH   1   8
TORSDOF 1
ENDMDL
