MODEL 1
REMARK minimizedAffinity 7.13755369
REMARK minimizedRMSD -1
REMARK  1 active torsions:
REMARK  status: ('A' for Active; 'I' for Inactive)
REMARK    1  A    between atoms: C1_2  and  C2_3 
ROOT
ATOM      1  C2  UNL d   1      -0.890  -2.178   1.598  0.00  0.00    -0.073 A 
ATOM      2  C3  UNL d   1      -2.014  -2.999   1.460  0.00  0.00    -0.002 A 
ATOM      3  C4  UNL d   1      -3.297  -2.469   1.604  0.00  0.00     0.004 A 
ATOM      4  C5  UNL d   1      -3.469  -1.113   1.880  0.00  0.00    -0.004 A 
ATOM      5  C6  UNL d   1      -2.358  -0.273   2.010  0.00  0.00    -0.075 A 
ATOM      6  C7  UNL d   1      -2.526   1.188   2.309  0.00  0.00     0.076 C 
ATOM      7  C8  UNL d   1      -1.073  -0.813   1.867  0.00  0.00     0.001 A 
ENDROOT
BRANCH   1   8
ATOM      8  C1  UNL d   1       0.497  -2.744   1.438  0.00  0.00     0.053 C 
ATOM      9  C   UNL d   1       1.119  -2.360   0.104  0.00  0.00     0.018 C 
ENDBRANCH   1   8
TORSDOF 1
ENDMDL
