MODEL 1
REMARK minimizedAffinity 6.02142191
REMARK minimizedRMSD -1
REMARK  1 active torsions:
REMARK  status: ('A' for Active; 'I' for Inactive)
REMARK    1  A    between atoms: C1_2  and  C2_3 
ROOT
ATOM      1  C2  UNL d   1       2.523  -0.956  -1.298  0.00  0.00    -0.073 A 
ATOM      2  C3  UNL d   1       2.468   0.419  -1.039  0.00  0.00    -0.002 A 
ATOM      3  C4  UNL d   1       1.624   0.915  -0.045  0.00  0.00     0.004 A 
ATOM      4  C5  UNL d   1       0.833   0.044   0.704  0.00  0.00    -0.004 A 
ATOM      5  C6  UNL d   1       0.883  -1.333   0.468  0.00  0.00    -0.075 A 
ATOM      6  C7  UNL d   1       0.037  -2.283   1.264  0.00  0.00     0.076 C 
ATOM      7  C8  UNL d   1       1.731  -1.824  -0.533  0.00  0.00     0.001 A 
ENDROOT
BRANCH   1   8
ATOM      8  C1  UNL d   1       3.438  -1.497  -2.366  0.00  0.00     0.053 C 
ATOM      9  C   UNL d   1       4.598  -0.557  -2.654  0.00  0.00     0.018 C 
ENDBRANCH   1   8
TORSDOF 1
ENDMDL
