MODEL 1
REMARK minimizedAffinity -0.559581876
REMARK minimizedRMSD -1
REMARK  1 active torsions:
REMARK  status: ('A' for Active; 'I' for Inactive)
REMARK    1  A    between atoms: C1_2  and  C2_3 
ROOT
ATOM      1  C2  UNL d   1      -3.466   3.072  -3.438  0.00  0.00    -0.073 A 
ATOM      2  C3  UNL d   1      -4.563   2.882  -4.286  0.00  0.00    -0.002 A 
ATOM      3  C4  UNL d   1      -5.823   2.599  -3.756  0.00  0.00     0.004 A 
ATOM      4  C5  UNL d   1      -6.000   2.511  -2.375  0.00  0.00    -0.004 A 
ATOM      5  C6  UNL d   1      -4.918   2.709  -1.511  0.00  0.00    -0.075 A 
ATOM      6  C7  UNL d   1      -5.091   2.615  -0.024  0.00  0.00     0.076 C 
ATOM      7  C8  UNL d   1      -3.656   2.990  -2.051  0.00  0.00     0.001 A 
ENDROOT
BRANCH   1   8
ATOM      8  C1  UNL d   1      -2.106   3.384  -4.006  0.00  0.00     0.053 C 
ATOM      9  C   UNL d   1      -1.213   4.085  -2.994  0.00  0.00     0.018 C 
ENDBRANCH   1   8
TORSDOF 1
ENDMDL
