MODEL 1
REMARK minimizedAffinity -0.220345289
REMARK minimizedRMSD -1
REMARK  1 active torsions:
REMARK  status: ('A' for Active; 'I' for Inactive)
REMARK    1  A    between atoms: C1_2  and  C2_3 
ROOT
ATOM      1  C2  UNL d   1       2.765  -0.631  -0.969  0.00  0.00    -0.073 A 
ATOM      2  C3  UNL d   1       2.709   0.768  -0.941  0.00  0.00    -0.002 A 
ATOM      3  C4  UNL d   1       1.828   1.420  -0.078  0.00  0.00     0.004 A 
ATOM      4  C5  UNL d   1       1.000   0.684   0.769  0.00  0.00    -0.004 A 
ATOM      5  C6  UNL d   1       1.050  -0.714   0.764  0.00  0.00    -0.075 A 
ATOM      6  C7  UNL d   1       0.164  -1.521   1.667  0.00  0.00     0.076 C 
ATOM      7  C8  UNL d   1       1.935  -1.362  -0.107  0.00  0.00     0.001 A 
ENDROOT
BRANCH   1   8
ATOM      8  C1  UNL d   1       3.719  -1.340  -1.895  0.00  0.00     0.053 C 
ATOM      9  C   UNL d   1       4.713  -0.382  -2.532  0.00  0.00     0.018 C 
ENDBRANCH   1   8
TORSDOF 1
ENDMDL
