MODEL 1
REMARK minimizedAffinity 2.1375699
REMARK minimizedRMSD -1
REMARK  1 active torsions:
REMARK  status: ('A' for Active; 'I' for Inactive)
REMARK    1  A    between atoms: C1_2  and  C2_3 
ROOT
ATOM      1  C2  UNL d   1       2.760   0.323  -0.834  0.00  0.00    -0.073 A 
ATOM      2  C3  UNL d   1       3.375  -0.548  -1.739  0.00  0.00    -0.002 A 
ATOM      3  C4  UNL d   1       3.017  -1.897  -1.775  0.00  0.00     0.004 A 
ATOM      4  C5  UNL d   1       2.037  -2.386  -0.912  0.00  0.00    -0.004 A 
ATOM      5  C6  UNL d   1       1.402  -1.528  -0.007  0.00  0.00    -0.075 A 
ATOM      6  C7  UNL d   1       0.347  -2.039   0.930  0.00  0.00     0.076 C 
ATOM      7  C8  UNL d   1       1.769  -0.176   0.024  0.00  0.00     0.001 A 
ENDROOT
BRANCH   1   8
ATOM      8  C1  UNL d   1       3.139   1.781  -0.796  0.00  0.00     0.053 C 
ATOM      9  C   UNL d   1       3.124   2.337   0.619  0.00  0.00     0.018 C 
ENDBRANCH   1   8
TORSDOF 1
ENDMDL
