MODEL 1
REMARK minimizedAffinity -3.73426104
REMARK minimizedRMSD -1
REMARK  1 active torsions:
REMARK  status: ('A' for Active; 'I' for Inactive)
REMARK    1  A    between atoms: C1_2  and  C2_3 
ROOT
ATOM      1  C2  UNL d   1       2.329  -0.760  -0.968  0.00  0.00    -0.073 A 
ATOM      2  C3  UNL d   1       2.167   0.622  -1.120  0.00  0.00    -0.002 A 
ATOM      3  C4  UNL d   1       1.266   1.319  -0.314  0.00  0.00     0.004 A 
ATOM      4  C5  UNL d   1       0.525   0.644   0.656  0.00  0.00    -0.004 A 
ATOM      5  C6  UNL d   1       0.681  -0.734   0.831  0.00  0.00    -0.075 A 
ATOM      6  C7  UNL d   1      -0.111  -1.475   1.868  0.00  0.00     0.076 C 
ATOM      7  C8  UNL d   1       1.586  -1.428   0.015  0.00  0.00     0.001 A 
ENDROOT
BRANCH   1   8
ATOM      8  C1  UNL d   1       3.305  -1.515  -1.832  0.00  0.00     0.053 C 
ATOM      9  C   UNL d   1       4.364  -0.602  -2.429  0.00  0.00     0.018 C 
ENDBRANCH   1   8
TORSDOF 1
ENDMDL
