MODEL 1
REMARK minimizedAffinity -2.76076698
REMARK minimizedRMSD -1
REMARK  1 active torsions:
REMARK  status: ('A' for Active; 'I' for Inactive)
REMARK    1  A    between atoms: C1_2  and  C2_3 
ROOT
ATOM      1  C2  UNL d   1      -0.025  -0.995   1.520  0.00  0.00    -0.073 A 
ATOM      2  C3  UNL d   1       0.648  -2.182   1.209  0.00  0.00    -0.002 A 
ATOM      3  C4  UNL d   1       1.720  -2.172   0.316  0.00  0.00     0.004 A 
ATOM      4  C5  UNL d   1       2.135  -0.976  -0.269  0.00  0.00    -0.004 A 
ATOM      5  C6  UNL d   1       1.483   0.223   0.038  0.00  0.00    -0.075 A 
ATOM      6  C7  UNL d   1       1.915   1.518  -0.585  0.00  0.00     0.076 C 
ATOM      7  C8  UNL d   1       0.405   0.204   0.933  0.00  0.00     0.001 A 
ENDROOT
BRANCH   1   8
ATOM      8  C1  UNL d   1      -1.180  -1.000   2.488  0.00  0.00     0.053 C 
ATOM      9  C   UNL d   1      -2.376  -1.766   1.945  0.00  0.00     0.018 C 
ENDBRANCH   1   8
TORSDOF 1
ENDMDL
