MODEL 1
REMARK minimizedAffinity -2.2856009
REMARK minimizedRMSD -1
REMARK  1 active torsions:
REMARK  status: ('A' for Active; 'I' for Inactive)
REMARK    1  A    between atoms: C1_2  and  C2_3 
ROOT
ATOM      1  C2  UNL d   1       1.659  -1.441  -0.231  0.00  0.00    -0.073 A 
ATOM      2  C3  UNL d   1       2.055  -0.255   0.398  0.00  0.00    -0.002 A 
ATOM      3  C4  UNL d   1       1.251   0.324   1.381  0.00  0.00     0.004 A 
ATOM      4  C5  UNL d   1       0.049  -0.280   1.750  0.00  0.00    -0.004 A 
ATOM      5  C6  UNL d   1      -0.358  -1.472   1.142  0.00  0.00    -0.075 A 
ATOM      6  C7  UNL d   1      -1.649  -2.133   1.526  0.00  0.00     0.076 C 
ATOM      7  C8  UNL d   1       0.454  -2.046   0.154  0.00  0.00     0.001 A 
ENDROOT
BRANCH   1   8
ATOM      8  C1  UNL d   1       2.527  -2.073  -1.288  0.00  0.00     0.053 C 
ATOM      9  C   UNL d   1       3.793  -1.271  -1.541  0.00  0.00     0.018 C 
ENDBRANCH   1   8
TORSDOF 1
ENDMDL
