MODEL 1
REMARK minimizedAffinity 0.196961164
REMARK minimizedRMSD -1
REMARK  1 active torsions:
REMARK  status: ('A' for Active; 'I' for Inactive)
REMARK    1  A    between atoms: C1_2  and  C2_3 
ROOT
ATOM      1  C2  UNL d   1       1.497   0.060  -0.171  0.00  0.00    -0.073 A 
ATOM      2  C3  UNL d   1       1.875  -1.252  -0.480  0.00  0.00    -0.002 A 
ATOM      3  C4  UNL d   1       1.493  -2.309   0.347  0.00  0.00     0.004 A 
ATOM      4  C5  UNL d   1       0.724  -2.068   1.485  0.00  0.00    -0.004 A 
ATOM      5  C6  UNL d   1       0.326  -0.765   1.805  0.00  0.00    -0.075 A 
ATOM      6  C7  UNL d   1      -0.499  -0.488   3.027  0.00  0.00     0.076 C 
ATOM      7  C8  UNL d   1       0.716   0.292   0.971  0.00  0.00     0.001 A 
ENDROOT
BRANCH   1   8
ATOM      8  C1  UNL d   1       1.902   1.204  -1.064  0.00  0.00     0.053 C 
ATOM      9  C   UNL d   1       3.169   0.895  -1.846  0.00  0.00     0.018 C 
ENDBRANCH   1   8
TORSDOF 1
ENDMDL
