MODEL 1
REMARK minimizedAffinity -1.3227005
REMARK minimizedRMSD -1
REMARK  1 active torsions:
REMARK  status: ('A' for Active; 'I' for Inactive)
REMARK    1  A    between atoms: C1_2  and  C2_3 
ROOT
ATOM      1  C2  UNL d   1       1.289  -0.618   0.324  0.00  0.00    -0.073 A 
ATOM      2  C3  UNL d   1       1.199   0.759   0.557  0.00  0.00    -0.002 A 
ATOM      3  C4  UNL d   1       2.040   1.645  -0.119  0.00  0.00     0.004 A 
ATOM      4  C5  UNL d   1       2.972   1.164  -1.039  0.00  0.00    -0.004 A 
ATOM      5  C6  UNL d   1       3.069  -0.207  -1.294  0.00  0.00    -0.075 A 
ATOM      6  C7  UNL d   1       4.068  -0.741  -2.278  0.00  0.00     0.076 C 
ATOM      7  C8  UNL d   1       2.223  -1.091  -0.609  0.00  0.00     0.001 A 
ENDROOT
BRANCH   1   8
ATOM      8  C1  UNL d   1       0.380  -1.577   1.047  0.00  0.00     0.053 C 
ATOM      9  C   UNL d   1      -0.514  -0.868   2.052  0.00  0.00     0.018 C 
ENDBRANCH   1   8
TORSDOF 1
ENDMDL
