MODEL 1
REMARK minimizedAffinity -0.336520195
REMARK minimizedRMSD -1
REMARK  0 active torsions:
REMARK  status: ('A' for Active; 'I' for Inactive)
ROOT
ATOM      1  C2' OXE d   1      -1.704   0.484  -3.412  0.00  0.00     0.078 C 
ATOM      2  C1' OXE d   1       0.243   2.337  -2.604  0.00  0.00     0.078 C 
ATOM      3  C1  OXE d   1       0.716   1.026  -3.179  0.00  0.00    -0.078 A 
ATOM      4  C2  OXE d   1      -0.243   0.106  -3.528  0.00  0.00    -0.078 A 
ATOM      5  C3  OXE d   1       0.137  -1.098  -4.114  0.00  0.00     0.003 A 
ATOM      6  C4  OXE d   1       1.491  -1.444  -4.209  0.00  0.00    -0.002 A 
ATOM      7  C5  OXE d   1       2.484  -0.538  -3.822  0.00  0.00    -0.002 A 
ATOM      8  C6  OXE d   1       2.115   0.715  -3.346  0.00  0.00     0.003 A 
ENDROOT
TORSDOF 0
ENDMDL
