MODEL 1
REMARK minimizedAffinity 5.40905046
REMARK minimizedRMSD -1
REMARK  0 active torsions:
REMARK  status: ('A' for Active; 'I' for Inactive)
ROOT
ATOM      1  C2' OXE d   1       1.110   3.371  -3.203  0.00  0.00     0.078 C 
ATOM      2  C1' OXE d   1       2.207   0.789  -3.109  0.00  0.00     0.078 C 
ATOM      3  C1  OXE d   1       0.724   0.915  -3.355  0.00  0.00    -0.078 A 
ATOM      4  C2  OXE d   1       0.188   2.180  -3.353  0.00  0.00    -0.078 A 
ATOM      5  C3  OXE d   1      -1.165   2.356  -3.629  0.00  0.00     0.003 A 
ATOM      6  C4  OXE d   1      -2.012   1.249  -3.757  0.00  0.00    -0.002 A 
ATOM      7  C5  OXE d   1      -1.493  -0.050  -3.723  0.00  0.00    -0.002 A 
ATOM      8  C6  OXE d   1      -0.124  -0.233  -3.566  0.00  0.00     0.003 A 
ENDROOT
TORSDOF 0
ENDMDL
