MODEL 1
REMARK minimizedAffinity 10.0687847
REMARK minimizedRMSD -1
REMARK  0 active torsions:
REMARK  status: ('A' for Active; 'I' for Inactive)
ROOT
ATOM      1  C2' OXE d   1       1.902  -5.997   0.501  0.00  0.00     0.078 C 
ATOM      2  C1' OXE d   1       1.650  -5.981   3.297  0.00  0.00     0.078 C 
ATOM      3  C1  OXE d   1       0.384  -5.980   2.476  0.00  0.00    -0.078 A 
ATOM      4  C2  OXE d   1       0.517  -5.940   1.109  0.00  0.00    -0.078 A 
ATOM      5  C3  OXE d   1      -0.617  -5.993   0.304  0.00  0.00     0.003 A 
ATOM      6  C4  OXE d   1      -1.894  -5.930   0.874  0.00  0.00    -0.002 A 
ATOM      7  C5  OXE d   1      -2.052  -5.929   2.264  0.00  0.00    -0.002 A 
ATOM      8  C6  OXE d   1      -0.926  -5.996   3.078  0.00  0.00     0.003 A 
ENDROOT
TORSDOF 0
ENDMDL
