MODEL 1
REMARK minimizedAffinity -1.33056533
REMARK minimizedRMSD -1
REMARK  0 active torsions:
REMARK  status: ('A' for Active; 'I' for Inactive)
ROOT
ATOM      1  C2' OXE d   1       0.085   0.495   1.266  0.00  0.00     0.078 C 
ATOM      2  C1' OXE d   1       1.237  -1.780   2.439  0.00  0.00     0.078 C 
ATOM      3  C1  OXE d   1       2.162  -0.681   1.979  0.00  0.00    -0.078 A 
ATOM      4  C2  OXE d   1       1.593   0.408   1.364  0.00  0.00    -0.078 A 
ATOM      5  C3  OXE d   1       2.396   1.474   0.969  0.00  0.00     0.003 A 
ATOM      6  C4  OXE d   1       3.790   1.381   1.054  0.00  0.00    -0.002 A 
ATOM      7  C5  OXE d   1       4.393   0.264   1.641  0.00  0.00    -0.002 A 
ATOM      8  C6  OXE d   1       3.592  -0.755   2.146  0.00  0.00     0.003 A 
ENDROOT
TORSDOF 0
ENDMDL
