MODEL 1
REMARK minimizedAffinity 8.09072304
REMARK minimizedRMSD -1
REMARK  0 active torsions:
REMARK  status: ('A' for Active; 'I' for Inactive)
ROOT
ATOM      1  C2' OXE d   1       2.914  -6.000   2.538  0.00  0.00     0.078 C 
ATOM      2  C1' OXE d   1       2.559  -5.651  -0.225  0.00  0.00     0.078 C 
ATOM      3  C1  OXE d   1       1.325  -5.743   0.637  0.00  0.00    -0.078 A 
ATOM      4  C2  OXE d   1       1.507  -5.960   1.981  0.00  0.00    -0.078 A 
ATOM      5  C3  OXE d   1       0.404  -5.999   2.829  0.00  0.00     0.003 A 
ATOM      6  C4  OXE d   1      -0.894  -5.971   2.305  0.00  0.00    -0.002 A 
ATOM      7  C5  OXE d   1      -1.102  -5.790   0.934  0.00  0.00    -0.002 A 
ATOM      8  C6  OXE d   1      -0.006  -5.632   0.093  0.00  0.00     0.003 A 
ENDROOT
TORSDOF 0
ENDMDL
