MODEL 1
REMARK minimizedAffinity 9.25575066
REMARK minimizedRMSD -1
REMARK  0 active torsions:
REMARK  status: ('A' for Active; 'I' for Inactive)
ROOT
ATOM      1  C2' OXE d   1       1.012   2.975  -2.842  0.00  0.00     0.078 C 
ATOM      2  C1' OXE d   1       1.391   3.090  -5.621  0.00  0.00     0.078 C 
ATOM      3  C1  OXE d   1       0.029   2.690  -5.113  0.00  0.00    -0.078 A 
ATOM      4  C2  OXE d   1      -0.134   2.591  -3.752  0.00  0.00    -0.078 A 
ATOM      5  C3  OXE d   1      -1.386   2.279  -3.229  0.00  0.00     0.003 A 
ATOM      6  C4  OXE d   1      -2.438   1.915  -4.078  0.00  0.00    -0.002 A 
ATOM      7  C5  OXE d   1      -2.282   1.971  -5.467  0.00  0.00    -0.002 A 
ATOM      8  C6  OXE d   1      -1.070   2.396  -6.000  0.00  0.00     0.003 A 
ENDROOT
TORSDOF 0
ENDMDL
