MODEL 1
REMARK minimizedAffinity 3.81748533
REMARK minimizedRMSD -1
REMARK  0 active torsions:
REMARK  status: ('A' for Active; 'I' for Inactive)
ROOT
ATOM      1  C2' OXE d   1      -4.861   0.882   2.160  0.00  0.00     0.078 C 
ATOM      2  C1' OXE d   1      -5.255  -1.204   0.323  0.00  0.00     0.078 C 
ATOM      3  C1  OXE d   1      -4.011  -0.364   0.177  0.00  0.00    -0.078 A 
ATOM      4  C2  OXE d   1      -3.850   0.684   1.052  0.00  0.00    -0.078 A 
ATOM      5  C3  OXE d   1      -2.693   1.457   0.996  0.00  0.00     0.003 A 
ATOM      6  C4  OXE d   1      -1.768   1.274  -0.039  0.00  0.00    -0.002 A 
ATOM      7  C5  OXE d   1      -1.933   0.237  -0.964  0.00  0.00    -0.002 A 
ATOM      8  C6  OXE d   1      -3.025  -0.615  -0.845  0.00  0.00     0.003 A 
ENDROOT
TORSDOF 0
ENDMDL
