MODEL 1
REMARK minimizedAffinity 2.3972671
REMARK minimizedRMSD -1
REMARK  0 active torsions:
REMARK  status: ('A' for Active; 'I' for Inactive)
ROOT
ATOM      1  C2' OXE d   1      -1.401   0.674  -1.169  0.00  0.00     0.078 C 
ATOM      2  C1' OXE d   1       0.527   2.005  -2.715  0.00  0.00     0.078 C 
ATOM      3  C1  OXE d   1      -0.699   1.481  -3.419  0.00  0.00    -0.078 A 
ATOM      4  C2  OXE d   1      -1.615   0.790  -2.663  0.00  0.00    -0.078 A 
ATOM      5  C3  OXE d   1      -2.790   0.333  -3.252  0.00  0.00     0.003 A 
ATOM      6  C4  OXE d   1      -2.976   0.436  -4.636  0.00  0.00    -0.002 A 
ATOM      7  C5  OXE d   1      -2.037   1.101  -5.431  0.00  0.00    -0.002 A 
ATOM      8  C6  OXE d   1      -0.916   1.666  -4.833  0.00  0.00     0.003 A 
ENDROOT
TORSDOF 0
ENDMDL
