MODEL 1
REMARK minimizedAffinity 13.0761843
REMARK minimizedRMSD -1
REMARK  0 active torsions:
REMARK  status: ('A' for Active; 'I' for Inactive)
ROOT
ATOM      1  C2' OXE d   1      -5.999  -0.906   2.031  0.00  0.00     0.078 C 
ATOM      2  C1' OXE d   1      -5.772   1.880   2.290  0.00  0.00     0.078 C 
ATOM      3  C1  OXE d   1      -5.831   1.059   3.553  0.00  0.00    -0.078 A 
ATOM      4  C2  OXE d   1      -5.989  -0.299   3.418  0.00  0.00    -0.078 A 
ATOM      5  C3  OXE d   1      -5.994  -1.109   4.550  0.00  0.00     0.003 A 
ATOM      6  C4  OXE d   1      -5.994  -0.540   5.829  0.00  0.00    -0.002 A 
ATOM      7  C5  OXE d   1      -5.874   0.845   5.989  0.00  0.00    -0.002 A 
ATOM      8  C6  OXE d   1      -5.748   1.653   4.865  0.00  0.00     0.003 A 
ENDROOT
TORSDOF 0
ENDMDL
