MODEL 1
REMARK minimizedAffinity 13.4642038
REMARK minimizedRMSD -1
REMARK  0 active torsions:
REMARK  status: ('A' for Active; 'I' for Inactive)
ROOT
ATOM      1  C2' OXE d   1       0.715   1.925  -1.103  0.00  0.00     0.078 C 
ATOM      2  C1' OXE d   1       0.108   3.628  -3.250  0.00  0.00     0.078 C 
ATOM      3  C1  OXE d   1      -0.846   2.496  -2.959  0.00  0.00    -0.078 A 
ATOM      4  C2  OXE d   1      -0.516   1.640  -1.936  0.00  0.00    -0.078 A 
ATOM      5  C3  OXE d   1      -1.389   0.612  -1.590  0.00  0.00     0.003 A 
ATOM      6  C4  OXE d   1      -2.520   0.349  -2.372  0.00  0.00    -0.002 A 
ATOM      7  C5  OXE d   1      -2.853   1.185  -3.443  0.00  0.00    -0.002 A 
ATOM      8  C6  OXE d   1      -2.051   2.286  -3.723  0.00  0.00     0.003 A 
ENDROOT
TORSDOF 0
ENDMDL
