MODEL 1
REMARK minimizedAffinity 8.01059818
REMARK minimizedRMSD -1
REMARK  0 active torsions:
REMARK  status: ('A' for Active; 'I' for Inactive)
ROOT
ATOM      1  C2' OXE d   1       4.226  -0.751  -4.870  0.00  0.00     0.078 C 
ATOM      2  C1' OXE d   1       2.299  -1.912  -3.191  0.00  0.00     0.078 C 
ATOM      3  C1  OXE d   1       2.514  -0.423  -3.091  0.00  0.00    -0.078 A 
ATOM      4  C2  OXE d   1       3.492   0.130  -3.882  0.00  0.00    -0.078 A 
ATOM      5  C3  OXE d   1       3.694   1.507  -3.869  0.00  0.00     0.003 A 
ATOM      6  C4  OXE d   1       3.018   2.313  -2.945  0.00  0.00    -0.002 A 
ATOM      7  C5  OXE d   1       2.046   1.765  -2.102  0.00  0.00    -0.002 A 
ATOM      8  C6  OXE d   1       1.752   0.409  -2.191  0.00  0.00     0.003 A 
ENDROOT
TORSDOF 0
ENDMDL
