MODEL 1
REMARK minimizedAffinity 9.8671627
REMARK minimizedRMSD -1
REMARK  0 active torsions:
REMARK  status: ('A' for Active; 'I' for Inactive)
ROOT
ATOM      1  C2' OXE d   1      -2.405  -5.943   1.114  0.00  0.00     0.078 C 
ATOM      2  C1' OXE d   1      -1.280  -5.984   3.686  0.00  0.00     0.078 C 
ATOM      3  C1  OXE d   1      -0.340  -5.968   2.507  0.00  0.00    -0.078 A 
ATOM      4  C2  OXE d   1      -0.899  -5.996   1.252  0.00  0.00    -0.078 A 
ATOM      5  C3  OXE d   1      -0.078  -5.927   0.130  0.00  0.00     0.003 A 
ATOM      6  C4  OXE d   1       1.314  -5.986   0.265  0.00  0.00    -0.002 A 
ATOM      7  C5  OXE d   1       1.904  -5.999   1.534  0.00  0.00    -0.002 A 
ATOM      8  C6  OXE d   1       1.094  -5.947   2.662  0.00  0.00     0.003 A 
ENDROOT
TORSDOF 0
ENDMDL
