MODEL 1
REMARK minimizedAffinity 12.0729227
REMARK minimizedRMSD -1
REMARK  0 active torsions:
REMARK  status: ('A' for Active; 'I' for Inactive)
ROOT
ATOM      1  C2' OXE d   1       1.791   2.578   1.026  0.00  0.00     0.078 C 
ATOM      2  C1' OXE d   1       4.004   0.853   1.100  0.00  0.00     0.078 C 
ATOM      3  C1  OXE d   1       3.089   0.773  -0.097  0.00  0.00    -0.078 A 
ATOM      4  C2  OXE d   1       1.983   1.588  -0.102  0.00  0.00    -0.078 A 
ATOM      5  C3  OXE d   1       1.136   1.593  -1.207  0.00  0.00     0.003 A 
ATOM      6  C4  OXE d   1       1.315   0.668  -2.242  0.00  0.00    -0.002 A 
ATOM      7  C5  OXE d   1       2.413  -0.199  -2.237  0.00  0.00    -0.002 A 
ATOM      8  C6  OXE d   1       3.331  -0.130  -1.195  0.00  0.00     0.003 A 
ENDROOT
TORSDOF 0
ENDMDL
