MODEL 1
REMARK minimizedAffinity 15.87185
REMARK minimizedRMSD -1
REMARK  0 active torsions:
REMARK  status: ('A' for Active; 'I' for Inactive)
ROOT
ATOM      1  C2' OXE d   1       3.935  -4.859   0.737  0.00  0.00     0.078 C 
ATOM      2  C1' OXE d   1       2.985  -2.666   2.209  0.00  0.00     0.078 C 
ATOM      3  C1  OXE d   1       2.047  -3.827   1.991  0.00  0.00    -0.078 A 
ATOM      4  C2  OXE d   1       2.504  -4.876   1.230  0.00  0.00    -0.078 A 
ATOM      5  C3  OXE d   1       1.699  -5.996   1.044  0.00  0.00     0.003 A 
ATOM      6  C4  OXE d   1       0.374  -5.998   1.495  0.00  0.00    -0.002 A 
ATOM      7  C5  OXE d   1      -0.125  -4.923   2.239  0.00  0.00    -0.002 A 
ATOM      8  C6  OXE d   1       0.710  -3.851   2.531  0.00  0.00     0.003 A 
ENDROOT
TORSDOF 0
ENDMDL
