MODEL 1
REMARK minimizedAffinity 4.43296528
REMARK minimizedRMSD -1
REMARK  0 active torsions:
REMARK  status: ('A' for Active; 'I' for Inactive)
ROOT
ATOM      1  C2' OXE d   1      -0.792   0.714   0.272  0.00  0.00     0.078 C 
ATOM      2  C1' OXE d   1      -2.812  -1.063  -0.530  0.00  0.00     0.078 C 
ATOM      3  C1  OXE d   1      -2.411   0.027  -1.493  0.00  0.00    -0.078 A 
ATOM      4  C2  OXE d   1      -1.455   0.920  -1.073  0.00  0.00    -0.078 A 
ATOM      5  C3  OXE d   1      -1.009   1.912  -1.942  0.00  0.00     0.003 A 
ATOM      6  C4  OXE d   1      -1.633   2.102  -3.181  0.00  0.00    -0.002 A 
ATOM      7  C5  OXE d   1      -2.637   1.228  -3.611  0.00  0.00    -0.002 A 
ATOM      8  C6  OXE d   1      -3.007   0.162  -2.799  0.00  0.00     0.003 A 
ENDROOT
TORSDOF 0
ENDMDL
