MODEL 1
REMARK minimizedAffinity 5.01284409
REMARK minimizedRMSD -1
REMARK  0 active torsions:
REMARK  status: ('A' for Active; 'I' for Inactive)
ROOT
ATOM      1  C2' OXE d   1       2.890   2.433  -4.891  0.00  0.00     0.078 C 
ATOM      2  C1' OXE d   1       0.922   2.766  -2.918  0.00  0.00     0.078 C 
ATOM      3  C1  OXE d   1       1.060   3.845  -3.962  0.00  0.00    -0.078 A 
ATOM      4  C2  OXE d   1       2.057   3.696  -4.896  0.00  0.00    -0.078 A 
ATOM      5  C3  OXE d   1       2.193   4.635  -5.915  0.00  0.00     0.003 A 
ATOM      6  C4  OXE d   1       1.425   5.806  -5.907  0.00  0.00    -0.002 A 
ATOM      7  C5  OXE d   1       0.431   5.996  -4.941  0.00  0.00    -0.002 A 
ATOM      8  C6  OXE d   1       0.207   5.008  -3.989  0.00  0.00     0.003 A 
ENDROOT
TORSDOF 0
ENDMDL
