MODEL 1
REMARK minimizedAffinity 3.8069663
REMARK minimizedRMSD -1
REMARK  0 active torsions:
REMARK  status: ('A' for Active; 'I' for Inactive)
ROOT
ATOM      1  C2' OXE d   1       2.213   1.586  -1.208  0.00  0.00     0.078 C 
ATOM      2  C1' OXE d   1       0.632   1.684   1.109  0.00  0.00     0.078 C 
ATOM      3  C1  OXE d   1       2.060   1.220   1.252  0.00  0.00    -0.078 A 
ATOM      4  C2  OXE d   1       2.813   1.131   0.105  0.00  0.00    -0.078 A 
ATOM      5  C3  OXE d   1       4.152   0.761   0.187  0.00  0.00     0.003 A 
ATOM      6  C4  OXE d   1       4.696   0.332   1.404  0.00  0.00    -0.002 A 
ATOM      7  C5  OXE d   1       3.935   0.378   2.577  0.00  0.00    -0.002 A 
ATOM      8  C6  OXE d   1       2.631   0.859   2.525  0.00  0.00     0.003 A 
ENDROOT
TORSDOF 0
ENDMDL
