MODEL 1
REMARK minimizedAffinity 7.32114887
REMARK minimizedRMSD -1
REMARK  0 active torsions:
REMARK  status: ('A' for Active; 'I' for Inactive)
ROOT
ATOM      1  C2' OXE d   1       2.078   3.224  -4.967  0.00  0.00     0.078 C 
ATOM      2  C1' OXE d   1       0.757   2.515  -2.594  0.00  0.00     0.078 C 
ATOM      3  C1  OXE d   1       1.822   1.582  -3.112  0.00  0.00    -0.078 A 
ATOM      4  C2  OXE d   1       2.431   1.913  -4.298  0.00  0.00    -0.078 A 
ATOM      5  C3  OXE d   1       3.459   1.115  -4.792  0.00  0.00     0.003 A 
ATOM      6  C4  OXE d   1       3.773  -0.101  -4.173  0.00  0.00    -0.002 A 
ATOM      7  C5  OXE d   1       3.137  -0.477  -2.985  0.00  0.00    -0.002 A 
ATOM      8  C6  OXE d   1       2.191   0.372  -2.420  0.00  0.00     0.003 A 
ENDROOT
TORSDOF 0
ENDMDL
