MODEL 1
REMARK minimizedAffinity 5.84919405
REMARK minimizedRMSD -1
REMARK  0 active torsions:
REMARK  status: ('A' for Active; 'I' for Inactive)
ROOT
ATOM      1  C2' OXE d   1       2.537   3.979  -5.644  0.00  0.00     0.078 C 
ATOM      2  C1' OXE d   1       0.816   4.207  -3.439  0.00  0.00     0.078 C 
ATOM      3  C1  OXE d   1       1.854   3.114  -3.411  0.00  0.00    -0.078 A 
ATOM      4  C2  OXE d   1       2.662   2.980  -4.515  0.00  0.00    -0.078 A 
ATOM      5  C3  OXE d   1       3.672   2.023  -4.518  0.00  0.00     0.003 A 
ATOM      6  C4  OXE d   1       3.774   1.096  -3.473  0.00  0.00    -0.002 A 
ATOM      7  C5  OXE d   1       2.936   1.189  -2.357  0.00  0.00    -0.002 A 
ATOM      8  C6  OXE d   1       2.000   2.216  -2.291  0.00  0.00     0.003 A 
ENDROOT
TORSDOF 0
ENDMDL
