MODEL 1
REMARK minimizedAffinity 5.33681536
REMARK minimizedRMSD -1
REMARK  0 active torsions:
REMARK  status: ('A' for Active; 'I' for Inactive)
ROOT
ATOM      1  C   UNL d   1       2.469  -2.710   1.255  0.00  0.00     0.020 A 
ATOM      2  C1  UNL d   1       1.893  -1.458   1.465  0.00  0.00     0.020 A 
ATOM      3  C2  UNL d   1       1.721  -0.580   0.393  0.00  0.00     0.034 A 
ATOM      4  C3  UNL d   1       2.127  -0.952  -0.894  0.00  0.00     0.017 A 
ATOM      5  C4  UNL d   1       2.706  -2.209  -1.103  0.00  0.00     0.017 A 
ATOM      6  C5  UNL d   1       2.875  -3.085  -0.026  0.00  0.00     0.034 A 
ATOM      7 Cl   UNL d   1       3.231  -2.740  -2.662  0.00  0.00    -0.070 Cl
ATOM      8 Cl1  UNL d   1       1.885   0.183  -2.173  0.00  0.00    -0.070 Cl
ENDROOT
TORSDOF 0
ENDMDL
