MODEL 1
REMARK minimizedAffinity 8.25605869
REMARK minimizedRMSD -1
REMARK  0 active torsions:
REMARK  status: ('A' for Active; 'I' for Inactive)
ROOT
ATOM      1  C   UNL d   1       2.306  -0.099  -0.948  0.00  0.00     0.020 A 
ATOM      2  C1  UNL d   1       3.378  -0.945  -1.229  0.00  0.00     0.020 A 
ATOM      3  C2  UNL d   1       3.629  -2.049  -0.411  0.00  0.00     0.034 A 
ATOM      4  C3  UNL d   1       2.808  -2.308   0.693  0.00  0.00     0.017 A 
ATOM      5  C4  UNL d   1       1.732  -1.458   0.974  0.00  0.00     0.017 A 
ATOM      6  C5  UNL d   1       1.485  -0.355   0.151  0.00  0.00     0.034 A 
ATOM      7 Cl   UNL d   1       0.675  -1.713   2.317  0.00  0.00    -0.070 Cl
ATOM      8 Cl1  UNL d   1       3.177  -3.691   1.661  0.00  0.00    -0.070 Cl
ENDROOT
TORSDOF 0
ENDMDL
