MODEL 1
REMARK minimizedAffinity 10.5130787
REMARK minimizedRMSD -1
REMARK  0 active torsions:
REMARK  status: ('A' for Active; 'I' for Inactive)
ROOT
ATOM      1  C   UNL d   1       0.253  -1.828   3.050  0.00  0.00     0.020 A 
ATOM      2  C1  UNL d   1      -0.679  -1.087   2.323  0.00  0.00     0.020 A 
ATOM      3  C2  UNL d   1      -0.428  -0.768   0.987  0.00  0.00     0.034 A 
ATOM      4  C3  UNL d   1       0.757  -1.188   0.374  0.00  0.00     0.017 A 
ATOM      5  C4  UNL d   1       1.692  -1.931   1.104  0.00  0.00     0.017 A 
ATOM      6  C5  UNL d   1       1.436  -2.249   2.441  0.00  0.00     0.034 A 
ATOM      7 Cl   UNL d   1       3.177  -2.485   0.415  0.00  0.00    -0.070 Cl
ATOM      8 Cl1  UNL d   1       1.002  -0.757  -1.282  0.00  0.00    -0.070 Cl
ENDROOT
TORSDOF 0
ENDMDL
