MODEL 1
REMARK minimizedAffinity 7.92937088
REMARK minimizedRMSD -1
REMARK  0 active torsions:
REMARK  status: ('A' for Active; 'I' for Inactive)
ROOT
ATOM      1  C   UNL d   1       3.186  -1.848   0.032  0.00  0.00     0.020 A 
ATOM      2  C1  UNL d   1       2.490  -1.748  -1.172  0.00  0.00     0.020 A 
ATOM      3  C2  UNL d   1       1.114  -1.510  -1.166  0.00  0.00     0.034 A 
ATOM      4  C3  UNL d   1       0.429  -1.371   0.047  0.00  0.00     0.017 A 
ATOM      5  C4  UNL d   1       1.128  -1.471   1.255  0.00  0.00     0.017 A 
ATOM      6  C5  UNL d   1       2.506  -1.709   1.243  0.00  0.00     0.034 A 
ATOM      7 Cl   UNL d   1       0.353  -1.311   2.791  0.00  0.00    -0.070 Cl
ATOM      8 Cl1  UNL d   1      -1.272  -1.078  -0.020  0.00  0.00    -0.070 Cl
ENDROOT
TORSDOF 0
ENDMDL
