MODEL 1
REMARK minimizedAffinity 0.568388283
REMARK minimizedRMSD -1
REMARK  0 active torsions:
REMARK  status: ('A' for Active; 'I' for Inactive)
ROOT
ATOM      1  C   UNL d   1       0.059  -1.237   2.984  0.00  0.00     0.020 A 
ATOM      2  C1  UNL d   1      -1.038  -0.718   2.297  0.00  0.00     0.020 A 
ATOM      3  C2  UNL d   1      -0.970  -0.525   0.916  0.00  0.00     0.034 A 
ATOM      4  C3  UNL d   1       0.198  -0.852   0.216  0.00  0.00     0.017 A 
ATOM      5  C4  UNL d   1       1.298  -1.373   0.906  0.00  0.00     0.017 A 
ATOM      6  C5  UNL d   1       1.225  -1.564   2.289  0.00  0.00     0.034 A 
ATOM      7 Cl   UNL d   1       2.773  -1.801   0.112  0.00  0.00    -0.070 Cl
ATOM      8 Cl1  UNL d   1       0.212  -0.589  -1.491  0.00  0.00    -0.070 Cl
ENDROOT
TORSDOF 0
ENDMDL
