MODEL 1
REMARK minimizedAffinity 3.82845926
REMARK minimizedRMSD -1
REMARK  0 active torsions:
REMARK  status: ('A' for Active; 'I' for Inactive)
ROOT
ATOM      1  C   UNL d   1      -0.934  -0.511   1.607  0.00  0.00     0.020 A 
ATOM      2  C1  UNL d   1      -0.049  -0.778   2.651  0.00  0.00     0.020 A 
ATOM      3  C2  UNL d   1       1.236  -1.251   2.373  0.00  0.00     0.034 A 
ATOM      4  C3  UNL d   1       1.639  -1.459   1.049  0.00  0.00     0.017 A 
ATOM      5  C4  UNL d   1       0.750  -1.191   0.002  0.00  0.00     0.017 A 
ATOM      6  C5  UNL d   1      -0.535  -0.717   0.285  0.00  0.00     0.034 A 
ATOM      7 Cl   UNL d   1       1.175  -1.422  -1.657  0.00  0.00    -0.070 Cl
ATOM      8 Cl1  UNL d   1       3.242  -2.045   0.780  0.00  0.00    -0.070 Cl
ENDROOT
TORSDOF 0
ENDMDL
