MODEL 1
REMARK minimizedAffinity 3.97397423
REMARK minimizedRMSD -1
REMARK  0 active torsions:
REMARK  status: ('A' for Active; 'I' for Inactive)
ROOT
ATOM      1  C   UNL d   1       3.633  -2.213   1.271  0.00  0.00     0.020 A 
ATOM      2  C1  UNL d   1       3.326  -2.257   2.630  0.00  0.00     0.020 A 
ATOM      3  C2  UNL d   1       2.064  -1.856   3.075  0.00  0.00     0.034 A 
ATOM      4  C3  UNL d   1       1.105  -1.409   2.159  0.00  0.00     0.017 A 
ATOM      5  C4  UNL d   1       1.414  -1.366   0.794  0.00  0.00     0.017 A 
ATOM      6  C5  UNL d   1       2.679  -1.769   0.355  0.00  0.00     0.034 A 
ATOM      7 Cl   UNL d   1       0.282  -0.826  -0.396  0.00  0.00    -0.070 Cl
ATOM      8 Cl1  UNL d   1      -0.435  -0.928   2.778  0.00  0.00    -0.070 Cl
ENDROOT
TORSDOF 0
ENDMDL
