MODEL 1
REMARK minimizedAffinity -0.671835124
REMARK minimizedRMSD -1
REMARK  0 active torsions:
REMARK  status: ('A' for Active; 'I' for Inactive)
ROOT
ATOM      1  C   UNL d   1      -5.036   4.158  -5.997  0.00  0.00     0.020 A 
ATOM      2  C1  UNL d   1      -3.740   4.558  -5.674  0.00  0.00     0.020 A 
ATOM      3  C2  UNL d   1      -2.774   3.603  -5.354  0.00  0.00     0.034 A 
ATOM      4  C3  UNL d   1      -3.102   2.242  -5.355  0.00  0.00     0.017 A 
ATOM      5  C4  UNL d   1      -4.403   1.841  -5.680  0.00  0.00     0.017 A 
ATOM      6  C5  UNL d   1      -5.367   2.803  -6.000  0.00  0.00     0.034 A 
ATOM      7 Cl   UNL d   1      -4.883   0.181  -5.703  0.00  0.00    -0.070 Cl
ATOM      8 Cl1  UNL d   1      -1.857   1.115  -4.950  0.00  0.00    -0.070 Cl
ENDROOT
TORSDOF 0
ENDMDL
