MODEL 1
REMARK minimizedAffinity -0.397079289
REMARK minimizedRMSD -1
REMARK  0 active torsions:
REMARK  status: ('A' for Active; 'I' for Inactive)
ROOT
ATOM      1  C   UNL d   1      -3.967   3.774  -5.999  0.00  0.00     0.020 A 
ATOM      2  C1  UNL d   1      -2.709   4.123  -5.512  0.00  0.00     0.020 A 
ATOM      3  C2  UNL d   1      -1.941   3.183  -4.822  0.00  0.00     0.034 A 
ATOM      4  C3  UNL d   1      -2.432   1.888  -4.617  0.00  0.00     0.017 A 
ATOM      5  C4  UNL d   1      -3.695   1.538  -5.107  0.00  0.00     0.017 A 
ATOM      6  C5  UNL d   1      -4.459   2.484  -5.798  0.00  0.00     0.034 A 
ATOM      7 Cl   UNL d   1      -4.367  -0.040  -4.895  0.00  0.00    -0.070 Cl
ATOM      8 Cl1  UNL d   1      -1.429   0.776  -3.756  0.00  0.00    -0.070 Cl
ENDROOT
TORSDOF 0
ENDMDL
