MODEL 1
REMARK minimizedAffinity -3.71911788
REMARK minimizedRMSD -1
REMARK  0 active torsions:
REMARK  status: ('A' for Active; 'I' for Inactive)
ROOT
ATOM      1  C   UNL d   1       4.601  -2.202  -2.312  0.00  0.00     0.020 A 
ATOM      2  C1  UNL d   1       3.400  -2.863  -2.057  0.00  0.00     0.020 A 
ATOM      3  C2  UNL d   1       2.328  -2.168  -1.491  0.00  0.00     0.034 A 
ATOM      4  C3  UNL d   1       2.455  -0.810  -1.180  0.00  0.00     0.017 A 
ATOM      5  C4  UNL d   1       3.661  -0.148  -1.437  0.00  0.00     0.017 A 
ATOM      6  C5  UNL d   1       4.731  -0.848  -2.003  0.00  0.00     0.034 A 
ATOM      7 Cl   UNL d   1       3.894   1.527  -1.081  0.00  0.00    -0.070 Cl
ATOM      8 Cl1  UNL d   1       1.089  -0.014  -0.483  0.00  0.00    -0.070 Cl
ENDROOT
TORSDOF 0
ENDMDL
