MODEL 1
REMARK minimizedAffinity -1.54455888
REMARK minimizedRMSD -1
REMARK  0 active torsions:
REMARK  status: ('A' for Active; 'I' for Inactive)
ROOT
ATOM      1  C   UNL d   1      -1.544   3.744  -5.646  0.00  0.00     0.020 A 
ATOM      2  C1  UNL d   1      -2.035   5.025  -5.895  0.00  0.00     0.020 A 
ATOM      3  C2  UNL d   1      -3.412   5.236  -5.999  0.00  0.00     0.034 A 
ATOM      4  C3  UNL d   1      -4.302   4.166  -5.853  0.00  0.00     0.017 A 
ATOM      5  C4  UNL d   1      -3.807   2.881  -5.602  0.00  0.00     0.017 A 
ATOM      6  C5  UNL d   1      -2.428   2.674  -5.499  0.00  0.00     0.034 A 
ATOM      7 Cl   UNL d   1      -4.843   1.511  -5.410  0.00  0.00    -0.070 Cl
ATOM      8 Cl1  UNL d   1      -5.991   4.501  -5.992  0.00  0.00    -0.070 Cl
ENDROOT
TORSDOF 0
ENDMDL
