MODEL 1
REMARK minimizedAffinity -0.579192042
REMARK minimizedRMSD -1
REMARK  0 active torsions:
REMARK  status: ('A' for Active; 'I' for Inactive)
ROOT
ATOM      1  C   UNL d   1      -2.123   3.158  -5.632  0.00  0.00     0.020 A 
ATOM      2  C1  UNL d   1      -2.112   4.550  -5.547  0.00  0.00     0.020 A 
ATOM      3  C2  UNL d   1      -3.312   5.262  -5.601  0.00  0.00     0.034 A 
ATOM      4  C3  UNL d   1      -4.528   4.583  -5.741  0.00  0.00     0.017 A 
ATOM      5  C4  UNL d   1      -4.538   3.186  -5.826  0.00  0.00     0.017 A 
ATOM      6  C5  UNL d   1      -3.333   2.478  -5.771  0.00  0.00     0.034 A 
ATOM      7 Cl   UNL d   1      -5.998   2.279  -5.999  0.00  0.00    -0.070 Cl
ATOM      8 Cl1  UNL d   1      -5.973   5.528  -5.800  0.00  0.00    -0.070 Cl
ENDROOT
TORSDOF 0
ENDMDL
