MODEL 1
REMARK minimizedAffinity 2.47831798
REMARK minimizedRMSD -1
REMARK  0 active torsions:
REMARK  status: ('A' for Active; 'I' for Inactive)
ROOT
ATOM      1  C   UNL d   1      -4.940   5.136  -5.988  0.00  0.00     0.020 A 
ATOM      2  C1  UNL d   1      -5.102   3.752  -5.999  0.00  0.00     0.020 A 
ATOM      3  C2  UNL d   1      -4.016   2.919  -5.720  0.00  0.00     0.034 A 
ATOM      4  C3  UNL d   1      -2.763   3.470  -5.430  0.00  0.00     0.017 A 
ATOM      5  C4  UNL d   1      -2.601   4.860  -5.420  0.00  0.00     0.017 A 
ATOM      6  C5  UNL d   1      -3.692   5.689  -5.699  0.00  0.00     0.034 A 
ATOM      7 Cl   UNL d   1      -1.085   5.614  -5.070  0.00  0.00    -0.070 Cl
ATOM      8 Cl1  UNL d   1      -1.464   2.381  -5.095  0.00  0.00    -0.070 Cl
ENDROOT
TORSDOF 0
ENDMDL
