MODEL 1
REMARK minimizedAffinity -1.93267763
REMARK minimizedRMSD -1
REMARK  0 active torsions:
REMARK  status: ('A' for Active; 'I' for Inactive)
ROOT
ATOM      1  C   UNL d   1      -1.210  -1.512  -1.327  0.00  0.00     0.020 A 
ATOM      2  C1  UNL d   1      -0.559  -1.209  -2.523  0.00  0.00     0.020 A 
ATOM      3  C2  UNL d   1       0.550  -0.360  -2.518  0.00  0.00     0.034 A 
ATOM      4  C3  UNL d   1       1.010   0.190  -1.317  0.00  0.00     0.017 A 
ATOM      5  C4  UNL d   1       0.357  -0.114  -0.117  0.00  0.00     0.017 A 
ATOM      6  C5  UNL d   1      -0.753  -0.965  -0.127  0.00  0.00     0.034 A 
ATOM      7 Cl   UNL d   1       0.867   0.526   1.405  0.00  0.00    -0.070 Cl
ATOM      8 Cl1  UNL d   1       2.387   1.233  -1.386  0.00  0.00    -0.070 Cl
ENDROOT
TORSDOF 0
ENDMDL
