MODEL 1
REMARK minimizedAffinity 2.62232924
REMARK minimizedRMSD -1
REMARK  0 active torsions:
REMARK  status: ('A' for Active; 'I' for Inactive)
ROOT
ATOM      1  C   UNL d   1      -1.036  -1.216  -2.757  0.00  0.00     0.020 A 
ATOM      2  C1  UNL d   1      -0.383  -0.165  -3.400  0.00  0.00     0.020 A 
ATOM      3  C2  UNL d   1       0.464   0.677  -2.676  0.00  0.00     0.034 A 
ATOM      4  C3  UNL d   1       0.660   0.470  -1.306  0.00  0.00     0.017 A 
ATOM      5  C4  UNL d   1       0.004  -0.586  -0.662  0.00  0.00     0.017 A 
ATOM      6  C5  UNL d   1      -0.843  -1.426  -1.392  0.00  0.00     0.034 A 
ATOM      7 Cl   UNL d   1       0.196  -0.905   1.026  0.00  0.00    -0.070 Cl
ATOM      8 Cl1  UNL d   1       1.721   1.549  -0.473  0.00  0.00    -0.070 Cl
ENDROOT
TORSDOF 0
ENDMDL
