MODEL 1
REMARK minimizedAffinity 6.05164289
REMARK minimizedRMSD -1
REMARK  0 active torsions:
REMARK  status: ('A' for Active; 'I' for Inactive)
ROOT
ATOM      1  C   UNL d   1      -5.586   3.070  -5.821  0.00  0.00     0.020 A 
ATOM      2  C1  UNL d   1      -4.844   1.966  -5.401  0.00  0.00     0.020 A 
ATOM      3  C2  UNL d   1      -3.475   2.097  -5.159  0.00  0.00     0.034 A 
ATOM      4  C3  UNL d   1      -2.844   3.334  -5.336  0.00  0.00     0.017 A 
ATOM      5  C4  UNL d   1      -3.590   4.441  -5.758  0.00  0.00     0.017 A 
ATOM      6  C5  UNL d   1      -4.960   4.304  -5.999  0.00  0.00     0.034 A 
ATOM      7 Cl   UNL d   1      -2.881   5.999  -5.998  0.00  0.00    -0.070 Cl
ATOM      8 Cl1  UNL d   1      -1.148   3.424  -5.018  0.00  0.00    -0.070 Cl
ENDROOT
TORSDOF 0
ENDMDL
