MODEL 1
REMARK minimizedAffinity -3.11485362
REMARK minimizedRMSD -1
REMARK  0 active torsions:
REMARK  status: ('A' for Active; 'I' for Inactive)
ROOT
ATOM      1  C   UNL d   1      -4.884   5.202  -5.994  0.00  0.00     0.020 A 
ATOM      2  C1  UNL d   1      -5.987   4.349  -5.997  0.00  0.00     0.020 A 
ATOM      3  C2  UNL d   1      -5.799   2.965  -5.996  0.00  0.00     0.034 A 
ATOM      4  C3  UNL d   1      -4.505   2.431  -5.992  0.00  0.00     0.017 A 
ATOM      5  C4  UNL d   1      -3.399   3.288  -5.988  0.00  0.00     0.017 A 
ATOM      6  C5  UNL d   1      -3.593   4.673  -5.989  0.00  0.00     0.034 A 
ATOM      7 Cl   UNL d   1      -1.773   2.703  -5.982  0.00  0.00    -0.070 Cl
ATOM      8 Cl1  UNL d   1      -4.347   0.710  -5.990  0.00  0.00    -0.070 Cl
ENDROOT
TORSDOF 0
ENDMDL
