MODEL 1
REMARK minimizedAffinity -2.49090648
REMARK minimizedRMSD -1
REMARK  0 active torsions:
REMARK  status: ('A' for Active; 'I' for Inactive)
ROOT
ATOM      1  C   UNL d   1      -4.016  -2.875  -5.684  0.00  0.00     0.020 A 
ATOM      2  C1  UNL d   1      -3.586  -4.163  -6.000  0.00  0.00     0.020 A 
ATOM      3  C2  UNL d   1      -2.302  -4.579  -5.639  0.00  0.00     0.034 A 
ATOM      4  C3  UNL d   1      -1.444  -3.706  -4.961  0.00  0.00     0.017 A 
ATOM      5  C4  UNL d   1      -1.877  -2.413  -4.644  0.00  0.00     0.017 A 
ATOM      6  C5  UNL d   1      -3.163  -2.002  -5.008  0.00  0.00     0.034 A 
ATOM      7 Cl   UNL d   1      -0.875  -1.279  -3.809  0.00  0.00    -0.070 Cl
ATOM      8 Cl1  UNL d   1       0.129  -4.287  -4.545  0.00  0.00    -0.070 Cl
ENDROOT
TORSDOF 0
ENDMDL
