MODEL 1
REMARK minimizedAffinity -0.346423328
REMARK minimizedRMSD -1
REMARK  0 active torsions:
REMARK  status: ('A' for Active; 'I' for Inactive)
ROOT
ATOM      1  C   UNL d   1      -4.611  -2.689  -5.991  0.00  0.00     0.020 A 
ATOM      2  C1  UNL d   1      -3.305  -3.068  -5.681  0.00  0.00     0.020 A 
ATOM      3  C2  UNL d   1      -2.349  -2.096  -5.379  0.00  0.00     0.034 A 
ATOM      4  C3  UNL d   1      -2.697  -0.740  -5.388  0.00  0.00     0.017 A 
ATOM      5  C4  UNL d   1      -4.008  -0.361  -5.699  0.00  0.00     0.017 A 
ATOM      6  C5  UNL d   1      -4.961  -1.338  -6.000  0.00  0.00     0.034 A 
ATOM      7 Cl   UNL d   1      -4.512   1.292  -5.730  0.00  0.00    -0.070 Cl
ATOM      8 Cl1  UNL d   1      -1.464   0.408  -5.005  0.00  0.00    -0.070 Cl
ENDROOT
TORSDOF 0
ENDMDL
