MODEL 1
REMARK minimizedAffinity -3.31841636
REMARK minimizedRMSD -1
REMARK  0 active torsions:
REMARK  status: ('A' for Active; 'I' for Inactive)
ROOT
ATOM      1  C   UNL d   1       2.363  -0.955  -2.546  0.00  0.00     0.020 A 
ATOM      2  C1  UNL d   1       2.990  -1.996  -1.862  0.00  0.00     0.020 A 
ATOM      3  C2  UNL d   1       4.056  -2.677  -2.453  0.00  0.00     0.034 A 
ATOM      4  C3  UNL d   1       4.498  -2.320  -3.732  0.00  0.00     0.017 A 
ATOM      5  C4  UNL d   1       3.868  -1.275  -4.418  0.00  0.00     0.017 A 
ATOM      6  C5  UNL d   1       2.801  -0.596  -3.821  0.00  0.00     0.034 A 
ATOM      7 Cl   UNL d   1       4.356  -0.777  -5.999  0.00  0.00    -0.070 Cl
ATOM      8 Cl1  UNL d   1       5.821  -3.206  -4.402  0.00  0.00    -0.070 Cl
ENDROOT
TORSDOF 0
ENDMDL
