MODEL 1
REMARK minimizedAffinity 4.56096649
REMARK minimizedRMSD -1
REMARK  0 active torsions:
REMARK  status: ('A' for Active; 'I' for Inactive)
ROOT
ATOM      1  C   UNL d   1      -5.902   4.369  -5.999  0.00  0.00     0.020 A 
ATOM      2  C1  UNL d   1      -4.674   5.030  -5.999  0.00  0.00     0.020 A 
ATOM      3  C2  UNL d   1      -3.511   4.341  -5.651  0.00  0.00     0.034 A 
ATOM      4  C3  UNL d   1      -3.572   2.988  -5.300  0.00  0.00     0.017 A 
ATOM      5  C4  UNL d   1      -4.805   2.325  -5.300  0.00  0.00     0.017 A 
ATOM      6  C5  UNL d   1      -5.967   3.020  -5.650  0.00  0.00     0.034 A 
ATOM      7 Cl   UNL d   1      -4.960   0.656  -4.880  0.00  0.00    -0.070 Cl
ATOM      8 Cl1  UNL d   1      -2.093   2.198  -4.881  0.00  0.00    -0.070 Cl
ENDROOT
TORSDOF 0
ENDMDL
