MODEL 1
REMARK minimizedAffinity 7.14780569
REMARK minimizedRMSD -1
REMARK  0 active torsions:
REMARK  status: ('A' for Active; 'I' for Inactive)
ROOT
ATOM      1  C   UNL d   1      -2.656   3.586   4.350  0.00  0.00     0.020 A 
ATOM      2  C1  UNL d   1      -3.755   2.928   4.901  0.00  0.00     0.020 A 
ATOM      3  C2  UNL d   1      -4.365   1.884   4.203  0.00  0.00     0.034 A 
ATOM      4  C3  UNL d   1      -3.878   1.496   2.949  0.00  0.00     0.017 A 
ATOM      5  C4  UNL d   1      -2.775   2.157   2.397  0.00  0.00     0.017 A 
ATOM      6  C5  UNL d   1      -2.168   3.202   3.101  0.00  0.00     0.034 A 
ATOM      7 Cl   UNL d   1      -2.117   1.735   0.856  0.00  0.00    -0.070 Cl
ATOM      8 Cl1  UNL d   1      -4.682   0.196   2.142  0.00  0.00    -0.070 Cl
ENDROOT
TORSDOF 0
ENDMDL
