MODEL 1
REMARK minimizedAffinity -1.68551397
REMARK minimizedRMSD -1
REMARK  0 active torsions:
REMARK  status: ('A' for Active; 'I' for Inactive)
ROOT
ATOM      1  C   UNL d   1      -3.021   1.150  -5.971  0.00  0.00     0.020 A 
ATOM      2  C1  UNL d   1      -4.401   1.347  -5.971  0.00  0.00     0.020 A 
ATOM      3  C2  UNL d   1      -5.264   0.249  -5.980  0.00  0.00     0.034 A 
ATOM      4  C3  UNL d   1      -4.747  -1.052  -5.989  0.00  0.00     0.017 A 
ATOM      5  C4  UNL d   1      -3.362  -1.249  -5.989  0.00  0.00     0.017 A 
ATOM      6  C5  UNL d   1      -2.503  -0.146  -5.980  0.00  0.00     0.034 A 
ATOM      7 Cl   UNL d   1      -2.650  -2.824  -6.000  0.00  0.00    -0.070 Cl
ATOM      8 Cl1  UNL d   1      -5.872  -2.363  -6.000  0.00  0.00    -0.070 Cl
ENDROOT
TORSDOF 0
ENDMDL
