MODEL 1
REMARK minimizedAffinity 0.445078522
REMARK minimizedRMSD -1
REMARK  0 active torsions:
REMARK  status: ('A' for Active; 'I' for Inactive)
ROOT
ATOM      1  C   UNL d   1      -1.065  -0.409  -3.011  0.00  0.00     0.020 A 
ATOM      2  C1  UNL d   1      -1.858  -1.552  -3.099  0.00  0.00     0.020 A 
ATOM      3  C2  UNL d   1      -3.157  -1.464  -3.604  0.00  0.00     0.034 A 
ATOM      4  C3  UNL d   1      -3.667  -0.229  -4.023  0.00  0.00     0.017 A 
ATOM      5  C4  UNL d   1      -2.870   0.918  -3.935  0.00  0.00     0.017 A 
ATOM      6  C5  UNL d   1      -1.570   0.823  -3.428  0.00  0.00     0.034 A 
ATOM      7 Cl   UNL d   1      -3.429   2.476  -4.432  0.00  0.00    -0.070 Cl
ATOM      8 Cl1  UNL d   1      -5.281  -0.194  -4.638  0.00  0.00    -0.070 Cl
ENDROOT
TORSDOF 0
ENDMDL
