MODEL 1
REMARK minimizedAffinity 3.09940624
REMARK minimizedRMSD -1
REMARK  0 active torsions:
REMARK  status: ('A' for Active; 'I' for Inactive)
ROOT
ATOM      1  C   UNL d   1      -1.513  -2.948   0.353  0.00  0.00     0.078 C 
ATOM      2  C1  UNL d   1      -2.278  -1.853  -0.328  0.00  0.00    -0.077 A 
ATOM      3  C2  UNL d   1      -1.645  -0.972  -1.212  0.00  0.00    -0.001 A 
ATOM      4  C3  UNL d   1      -2.368   0.049  -1.831  0.00  0.00     0.003 A 
ATOM      5  C4  UNL d   1      -3.729   0.199  -1.571  0.00  0.00    -0.005 A 
ATOM      6  C5  UNL d   1      -4.367  -0.672  -0.690  0.00  0.00     0.003 A 
ATOM      7  C6  UNL d   1      -3.646  -1.693  -0.071  0.00  0.00    -0.001 A 
ENDROOT
TORSDOF 0
ENDMDL
