MODEL 1
REMARK minimizedAffinity 4.19068003
REMARK minimizedRMSD -1
REMARK  0 active torsions:
REMARK  status: ('A' for Active; 'I' for Inactive)
ROOT
ATOM      1  C   UNL d   1      -1.262  -2.600   3.811  0.00  0.00     0.078 C 
ATOM      2  C1  UNL d   1      -1.266  -3.051   2.381  0.00  0.00    -0.077 A 
ATOM      3  C2  UNL d   1      -0.649  -4.249   2.001  0.00  0.00    -0.001 A 
ATOM      4  C3  UNL d   1      -0.651  -4.652   0.665  0.00  0.00     0.003 A 
ATOM      5  C4  UNL d   1      -1.268  -3.862  -0.303  0.00  0.00    -0.005 A 
ATOM      6  C5  UNL d   1      -1.883  -2.666   0.065  0.00  0.00     0.003 A 
ATOM      7  C6  UNL d   1      -1.881  -2.262   1.401  0.00  0.00    -0.001 A 
ENDROOT
TORSDOF 0
ENDMDL
