MODEL 1
REMARK minimizedAffinity 5.44301748
REMARK minimizedRMSD -1
REMARK  0 active torsions:
REMARK  status: ('A' for Active; 'I' for Inactive)
ROOT
ATOM      1  C   UNL d   1      -3.672  -2.617   0.138  0.00  0.00     0.078 C 
ATOM      2  C1  UNL d   1      -2.325  -3.276   0.145  0.00  0.00    -0.077 A 
ATOM      3  C2  UNL d   1      -1.199  -2.622  -0.370  0.00  0.00    -0.001 A 
ATOM      4  C3  UNL d   1       0.046  -3.252  -0.365  0.00  0.00     0.003 A 
ATOM      5  C4  UNL d   1       0.178  -4.540   0.152  0.00  0.00    -0.005 A 
ATOM      6  C5  UNL d   1      -0.938  -5.199   0.664  0.00  0.00     0.003 A 
ATOM      7  C6  UNL d   1      -2.184  -4.571   0.660  0.00  0.00    -0.001 A 
ENDROOT
TORSDOF 0
ENDMDL
