MODEL 1
REMARK minimizedAffinity -0.686574638
REMARK minimizedRMSD -1
REMARK  0 active torsions:
REMARK  status: ('A' for Active; 'I' for Inactive)
ROOT
ATOM      1  C   UNL d   1       0.640  -4.581  -0.002  0.00  0.00     0.078 C 
ATOM      2  C1  UNL d   1      -0.589  -3.733   0.142  0.00  0.00    -0.077 A 
ATOM      3  C2  UNL d   1      -1.608  -3.772  -0.816  0.00  0.00    -0.001 A 
ATOM      4  C3  UNL d   1      -2.742  -2.971  -0.674  0.00  0.00     0.003 A 
ATOM      5  C4  UNL d   1      -2.866  -2.123   0.426  0.00  0.00    -0.005 A 
ATOM      6  C5  UNL d   1      -1.856  -2.076   1.384  0.00  0.00     0.003 A 
ATOM      7  C6  UNL d   1      -0.721  -2.877   1.243  0.00  0.00    -0.001 A 
ENDROOT
TORSDOF 0
ENDMDL
