MODEL 1
REMARK minimizedAffinity 8.66399574
REMARK minimizedRMSD -1
REMARK  0 active torsions:
REMARK  status: ('A' for Active; 'I' for Inactive)
ROOT
ATOM      1  C   UNL d   1      -0.568   0.198  -3.374  0.00  0.00     0.078 C 
ATOM      2  C1  UNL d   1      -2.018   0.580  -3.358  0.00  0.00    -0.077 A 
ATOM      3  C2  UNL d   1      -2.828   0.289  -2.254  0.00  0.00    -0.001 A 
ATOM      4  C3  UNL d   1      -4.179   0.641  -2.258  0.00  0.00     0.003 A 
ATOM      5  C4  UNL d   1      -4.731   1.285  -3.363  0.00  0.00    -0.005 A 
ATOM      6  C5  UNL d   1      -3.933   1.577  -4.468  0.00  0.00     0.003 A 
ATOM      7  C6  UNL d   1      -2.582   1.225  -4.466  0.00  0.00    -0.001 A 
ENDROOT
TORSDOF 0
ENDMDL
