MODEL 1
REMARK minimizedAffinity -2.69971657
REMARK minimizedRMSD -1
REMARK  0 active torsions:
REMARK  status: ('A' for Active; 'I' for Inactive)
ROOT
ATOM      1  C   UNL d   1      -0.785   2.358  -0.697  0.00  0.00     0.078 C 
ATOM      2  C1  UNL d   1      -0.057   1.389   0.186  0.00  0.00    -0.077 A 
ATOM      3  C2  UNL d   1       0.700   0.344  -0.360  0.00  0.00    -0.001 A 
ATOM      4  C3  UNL d   1       1.365  -0.556   0.474  0.00  0.00     0.003 A 
ATOM      5  C4  UNL d   1       1.279  -0.422   1.858  0.00  0.00    -0.005 A 
ATOM      6  C5  UNL d   1       0.526   0.612   2.410  0.00  0.00     0.003 A 
ATOM      7  C6  UNL d   1      -0.139   1.514   1.578  0.00  0.00    -0.001 A 
ENDROOT
TORSDOF 0
ENDMDL
