MODEL 1
REMARK minimizedAffinity 3.02360272
REMARK minimizedRMSD -1
REMARK  0 active torsions:
REMARK  status: ('A' for Active; 'I' for Inactive)
ROOT
ATOM      1  C   UNL d   1      -3.613   4.106  -1.846  0.00  0.00     0.078 C 
ATOM      2  C1  UNL d   1      -2.242   3.609  -1.496  0.00  0.00    -0.077 A 
ATOM      3  C2  UNL d   1      -1.133   4.462  -1.537  0.00  0.00    -0.001 A 
ATOM      4  C3  UNL d   1       0.138   3.983  -1.219  0.00  0.00     0.003 A 
ATOM      5  C4  UNL d   1       0.313   2.648  -0.859  0.00  0.00    -0.005 A 
ATOM      6  C5  UNL d   1      -0.784   1.790  -0.818  0.00  0.00     0.003 A 
ATOM      7  C6  UNL d   1      -2.057   2.268  -1.136  0.00  0.00    -0.001 A 
ENDROOT
TORSDOF 0
ENDMDL
