MODEL 1
REMARK minimizedAffinity -2.24944091
REMARK minimizedRMSD -1
REMARK  0 active torsions:
REMARK  status: ('A' for Active; 'I' for Inactive)
ROOT
ATOM      1  C1  DEN d   1      -0.008  -2.630  -4.751  0.00  0.00     0.130 A 
ATOM      2  C2  DEN d   1       0.358  -1.270  -5.137  0.00  0.00    -0.031 A 
ATOM      3  C3  DEN d   1       0.348  -0.432  -3.921  0.00  0.00     0.027 A 
ATOM      4  C4  DEN d   1      -0.193  -1.105  -1.491  0.00  0.00     0.027 A 
ATOM      5  C5  DEN d   1      -0.570  -2.147  -0.672  0.00  0.00    -0.003 A 
ATOM      6  C6  DEN d   1      -0.817  -3.404  -1.156  0.00  0.00     0.001 A 
ATOM      7  C7  DEN d   1      -0.646  -3.663  -2.490  0.00  0.00     0.017 A 
ATOM      8  C8  DEN d   1      -0.274  -2.616  -3.323  0.00  0.00    -0.094 A 
ATOM      9  C9  DEN d   1      -0.017  -1.355  -2.813  0.00  0.00    -0.072 A 
ENDROOT
TORSDOF 0
ENDMDL
