MODEL 1
REMARK minimizedAffinity -3.76415157
REMARK minimizedRMSD -1
REMARK  0 active torsions:
REMARK  status: ('A' for Active; 'I' for Inactive)
ROOT
ATOM      1  C1  DEN d   1       0.076  -0.639  -1.123  0.00  0.00     0.130 A 
ATOM      2  C2  DEN d   1      -0.602  -1.459  -0.122  0.00  0.00    -0.031 A 
ATOM      3  C3  DEN d   1      -0.979  -0.584   1.006  0.00  0.00     0.027 A 
ATOM      4  C4  DEN d   1      -0.586   1.948   1.297  0.00  0.00     0.027 A 
ATOM      5  C5  DEN d   1      -0.043   3.074   0.718  0.00  0.00    -0.003 A 
ATOM      6  C6  DEN d   1       0.603   3.035  -0.489  0.00  0.00     0.001 A 
ATOM      7  C7  DEN d   1       0.682   1.854  -1.179  0.00  0.00     0.017 A 
ATOM      8  C8  DEN d   1       0.143   0.713  -0.598  0.00  0.00    -0.094 A 
ATOM      9  C9  DEN d   1      -0.517   0.776   0.617  0.00  0.00    -0.072 A 
ENDROOT
TORSDOF 0
ENDMDL
