MODEL 1
REMARK minimizedAffinity -3.02937961
REMARK minimizedRMSD -1
REMARK  0 active torsions:
REMARK  status: ('A' for Active; 'I' for Inactive)
ROOT
ATOM      1  C1  DEN d   1      -1.624  -0.209   0.930  0.00  0.00     0.130 A 
ATOM      2  C2  DEN d   1      -0.960  -1.390   0.386  0.00  0.00    -0.031 A 
ATOM      3  C3  DEN d   1       0.260  -0.945  -0.316  0.00  0.00     0.027 A 
ATOM      4  C4  DEN d   1       1.183   1.446  -0.608  0.00  0.00     0.027 A 
ATOM      5  C5  DEN d   1       0.960   2.777  -0.332  0.00  0.00    -0.003 A 
ATOM      6  C6  DEN d   1      -0.149   3.205   0.349  0.00  0.00     0.001 A 
ATOM      7  C7  DEN d   1      -1.054   2.290   0.816  0.00  0.00     0.017 A 
ATOM      8  C8  DEN d   1      -0.839   0.947   0.536  0.00  0.00    -0.094 A 
ATOM      9  C9  DEN d   1       0.294   0.532  -0.144  0.00  0.00    -0.072 A 
ENDROOT
TORSDOF 0
ENDMDL
