MODEL 1
REMARK minimizedAffinity -6.06164503
REMARK minimizedRMSD -1
REMARK  0 active torsions:
REMARK  status: ('A' for Active; 'I' for Inactive)
ROOT
ATOM      1  C1  DEN d   1       0.988  -0.448   0.289  0.00  0.00     0.130 A 
ATOM      2  C2  DEN d   1      -0.440  -0.732   0.172  0.00  0.00    -0.031 A 
ATOM      3  C3  DEN d   1      -1.151   0.554   0.030  0.00  0.00     0.027 A 
ATOM      4  C4  DEN d   1      -0.186   2.945  -0.025  0.00  0.00     0.027 A 
ATOM      5  C5  DEN d   1       0.970   3.691   0.050  0.00  0.00    -0.003 A 
ATOM      6  C6  DEN d   1       2.199   3.116   0.243  0.00  0.00     0.001 A 
ATOM      7  C7  DEN d   1       2.306   1.753   0.321  0.00  0.00     0.017 A 
ATOM      8  C8  DEN d   1       1.144   0.995   0.254  0.00  0.00    -0.094 A 
ATOM      9  C9  DEN d   1      -0.087   1.593   0.047  0.00  0.00    -0.072 A 
ENDROOT
TORSDOF 0
ENDMDL
