MODEL 1
REMARK minimizedAffinity -3.52435923
REMARK minimizedRMSD -1
REMARK  0 active torsions:
REMARK  status: ('A' for Active; 'I' for Inactive)
ROOT
ATOM      1  C1  DEN d   1       0.995   2.600  -0.098  0.00  0.00     0.130 A 
ATOM      2  C2  DEN d   1      -0.394   2.931  -0.405  0.00  0.00    -0.031 A 
ATOM      3  C3  DEN d   1      -1.205   1.711  -0.222  0.00  0.00     0.027 A 
ATOM      4  C4  DEN d   1      -0.450  -0.645   0.508  0.00  0.00     0.027 A 
ATOM      5  C5  DEN d   1       0.634  -1.415   0.867  0.00  0.00    -0.003 A 
ATOM      6  C6  DEN d   1       1.908  -0.914   0.897  0.00  0.00     0.001 A 
ATOM      7  C7  DEN d   1       2.125   0.406   0.605  0.00  0.00     0.017 A 
ATOM      8  C8  DEN d   1       1.038   1.188   0.235  0.00  0.00    -0.094 A 
ATOM      9  C9  DEN d   1      -0.244   0.666   0.223  0.00  0.00    -0.072 A 
ENDROOT
TORSDOF 0
ENDMDL
