MODEL 1
REMARK minimizedAffinity -5.22461033
REMARK minimizedRMSD -1
REMARK  0 active torsions:
REMARK  status: ('A' for Active; 'I' for Inactive)
ROOT
ATOM      1  C1  DEN d   1      -1.663  -0.011   1.447  0.00  0.00     0.130 A 
ATOM      2  C2  DEN d   1      -0.821  -1.187   1.244  0.00  0.00    -0.031 A 
ATOM      3  C3  DEN d   1       0.346  -0.778   0.435  0.00  0.00     0.027 A 
ATOM      4  C4  DEN d   1       0.930   1.549  -0.511  0.00  0.00     0.027 A 
ATOM      5  C5  DEN d   1       0.511   2.858  -0.610  0.00  0.00    -0.003 A 
ATOM      6  C6  DEN d   1      -0.668   3.291  -0.064  0.00  0.00     0.001 A 
ATOM      7  C7  DEN d   1      -1.448   2.417   0.646  0.00  0.00     0.017 A 
ATOM      8  C8  DEN d   1      -1.037   1.094   0.744  0.00  0.00    -0.094 A 
ATOM      9  C9  DEN d   1       0.164   0.679   0.195  0.00  0.00    -0.072 A 
ENDROOT
TORSDOF 0
ENDMDL
