MODEL 1
REMARK minimizedAffinity 3.17315412
REMARK minimizedRMSD -1
REMARK  0 active torsions:
REMARK  status: ('A' for Active; 'I' for Inactive)
ROOT
ATOM      1  C1  DEN d   1      -4.415  -4.686  -0.912  0.00  0.00     0.130 A 
ATOM      2  C2  DEN d   1      -4.303  -5.582   0.236  0.00  0.00    -0.031 A 
ATOM      3  C3  DEN d   1      -2.872  -5.712   0.577  0.00  0.00     0.027 A 
ATOM      4  C4  DEN d   1      -0.829  -4.614  -0.553  0.00  0.00     0.027 A 
ATOM      5  C5  DEN d   1      -0.423  -3.783  -1.573  0.00  0.00    -0.003 A 
ATOM      6  C6  DEN d   1      -1.308  -3.226  -2.458  0.00  0.00     0.001 A 
ATOM      7  C7  DEN d   1      -2.650  -3.457  -2.312  0.00  0.00     0.017 A 
ATOM      8  C8  DEN d   1      -3.067  -4.301  -1.290  0.00  0.00    -0.094 A 
ATOM      9  C9  DEN d   1      -2.158  -4.844  -0.399  0.00  0.00    -0.072 A 
ENDROOT
TORSDOF 0
ENDMDL
