MODEL 1
REMARK minimizedAffinity -3.50833511
REMARK minimizedRMSD -1
REMARK  0 active torsions:
REMARK  status: ('A' for Active; 'I' for Inactive)
ROOT
ATOM      1  C1  DEN d   1       0.744  -0.797  -0.708  0.00  0.00     0.130 A 
ATOM      2  C2  DEN d   1       0.082  -0.224   0.461  0.00  0.00    -0.031 A 
ATOM      3  C3  DEN d   1      -1.123  -1.030   0.744  0.00  0.00     0.027 A 
ATOM      4  C4  DEN d   1      -2.021  -3.100  -0.505  0.00  0.00     0.027 A 
ATOM      5  C5  DEN d   1      -1.806  -3.951  -1.567  0.00  0.00    -0.003 A 
ATOM      6  C6  DEN d   1      -0.754  -3.791  -2.430  0.00  0.00     0.001 A 
ATOM      7  C7  DEN d   1       0.149  -2.783  -2.219  0.00  0.00     0.017 A 
ATOM      8  C8  DEN d   1      -0.065  -1.917  -1.155  0.00  0.00    -0.094 A 
ATOM      9  C9  DEN d   1      -1.127  -2.102  -0.287  0.00  0.00    -0.072 A 
ENDROOT
TORSDOF 0
ENDMDL
