MODEL 1
REMARK minimizedAffinity -3.67429972
REMARK minimizedRMSD -1
REMARK  0 active torsions:
REMARK  status: ('A' for Active; 'I' for Inactive)
ROOT
ATOM      1  C1  DEN d   1       1.122  -0.605  -0.554  0.00  0.00     0.130 A 
ATOM      2  C2  DEN d   1       0.180  -1.664  -0.203  0.00  0.00    -0.031 A 
ATOM      3  C3  DEN d   1      -1.052  -1.029   0.306  0.00  0.00     0.027 A 
ATOM      4  C4  DEN d   1      -1.592   1.478   0.578  0.00  0.00     0.027 A 
ATOM      5  C5  DEN d   1      -1.100   2.755   0.424  0.00  0.00    -0.003 A 
ATOM      6  C6  DEN d   1       0.168   2.999  -0.031  0.00  0.00     0.001 A 
ATOM      7  C7  DEN d   1       0.973   1.951  -0.392  0.00  0.00     0.017 A 
ATOM      8  C8  DEN d   1       0.487   0.660  -0.232  0.00  0.00    -0.094 A 
ATOM      9  C9  DEN d   1      -0.802   0.435   0.219  0.00  0.00    -0.072 A 
ENDROOT
TORSDOF 0
ENDMDL
