MODEL 1
REMARK minimizedAffinity -5.85347748
REMARK minimizedRMSD -1
REMARK  0 active torsions:
REMARK  status: ('A' for Active; 'I' for Inactive)
ROOT
ATOM      1  C1  DEN d   1      -1.101   0.215   0.182  0.00  0.00     0.130 A 
ATOM      2  C2  DEN d   1      -0.424  -1.077   0.103  0.00  0.00    -0.031 A 
ATOM      3  C3  DEN d   1       1.031  -0.835   0.180  0.00  0.00     0.027 A 
ATOM      4  C4  DEN d   1       2.294   1.401   0.416  0.00  0.00     0.027 A 
ATOM      5  C5  DEN d   1       2.150   2.767   0.510  0.00  0.00    -0.003 A 
ATOM      6  C6  DEN d   1       0.924   3.377   0.468  0.00  0.00     0.001 A 
ATOM      7  C7  DEN d   1      -0.210   2.614   0.373  0.00  0.00     0.017 A 
ATOM      8  C8  DEN d   1      -0.072   1.236   0.270  0.00  0.00    -0.094 A 
ATOM      9  C9  DEN d   1       1.175   0.638   0.327  0.00  0.00    -0.072 A 
ENDROOT
TORSDOF 0
ENDMDL
