MODEL 1
REMARK minimizedAffinity -2.52937698
REMARK minimizedRMSD -1
REMARK  0 active torsions:
REMARK  status: ('A' for Active; 'I' for Inactive)
ROOT
ATOM      1  C1  DEN d   1       0.165  -2.496  -2.634  0.00  0.00     0.130 A 
ATOM      2  C2  DEN d   1      -0.365  -3.718  -2.037  0.00  0.00    -0.031 A 
ATOM      3  C3  DEN d   1      -0.575  -3.470  -0.597  0.00  0.00     0.027 A 
ATOM      4  C4  DEN d   1      -0.137  -1.320   0.759  0.00  0.00     0.027 A 
ATOM      5  C5  DEN d   1       0.323  -0.024   0.690  0.00  0.00    -0.003 A 
ATOM      6  C6  DEN d   1       0.790   0.525  -0.475  0.00  0.00     0.001 A 
ATOM      7  C7  DEN d   1       0.766  -0.212  -1.629  0.00  0.00     0.017 A 
ATOM      8  C8  DEN d   1       0.311  -1.523  -1.566  0.00  0.00    -0.094 A 
ATOM      9  C9  DEN d   1      -0.169  -2.055  -0.381  0.00  0.00    -0.072 A 
ENDROOT
TORSDOF 0
ENDMDL
