MODEL 1
REMARK minimizedAffinity -4.98182249
REMARK minimizedRMSD -1
REMARK  0 active torsions:
REMARK  status: ('A' for Active; 'I' for Inactive)
ROOT
ATOM      1  C1  DEN d   1      -1.266  -1.265  -0.149  0.00  0.00     0.130 A 
ATOM      2  C2  DEN d   1      -0.161  -2.203   0.027  0.00  0.00    -0.031 A 
ATOM      3  C3  DEN d   1       1.055  -1.424   0.335  0.00  0.00     0.027 A 
ATOM      4  C4  DEN d   1       1.331   1.131   0.559  0.00  0.00     0.027 A 
ATOM      5  C5  DEN d   1       0.678   2.342   0.485  0.00  0.00    -0.003 A 
ATOM      6  C6  DEN d   1      -0.650   2.436   0.163  0.00  0.00     0.001 A 
ATOM      7  C7  DEN d   1      -1.379   1.296  -0.052  0.00  0.00     0.017 A 
ATOM      8  C8  DEN d   1      -0.726   0.073   0.014  0.00  0.00    -0.094 A 
ATOM      9  C9  DEN d   1       0.614  -0.003   0.353  0.00  0.00    -0.072 A 
ENDROOT
TORSDOF 0
ENDMDL
