MODEL 1
REMARK minimizedAffinity -3.516922
REMARK minimizedRMSD -1
REMARK  0 active torsions:
REMARK  status: ('A' for Active; 'I' for Inactive)
ROOT
ATOM      1  C1  DEN d   1       2.130   0.480  -0.368  0.00  0.00     0.130 A 
ATOM      2  C2  DEN d   1       1.564  -0.858  -0.219  0.00  0.00    -0.031 A 
ATOM      3  C3  DEN d   1       0.137  -0.714   0.132  0.00  0.00     0.027 A 
ATOM      4  C4  DEN d   1      -1.246   1.440   0.453  0.00  0.00     0.027 A 
ATOM      5  C5  DEN d   1      -1.198   2.816   0.442  0.00  0.00    -0.003 A 
ATOM      6  C6  DEN d   1      -0.040   3.505   0.196  0.00  0.00     0.001 A 
ATOM      7  C7  DEN d   1       1.110   2.818  -0.094  0.00  0.00     0.017 A 
ATOM      8  C8  DEN d   1       1.071   1.430  -0.078  0.00  0.00    -0.094 A 
ATOM      9  C9  DEN d   1      -0.112   0.752   0.161  0.00  0.00    -0.072 A 
ENDROOT
TORSDOF 0
ENDMDL
