MODEL 1
REMARK minimizedAffinity -3.13262033
REMARK minimizedRMSD -1
REMARK  0 active torsions:
REMARK  status: ('A' for Active; 'I' for Inactive)
ROOT
ATOM      1  C1  DEN d   1      -0.506  -1.054   1.190  0.00  0.00     0.130 A 
ATOM      2  C2  DEN d   1      -1.819  -0.421   1.275  0.00  0.00    -0.031 A 
ATOM      3  C3  DEN d   1      -1.762   0.852   0.530  0.00  0.00     0.027 A 
ATOM      4  C4  DEN d   1       0.222   1.898  -0.745  0.00  0.00     0.027 A 
ATOM      5  C5  DEN d   1       1.546   1.736  -1.089  0.00  0.00    -0.003 A 
ATOM      6  C6  DEN d   1       2.282   0.658  -0.672  0.00  0.00     0.001 A 
ATOM      7  C7  DEN d   1       1.686  -0.323   0.075  0.00  0.00     0.017 A 
ATOM      8  C8  DEN d   1       0.354  -0.163   0.432  0.00  0.00    -0.094 A 
ATOM      9  C9  DEN d   1      -0.377   0.928  -0.009  0.00  0.00    -0.072 A 
ENDROOT
TORSDOF 0
ENDMDL
