MODEL 1
REMARK minimizedAffinity -3.01695514
REMARK minimizedRMSD -1
REMARK  2 active torsions:
REMARK  status: ('A' for Active; 'I' for Inactive)
REMARK    1  A    between atoms: C1_2  and  C2_3 
REMARK    2  A    between atoms: C2_3  and  C3_4 
ROOT
ATOM      1  C3  UNL d   1      -3.572  -3.764  -5.651  0.00  0.00    -0.075 A 
ATOM      2  C4  UNL d   1      -4.802  -4.345  -5.992  0.00  0.00     0.002 A 
ATOM      3  C5  UNL d   1      -5.999  -3.694  -5.692  0.00  0.00     0.002 A 
ATOM      4  C6  UNL d   1      -5.983  -2.463  -5.041  0.00  0.00    -0.004 A 
ATOM      5  C7  UNL d   1      -4.767  -1.884  -4.683  0.00  0.00     0.002 A 
ATOM      6  C8  UNL d   1      -3.567  -2.531  -4.986  0.00  0.00     0.002 A 
ENDROOT
BRANCH   1   7
ATOM      7  C2  UNL d   1      -2.272  -4.449  -5.999  0.00  0.00     0.056 C 
BRANCH   7   8
ATOM      8  C1  UNL d   1      -2.107  -5.834  -5.364  0.00  0.00     0.007 C 
ATOM      9  C   UNL d   1      -2.897  -6.000  -4.072  0.00  0.00     0.009 C 
ENDBRANCH   7   8
ENDBRANCH   1   7
TORSDOF 2
ENDMDL
