MODEL 1
REMARK minimizedAffinity -3.19213367
REMARK minimizedRMSD -1
REMARK  2 active torsions:
REMARK  status: ('A' for Active; 'I' for Inactive)
REMARK    1  A    between atoms: C1_2  and  C2_3 
REMARK    2  A    between atoms: C2_3  and  C3_4 
ROOT
ATOM      1  C3  UNL d   1      -5.380  -3.086  -3.659  0.00  0.00    -0.075 A 
ATOM      2  C4  UNL d   1      -5.995  -3.131  -4.918  0.00  0.00     0.002 A 
ATOM      3  C5  UNL d   1      -5.435  -3.880  -5.954  0.00  0.00     0.002 A 
ATOM      4  C6  UNL d   1      -4.251  -4.584  -5.747  0.00  0.00    -0.004 A 
ATOM      5  C7  UNL d   1      -3.623  -4.534  -4.504  0.00  0.00     0.002 A 
ATOM      6  C8  UNL d   1      -4.183  -3.789  -3.465  0.00  0.00     0.002 A 
ENDROOT
BRANCH   1   7
ATOM      7  C2  UNL d   1      -5.997  -2.301  -2.526  0.00  0.00     0.056 C 
BRANCH   7   8
ATOM      8  C1  UNL d   1      -5.999  -0.785  -2.746  0.00  0.00     0.007 C 
ATOM      9  C   UNL d   1      -6.000   0.010  -1.447  0.00  0.00     0.009 C 
ENDBRANCH   7   8
ENDBRANCH   1   7
TORSDOF 2
ENDMDL
