MODEL 1
REMARK minimizedAffinity -0.0249545649
REMARK minimizedRMSD -1
REMARK  2 active torsions:
REMARK  status: ('A' for Active; 'I' for Inactive)
REMARK    1  A    between atoms: C1_2  and  C2_3 
REMARK    2  A    between atoms: C2_3  and  C3_4 
ROOT
ATOM      1  C3  UNL d   1      -4.115  -4.011  -4.580  0.00  0.00    -0.075 A 
ATOM      2  C4  UNL d   1      -3.415  -4.211  -5.778  0.00  0.00     0.002 A 
ATOM      3  C5  UNL d   1      -2.101  -4.680  -5.761  0.00  0.00     0.002 A 
ATOM      4  C6  UNL d   1      -1.468  -4.943  -4.548  0.00  0.00    -0.004 A 
ATOM      5  C7  UNL d   1      -2.148  -4.732  -3.351  0.00  0.00     0.002 A 
ATOM      6  C8  UNL d   1      -3.465  -4.268  -3.366  0.00  0.00     0.002 A 
ENDROOT
BRANCH   1   7
ATOM      7  C2  UNL d   1      -5.547  -3.532  -4.593  0.00  0.00     0.056 C 
BRANCH   7   8
ATOM      8  C1  UNL d   1      -6.000  -2.955  -5.938  0.00  0.00     0.007 C 
ATOM      9  C   UNL d   1      -5.912  -1.436  -6.000  0.00  0.00     0.009 C 
ENDBRANCH   7   8
ENDBRANCH   1   7
TORSDOF 2
ENDMDL
