MODEL 1
REMARK minimizedAffinity -3.81128073
REMARK minimizedRMSD -1
REMARK  2 active torsions:
REMARK  status: ('A' for Active; 'I' for Inactive)
REMARK    1  A    between atoms: C1_2  and  C2_3 
REMARK    2  A    between atoms: C2_3  and  C3_4 
ROOT
ATOM      1  C3  UNL d   1      -4.694  -3.616  -5.486  0.00  0.00    -0.075 A 
ATOM      2  C4  UNL d   1      -4.939  -4.866  -4.898  0.00  0.00     0.002 A 
ATOM      3  C5  UNL d   1      -3.892  -5.759  -4.670  0.00  0.00     0.002 A 
ATOM      4  C6  UNL d   1      -2.591  -5.420  -5.034  0.00  0.00    -0.004 A 
ATOM      5  C7  UNL d   1      -2.338  -4.188  -5.634  0.00  0.00     0.002 A 
ATOM      6  C8  UNL d   1      -3.383  -3.291  -5.860  0.00  0.00     0.002 A 
ENDROOT
BRANCH   1   7
ATOM      7  C2  UNL d   1      -5.818  -2.633  -5.709  0.00  0.00     0.056 C 
BRANCH   7   8
ATOM      8  C1  UNL d   1      -5.714  -1.363  -4.859  0.00  0.00     0.007 C 
ATOM      9  C   UNL d   1      -6.000  -1.603  -3.383  0.00  0.00     0.009 C 
ENDBRANCH   7   8
ENDBRANCH   1   7
TORSDOF 2
ENDMDL
