MODEL 1
REMARK minimizedAffinity -1.96130729
REMARK minimizedRMSD -1
REMARK  2 active torsions:
REMARK  status: ('A' for Active; 'I' for Inactive)
REMARK    1  A    between atoms: C1_2  and  C2_3 
REMARK    2  A    between atoms: C2_3  and  C3_4 
ROOT
ATOM      1  C3  UNL d   1      -3.998  -4.581  -5.549  0.00  0.00    -0.075 A 
ATOM      2  C4  UNL d   1      -4.016  -3.253  -6.000  0.00  0.00     0.002 A 
ATOM      3  C5  UNL d   1      -5.007  -2.371  -5.568  0.00  0.00     0.002 A 
ATOM      4  C6  UNL d   1      -5.998  -2.808  -4.691  0.00  0.00    -0.004 A 
ATOM      5  C7  UNL d   1      -6.000  -4.129  -4.250  0.00  0.00     0.002 A 
ATOM      6  C8  UNL d   1      -5.006  -5.012  -4.677  0.00  0.00     0.002 A 
ENDROOT
BRANCH   1   7
ATOM      7  C2  UNL d   1      -2.911  -5.532  -5.990  0.00  0.00     0.056 C 
BRANCH   7   8
ATOM      8  C1  UNL d   1      -1.506  -5.128  -5.531  0.00  0.00     0.007 C 
ATOM      9  C   UNL d   1      -1.488  -4.474  -4.155  0.00  0.00     0.009 C 
ENDBRANCH   7   8
ENDBRANCH   1   7
TORSDOF 2
ENDMDL
