MODEL 1
REMARK minimizedAffinity -3.18935585
REMARK minimizedRMSD -1
REMARK  2 active torsions:
REMARK  status: ('A' for Active; 'I' for Inactive)
REMARK    1  A    between atoms: C1_2  and  C2_3 
REMARK    2  A    between atoms: C2_3  and  C3_4 
ROOT
ATOM      1  C3  UNL d   1      -4.477  -4.288  -4.988  0.00  0.00    -0.075 A 
ATOM      2  C4  UNL d   1      -3.567  -3.545  -5.755  0.00  0.00     0.002 A 
ATOM      3  C5  UNL d   1      -2.283  -4.032  -5.999  0.00  0.00     0.002 A 
ATOM      4  C6  UNL d   1      -1.889  -5.260  -5.472  0.00  0.00    -0.004 A 
ATOM      5  C7  UNL d   1      -2.778  -5.998  -4.695  0.00  0.00     0.002 A 
ATOM      6  C8  UNL d   1      -4.066  -5.516  -4.453  0.00  0.00     0.002 A 
ENDROOT
BRANCH   1   7
ATOM      7  C2  UNL d   1      -5.878  -3.780  -4.746  0.00  0.00     0.056 C 
BRANCH   7   8
ATOM      8  C1  UNL d   1      -5.953  -2.282  -4.430  0.00  0.00     0.007 C 
ATOM      9  C   UNL d   1      -5.968  -1.407  -5.676  0.00  0.00     0.009 C 
ENDBRANCH   7   8
ENDBRANCH   1   7
TORSDOF 2
ENDMDL
