MODEL 1
REMARK minimizedAffinity -2.83715963
REMARK minimizedRMSD -1
REMARK  2 active torsions:
REMARK  status: ('A' for Active; 'I' for Inactive)
REMARK    1  A    between atoms: C1_2  and  C2_3 
REMARK    2  A    between atoms: C2_3  and  C3_4 
ROOT
ATOM      1  C3  UNL d   1      -4.073  -3.734  -4.622  0.00  0.00    -0.075 A 
ATOM      2  C4  UNL d   1      -2.772  -3.719  -5.144  0.00  0.00     0.002 A 
ATOM      3  C5  UNL d   1      -2.272  -4.825  -5.833  0.00  0.00     0.002 A 
ATOM      4  C6  UNL d   1      -3.062  -5.961  -5.999  0.00  0.00    -0.004 A 
ATOM      5  C7  UNL d   1      -4.350  -5.993  -5.470  0.00  0.00     0.002 A 
ATOM      6  C8  UNL d   1      -4.854  -4.887  -4.784  0.00  0.00     0.002 A 
ENDROOT
BRANCH   1   7
ATOM      7  C2  UNL d   1      -4.630  -2.530  -3.901  0.00  0.00     0.056 C 
BRANCH   7   8
ATOM      8  C1  UNL d   1      -5.962  -2.025  -4.467  0.00  0.00     0.007 C 
ATOM      9  C   UNL d   1      -5.991  -1.987  -5.989  0.00  0.00     0.009 C 
ENDBRANCH   7   8
ENDBRANCH   1   7
TORSDOF 2
ENDMDL
