MODEL 1
REMARK minimizedAffinity 3.25524282
REMARK minimizedRMSD -1
REMARK  2 active torsions:
REMARK  status: ('A' for Active; 'I' for Inactive)
REMARK    1  A    between atoms: C1_2  and  C2_3 
REMARK    2  A    between atoms: C2_3  and  C3_4 
ROOT
ATOM      1  C3  UNL d   1      -0.462  -1.453   2.136  0.00  0.00    -0.075 A 
ATOM      2  C4  UNL d   1      -0.791  -0.521   1.140  0.00  0.00     0.002 A 
ATOM      3  C5  UNL d   1      -0.033  -0.435  -0.028  0.00  0.00     0.002 A 
ATOM      4  C6  UNL d   1       1.066  -1.270  -0.211  0.00  0.00    -0.004 A 
ATOM      5  C7  UNL d   1       1.412  -2.188   0.778  0.00  0.00     0.002 A 
ATOM      6  C8  UNL d   1       0.653  -2.279   1.946  0.00  0.00     0.002 A 
ENDROOT
BRANCH   1   7
ATOM      7  C2  UNL d   1      -1.296  -1.571   3.389  0.00  0.00     0.056 C 
BRANCH   7   8
ATOM      8  C1  UNL d   1      -2.740  -1.086   3.226  0.00  0.00     0.007 C 
ATOM      9  C   UNL d   1      -3.436  -0.813   4.553  0.00  0.00     0.009 C 
ENDBRANCH   7   8
ENDBRANCH   1   7
TORSDOF 2
ENDMDL
