MODEL 1
REMARK minimizedAffinity -1.73402894
REMARK minimizedRMSD -1
REMARK  2 active torsions:
REMARK  status: ('A' for Active; 'I' for Inactive)
REMARK    1  A    between atoms: C1_2  and  C2_3 
REMARK    2  A    between atoms: C2_3  and  C3_4 
ROOT
ATOM      1  C3  UNL d   1      -4.919  -3.916  -4.933  0.00  0.00    -0.075 A 
ATOM      2  C4  UNL d   1      -3.922  -3.887  -5.919  0.00  0.00     0.002 A 
ATOM      3  C5  UNL d   1      -2.976  -4.909  -6.000  0.00  0.00     0.002 A 
ATOM      4  C6  UNL d   1      -3.008  -5.965  -5.092  0.00  0.00    -0.004 A 
ATOM      5  C7  UNL d   1      -3.984  -5.996  -4.099  0.00  0.00     0.002 A 
ATOM      6  C8  UNL d   1      -4.934  -4.977  -4.018  0.00  0.00     0.002 A 
ENDROOT
BRANCH   1   7
ATOM      7  C2  UNL d   1      -5.964  -2.828  -4.858  0.00  0.00     0.056 C 
BRANCH   7   8
ATOM      8  C1  UNL d   1      -5.971  -2.060  -3.532  0.00  0.00     0.007 C 
ATOM      9  C   UNL d   1      -4.592  -1.568  -3.116  0.00  0.00     0.009 C 
ENDBRANCH   7   8
ENDBRANCH   1   7
TORSDOF 2
ENDMDL
