MODEL 1
REMARK minimizedAffinity -3.5205431
REMARK minimizedRMSD -1
REMARK  2 active torsions:
REMARK  status: ('A' for Active; 'I' for Inactive)
REMARK    1  A    between atoms: C1_2  and  C2_3 
REMARK    2  A    between atoms: C2_3  and  C3_4 
ROOT
ATOM      1  C3  UNL d   1      -4.241  -4.523  -4.539  0.00  0.00    -0.075 A 
ATOM      2  C4  UNL d   1      -3.068  -3.791  -4.303  0.00  0.00     0.002 A 
ATOM      3  C5  UNL d   1      -1.870  -4.153  -4.920  0.00  0.00     0.002 A 
ATOM      4  C6  UNL d   1      -1.828  -5.255  -5.771  0.00  0.00    -0.004 A 
ATOM      5  C7  UNL d   1      -2.983  -6.000  -6.000  0.00  0.00     0.002 A 
ATOM      6  C8  UNL d   1      -4.183  -5.637  -5.387  0.00  0.00     0.002 A 
ENDROOT
BRANCH   1   7
ATOM      7  C2  UNL d   1      -5.546  -4.118  -3.897  0.00  0.00     0.056 C 
BRANCH   7   8
ATOM      8  C1  UNL d   1      -5.861  -2.623  -4.011  0.00  0.00     0.007 C 
ATOM      9  C   UNL d   1      -6.000  -2.148  -5.451  0.00  0.00     0.009 C 
ENDBRANCH   7   8
ENDBRANCH   1   7
TORSDOF 2
ENDMDL
