MODEL 1
REMARK minimizedAffinity -3.11874723
REMARK minimizedRMSD -1
REMARK  2 active torsions:
REMARK  status: ('A' for Active; 'I' for Inactive)
REMARK    1  A    between atoms: C1_2  and  C2_3 
REMARK    2  A    between atoms: C2_3  and  C3_4 
ROOT
ATOM      1  C3  UNL d   1      -5.018  -4.177  -4.427  0.00  0.00    -0.075 A 
ATOM      2  C4  UNL d   1      -3.636  -4.009  -4.256  0.00  0.00     0.002 A 
ATOM      3  C5  UNL d   1      -2.733  -4.806  -4.960  0.00  0.00     0.002 A 
ATOM      4  C6  UNL d   1      -3.198  -5.785  -5.834  0.00  0.00    -0.004 A 
ATOM      5  C7  UNL d   1      -4.569  -5.972  -6.000  0.00  0.00     0.002 A 
ATOM      6  C8  UNL d   1      -5.475  -5.173  -5.300  0.00  0.00     0.002 A 
ENDROOT
BRANCH   1   7
ATOM      7  C2  UNL d   1      -6.000  -3.298  -3.691  0.00  0.00     0.056 C 
BRANCH   7   8
ATOM      8  C1  UNL d   1      -5.987  -1.834  -4.142  0.00  0.00     0.007 C 
ATOM      9  C   UNL d   1      -5.975  -1.673  -5.657  0.00  0.00     0.009 C 
ENDBRANCH   7   8
ENDBRANCH   1   7
TORSDOF 2
ENDMDL
