MODEL 1
REMARK minimizedAffinity -4.44439077
REMARK minimizedRMSD -1
REMARK  2 active torsions:
REMARK  status: ('A' for Active; 'I' for Inactive)
REMARK    1  A    between atoms: C1_2  and  C2_3 
REMARK    2  A    between atoms: C2_3  and  C3_4 
ROOT
ATOM      1  C3  UNL d   1      -4.103  -4.577  -4.393  0.00  0.00    -0.075 A 
ATOM      2  C4  UNL d   1      -3.549  -4.357  -5.663  0.00  0.00     0.002 A 
ATOM      3  C5  UNL d   1      -2.251  -4.778  -5.952  0.00  0.00     0.002 A 
ATOM      4  C6  UNL d   1      -1.488  -5.414  -4.975  0.00  0.00    -0.004 A 
ATOM      5  C7  UNL d   1      -2.022  -5.623  -3.706  0.00  0.00     0.002 A 
ATOM      6  C8  UNL d   1      -3.323  -5.207  -3.415  0.00  0.00     0.002 A 
ENDROOT
BRANCH   1   7
ATOM      7  C2  UNL d   1      -5.518  -4.150  -4.083  0.00  0.00     0.056 C 
BRANCH   7   8
ATOM      8  C1  UNL d   1      -6.000  -2.947  -4.900  0.00  0.00     0.007 C 
ATOM      9  C   UNL d   1      -5.992  -1.644  -4.111  0.00  0.00     0.009 C 
ENDBRANCH   7   8
ENDBRANCH   1   7
TORSDOF 2
ENDMDL
