MODEL 1
REMARK minimizedAffinity -2.03222585
REMARK minimizedRMSD -1
REMARK  2 active torsions:
REMARK  status: ('A' for Active; 'I' for Inactive)
REMARK    1  A    between atoms: C1_2  and  C2_3 
REMARK    2  A    between atoms: C2_3  and  C3_4 
ROOT
ATOM      1  C3  UNL d   1      -4.963  -4.516  -4.155  0.00  0.00    -0.075 A 
ATOM      2  C4  UNL d   1      -5.328  -5.260  -5.287  0.00  0.00     0.002 A 
ATOM      3  C5  UNL d   1      -4.371  -5.985  -5.997  0.00  0.00     0.002 A 
ATOM      4  C6  UNL d   1      -3.038  -5.968  -5.591  0.00  0.00    -0.004 A 
ATOM      5  C7  UNL d   1      -2.662  -5.220  -4.478  0.00  0.00     0.002 A 
ATOM      6  C8  UNL d   1      -3.618  -4.497  -3.764  0.00  0.00     0.002 A 
ENDROOT
BRANCH   1   7
ATOM      7  C2  UNL d   1      -6.000  -3.753  -3.365  0.00  0.00     0.056 C 
BRANCH   7   8
ATOM      8  C1  UNL d   1      -5.986  -2.241  -3.616  0.00  0.00     0.007 C 
ATOM      9  C   UNL d   1      -5.696  -1.428  -2.362  0.00  0.00     0.009 C 
ENDBRANCH   7   8
ENDBRANCH   1   7
TORSDOF 2
ENDMDL
