MODEL 1
REMARK minimizedAffinity -4.08141136
REMARK minimizedRMSD -1
REMARK  2 active torsions:
REMARK  status: ('A' for Active; 'I' for Inactive)
REMARK    1  A    between atoms: C1_2  and  C2_3 
REMARK    2  A    between atoms: C2_3  and  C3_4 
ROOT
ATOM      1  C3  UNL d   1      -3.826  -5.233  -4.689  0.00  0.00    -0.075 A 
ATOM      2  C4  UNL d   1      -3.170  -5.075  -5.919  0.00  0.00     0.002 A 
ATOM      3  C5  UNL d   1      -1.779  -5.145  -5.993  0.00  0.00     0.002 A 
ATOM      4  C6  UNL d   1      -1.026  -5.363  -4.841  0.00  0.00    -0.004 A 
ATOM      5  C7  UNL d   1      -1.667  -5.505  -3.612  0.00  0.00     0.002 A 
ATOM      6  C8  UNL d   1      -3.059  -5.440  -3.535  0.00  0.00     0.002 A 
ENDROOT
BRANCH   1   7
ATOM      7  C2  UNL d   1      -5.333  -5.188  -4.607  0.00  0.00     0.056 C 
BRANCH   7   8
ATOM      8  C1  UNL d   1      -5.980  -4.170  -5.553  0.00  0.00     0.007 C 
ATOM      9  C   UNL d   1      -5.987  -2.753  -4.996  0.00  0.00     0.009 C 
ENDBRANCH   7   8
ENDBRANCH   1   7
TORSDOF 2
ENDMDL
