MODEL 1
REMARK minimizedAffinity -3.75434899
REMARK minimizedRMSD -1
REMARK  2 active torsions:
REMARK  status: ('A' for Active; 'I' for Inactive)
REMARK    1  A    between atoms: C1_2  and  C2_3 
REMARK    2  A    between atoms: C2_3  and  C3_4 
ROOT
ATOM      1  C3  UNL d   1      -4.212  -4.527  -5.013  0.00  0.00    -0.075 A 
ATOM      2  C4  UNL d   1      -3.306  -4.104  -5.996  0.00  0.00     0.002 A 
ATOM      3  C5  UNL d   1      -1.951  -4.420  -5.894  0.00  0.00     0.002 A 
ATOM      4  C6  UNL d   1      -1.484  -5.152  -4.805  0.00  0.00    -0.004 A 
ATOM      5  C7  UNL d   1      -2.372  -5.563  -3.813  0.00  0.00     0.002 A 
ATOM      6  C8  UNL d   1      -3.730  -5.252  -3.915  0.00  0.00     0.002 A 
ENDROOT
BRANCH   1   7
ATOM      7  C2  UNL d   1      -5.685  -4.213  -5.133  0.00  0.00     0.056 C 
BRANCH   7   8
ATOM      8  C1  UNL d   1      -6.000  -2.715  -5.199  0.00  0.00     0.007 C 
ATOM      9  C   UNL d   1      -5.370  -1.918  -4.064  0.00  0.00     0.009 C 
ENDBRANCH   7   8
ENDBRANCH   1   7
TORSDOF 2
ENDMDL
