MODEL 1
REMARK minimizedAffinity -5.48513222
REMARK minimizedRMSD -1
REMARK  1 active torsions:
REMARK  status: ('A' for Active; 'I' for Inactive)
REMARK    1  A    between atoms: C1_2  and  C2_3 
ROOT
ATOM      1  C2  UNL d   1      -0.288   0.900  -0.662  0.00  0.00    -0.081 A 
ATOM      2  C3  UNL d   1       1.086   0.642  -0.748  0.00  0.00     0.006 A 
ATOM      3  C4  UNL d   1       1.629  -0.505  -0.163  0.00  0.00     0.002 A 
ATOM      4  C5  UNL d   1       0.807  -1.415   0.510  0.00  0.00    -0.080 A 
ATOM      5  C6  UNL d   1       1.372  -2.665   1.117  0.00  0.00     0.076 C 
ATOM      6  C7  UNL d   1      -0.563  -1.149   0.611  0.00  0.00     0.002 A 
ATOM      7  C8  UNL d   1      -1.106  -0.002   0.027  0.00  0.00     0.006 A 
ENDROOT
BRANCH   1   8
ATOM      8  C1  UNL d   1      -0.886   2.102  -1.348  0.00  0.00     0.054 C 
ATOM      9  C   UNL d   1      -2.376   1.915  -1.592  0.00  0.00     0.018 C 
ENDBRANCH   1   8
TORSDOF 1
ENDMDL
