MODEL 1
REMARK minimizedAffinity -5.27171516
REMARK minimizedRMSD -1
REMARK  1 active torsions:
REMARK  status: ('A' for Active; 'I' for Inactive)
REMARK    1  A    between atoms: C1_2  and  C2_3 
ROOT
ATOM      1  C2  UNL d   1      -0.278   0.770  -0.596  0.00  0.00    -0.081 A 
ATOM      2  C3  UNL d   1       1.067   0.416  -0.757  0.00  0.00     0.006 A 
ATOM      3  C4  UNL d   1       1.559  -0.769  -0.203  0.00  0.00     0.002 A 
ATOM      4  C5  UNL d   1       0.713  -1.621   0.514  0.00  0.00    -0.080 A 
ATOM      5  C6  UNL d   1       1.221  -2.910   1.088  0.00  0.00     0.076 C 
ATOM      6  C7  UNL d   1      -0.627  -1.258   0.690  0.00  0.00     0.002 A 
ATOM      7  C8  UNL d   1      -1.118  -0.074   0.137  0.00  0.00     0.006 A 
ENDROOT
BRANCH   1   8
ATOM      8  C1  UNL d   1      -0.826   2.015  -1.247  0.00  0.00     0.054 C 
ATOM      9  C   UNL d   1      -1.973   1.685  -2.191  0.00  0.00     0.018 C 
ENDBRANCH   1   8
TORSDOF 1
ENDMDL
