MODEL 1
REMARK minimizedAffinity -4.09318733
REMARK minimizedRMSD -1
REMARK  1 active torsions:
REMARK  status: ('A' for Active; 'I' for Inactive)
REMARK    1  A    between atoms: C1_2  and  C2_3 
ROOT
ATOM      1  C2  UNL d   1      -0.404   1.225  -0.753  0.00  0.00    -0.081 A 
ATOM      2  C3  UNL d   1       0.985   1.048  -0.778  0.00  0.00     0.006 A 
ATOM      3  C4  UNL d   1       1.576  -0.018  -0.096  0.00  0.00     0.002 A 
ATOM      4  C5  UNL d   1       0.788  -0.929   0.616  0.00  0.00    -0.080 A 
ATOM      5  C6  UNL d   1       1.407  -2.096   1.327  0.00  0.00     0.076 C 
ATOM      6  C7  UNL d   1      -0.598  -0.743   0.655  0.00  0.00     0.002 A 
ATOM      7  C8  UNL d   1      -1.189   0.323  -0.027  0.00  0.00     0.006 A 
ENDROOT
BRANCH   1   8
ATOM      8  C1  UNL d   1      -1.050   2.336  -1.541  0.00  0.00     0.054 C 
ATOM      9  C   UNL d   1      -2.217   1.820  -2.370  0.00  0.00     0.018 C 
ENDBRANCH   1   8
TORSDOF 1
ENDMDL
