MODEL 1
REMARK minimizedAffinity -2.74701333
REMARK minimizedRMSD -1
REMARK  1 active torsions:
REMARK  status: ('A' for Active; 'I' for Inactive)
REMARK    1  A    between atoms: C1_2  and  C2_3 
ROOT
ATOM      1  C2  UNL d   1      -0.662   0.456  -0.224  0.00  0.00    -0.081 A 
ATOM      2  C3  UNL d   1       0.643   0.300  -0.707  0.00  0.00     0.006 A 
ATOM      3  C4  UNL d   1       1.409  -0.807  -0.333  0.00  0.00     0.002 A 
ATOM      4  C5  UNL d   1       0.880  -1.780   0.522  0.00  0.00    -0.080 A 
ATOM      5  C6  UNL d   1       1.680  -2.988   0.907  0.00  0.00     0.076 C 
ATOM      6  C7  UNL d   1      -0.418  -1.615   1.018  0.00  0.00     0.002 A 
ATOM      7  C8  UNL d   1      -1.183  -0.508   0.646  0.00  0.00     0.006 A 
ENDROOT
BRANCH   1   8
ATOM      8  C1  UNL d   1      -1.513   1.616  -0.676  0.00  0.00     0.054 C 
ATOM      9  C   UNL d   1      -1.495   1.757  -2.192  0.00  0.00     0.018 C 
ENDBRANCH   1   8
TORSDOF 1
ENDMDL
