MODEL 1
REMARK minimizedAffinity -1.61556101
REMARK minimizedRMSD -1
REMARK  1 active torsions:
REMARK  status: ('A' for Active; 'I' for Inactive)
REMARK    1  A    between atoms: C1_2  and  C2_3 
ROOT
ATOM      1  C2  UNL d   1      -0.551   1.013  -0.482  0.00  0.00    -0.081 A 
ATOM      2  C3  UNL d   1       0.766   0.831  -0.921  0.00  0.00     0.006 A 
ATOM      3  C4  UNL d   1       1.524  -0.247  -0.459  0.00  0.00     0.002 A 
ATOM      4  C5  UNL d   1       0.977  -1.165   0.445  0.00  0.00    -0.080 A 
ATOM      5  C6  UNL d   1       1.770  -2.343   0.926  0.00  0.00     0.076 C 
ATOM      6  C7  UNL d   1      -0.333  -0.973   0.897  0.00  0.00     0.002 A 
ATOM      7  C8  UNL d   1      -1.092   0.105   0.436  0.00  0.00     0.006 A 
ENDROOT
BRANCH   1   8
ATOM      8  C1  UNL d   1      -1.393   2.137  -1.028  0.00  0.00     0.054 C 
ATOM      9  C   UNL d   1      -1.936   1.801  -2.410  0.00  0.00     0.018 C 
ENDBRANCH   1   8
TORSDOF 1
ENDMDL
