MODEL 1
REMARK minimizedAffinity -5.39372635
REMARK minimizedRMSD -1
REMARK  1 active torsions:
REMARK  status: ('A' for Active; 'I' for Inactive)
REMARK    1  A    between atoms: C1_2  and  C2_3 
ROOT
ATOM      1  C2  UNL d   1      -0.225   0.673  -0.487  0.00  0.00    -0.081 A 
ATOM      2  C3  UNL d   1       1.116   0.342  -0.719  0.00  0.00     0.006 A 
ATOM      3  C4  UNL d   1       1.672  -0.805  -0.148  0.00  0.00     0.002 A 
ATOM      4  C5  UNL d   1       0.895  -1.645   0.658  0.00  0.00    -0.080 A 
ATOM      5  C6  UNL d   1       1.470  -2.896   1.252  0.00  0.00     0.076 C 
ATOM      6  C7  UNL d   1      -0.440  -1.306   0.904  0.00  0.00     0.002 A 
ATOM      7  C8  UNL d   1      -0.996  -0.158   0.334  0.00  0.00     0.006 A 
ENDROOT
BRANCH   1   8
ATOM      8  C1  UNL d   1      -0.844   1.874  -1.153  0.00  0.00     0.054 C 
ATOM      9  C   UNL d   1      -2.047   1.480  -1.998  0.00  0.00     0.018 C 
ENDBRANCH   1   8
TORSDOF 1
ENDMDL
