MODEL 1
REMARK minimizedAffinity -2.90047956
REMARK minimizedRMSD -1
REMARK  1 active torsions:
REMARK  status: ('A' for Active; 'I' for Inactive)
REMARK    1  A    between atoms: C1_2  and  C2_3 
ROOT
ATOM      1  C2  UNL d   1      -0.449   0.587   0.030  0.00  0.00    -0.081 A 
ATOM      2  C3  UNL d   1       0.890   0.427  -0.346  0.00  0.00     0.006 A 
ATOM      3  C4  UNL d   1       1.551  -0.782  -0.116  0.00  0.00     0.002 A 
ATOM      4  C5  UNL d   1       0.881  -1.854   0.485  0.00  0.00    -0.080 A 
ATOM      5  C6  UNL d   1       1.569  -3.167   0.710  0.00  0.00     0.076 C 
ATOM      6  C7  UNL d   1      -0.452  -1.688   0.876  0.00  0.00     0.002 A 
ATOM      7  C8  UNL d   1      -1.113  -0.479   0.647  0.00  0.00     0.006 A 
ENDROOT
BRANCH   1   8
ATOM      8  C1  UNL d   1      -1.183   1.868  -0.275  0.00  0.00     0.054 C 
ATOM      9  C   UNL d   1      -1.238   2.130  -1.774  0.00  0.00     0.018 C 
ENDBRANCH   1   8
TORSDOF 1
ENDMDL
