MODEL 1
REMARK minimizedAffinity -4.46058035
REMARK minimizedRMSD -1
REMARK  1 active torsions:
REMARK  status: ('A' for Active; 'I' for Inactive)
REMARK    1  A    between atoms: C1_2  and  C2_3 
ROOT
ATOM      1  C2  UNL d   1       2.190  -0.363  -0.687  0.00  0.00    -0.081 A 
ATOM      2  C3  UNL d   1       1.062   0.451  -0.525  0.00  0.00     0.006 A 
ATOM      3  C4  UNL d   1       0.042   0.080   0.354  0.00  0.00     0.002 A 
ATOM      4  C5  UNL d   1       0.136  -1.105   1.091  0.00  0.00    -0.080 A 
ATOM      5  C6  UNL d   1      -0.938  -1.500   2.061  0.00  0.00     0.076 C 
ATOM      6  C7  UNL d   1       1.255  -1.927   0.916  0.00  0.00     0.002 A 
ATOM      7  C8  UNL d   1       2.275  -1.557   0.037  0.00  0.00     0.006 A 
ENDROOT
BRANCH   1   8
ATOM      8  C1  UNL d   1       3.322   0.066  -1.586  0.00  0.00     0.054 C 
ATOM      9  C   UNL d   1       3.744   1.500  -1.298  0.00  0.00     0.018 C 
ENDBRANCH   1   8
TORSDOF 1
ENDMDL
