MODEL 1
REMARK minimizedAffinity -3.50448227
REMARK minimizedRMSD -1
REMARK  1 active torsions:
REMARK  status: ('A' for Active; 'I' for Inactive)
REMARK    1  A    between atoms: C1_2  and  C2_3 
ROOT
ATOM      1  C2  UNL d   1      -0.284   0.657  -0.518  0.00  0.00    -0.081 A 
ATOM      2  C3  UNL d   1       1.051   0.370  -0.825  0.00  0.00     0.006 A 
ATOM      3  C4  UNL d   1       1.693  -0.724  -0.238  0.00  0.00     0.002 A 
ATOM      4  C5  UNL d   1       1.009  -1.552   0.658  0.00  0.00    -0.080 A 
ATOM      5  C6  UNL d   1       1.677  -2.746   1.271  0.00  0.00     0.076 C 
ATOM      6  C7  UNL d   1      -0.320  -1.255   0.978  0.00  0.00     0.002 A 
ATOM      7  C8  UNL d   1      -0.962  -0.161   0.392  0.00  0.00     0.006 A 
ENDROOT
BRANCH   1   8
ATOM      8  C1  UNL d   1      -0.999   1.797  -1.198  0.00  0.00     0.054 C 
ATOM      9  C   UNL d   1      -2.011   1.288  -2.214  0.00  0.00     0.018 C 
ENDBRANCH   1   8
TORSDOF 1
ENDMDL
