MODEL 1
REMARK minimizedAffinity -3.79047585
REMARK minimizedRMSD -1
REMARK  1 active torsions:
REMARK  status: ('A' for Active; 'I' for Inactive)
REMARK    1  A    between atoms: C1_2  and  C2_3 
ROOT
ATOM      1  C2  UNL d   1      -0.625   0.667  -0.420  0.00  0.00    -0.081 A 
ATOM      2  C3  UNL d   1       0.695   0.381  -0.786  0.00  0.00     0.006 A 
ATOM      3  C4  UNL d   1       1.355  -0.728  -0.250  0.00  0.00     0.002 A 
ATOM      4  C5  UNL d   1       0.703  -1.572   0.654  0.00  0.00    -0.080 A 
ATOM      5  C6  UNL d   1       1.389  -2.783   1.214  0.00  0.00     0.076 C 
ATOM      6  C7  UNL d   1      -0.611  -1.277   1.034  0.00  0.00     0.002 A 
ATOM      7  C8  UNL d   1      -1.270  -0.168   0.499  0.00  0.00     0.006 A 
ENDROOT
BRANCH   1   8
ATOM      8  C1  UNL d   1      -1.361   1.825  -1.045  0.00  0.00     0.054 C 
ATOM      9  C   UNL d   1      -2.383   1.344  -2.065  0.00  0.00     0.018 C 
ENDBRANCH   1   8
TORSDOF 1
ENDMDL
