MODEL 1
REMARK minimizedAffinity -4.66189528
REMARK minimizedRMSD -1
REMARK  1 active torsions:
REMARK  status: ('A' for Active; 'I' for Inactive)
REMARK    1  A    between atoms: C1_2  and  C2_3 
ROOT
ATOM      1  C2  UNL d   1      -0.190   1.037  -0.585  0.00  0.00    -0.081 A 
ATOM      2  C3  UNL d   1       1.174   0.765  -0.743  0.00  0.00     0.006 A 
ATOM      3  C4  UNL d   1       1.734  -0.391  -0.195  0.00  0.00     0.002 A 
ATOM      4  C5  UNL d   1       0.938  -1.298   0.514  0.00  0.00    -0.080 A 
ATOM      5  C6  UNL d   1       1.521  -2.558   1.082  0.00  0.00     0.076 C 
ATOM      6  C7  UNL d   1      -0.421  -1.017   0.687  0.00  0.00     0.002 A 
ATOM      7  C8  UNL d   1      -0.981   0.139   0.140  0.00  0.00     0.006 A 
ENDROOT
BRANCH   1   8
ATOM      8  C1  UNL d   1      -0.810   2.251  -1.230  0.00  0.00     0.054 C 
ATOM      9  C   UNL d   1      -1.729   1.858  -2.378  0.00  0.00     0.018 C 
ENDBRANCH   1   8
TORSDOF 1
ENDMDL
