MODEL 1
REMARK minimizedAffinity -6.4392004
REMARK minimizedRMSD -1
REMARK  1 active torsions:
REMARK  status: ('A' for Active; 'I' for Inactive)
REMARK    1  A    between atoms: C1_2  and  C2_3 
ROOT
ATOM      1  C2  UNL d   1      -0.718   0.695  -0.680  0.00  0.00    -0.081 A 
ATOM      2  C3  UNL d   1       0.639   0.637  -1.022  0.00  0.00     0.006 A 
ATOM      3  C4  UNL d   1       1.454  -0.377  -0.514  0.00  0.00     0.002 A 
ATOM      4  C5  UNL d   1       0.925  -1.355   0.336  0.00  0.00    -0.080 A 
ATOM      5  C6  UNL d   1       1.783  -2.466   0.863  0.00  0.00     0.076 C 
ATOM      6  C7  UNL d   1      -0.426  -1.287   0.691  0.00  0.00     0.002 A 
ATOM      7  C8  UNL d   1      -1.242  -0.273   0.184  0.00  0.00     0.006 A 
ENDROOT
BRANCH   1   8
ATOM      8  C1  UNL d   1      -1.614   1.750  -1.277  0.00  0.00     0.054 C 
ATOM      9  C   UNL d   1      -1.918   1.455  -2.739  0.00  0.00     0.018 C 
ENDBRANCH   1   8
TORSDOF 1
ENDMDL
