MODEL 1
REMARK minimizedAffinity -6.36540556
REMARK minimizedRMSD -1
REMARK  1 active torsions:
REMARK  status: ('A' for Active; 'I' for Inactive)
REMARK    1  A    between atoms: C1_2  and  C2_3 
ROOT
ATOM      1  C2  UNL d   1       0.474  -0.892   0.010  0.00  0.00    -0.081 A 
ATOM      2  C3  UNL d   1       1.295  -2.026   0.019  0.00  0.00     0.006 A 
ATOM      3  C4  UNL d   1       1.210  -2.955   1.059  0.00  0.00     0.002 A 
ATOM      4  C5  UNL d   1       0.297  -2.769   2.103  0.00  0.00    -0.080 A 
ATOM      5  C6  UNL d   1       0.174  -3.774   3.210  0.00  0.00     0.076 C 
ATOM      6  C7  UNL d   1      -0.511  -1.627   2.104  0.00  0.00     0.002 A 
ATOM      7  C8  UNL d   1      -0.426  -0.698   1.064  0.00  0.00     0.006 A 
ENDROOT
BRANCH   1   8
ATOM      8  C1  UNL d   1       0.518   0.077  -1.143  0.00  0.00     0.054 C 
ATOM      9  C   UNL d   1      -0.833   0.746  -1.355  0.00  0.00     0.018 C 
ENDBRANCH   1   8
TORSDOF 1
ENDMDL
