MODEL 1
REMARK minimizedAffinity 14.2697802
REMARK minimizedRMSD -1
REMARK  0 active torsions:
REMARK  status: ('A' for Active; 'I' for Inactive)
ROOT
ATOM      1  O1  BZF d   1       2.427  -0.462  -1.853  0.00  0.00    -0.204 OA
ATOM      2  C2  BZF d   1       1.897  -1.097  -0.746  0.00  0.00     0.174 A 
ATOM      3  C3  BZF d   1       2.340  -0.524   0.391  0.00  0.00    -0.012 A 
ATOM      4  C3A BZF d   1       3.127   0.594  -0.032  0.00  0.00    -0.107 A 
ATOM      5  C4  BZF d   1       3.820   1.561   0.638  0.00  0.00     0.055 A 
ATOM      6  C5  BZF d   1       4.544   2.466  -0.071  0.00  0.00    -0.016 A 
ATOM      7  C6  BZF d   1       4.603   2.429  -1.449  0.00  0.00     0.022 A 
ATOM      8  C7  BZF d   1       3.928   1.492  -2.158  0.00  0.00     0.029 A 
ATOM      9  C7A BZF d   1       3.168   0.596  -1.445  0.00  0.00     0.058 A 
ENDROOT
TORSDOF 0
ENDMDL
