MODEL 1
REMARK minimizedAffinity 6.00900745
REMARK minimizedRMSD -1
REMARK  0 active torsions:
REMARK  status: ('A' for Active; 'I' for Inactive)
ROOT
ATOM      1  O1  BZF d   1       4.273   1.937  -0.470  0.00  0.00    -0.204 OA
ATOM      2  C2  BZF d   1       3.103   2.173  -1.167  0.00  0.00     0.174 A 
ATOM      3  C3  BZF d   1       2.198   1.203  -0.924  0.00  0.00    -0.012 A 
ATOM      4  C3A BZF d   1       2.808   0.354   0.052  0.00  0.00    -0.107 A 
ATOM      5  C4  BZF d   1       2.398  -0.774   0.704  0.00  0.00     0.055 A 
ATOM      6  C5  BZF d   1       3.262  -1.403   1.543  0.00  0.00    -0.016 A 
ATOM      7  C6  BZF d   1       4.544  -0.937   1.749  0.00  0.00     0.022 A 
ATOM      8  C7  BZF d   1       4.994   0.181   1.129  0.00  0.00     0.029 A 
ATOM      9  C7A BZF d   1       4.113   0.838   0.306  0.00  0.00     0.058 A 
ENDROOT
TORSDOF 0
ENDMDL
