MODEL 1
REMARK minimizedAffinity 10.4891844
REMARK minimizedRMSD -1
REMARK  0 active torsions:
REMARK  status: ('A' for Active; 'I' for Inactive)
ROOT
ATOM      1  O1  BZF d   1       2.984   1.540  -1.493  0.00  0.00    -0.204 OA
ATOM      2  C2  BZF d   1       3.533   2.226  -0.427  0.00  0.00     0.174 A 
ATOM      3  C3  BZF d   1       3.450   1.496   0.704  0.00  0.00    -0.012 A 
ATOM      4  C3A BZF d   1       2.893   0.241   0.303  0.00  0.00    -0.107 A 
ATOM      5  C4  BZF d   1       2.583  -0.907   0.975  0.00  0.00     0.055 A 
ATOM      6  C5  BZF d   1       1.984  -1.925   0.303  0.00  0.00    -0.016 A 
ATOM      7  C6  BZF d   1       1.676  -1.827  -1.038  0.00  0.00     0.022 A 
ATOM      8  C7  BZF d   1       1.969  -0.711  -1.749  0.00  0.00     0.029 A 
ATOM      9  C7A BZF d   1       2.604   0.307  -1.080  0.00  0.00     0.058 A 
ENDROOT
TORSDOF 0
ENDMDL
