MODEL 1
REMARK minimizedAffinity 3.7793777
REMARK minimizedRMSD -1
REMARK  0 active torsions:
REMARK  status: ('A' for Active; 'I' for Inactive)
ROOT
ATOM      1  O1  BZF d   1       3.136   1.121  -1.813  0.00  0.00    -0.204 OA
ATOM      2  C2  BZF d   1       3.684   1.934  -0.839  0.00  0.00     0.174 A 
ATOM      3  C3  BZF d   1       3.604   1.349   0.373  0.00  0.00    -0.012 A 
ATOM      4  C3A BZF d   1       3.050   0.053   0.130  0.00  0.00    -0.107 A 
ATOM      5  C4  BZF d   1       2.744  -1.004   0.938  0.00  0.00     0.055 A 
ATOM      6  C5  BZF d   1       2.147  -2.099   0.397  0.00  0.00    -0.016 A 
ATOM      7  C6  BZF d   1       1.838  -2.168  -0.946  0.00  0.00     0.022 A 
ATOM      8  C7  BZF d   1       2.127  -1.146  -1.788  0.00  0.00     0.029 A 
ATOM      9  C7A BZF d   1       2.760  -0.052  -1.250  0.00  0.00     0.058 A 
ENDROOT
TORSDOF 0
ENDMDL
