MODEL 1
REMARK minimizedAffinity 11.5661516
REMARK minimizedRMSD -1
REMARK  0 active torsions:
REMARK  status: ('A' for Active; 'I' for Inactive)
ROOT
ATOM      1  O1  BZF d   1       3.798   1.665  -1.980  0.00  0.00    -0.204 OA
ATOM      2  C2  BZF d   1       3.773   1.069  -3.226  0.00  0.00     0.174 A 
ATOM      3  C3  BZF d   1       3.295  -0.190  -3.145  0.00  0.00    -0.012 A 
ATOM      4  C3A BZF d   1       2.917  -0.361  -1.776  0.00  0.00    -0.107 A 
ATOM      5  C4  BZF d   1       2.362  -1.396  -1.078  0.00  0.00     0.055 A 
ATOM      6  C5  BZF d   1       2.187  -1.268   0.264  0.00  0.00    -0.016 A 
ATOM      7  C6  BZF d   1       2.558  -0.124   0.939  0.00  0.00     0.022 A 
ATOM      8  C7  BZF d   1       3.107   0.931   0.288  0.00  0.00     0.029 A 
ATOM      9  C7A BZF d   1       3.256   0.817  -1.072  0.00  0.00     0.058 A 
ENDROOT
TORSDOF 0
ENDMDL
