MODEL 1
REMARK minimizedAffinity 12.9996138
REMARK minimizedRMSD -1
REMARK  0 active torsions:
REMARK  status: ('A' for Active; 'I' for Inactive)
ROOT
ATOM      1  O1  BZF d   1       2.858  -0.219  -1.286  0.00  0.00    -0.204 OA
ATOM      2  C2  BZF d   1       2.248   0.061  -0.078  0.00  0.00     0.174 A 
ATOM      3  C3  BZF d   1       2.337   1.376   0.209  0.00  0.00    -0.012 A 
ATOM      4  C3A BZF d   1       2.966   1.969  -0.931  0.00  0.00    -0.107 A 
ATOM      5  C4  BZF d   1       3.315   3.250  -1.251  0.00  0.00     0.055 A 
ATOM      6  C5  BZF d   1       3.982   3.482  -2.412  0.00  0.00    -0.016 A 
ATOM      7  C6  BZF d   1       4.320   2.459  -3.273  0.00  0.00     0.022 A 
ATOM      8  C7  BZF d   1       3.991   1.172  -3.001  0.00  0.00     0.029 A 
ATOM      9  C7A BZF d   1       3.288   0.938  -1.844  0.00  0.00     0.058 A 
ENDROOT
TORSDOF 0
ENDMDL
