MODEL 1
REMARK minimizedAffinity -4.27796412
REMARK minimizedRMSD -1
REMARK  0 active torsions:
REMARK  status: ('A' for Active; 'I' for Inactive)
ROOT
ATOM      1  C   UNL d   1      -1.583   3.319   2.137  0.00  0.00     0.077 C 
ATOM      2  C1  UNL d   1      -1.025   2.158   1.367  0.00  0.00    -0.074 A 
ATOM      3  C2  UNL d   1      -1.308   1.995   0.007  0.00  0.00    -0.005 A 
ATOM      4  C3  UNL d   1      -0.775   0.916  -0.697  0.00  0.00     0.006 A 
ATOM      5  C4  UNL d   1       0.046  -0.009  -0.050  0.00  0.00    -0.005 A 
ATOM      6  C5  UNL d   1       0.341   0.139   1.309  0.00  0.00    -0.074 A 
ATOM      7  C6  UNL d   1       1.229  -0.841   2.017  0.00  0.00     0.077 C 
ATOM      8  C7  UNL d   1      -0.194   1.229   2.008  0.00  0.00    -0.001 A 
ENDROOT
TORSDOF 0
ENDMDL
