MODEL 1
REMARK minimizedAffinity -3.48964
REMARK minimizedRMSD -1
REMARK  0 active torsions:
REMARK  status: ('A' for Active; 'I' for Inactive)
ROOT
ATOM      1  C   UNL d   1       0.410  -1.766  -0.476  0.00  0.00     0.077 C 
ATOM      2  C1  UNL d   1      -0.121  -0.364  -0.527  0.00  0.00    -0.074 A 
ATOM      3  C2  UNL d   1      -0.186   0.336  -1.736  0.00  0.00    -0.005 A 
ATOM      4  C3  UNL d   1      -0.692   1.636  -1.769  0.00  0.00     0.006 A 
ATOM      5  C4  UNL d   1      -1.137   2.247  -0.596  0.00  0.00    -0.005 A 
ATOM      6  C5  UNL d   1      -1.081   1.561   0.621  0.00  0.00    -0.074 A 
ATOM      7  C6  UNL d   1      -1.564   2.200   1.889  0.00  0.00     0.077 C 
ATOM      8  C7  UNL d   1      -0.578   0.253   0.646  0.00  0.00    -0.001 A 
ENDROOT
TORSDOF 0
ENDMDL
