MODEL 1
REMARK minimizedAffinity -2.30658031
REMARK minimizedRMSD -1
REMARK  0 active torsions:
REMARK  status: ('A' for Active; 'I' for Inactive)
ROOT
ATOM      1  C   UNL d   1       0.436   1.255  -0.769  0.00  0.00     0.077 C 
ATOM      2  C1  UNL d   1       0.304   1.052   0.711  0.00  0.00    -0.074 A 
ATOM      3  C2  UNL d   1      -0.560   1.847   1.472  0.00  0.00    -0.005 A 
ATOM      4  C3  UNL d   1      -0.679   1.640   2.846  0.00  0.00     0.006 A 
ATOM      5  C4  UNL d   1       0.063   0.639   3.473  0.00  0.00    -0.005 A 
ATOM      6  C5  UNL d   1       0.932  -0.166   2.729  0.00  0.00    -0.074 A 
ATOM      7  C6  UNL d   1       1.730  -1.253   3.386  0.00  0.00     0.077 C 
ATOM      8  C7  UNL d   1       1.041   0.043   1.347  0.00  0.00    -0.001 A 
ENDROOT
TORSDOF 0
ENDMDL
