MODEL 1
REMARK minimizedAffinity -3.55224586
REMARK minimizedRMSD -1
REMARK  0 active torsions:
REMARK  status: ('A' for Active; 'I' for Inactive)
ROOT
ATOM      1  C   UNL d   1      -1.803   2.895   1.583  0.00  0.00     0.077 C 
ATOM      2  C1  UNL d   1      -0.787   1.813   1.365  0.00  0.00    -0.074 A 
ATOM      3  C2  UNL d   1       0.173   1.521   2.339  0.00  0.00    -0.005 A 
ATOM      4  C3  UNL d   1       1.105   0.505   2.126  0.00  0.00     0.006 A 
ATOM      5  C4  UNL d   1       1.086  -0.228   0.938  0.00  0.00    -0.005 A 
ATOM      6  C5  UNL d   1       0.133   0.050  -0.047  0.00  0.00    -0.074 A 
ATOM      7  C6  UNL d   1       0.093  -0.735  -1.325  0.00  0.00     0.077 C 
ATOM      8  C7  UNL d   1      -0.804   1.067   0.178  0.00  0.00    -0.001 A 
ENDROOT
TORSDOF 0
ENDMDL
