MODEL 1
REMARK minimizedAffinity -2.75879383
REMARK minimizedRMSD -1
REMARK  0 active torsions:
REMARK  status: ('A' for Active; 'I' for Inactive)
ROOT
ATOM      1  C   UNL d   1      -0.421   0.949   1.287  0.00  0.00     0.077 C 
ATOM      2  C1  UNL d   1      -0.038   0.247   0.019  0.00  0.00    -0.074 A 
ATOM      3  C2  UNL d   1       0.297   0.970  -1.131  0.00  0.00    -0.005 A 
ATOM      4  C3  UNL d   1       0.660   0.303  -2.301  0.00  0.00     0.006 A 
ATOM      5  C4  UNL d   1       0.694  -1.091  -2.333  0.00  0.00    -0.005 A 
ATOM      6  C5  UNL d   1       0.364  -1.832  -1.193  0.00  0.00    -0.074 A 
ATOM      7  C6  UNL d   1       0.404  -3.331  -1.208  0.00  0.00     0.077 C 
ATOM      8  C7  UNL d   1       0.006  -1.154  -0.020  0.00  0.00    -0.001 A 
ENDROOT
TORSDOF 0
ENDMDL
