MODEL 1
REMARK minimizedAffinity -5.77480125
REMARK minimizedRMSD -1
REMARK  0 active torsions:
REMARK  status: ('A' for Active; 'I' for Inactive)
ROOT
ATOM      1  C   UNL d   1      -1.422   2.368   2.016  0.00  0.00     0.077 C 
ATOM      2  C1  UNL d   1      -0.769   1.347   1.134  0.00  0.00    -0.074 A 
ATOM      3  C2  UNL d   1      -0.359   0.111   1.646  0.00  0.00    -0.005 A 
ATOM      4  C3  UNL d   1       0.239  -0.833   0.811  0.00  0.00     0.006 A 
ATOM      5  C4  UNL d   1       0.433  -0.552  -0.542  0.00  0.00    -0.005 A 
ATOM      6  C5  UNL d   1       0.029   0.678  -1.072  0.00  0.00    -0.074 A 
ATOM      7  C6  UNL d   1       0.222   0.992  -2.526  0.00  0.00     0.077 C 
ATOM      8  C7  UNL d   1      -0.577   1.619  -0.228  0.00  0.00    -0.001 A 
ENDROOT
TORSDOF 0
ENDMDL
