MODEL 1
REMARK minimizedAffinity -4.51764488
REMARK minimizedRMSD -1
REMARK  0 active torsions:
REMARK  status: ('A' for Active; 'I' for Inactive)
ROOT
ATOM      1  C   UNL d   1       0.952  -1.017   2.573  0.00  0.00     0.077 C 
ATOM      2  C1  UNL d   1       0.343  -0.176   1.490  0.00  0.00    -0.074 A 
ATOM      3  C2  UNL d   1       0.419  -0.565   0.149  0.00  0.00    -0.005 A 
ATOM      4  C3  UNL d   1      -0.161   0.222  -0.846  0.00  0.00     0.006 A 
ATOM      5  C4  UNL d   1      -0.822   1.404  -0.510  0.00  0.00    -0.005 A 
ATOM      6  C5  UNL d   1      -0.909   1.809   0.826  0.00  0.00    -0.074 A 
ATOM      7  C6  UNL d   1      -1.624   3.071   1.205  0.00  0.00     0.077 C 
ATOM      8  C7  UNL d   1      -0.330   1.009   1.821  0.00  0.00    -0.001 A 
ENDROOT
TORSDOF 0
ENDMDL
