MODEL 1
REMARK minimizedAffinity -3.94340324
REMARK minimizedRMSD -1
REMARK  0 active torsions:
REMARK  status: ('A' for Active; 'I' for Inactive)
ROOT
ATOM      1  C   UNL d   1       0.314  -2.569  -0.597  0.00  0.00     0.077 C 
ATOM      2  C1  UNL d   1       0.171  -1.078  -0.685  0.00  0.00    -0.074 A 
ATOM      3  C2  UNL d   1       0.586  -0.383  -1.825  0.00  0.00    -0.005 A 
ATOM      4  C3  UNL d   1       0.438   1.003  -1.897  0.00  0.00     0.006 A 
ATOM      5  C4  UNL d   1      -0.127   1.705  -0.831  0.00  0.00    -0.005 A 
ATOM      6  C5  UNL d   1      -0.549   1.026   0.316  0.00  0.00    -0.074 A 
ATOM      7  C6  UNL d   1      -1.166   1.764   1.467  0.00  0.00     0.077 C 
ATOM      8  C7  UNL d   1      -0.403  -0.367   0.378  0.00  0.00    -0.001 A 
ENDROOT
TORSDOF 0
ENDMDL
