MODEL 1
REMARK minimizedAffinity -4.36640692
REMARK minimizedRMSD -1
REMARK  0 active torsions:
REMARK  status: ('A' for Active; 'I' for Inactive)
ROOT
ATOM      1  C   UNL d   1      -0.065   1.042  -2.895  0.00  0.00     0.077 C 
ATOM      2  C1  UNL d   1       0.027   0.747  -1.428  0.00  0.00    -0.074 A 
ATOM      3  C2  UNL d   1       0.849  -0.280  -0.951  0.00  0.00    -0.005 A 
ATOM      4  C3  UNL d   1       0.931  -0.537   0.417  0.00  0.00     0.006 A 
ATOM      5  C4  UNL d   1       0.195   0.229   1.322  0.00  0.00    -0.005 A 
ATOM      6  C5  UNL d   1      -0.631   1.261   0.864  0.00  0.00    -0.074 A 
ATOM      7  C6  UNL d   1      -1.422   2.100   1.823  0.00  0.00     0.077 C 
ATOM      8  C7  UNL d   1      -0.703   1.517  -0.512  0.00  0.00    -0.001 A 
ENDROOT
TORSDOF 0
ENDMDL
