MODEL 1
REMARK minimizedAffinity -3.83314371
REMARK minimizedRMSD -1
REMARK  0 active torsions:
REMARK  status: ('A' for Active; 'I' for Inactive)
ROOT
ATOM      1  C   UNL d   1      -0.006   1.179  -0.744  0.00  0.00     0.020 A 
ATOM      2  C1  UNL d   1      -0.498   0.648   0.448  0.00  0.00     0.020 A 
ATOM      3  C2  UNL d   1      -0.558  -0.736   0.623  0.00  0.00     0.034 A 
ATOM      4  C3  UNL d   1      -0.125  -1.594  -0.394  0.00  0.00     0.017 A 
ATOM      5  C4  UNL d   1       0.369  -1.060  -1.590  0.00  0.00     0.017 A 
ATOM      6  C5  UNL d   1       0.427   0.327  -1.760  0.00  0.00     0.034 A 
ATOM      7 Cl   UNL d   1       0.922  -2.055  -2.890  0.00  0.00    -0.070 Cl
ATOM      8 Cl1  UNL d   1      -0.227  -3.295  -0.109  0.00  0.00    -0.070 Cl
ENDROOT
TORSDOF 0
ENDMDL
