MODEL 1
REMARK minimizedAffinity -5.6543684
REMARK minimizedRMSD -1
REMARK  0 active torsions:
REMARK  status: ('A' for Active; 'I' for Inactive)
ROOT
ATOM      1  C   UNL d   1      -0.481  -3.524  -0.104  0.00  0.00     0.020 A 
ATOM      2  C1  UNL d   1      -0.674  -2.716   1.016  0.00  0.00     0.020 A 
ATOM      3  C2  UNL d   1      -0.408  -1.347   0.944  0.00  0.00     0.034 A 
ATOM      4  C3  UNL d   1       0.053  -0.782  -0.251  0.00  0.00     0.017 A 
ATOM      5  C4  UNL d   1       0.246  -1.594  -1.375  0.00  0.00     0.017 A 
ATOM      6  C5  UNL d   1      -0.022  -2.964  -1.297  0.00  0.00     0.034 A 
ATOM      7 Cl   UNL d   1       0.811  -0.969  -2.883  0.00  0.00    -0.070 Cl
ATOM      8 Cl1  UNL d   1       0.361   0.918  -0.269  0.00  0.00    -0.070 Cl
ENDROOT
TORSDOF 0
ENDMDL
