MODEL 1
REMARK minimizedAffinity -5.46097183
REMARK minimizedRMSD -1
REMARK  0 active torsions:
REMARK  status: ('A' for Active; 'I' for Inactive)
ROOT
ATOM      1  C   UNL d   1      -0.004  -2.023   1.534  0.00  0.00     0.020 A 
ATOM      2  C1  UNL d   1       0.222  -3.097   0.674  0.00  0.00     0.020 A 
ATOM      3  C2  UNL d   1       0.344  -2.879  -0.699  0.00  0.00     0.034 A 
ATOM      4  C3  UNL d   1       0.238  -1.583  -1.218  0.00  0.00     0.017 A 
ATOM      5  C4  UNL d   1       0.011  -0.505  -0.355  0.00  0.00     0.017 A 
ATOM      6  C5  UNL d   1      -0.110  -0.729   1.020  0.00  0.00     0.034 A 
ATOM      7 Cl   UNL d   1      -0.131   1.122  -0.921  0.00  0.00    -0.070 Cl
ATOM      8 Cl1  UNL d   1       0.399  -1.387  -2.927  0.00  0.00    -0.070 Cl
ENDROOT
TORSDOF 0
ENDMDL
