MODEL 1
REMARK minimizedAffinity -2.39331198
REMARK minimizedRMSD -1
REMARK  0 active torsions:
REMARK  status: ('A' for Active; 'I' for Inactive)
ROOT
ATOM      1  C   UNL d   1      -0.766   0.974   0.479  0.00  0.00     0.020 A 
ATOM      2  C1  UNL d   1       0.483   1.198  -0.100  0.00  0.00     0.020 A 
ATOM      3  C2  UNL d   1       1.299   0.116  -0.437  0.00  0.00     0.034 A 
ATOM      4  C3  UNL d   1       0.868  -1.193  -0.196  0.00  0.00     0.017 A 
ATOM      5  C4  UNL d   1      -0.385  -1.417   0.385  0.00  0.00     0.017 A 
ATOM      6  C5  UNL d   1      -1.199  -0.330   0.721  0.00  0.00     0.034 A 
ATOM      7 Cl   UNL d   1      -0.985  -3.004   0.713  0.00  0.00    -0.070 Cl
ATOM      8 Cl1  UNL d   1       1.930  -2.483  -0.639  0.00  0.00    -0.070 Cl
ENDROOT
TORSDOF 0
ENDMDL
