MODEL 1
REMARK minimizedAffinity -4.94629908
REMARK minimizedRMSD -1
REMARK  0 active torsions:
REMARK  status: ('A' for Active; 'I' for Inactive)
ROOT
ATOM      1  C   UNL d   1      -0.251  -3.324   0.970  0.00  0.00     0.020 A 
ATOM      2  C1  UNL d   1      -0.220  -4.032  -0.231  0.00  0.00     0.020 A 
ATOM      3  C2  UNL d   1      -0.019  -3.356  -1.436  0.00  0.00     0.034 A 
ATOM      4  C3  UNL d   1       0.153  -1.967  -1.443  0.00  0.00     0.017 A 
ATOM      5  C4  UNL d   1       0.122  -1.256  -0.237  0.00  0.00     0.017 A 
ATOM      6  C5  UNL d   1      -0.080  -1.939   0.967  0.00  0.00     0.034 A 
ATOM      7 Cl   UNL d   1       0.326   0.458  -0.165  0.00  0.00    -0.070 Cl
ATOM      8 Cl1  UNL d   1       0.398  -1.195  -2.969  0.00  0.00    -0.070 Cl
ENDROOT
TORSDOF 0
ENDMDL
