MODEL 1
REMARK minimizedAffinity -2.53146577
REMARK minimizedRMSD -1
REMARK  0 active torsions:
REMARK  status: ('A' for Active; 'I' for Inactive)
ROOT
ATOM      1  C   UNL d   1      -1.155  -1.136   1.720  0.00  0.00     0.020 A 
ATOM      2  C1  UNL d   1      -0.770  -2.349   1.148  0.00  0.00     0.020 A 
ATOM      3  C2  UNL d   1      -0.068  -2.360  -0.059  0.00  0.00     0.034 A 
ATOM      4  C3  UNL d   1       0.251  -1.157  -0.699  0.00  0.00     0.017 A 
ATOM      5  C4  UNL d   1      -0.135   0.059  -0.124  0.00  0.00     0.017 A 
ATOM      6  C5  UNL d   1      -0.837   0.065   1.084  0.00  0.00     0.034 A 
ATOM      7 Cl   UNL d   1       0.224   1.584  -0.855  0.00  0.00    -0.070 Cl
ATOM      8 Cl1  UNL d   1       1.122  -1.246  -2.189  0.00  0.00    -0.070 Cl
ENDROOT
TORSDOF 0
ENDMDL
