MODEL 1
REMARK minimizedAffinity -4.44729519
REMARK minimizedRMSD -1
REMARK  0 active torsions:
REMARK  status: ('A' for Active; 'I' for Inactive)
ROOT
ATOM      1  C   UNL d   1      -0.597  -3.700  -0.037  0.00  0.00     0.020 A 
ATOM      2  C1  UNL d   1       0.078  -3.345  -1.204  0.00  0.00     0.020 A 
ATOM      3  C2  UNL d   1       0.524  -2.034  -1.381  0.00  0.00     0.034 A 
ATOM      4  C3  UNL d   1       0.296  -1.073  -0.389  0.00  0.00     0.017 A 
ATOM      5  C4  UNL d   1      -0.382  -1.431   0.782  0.00  0.00     0.017 A 
ATOM      6  C5  UNL d   1      -0.826  -2.745   0.954  0.00  0.00     0.034 A 
ATOM      7 Cl   UNL d   1      -0.700  -0.300   2.051  0.00  0.00    -0.070 Cl
ATOM      8 Cl1  UNL d   1       0.876   0.530  -0.674  0.00  0.00    -0.070 Cl
ENDROOT
TORSDOF 0
ENDMDL
