MODEL 1
REMARK minimizedAffinity -2.17930126
REMARK minimizedRMSD -1
REMARK  0 active torsions:
REMARK  status: ('A' for Active; 'I' for Inactive)
ROOT
ATOM      1  C   UNL d   1      -0.182  -3.606  -1.029  0.00  0.00     0.020 A 
ATOM      2  C1  UNL d   1       0.308  -2.804  -2.059  0.00  0.00     0.020 A 
ATOM      3  C2  UNL d   1       0.387  -1.420  -1.889  0.00  0.00     0.034 A 
ATOM      4  C3  UNL d   1      -0.024  -0.834  -0.686  0.00  0.00     0.017 A 
ATOM      5  C4  UNL d   1      -0.515  -1.640   0.347  0.00  0.00     0.017 A 
ATOM      6  C5  UNL d   1      -0.592  -3.026   0.171  0.00  0.00     0.034 A 
ATOM      7 Cl   UNL d   1      -1.041  -0.990   1.860  0.00  0.00    -0.070 Cl
ATOM      8 Cl1  UNL d   1       0.101   0.883  -0.545  0.00  0.00    -0.070 Cl
ENDROOT
TORSDOF 0
ENDMDL
