MODEL 1
REMARK minimizedAffinity -5.58309555
REMARK minimizedRMSD -1
REMARK  0 active torsions:
REMARK  status: ('A' for Active; 'I' for Inactive)
ROOT
ATOM      1  C   UNL d   1      -0.696  -1.881   2.039  0.00  0.00     0.020 A 
ATOM      2  C1  UNL d   1      -1.123  -0.576   2.283  0.00  0.00     0.020 A 
ATOM      3  C2  UNL d   1      -1.025   0.390   1.279  0.00  0.00     0.034 A 
ATOM      4  C3  UNL d   1      -0.499   0.052   0.026  0.00  0.00     0.017 A 
ATOM      5  C4  UNL d   1      -0.071  -1.258  -0.217  0.00  0.00     0.017 A 
ATOM      6  C5  UNL d   1      -0.171  -2.221   0.792  0.00  0.00     0.034 A 
ATOM      7 Cl   UNL d   1       0.589  -1.750  -1.737  0.00  0.00    -0.070 Cl
ATOM      8 Cl1  UNL d   1      -0.408   1.296  -1.169  0.00  0.00    -0.070 Cl
ENDROOT
TORSDOF 0
ENDMDL
