MODEL 1
REMARK minimizedAffinity -5.63065481
REMARK minimizedRMSD -1
REMARK  0 active torsions:
REMARK  status: ('A' for Active; 'I' for Inactive)
ROOT
ATOM      1  C   UNL d   1      -0.061  -3.223  -0.230  0.00  0.00     0.020 A 
ATOM      2  C1  UNL d   1       0.281  -2.642  -1.451  0.00  0.00     0.020 A 
ATOM      3  C2  UNL d   1       0.078  -1.276  -1.654  0.00  0.00     0.034 A 
ATOM      4  C3  UNL d   1      -0.468  -0.486  -0.636  0.00  0.00     0.017 A 
ATOM      5  C4  UNL d   1      -0.811  -1.070   0.589  0.00  0.00     0.017 A 
ATOM      6  C5  UNL d   1      -0.606  -2.439   0.787  0.00  0.00     0.034 A 
ATOM      7 Cl   UNL d   1      -1.489  -0.160   1.892  0.00  0.00    -0.070 Cl
ATOM      8 Cl1  UNL d   1      -0.691   1.197  -0.957  0.00  0.00    -0.070 Cl
ENDROOT
TORSDOF 0
ENDMDL
