MODEL 1
REMARK minimizedAffinity -4.00261736
REMARK minimizedRMSD -1
REMARK  0 active torsions:
REMARK  status: ('A' for Active; 'I' for Inactive)
ROOT
ATOM      1  C   UNL d   1       0.046  -3.706  -0.679  0.00  0.00     0.020 A 
ATOM      2  C1  UNL d   1       0.465  -3.308  -1.948  0.00  0.00     0.020 A 
ATOM      3  C2  UNL d   1       0.490  -1.952  -2.281  0.00  0.00     0.034 A 
ATOM      4  C3  UNL d   1       0.096  -0.989  -1.345  0.00  0.00     0.017 A 
ATOM      5  C4  UNL d   1      -0.324  -1.390  -0.071  0.00  0.00     0.017 A 
ATOM      6  C5  UNL d   1      -0.347  -2.749   0.257  0.00  0.00     0.034 A 
ATOM      7 Cl   UNL d   1      -0.825  -0.260   1.137  0.00  0.00    -0.070 Cl
ATOM      8 Cl1  UNL d   1       0.152   0.669  -1.826  0.00  0.00    -0.070 Cl
ENDROOT
TORSDOF 0
ENDMDL
