MODEL 1
REMARK minimizedAffinity -5.28665447
REMARK minimizedRMSD -1
REMARK  0 active torsions:
REMARK  status: ('A' for Active; 'I' for Inactive)
ROOT
ATOM      1  C   UNL d   1      -0.076  -3.593  -0.415  0.00  0.00     0.020 A 
ATOM      2  C1  UNL d   1       0.581  -3.126  -1.553  0.00  0.00     0.020 A 
ATOM      3  C2  UNL d   1       0.790  -1.756  -1.726  0.00  0.00     0.034 A 
ATOM      4  C3  UNL d   1       0.340  -0.848  -0.760  0.00  0.00     0.017 A 
ATOM      5  C4  UNL d   1      -0.319  -1.318   0.381  0.00  0.00     0.017 A 
ATOM      6  C5  UNL d   1      -0.526  -2.690   0.550  0.00  0.00     0.034 A 
ATOM      7 Cl   UNL d   1      -0.902  -0.258   1.616  0.00  0.00    -0.070 Cl
ATOM      8 Cl1  UNL d   1       0.633   0.832  -1.040  0.00  0.00    -0.070 Cl
ENDROOT
TORSDOF 0
ENDMDL
