MODEL 1
REMARK minimizedAffinity -3.52447152
REMARK minimizedRMSD -1
REMARK  0 active torsions:
REMARK  status: ('A' for Active; 'I' for Inactive)
ROOT
ATOM      1  C   UNL d   1       0.099  -2.620  -1.593  0.00  0.00     0.020 A 
ATOM      2  C1  UNL d   1      -0.403  -3.332  -0.504  0.00  0.00     0.020 A 
ATOM      3  C2  UNL d   1      -0.741  -2.661   0.673  0.00  0.00     0.034 A 
ATOM      4  C3  UNL d   1      -0.578  -1.274   0.764  0.00  0.00     0.017 A 
ATOM      5  C4  UNL d   1      -0.075  -0.560  -0.329  0.00  0.00     0.017 A 
ATOM      6  C5  UNL d   1       0.262  -1.237  -1.505  0.00  0.00     0.034 A 
ATOM      7 Cl   UNL d   1       0.154   1.153  -0.292  0.00  0.00    -0.070 Cl
ATOM      8 Cl1  UNL d   1      -1.017  -0.510   2.250  0.00  0.00    -0.070 Cl
ENDROOT
TORSDOF 0
ENDMDL
