MODEL 1
REMARK minimizedAffinity -0.987260342
REMARK minimizedRMSD -1
REMARK  0 active torsions:
REMARK  status: ('A' for Active; 'I' for Inactive)
ROOT
ATOM      1  C   UNL d   1      -0.027  -2.654   0.782  0.00  0.00     0.020 A 
ATOM      2  C1  UNL d   1      -0.231  -1.608   1.681  0.00  0.00     0.020 A 
ATOM      3  C2  UNL d   1      -0.264  -0.290   1.223  0.00  0.00     0.034 A 
ATOM      4  C3  UNL d   1      -0.092  -0.013  -0.138  0.00  0.00     0.017 A 
ATOM      5  C4  UNL d   1       0.113  -1.063  -1.040  0.00  0.00     0.017 A 
ATOM      6  C5  UNL d   1       0.145  -2.382  -0.576  0.00  0.00     0.034 A 
ATOM      7 Cl   UNL d   1       0.333  -0.800  -2.735  0.00  0.00    -0.070 Cl
ATOM      8 Cl1  UNL d   1      -0.144   1.641  -0.635  0.00  0.00    -0.070 Cl
ENDROOT
TORSDOF 0
ENDMDL
