MODEL 1
REMARK minimizedAffinity 9.92912769
REMARK minimizedRMSD -1
REMARK  0 active torsions:
REMARK  status: ('A' for Active; 'I' for Inactive)
ROOT
ATOM      1  C   UNL d   1      -5.910  -5.999   2.389  0.00  0.00     0.077 C 
ATOM      2  C1  UNL d   1      -4.439  -5.911   2.670  0.00  0.00    -0.074 A 
ATOM      3  C2  UNL d   1      -3.964  -5.770   3.978  0.00  0.00    -0.005 A 
ATOM      4  C3  UNL d   1      -2.593  -5.700   4.224  0.00  0.00     0.006 A 
ATOM      5  C4  UNL d   1      -1.684  -5.770   3.167  0.00  0.00    -0.005 A 
ATOM      6  C5  UNL d   1      -2.141  -5.912   1.853  0.00  0.00    -0.074 A 
ATOM      7  C6  UNL d   1      -1.178  -5.999   0.706  0.00  0.00     0.077 C 
ATOM      8  C7  UNL d   1      -3.520  -5.989   1.614  0.00  0.00    -0.001 A 
ENDROOT
TORSDOF 0
ENDMDL
