MODEL 1
REMARK minimizedAffinity 9.52350044
REMARK minimizedRMSD -1
REMARK  0 active torsions:
REMARK  status: ('A' for Active; 'I' for Inactive)
ROOT
ATOM      1  C   UNL d   1       2.808  -1.956   0.911  0.00  0.00     0.077 C 
ATOM      2  C1  UNL d   1       2.267  -3.189   0.251  0.00  0.00    -0.074 A 
ATOM      3  C2  UNL d   1       2.752  -4.456   0.587  0.00  0.00    -0.005 A 
ATOM      4  C3  UNL d   1       2.231  -5.595  -0.029  0.00  0.00     0.006 A 
ATOM      5  C4  UNL d   1       1.223  -5.477  -0.985  0.00  0.00    -0.005 A 
ATOM      6  C5  UNL d   1       0.724  -4.218  -1.334  0.00  0.00    -0.074 A 
ATOM      7  C6  UNL d   1      -0.367  -4.074  -2.353  0.00  0.00     0.077 C 
ATOM      8  C7  UNL d   1       1.247  -3.079  -0.706  0.00  0.00    -0.001 A 
ENDROOT
TORSDOF 0
ENDMDL
