MODEL 1
REMARK minimizedAffinity 5.35880899
REMARK minimizedRMSD -1
REMARK  0 active torsions:
REMARK  status: ('A' for Active; 'I' for Inactive)
ROOT
ATOM      1  C   UNL d   1       5.731  -0.975  -5.966  0.00  0.00     0.077 C 
ATOM      2  C1  UNL d   1       5.831   0.346  -5.263  0.00  0.00    -0.074 A 
ATOM      3  C2  UNL d   1       5.891   1.542  -5.986  0.00  0.00    -0.005 A 
ATOM      4  C3  UNL d   1       5.974   2.764  -5.319  0.00  0.00     0.006 A 
ATOM      5  C4  UNL d   1       5.999   2.803  -3.924  0.00  0.00    -0.005 A 
ATOM      6  C5  UNL d   1       5.940   1.617  -3.185  0.00  0.00    -0.074 A 
ATOM      7  C6  UNL d   1       5.956   1.642  -1.685  0.00  0.00     0.077 C 
ATOM      8  C7  UNL d   1       5.849   0.394  -3.862  0.00  0.00    -0.001 A 
ENDROOT
TORSDOF 0
ENDMDL
