MODEL 1
REMARK minimizedAffinity 7.3767848
REMARK minimizedRMSD -1
REMARK  0 active torsions:
REMARK  status: ('A' for Active; 'I' for Inactive)
ROOT
ATOM      1  C   UNL d   1       4.701   4.779   1.974  0.00  0.00     0.077 C 
ATOM      2  C1  UNL d   1       3.834   3.766   2.660  0.00  0.00    -0.074 A 
ATOM      3  C2  UNL d   1       3.978   3.505   4.027  0.00  0.00    -0.005 A 
ATOM      4  C3  UNL d   1       3.158   2.566   4.654  0.00  0.00     0.006 A 
ATOM      5  C4  UNL d   1       2.188   1.880   3.921  0.00  0.00    -0.005 A 
ATOM      6  C5  UNL d   1       2.029   2.128   2.554  0.00  0.00    -0.074 A 
ATOM      7  C6  UNL d   1       0.985   1.407   1.755  0.00  0.00     0.077 C 
ATOM      8  C7  UNL d   1       2.852   3.078   1.933  0.00  0.00    -0.001 A 
ENDROOT
TORSDOF 0
ENDMDL
