MODEL 1
REMARK minimizedAffinity -0.320755094
REMARK minimizedRMSD -1
REMARK  0 active torsions:
REMARK  status: ('A' for Active; 'I' for Inactive)
ROOT
ATOM      1  C   UNL d   1      -2.670  -0.131   2.252  0.00  0.00     0.077 C 
ATOM      2  C1  UNL d   1      -1.343   0.442   1.851  0.00  0.00    -0.074 A 
ATOM      3  C2  UNL d   1      -0.691   0.003   0.694  0.00  0.00    -0.005 A 
ATOM      4  C3  UNL d   1       0.538   0.552   0.328  0.00  0.00     0.006 A 
ATOM      5  C4  UNL d   1       1.125   1.545   1.113  0.00  0.00    -0.005 A 
ATOM      6  C5  UNL d   1       0.487   1.998   2.272  0.00  0.00    -0.074 A 
ATOM      7  C6  UNL d   1       1.100   3.071   3.122  0.00  0.00     0.077 C 
ATOM      8  C7  UNL d   1      -0.751   1.446   2.630  0.00  0.00    -0.001 A 
ENDROOT
TORSDOF 0
ENDMDL
