MODEL 1
REMARK minimizedAffinity 3.2646966
REMARK minimizedRMSD -1
REMARK  0 active torsions:
REMARK  status: ('A' for Active; 'I' for Inactive)
ROOT
ATOM      1  C   UNL d   1      -5.969   6.000  -5.996  0.00  0.00     0.077 C 
ATOM      2  C1  UNL d   1      -4.797   5.453  -5.238  0.00  0.00    -0.074 A 
ATOM      3  C2  UNL d   1      -4.740   5.539  -3.843  0.00  0.00    -0.005 A 
ATOM      4  C3  UNL d   1      -3.647   5.017  -3.150  0.00  0.00     0.006 A 
ATOM      5  C4  UNL d   1      -2.603   4.405  -3.844  0.00  0.00    -0.005 A 
ATOM      6  C5  UNL d   1      -2.643   4.309  -5.239  0.00  0.00    -0.074 A 
ATOM      7  C6  UNL d   1      -1.533   3.646  -5.999  0.00  0.00     0.077 C 
ATOM      8  C7  UNL d   1      -3.747   4.830  -5.927  0.00  0.00    -0.001 A 
ENDROOT
TORSDOF 0
ENDMDL
