MODEL 1
REMARK minimizedAffinity 6.21840477
REMARK minimizedRMSD -1
REMARK  0 active torsions:
REMARK  status: ('A' for Active; 'I' for Inactive)
ROOT
ATOM      1  C   UNL d   1       1.194  -1.707   0.500  0.00  0.00     0.077 C 
ATOM      2  C1  UNL d   1       0.321  -0.657   1.121  0.00  0.00    -0.074 A 
ATOM      3  C2  UNL d   1      -1.068  -0.814   1.170  0.00  0.00    -0.005 A 
ATOM      4  C3  UNL d   1      -1.866   0.167   1.760  0.00  0.00     0.006 A 
ATOM      5  C4  UNL d   1      -1.284   1.312   2.305  0.00  0.00    -0.005 A 
ATOM      6  C5  UNL d   1       0.103   1.486   2.266  0.00  0.00    -0.074 A 
ATOM      7  C6  UNL d   1       0.745   2.706   2.856  0.00  0.00     0.077 C 
ATOM      8  C7  UNL d   1       0.898   0.493   1.678  0.00  0.00    -0.001 A 
ENDROOT
TORSDOF 0
ENDMDL
