MODEL 1
REMARK minimizedAffinity 6.72509813
REMARK minimizedRMSD -1
REMARK  0 active torsions:
REMARK  status: ('A' for Active; 'I' for Inactive)
ROOT
ATOM      1  C   UNL d   1       5.627   0.840  -5.999  0.00  0.00     0.077 C 
ATOM      2  C1  UNL d   1       4.796   2.073  -5.797  0.00  0.00    -0.074 A 
ATOM      3  C2  UNL d   1       3.456   1.980  -5.408  0.00  0.00    -0.005 A 
ATOM      4  C3  UNL d   1       2.698   3.135  -5.214  0.00  0.00     0.006 A 
ATOM      5  C4  UNL d   1       3.272   4.393  -5.408  0.00  0.00    -0.005 A 
ATOM      6  C5  UNL d   1       4.611   4.505  -5.797  0.00  0.00    -0.074 A 
ATOM      7  C6  UNL d   1       5.246   5.848  -6.000  0.00  0.00     0.077 C 
ATOM      8  C7  UNL d   1       5.367   3.339  -5.982  0.00  0.00    -0.001 A 
ENDROOT
TORSDOF 0
ENDMDL
