MODEL 1
REMARK minimizedAffinity 3.54584241
REMARK minimizedRMSD -1
REMARK  0 active torsions:
REMARK  status: ('A' for Active; 'I' for Inactive)
ROOT
ATOM      1  C   UNL d   1      -0.822   1.560   0.965  0.00  0.00     0.077 C 
ATOM      2  C1  UNL d   1      -1.704   0.646   1.762  0.00  0.00    -0.074 A 
ATOM      3  C2  UNL d   1      -2.982   1.048   2.161  0.00  0.00    -0.005 A 
ATOM      4  C3  UNL d   1      -3.795   0.183   2.893  0.00  0.00     0.006 A 
ATOM      5  C4  UNL d   1      -3.339  -1.091   3.233  0.00  0.00    -0.005 A 
ATOM      6  C5  UNL d   1      -2.064  -1.511   2.842  0.00  0.00    -0.074 A 
ATOM      7  C6  UNL d   1      -1.562  -2.881   3.190  0.00  0.00     0.077 C 
ATOM      8  C7  UNL d   1      -1.256  -0.639   2.100  0.00  0.00    -0.001 A 
ENDROOT
TORSDOF 0
ENDMDL
