MODEL 1
REMARK minimizedAffinity 4.19507504
REMARK minimizedRMSD -1
REMARK  0 active torsions:
REMARK  status: ('A' for Active; 'I' for Inactive)
ROOT
ATOM      1  C   UNL d   1       3.716  -2.476  -0.380  0.00  0.00     0.077 C 
ATOM      2  C1  UNL d   1       2.638  -2.859  -1.349  0.00  0.00    -0.074 A 
ATOM      3  C2  UNL d   1       2.955  -3.322  -2.630  0.00  0.00    -0.005 A 
ATOM      4  C3  UNL d   1       1.941  -3.683  -3.518  0.00  0.00     0.006 A 
ATOM      5  C4  UNL d   1       0.603  -3.584  -3.134  0.00  0.00    -0.005 A 
ATOM      6  C5  UNL d   1       0.267  -3.124  -1.857  0.00  0.00    -0.074 A 
ATOM      7  C6  UNL d   1      -1.165  -3.021  -1.426  0.00  0.00     0.077 C 
ATOM      8  C7  UNL d   1       1.292  -2.770  -0.969  0.00  0.00    -0.001 A 
ENDROOT
TORSDOF 0
ENDMDL
