MODEL 1
REMARK minimizedAffinity 9.88952446
REMARK minimizedRMSD -1
REMARK  0 active torsions:
REMARK  status: ('A' for Active; 'I' for Inactive)
ROOT
ATOM      1  C   UNL d   1       1.622   2.043   2.721  0.00  0.00     0.077 C 
ATOM      2  C1  UNL d   1       2.772   2.988   2.903  0.00  0.00    -0.074 A 
ATOM      3  C2  UNL d   1       3.259   3.744   1.831  0.00  0.00    -0.005 A 
ATOM      4  C3  UNL d   1       4.323   4.626   2.018  0.00  0.00     0.006 A 
ATOM      5  C4  UNL d   1       4.911   4.761   3.276  0.00  0.00    -0.005 A 
ATOM      6  C5  UNL d   1       4.438   4.014   4.360  0.00  0.00    -0.074 A 
ATOM      7  C6  UNL d   1       5.052   4.155   5.721  0.00  0.00     0.077 C 
ATOM      8  C7  UNL d   1       3.363   3.135   4.166  0.00  0.00    -0.001 A 
ENDROOT
TORSDOF 0
ENDMDL
