MODEL 1
REMARK minimizedAffinity 3.67914367
REMARK minimizedRMSD -1
REMARK  0 active torsions:
REMARK  status: ('A' for Active; 'I' for Inactive)
ROOT
ATOM      1  C   UNL d   1      -5.983  -1.490   4.650  0.00  0.00     0.077 C 
ATOM      2  C1  UNL d   1      -4.769  -1.460   3.770  0.00  0.00    -0.074 A 
ATOM      3  C2  UNL d   1      -3.889  -2.546   3.721  0.00  0.00    -0.005 A 
ATOM      4  C3  UNL d   1      -2.769  -2.507   2.891  0.00  0.00     0.006 A 
ATOM      5  C4  UNL d   1      -2.517  -1.383   2.103  0.00  0.00    -0.005 A 
ATOM      6  C5  UNL d   1      -3.386  -0.288   2.138  0.00  0.00    -0.074 A 
ATOM      7  C6  UNL d   1      -3.136   0.924   1.290  0.00  0.00     0.077 C 
ATOM      8  C7  UNL d   1      -4.514  -0.337   2.970  0.00  0.00    -0.001 A 
ENDROOT
TORSDOF 0
ENDMDL
