MODEL 1
REMARK minimizedAffinity 7.34614944
REMARK minimizedRMSD -1
REMARK  0 active torsions:
REMARK  status: ('A' for Active; 'I' for Inactive)
ROOT
ATOM      1  C   UNL d   1      -0.880   0.388   1.494  0.00  0.00     0.077 C 
ATOM      2  C1  UNL d   1      -2.365   0.485   1.685  0.00  0.00    -0.074 A 
ATOM      3  C2  UNL d   1      -3.156   1.230   0.804  0.00  0.00    -0.005 A 
ATOM      4  C3  UNL d   1      -4.536   1.304   0.990  0.00  0.00     0.006 A 
ATOM      5  C4  UNL d   1      -5.139   0.635   2.056  0.00  0.00    -0.005 A 
ATOM      6  C5  UNL d   1      -4.364  -0.115   2.946  0.00  0.00    -0.074 A 
ATOM      7  C6  UNL d   1      -4.997  -0.848   4.091  0.00  0.00     0.077 C 
ATOM      8  C7  UNL d   1      -2.979  -0.190   2.749  0.00  0.00    -0.001 A 
ENDROOT
TORSDOF 0
ENDMDL
