MODEL 1
REMARK minimizedAffinity 10.7046471
REMARK minimizedRMSD -1
REMARK  0 active torsions:
REMARK  status: ('A' for Active; 'I' for Inactive)
ROOT
ATOM      1  C   UNL d   1       1.360   2.706  -0.471  0.00  0.00     0.077 C 
ATOM      2  C1  UNL d   1       0.320   1.899   0.249  0.00  0.00    -0.074 A 
ATOM      3  C2  UNL d   1       0.684   0.963   1.223  0.00  0.00    -0.005 A 
ATOM      4  C3  UNL d   1      -0.295   0.227   1.891  0.00  0.00     0.006 A 
ATOM      5  C4  UNL d   1      -1.645   0.419   1.592  0.00  0.00    -0.005 A 
ATOM      6  C5  UNL d   1      -2.027   1.351   0.622  0.00  0.00    -0.074 A 
ATOM      7  C6  UNL d   1      -3.473   1.576   0.296  0.00  0.00     0.077 C 
ATOM      8  C7  UNL d   1      -1.038   2.092  -0.040  0.00  0.00    -0.001 A 
ENDROOT
TORSDOF 0
ENDMDL
