MODEL 1
REMARK minimizedAffinity 11.0655212
REMARK minimizedRMSD -1
REMARK  0 active torsions:
REMARK  status: ('A' for Active; 'I' for Inactive)
ROOT
ATOM      1  C   UNL d   1       4.930   6.000   5.951  0.00  0.00     0.077 C 
ATOM      2  C1  UNL d   1       4.839   4.637   5.333  0.00  0.00    -0.074 A 
ATOM      3  C2  UNL d   1       5.891   3.723   5.450  0.00  0.00    -0.005 A 
ATOM      4  C3  UNL d   1       5.788   2.455   4.877  0.00  0.00     0.006 A 
ATOM      5  C4  UNL d   1       4.634   2.089   4.184  0.00  0.00    -0.005 A 
ATOM      6  C5  UNL d   1       3.571   2.989   4.058  0.00  0.00    -0.074 A 
ATOM      7  C6  UNL d   1       2.320   2.608   3.325  0.00  0.00     0.077 C 
ATOM      8  C7  UNL d   1       3.680   4.258   4.642  0.00  0.00    -0.001 A 
ENDROOT
TORSDOF 0
ENDMDL
