MODEL 1
REMARK minimizedAffinity 4.5547471
REMARK minimizedRMSD -1
REMARK  0 active torsions:
REMARK  status: ('A' for Active; 'I' for Inactive)
ROOT
ATOM      1  C   UNL d   1      -3.519   2.218   0.694  0.00  0.00     0.077 C 
ATOM      2  C1  UNL d   1      -2.144   2.600   1.157  0.00  0.00    -0.074 A 
ATOM      3  C2  UNL d   1      -1.261   3.274   0.307  0.00  0.00    -0.005 A 
ATOM      4  C3  UNL d   1       0.011   3.632   0.754  0.00  0.00     0.006 A 
ATOM      5  C4  UNL d   1       0.412   3.320   2.054  0.00  0.00    -0.005 A 
ATOM      6  C5  UNL d   1      -0.457   2.647   2.918  0.00  0.00    -0.074 A 
ATOM      7  C6  UNL d   1      -0.046   2.313   4.321  0.00  0.00     0.077 C 
ATOM      8  C7  UNL d   1      -1.736   2.297   2.464  0.00  0.00    -0.001 A 
ENDROOT
TORSDOF 0
ENDMDL
