MODEL 1
REMARK minimizedAffinity -1.95583797
REMARK minimizedRMSD -1
REMARK  0 active torsions:
REMARK  status: ('A' for Active; 'I' for Inactive)
ROOT
ATOM      1  C   UNL d   1       1.697   4.852  -0.936  0.00  0.00     0.078 C 
ATOM      2  C1  UNL d   1       1.282   3.411  -0.905  0.00  0.00    -0.077 A 
ATOM      3  C2  UNL d   1       0.993   2.770   0.305  0.00  0.00    -0.001 A 
ATOM      4  C3  UNL d   1       0.618   1.426   0.320  0.00  0.00     0.003 A 
ATOM      5  C4  UNL d   1       0.529   0.711  -0.873  0.00  0.00    -0.005 A 
ATOM      6  C5  UNL d   1       0.816   1.341  -2.083  0.00  0.00     0.003 A 
ATOM      7  C6  UNL d   1       1.192   2.685  -2.099  0.00  0.00    -0.001 A 
ENDROOT
TORSDOF 0
ENDMDL
