MODEL 1
REMARK minimizedAffinity -6.10898972
REMARK minimizedRMSD -1
REMARK  0 active torsions:
REMARK  status: ('A' for Active; 'I' for Inactive)
ROOT
ATOM      1  C   UNL d   1       1.294  -0.263  -0.772  0.00  0.00     0.078 C 
ATOM      2  C1  UNL d   1       1.334   1.235  -0.711  0.00  0.00    -0.077 A 
ATOM      3  C2  UNL d   1       1.759   1.990  -1.811  0.00  0.00    -0.001 A 
ATOM      4  C3  UNL d   1       1.800   3.384  -1.737  0.00  0.00     0.003 A 
ATOM      5  C4  UNL d   1       1.420   4.034  -0.565  0.00  0.00    -0.005 A 
ATOM      6  C5  UNL d   1       0.999   3.290   0.536  0.00  0.00     0.003 A 
ATOM      7  C6  UNL d   1       0.957   1.897   0.464  0.00  0.00    -0.001 A 
ENDROOT
TORSDOF 0
ENDMDL
