MODEL 1
REMARK minimizedAffinity -5.34339094
REMARK minimizedRMSD -1
REMARK  0 active torsions:
REMARK  status: ('A' for Active; 'I' for Inactive)
ROOT
ATOM      1  C   UNL d   1       0.887  -1.807  -1.020  0.00  0.00     0.078 C 
ATOM      2  C1  UNL d   1       1.117  -0.331  -0.886  0.00  0.00    -0.077 A 
ATOM      3  C2  UNL d   1       1.654   0.414  -1.943  0.00  0.00    -0.001 A 
ATOM      4  C3  UNL d   1       1.871   1.785  -1.800  0.00  0.00     0.003 A 
ATOM      5  C4  UNL d   1       1.556   2.423  -0.602  0.00  0.00    -0.005 A 
ATOM      6  C5  UNL d   1       1.023   1.689   0.456  0.00  0.00     0.003 A 
ATOM      7  C6  UNL d   1       0.805   0.318   0.315  0.00  0.00    -0.001 A 
ENDROOT
TORSDOF 0
ENDMDL
