MODEL 1
REMARK minimizedAffinity -4.26625252
REMARK minimizedRMSD -1
REMARK  0 active torsions:
REMARK  status: ('A' for Active; 'I' for Inactive)
ROOT
ATOM      1  C   UNL d   1       1.416  -0.834  -1.885  0.00  0.00     0.078 C 
ATOM      2  C1  UNL d   1       1.607   0.468  -1.167  0.00  0.00    -0.077 A 
ATOM      3  C2  UNL d   1       2.743   0.699  -0.381  0.00  0.00    -0.001 A 
ATOM      4  C3  UNL d   1       2.903   1.913   0.289  0.00  0.00     0.003 A 
ATOM      5  C4  UNL d   1       1.931   2.905   0.181  0.00  0.00    -0.005 A 
ATOM      6  C5  UNL d   1       0.796   2.684  -0.597  0.00  0.00     0.003 A 
ATOM      7  C6  UNL d   1       0.634   1.471  -1.268  0.00  0.00    -0.001 A 
ENDROOT
TORSDOF 0
ENDMDL
