MODEL 1
REMARK minimizedAffinity 0.870102108
REMARK minimizedRMSD -1
REMARK  0 active torsions:
REMARK  status: ('A' for Active; 'I' for Inactive)
ROOT
ATOM      1  C   UNL d   1       1.600  -0.253  -3.225  0.00  0.00     0.078 C 
ATOM      2  C1  UNL d   1       1.749   0.369  -1.869  0.00  0.00    -0.077 A 
ATOM      3  C2  UNL d   1       2.732  -0.074  -0.976  0.00  0.00    -0.001 A 
ATOM      4  C3  UNL d   1       2.852   0.508   0.287  0.00  0.00     0.003 A 
ATOM      5  C4  UNL d   1       1.992   1.536   0.668  0.00  0.00    -0.005 A 
ATOM      6  C5  UNL d   1       1.009   1.982  -0.213  0.00  0.00     0.003 A 
ATOM      7  C6  UNL d   1       0.887   1.401  -1.476  0.00  0.00    -0.001 A 
ENDROOT
TORSDOF 0
ENDMDL
