MODEL 1
REMARK minimizedAffinity -3.86520123
REMARK minimizedRMSD -1
REMARK  0 active torsions:
REMARK  status: ('A' for Active; 'I' for Inactive)
ROOT
ATOM      1  C   UNL d   1       1.050   0.638  -1.406  0.00  0.00     0.078 C 
ATOM      2  C1  UNL d   1       1.116  -0.790  -0.952  0.00  0.00    -0.077 A 
ATOM      3  C2  UNL d   1       0.274  -1.762  -1.506  0.00  0.00    -0.001 A 
ATOM      4  C3  UNL d   1       0.339  -3.085  -1.067  0.00  0.00     0.003 A 
ATOM      5  C4  UNL d   1       1.244  -3.448  -0.071  0.00  0.00    -0.005 A 
ATOM      6  C5  UNL d   1       2.084  -2.487   0.488  0.00  0.00     0.003 A 
ATOM      7  C6  UNL d   1       2.020  -1.163   0.050  0.00  0.00    -0.001 A 
ENDROOT
TORSDOF 0
ENDMDL
