MODEL 1
REMARK minimizedAffinity -3.22982049
REMARK minimizedRMSD -1
REMARK  0 active torsions:
REMARK  status: ('A' for Active; 'I' for Inactive)
ROOT
ATOM      1  C   UNL d   1       0.937  -1.912  -0.063  0.00  0.00     0.078 C 
ATOM      2  C1  UNL d   1       0.915  -0.439  -0.341  0.00  0.00    -0.077 A 
ATOM      3  C2  UNL d   1       0.909   0.047  -1.655  0.00  0.00    -0.001 A 
ATOM      4  C3  UNL d   1       0.898   1.421  -1.899  0.00  0.00     0.003 A 
ATOM      5  C4  UNL d   1       0.893   2.321  -0.835  0.00  0.00    -0.005 A 
ATOM      6  C5  UNL d   1       0.901   1.847   0.475  0.00  0.00     0.003 A 
ATOM      7  C6  UNL d   1       0.912   0.473   0.722  0.00  0.00    -0.001 A 
ENDROOT
TORSDOF 0
ENDMDL
