MODEL 1
REMARK minimizedAffinity -4.37263012
REMARK minimizedRMSD -1
REMARK  0 active torsions:
REMARK  status: ('A' for Active; 'I' for Inactive)
ROOT
ATOM      1  C   UNL d   1       1.685   4.578  -1.208  0.00  0.00     0.078 C 
ATOM      2  C1  UNL d   1       1.496   3.129  -0.873  0.00  0.00    -0.077 A 
ATOM      3  C2  UNL d   1       1.425   2.159  -1.881  0.00  0.00    -0.001 A 
ATOM      4  C3  UNL d   1       1.239   0.815  -1.555  0.00  0.00     0.003 A 
ATOM      5  C4  UNL d   1       1.121   0.428  -0.221  0.00  0.00    -0.005 A 
ATOM      6  C5  UNL d   1       1.188   1.386   0.788  0.00  0.00     0.003 A 
ATOM      7  C6  UNL d   1       1.374   2.731   0.464  0.00  0.00    -0.001 A 
ENDROOT
TORSDOF 0
ENDMDL
