MODEL 1
REMARK minimizedAffinity -5.36771679
REMARK minimizedRMSD -1
REMARK  0 active torsions:
REMARK  status: ('A' for Active; 'I' for Inactive)
ROOT
ATOM      1  C   UNL d   1       1.825   4.264  -1.447  0.00  0.00     0.078 C 
ATOM      2  C1  UNL d   1       1.354   2.868  -1.168  0.00  0.00    -0.077 A 
ATOM      3  C2  UNL d   1       0.724   2.107  -2.160  0.00  0.00    -0.001 A 
ATOM      4  C3  UNL d   1       0.282   0.812  -1.882  0.00  0.00     0.003 A 
ATOM      5  C4  UNL d   1       0.465   0.267  -0.613  0.00  0.00    -0.005 A 
ATOM      6  C5  UNL d   1       1.090   1.018   0.381  0.00  0.00     0.003 A 
ATOM      7  C6  UNL d   1       1.532   2.312   0.106  0.00  0.00    -0.001 A 
ENDROOT
TORSDOF 0
ENDMDL
