MODEL 1
REMARK minimizedAffinity -1.11167324
REMARK minimizedRMSD -1
REMARK  0 active torsions:
REMARK  status: ('A' for Active; 'I' for Inactive)
ROOT
ATOM      1  C   UNL d   1       1.891   3.856  -1.642  0.00  0.00     0.078 C 
ATOM      2  C1  UNL d   1       1.551   2.440  -1.284  0.00  0.00    -0.077 A 
ATOM      3  C2  UNL d   1       1.149   1.525  -2.264  0.00  0.00    -0.001 A 
ATOM      4  C3  UNL d   1       0.827   0.212  -1.915  0.00  0.00     0.003 A 
ATOM      5  C4  UNL d   1       0.902  -0.196  -0.585  0.00  0.00    -0.005 A 
ATOM      6  C5  UNL d   1       1.299   0.708   0.398  0.00  0.00     0.003 A 
ATOM      7  C6  UNL d   1       1.622   2.021   0.050  0.00  0.00    -0.001 A 
ENDROOT
TORSDOF 0
ENDMDL
