MODEL 1
REMARK minimizedAffinity 3.8653388
REMARK minimizedRMSD -1
REMARK  0 active torsions:
REMARK  status: ('A' for Active; 'I' for Inactive)
ROOT
ATOM      1  C   UNL d   1      -5.562   5.808   2.442  0.00  0.00     0.023 A 
ATOM      2  C1  UNL d   1      -4.202   5.780   2.131  0.00  0.00     0.003 A 
ATOM      3  C2  UNL d   1      -3.250   5.835   3.151  0.00  0.00     0.048 A 
ATOM      4  C3  UNL d   1      -3.664   5.917   4.480  0.00  0.00     0.023 A 
ATOM      5  C4  UNL d   1      -5.024   5.945   4.796  0.00  0.00     0.048 A 
ATOM      6  C5  UNL d   1      -5.972   5.891   3.773  0.00  0.00     0.003 A 
ATOM      7  I   UNL d   1      -2.249   5.999   6.000  0.00  0.00    -0.146 I 
ENDROOT
TORSDOF 0
ENDMDL
