MODEL 1
REMARK minimizedAffinity 4.44873476
REMARK minimizedRMSD -1
REMARK  0 active torsions:
REMARK  status: ('A' for Active; 'I' for Inactive)
ROOT
ATOM      1  C   UNL d   1      -3.712   5.922   5.702  0.00  0.00     0.023 A 
ATOM      2  C1  UNL d   1      -2.348   5.969   5.990  0.00  0.00     0.003 A 
ATOM      3  C2  UNL d   1      -1.414   5.989   4.951  0.00  0.00     0.048 A 
ATOM      4  C3  UNL d   1      -1.852   5.964   3.628  0.00  0.00     0.023 A 
ATOM      5  C4  UNL d   1      -3.216   5.919   3.335  0.00  0.00     0.048 A 
ATOM      6  C5  UNL d   1      -4.146   5.897   4.377  0.00  0.00     0.003 A 
ATOM      7  I   UNL d   1      -0.465   5.996   2.080  0.00  0.00    -0.146 I 
ENDROOT
TORSDOF 0
ENDMDL
