MODEL 1
REMARK minimizedAffinity -2.75948882
REMARK minimizedRMSD -1
REMARK  0 active torsions:
REMARK  status: ('A' for Active; 'I' for Inactive)
ROOT
ATOM      1  C   UNL d   1       4.320  -5.321   5.619  0.00  0.00     0.023 A 
ATOM      2  C1  UNL d   1       5.617  -4.966   5.989  0.00  0.00     0.003 A 
ATOM      3  C2  UNL d   1       5.998  -3.623   5.999  0.00  0.00     0.048 A 
ATOM      4  C3  UNL d   1       5.077  -2.640   5.639  0.00  0.00     0.023 A 
ATOM      5  C4  UNL d   1       3.778  -2.991   5.269  0.00  0.00     0.048 A 
ATOM      6  C5  UNL d   1       3.401  -4.335   5.260  0.00  0.00     0.003 A 
ATOM      7  I   UNL d   1       5.642  -0.640   5.654  0.00  0.00    -0.146 I 
ENDROOT
TORSDOF 0
ENDMDL
