MODEL 1
REMARK minimizedAffinity 4.32597446
REMARK minimizedRMSD -1
REMARK  0 active torsions:
REMARK  status: ('A' for Active; 'I' for Inactive)
ROOT
ATOM      1  C   UNL d   1      -5.488   5.005   2.239  0.00  0.00     0.023 A 
ATOM      2  C1  UNL d   1      -4.157   4.589   2.216  0.00  0.00     0.003 A 
ATOM      3  C2  UNL d   1      -3.316   4.874   3.294  0.00  0.00     0.048 A 
ATOM      4  C3  UNL d   1      -3.813   5.574   4.392  0.00  0.00     0.023 A 
ATOM      5  C4  UNL d   1      -5.145   5.992   4.420  0.00  0.00     0.048 A 
ATOM      6  C5  UNL d   1      -5.982   5.705   3.340  0.00  0.00     0.003 A 
ATOM      7  I   UNL d   1      -2.564   6.000   5.998  0.00  0.00    -0.146 I 
ENDROOT
TORSDOF 0
ENDMDL
