MODEL 1
REMARK minimizedAffinity -2.32280803
REMARK minimizedRMSD -1
REMARK  0 active torsions:
REMARK  status: ('A' for Active; 'I' for Inactive)
ROOT
ATOM      1  C   UNL d   1       4.125  -5.386   5.491  0.00  0.00     0.023 A 
ATOM      2  C1  UNL d   1       5.462  -5.227   5.855  0.00  0.00     0.003 A 
ATOM      3  C2  UNL d   1       6.000  -3.946   6.000  0.00  0.00     0.048 A 
ATOM      4  C3  UNL d   1       5.195  -2.829   5.779  0.00  0.00     0.023 A 
ATOM      5  C4  UNL d   1       3.857  -2.983   5.415  0.00  0.00     0.048 A 
ATOM      6  C5  UNL d   1       3.323  -4.265   5.271  0.00  0.00     0.003 A 
ATOM      7  I   UNL d   1       5.994  -0.922   5.994  0.00  0.00    -0.146 I 
ENDROOT
TORSDOF 0
ENDMDL
