MODEL 1
REMARK minimizedAffinity 3.47183824
REMARK minimizedRMSD -1
REMARK  0 active torsions:
REMARK  status: ('A' for Active; 'I' for Inactive)
ROOT
ATOM      1  C   UNL d   1      -1.872   5.947   5.733  0.00  0.00     0.023 A 
ATOM      2  C1  UNL d   1      -3.242   5.918   5.997  0.00  0.00     0.003 A 
ATOM      3  C2  UNL d   1      -4.157   5.930   4.942  0.00  0.00     0.048 A 
ATOM      4  C3  UNL d   1      -3.696   5.970   3.627  0.00  0.00     0.023 A 
ATOM      5  C4  UNL d   1      -2.327   5.998   3.359  0.00  0.00     0.048 A 
ATOM      6  C5  UNL d   1      -1.415   5.987   4.416  0.00  0.00     0.003 A 
ATOM      7  I   UNL d   1      -5.057   5.987   2.056  0.00  0.00    -0.146 I 
ENDROOT
TORSDOF 0
ENDMDL
