MODEL 1
REMARK minimizedAffinity 6.24140596
REMARK minimizedRMSD -1
REMARK  0 active torsions:
REMARK  status: ('A' for Active; 'I' for Inactive)
ROOT
ATOM      1  C   UNL d   1       1.608   2.418  -1.586  0.00  0.00     0.023 A 
ATOM      2  C1  UNL d   1       1.452   1.282  -2.380  0.00  0.00     0.003 A 
ATOM      3  C2  UNL d   1       2.099   1.196  -3.614  0.00  0.00     0.048 A 
ATOM      4  C3  UNL d   1       2.902   2.250  -4.049  0.00  0.00     0.023 A 
ATOM      5  C4  UNL d   1       3.062   3.389  -3.258  0.00  0.00     0.048 A 
ATOM      6  C5  UNL d   1       2.412   3.471  -2.024  0.00  0.00     0.003 A 
ATOM      7  I   UNL d   1       3.866   2.125  -5.886  0.00  0.00    -0.146 I 
ENDROOT
TORSDOF 0
ENDMDL
