MODEL 1
REMARK minimizedAffinity 0.711577535
REMARK minimizedRMSD -1
REMARK  0 active torsions:
REMARK  status: ('A' for Active; 'I' for Inactive)
ROOT
ATOM      1  C   UNL d   1       1.235   1.415  -2.175  0.00  0.00     0.023 A 
ATOM      2  C1  UNL d   1       1.125   2.611  -2.884  0.00  0.00     0.003 A 
ATOM      3  C2  UNL d   1       1.953   2.852  -3.982  0.00  0.00     0.048 A 
ATOM      4  C3  UNL d   1       2.889   1.892  -4.366  0.00  0.00     0.023 A 
ATOM      5  C4  UNL d   1       3.002   0.693  -3.660  0.00  0.00     0.048 A 
ATOM      6  C5  UNL d   1       2.172   0.457  -2.563  0.00  0.00     0.003 A 
ATOM      7  I   UNL d   1       4.123   2.248  -6.000  0.00  0.00    -0.146 I 
ENDROOT
TORSDOF 0
ENDMDL
