MODEL 1
REMARK minimizedAffinity 4.63347578
REMARK minimizedRMSD -1
REMARK  0 active torsions:
REMARK  status: ('A' for Active; 'I' for Inactive)
ROOT
ATOM      1  C   UNL d   1       3.007   3.539  -4.460  0.00  0.00     0.023 A 
ATOM      2  C1  UNL d   1       1.865   3.709  -3.677  0.00  0.00     0.003 A 
ATOM      3  C2  UNL d   1       1.364   2.642  -2.929  0.00  0.00     0.048 A 
ATOM      4  C3  UNL d   1       2.011   1.407  -2.968  0.00  0.00     0.023 A 
ATOM      5  C4  UNL d   1       3.155   1.233  -3.748  0.00  0.00     0.048 A 
ATOM      6  C5  UNL d   1       3.651   2.303  -4.495  0.00  0.00     0.003 A 
ATOM      7  I   UNL d   1       1.267  -0.183  -1.856  0.00  0.00    -0.146 I 
ENDROOT
TORSDOF 0
ENDMDL
