MODEL 1
REMARK minimizedAffinity 0.787158787
REMARK minimizedRMSD -1
REMARK  0 active torsions:
REMARK  status: ('A' for Active; 'I' for Inactive)
ROOT
ATOM      1  C   UNL d   1      -1.828   5.959   5.274  0.00  0.00     0.023 A 
ATOM      2  C1  UNL d   1      -1.804   5.982   3.879  0.00  0.00     0.003 A 
ATOM      3  C2  UNL d   1      -3.000   5.993   3.159  0.00  0.00     0.048 A 
ATOM      4  C3  UNL d   1      -4.217   5.982   3.840  0.00  0.00     0.023 A 
ATOM      5  C4  UNL d   1      -4.246   5.960   5.236  0.00  0.00     0.048 A 
ATOM      6  C5  UNL d   1      -3.047   5.948   5.951  0.00  0.00     0.003 A 
ATOM      7  I   UNL d   1      -5.999   5.999   2.771  0.00  0.00    -0.146 I 
ENDROOT
TORSDOF 0
ENDMDL
