MODEL 1
REMARK minimizedAffinity 4.25725651
REMARK minimizedRMSD -1
REMARK  0 active torsions:
REMARK  status: ('A' for Active; 'I' for Inactive)
ROOT
ATOM      1  C   UNL d   1      -4.383   5.294   5.915  0.00  0.00     0.023 A 
ATOM      2  C1  UNL d   1      -3.083   5.795   5.838  0.00  0.00     0.003 A 
ATOM      3  C2  UNL d   1      -2.484   5.998   4.593  0.00  0.00     0.048 A 
ATOM      4  C3  UNL d   1      -3.191   5.699   3.429  0.00  0.00     0.023 A 
ATOM      5  C4  UNL d   1      -4.492   5.198   3.501  0.00  0.00     0.048 A 
ATOM      6  C5  UNL d   1      -5.086   4.996   4.748  0.00  0.00     0.003 A 
ATOM      7  I   UNL d   1      -2.302   6.000   1.574  0.00  0.00    -0.146 I 
ENDROOT
TORSDOF 0
ENDMDL
