MODEL 1
REMARK minimizedAffinity -0.0510148369
REMARK minimizedRMSD -1
REMARK  0 active torsions:
REMARK  status: ('A' for Active; 'I' for Inactive)
ROOT
ATOM      1  C   UNL d   1       4.124  -1.606   4.973  0.00  0.00     0.023 A 
ATOM      2  C1  UNL d   1       3.305  -2.734   4.924  0.00  0.00     0.003 A 
ATOM      3  C2  UNL d   1       3.831  -3.994   5.218  0.00  0.00     0.048 A 
ATOM      4  C3  UNL d   1       5.177  -4.118   5.561  0.00  0.00     0.023 A 
ATOM      5  C4  UNL d   1       6.000  -2.992   5.613  0.00  0.00     0.048 A 
ATOM      6  C5  UNL d   1       5.470  -1.735   5.318  0.00  0.00     0.003 A 
ATOM      7  I   UNL d   1       5.962  -5.992   6.000  0.00  0.00    -0.146 I 
ENDROOT
TORSDOF 0
ENDMDL
