MODEL 1
REMARK minimizedAffinity 0.727024078
REMARK minimizedRMSD -1
REMARK  0 active torsions:
REMARK  status: ('A' for Active; 'I' for Inactive)
ROOT
ATOM      1  C   UNL d   1       1.650   2.404  -2.889  0.00  0.00     0.023 A 
ATOM      2  C1  UNL d   1       1.357   2.131  -1.553  0.00  0.00     0.003 A 
ATOM      3  C2  UNL d   1       1.440   0.823  -1.072  0.00  0.00     0.048 A 
ATOM      4  C3  UNL d   1       1.819  -0.207  -1.932  0.00  0.00     0.023 A 
ATOM      5  C4  UNL d   1       2.114   0.062  -3.270  0.00  0.00     0.048 A 
ATOM      6  C5  UNL d   1       2.028   1.371  -3.747  0.00  0.00     0.003 A 
ATOM      7  I   UNL d   1       1.944  -2.155  -1.219  0.00  0.00    -0.146 I 
ENDROOT
TORSDOF 0
ENDMDL
