MODEL 1
REMARK minimizedAffinity 0.23477143
REMARK minimizedRMSD -1
REMARK  0 active torsions:
REMARK  status: ('A' for Active; 'I' for Inactive)
ROOT
ATOM      1  C   UNL d   1       4.103  -5.834   5.771  0.00  0.00     0.023 A 
ATOM      2  C1  UNL d   1       5.472  -5.640   5.955  0.00  0.00     0.003 A 
ATOM      3  C2  UNL d   1       6.000  -4.347   5.971  0.00  0.00     0.048 A 
ATOM      4  C3  UNL d   1       5.152  -3.253   5.803  0.00  0.00     0.023 A 
ATOM      5  C4  UNL d   1       3.781  -3.442   5.619  0.00  0.00     0.048 A 
ATOM      6  C5  UNL d   1       3.259  -4.737   5.604  0.00  0.00     0.003 A 
ATOM      7  I   UNL d   1       5.934  -1.328   5.826  0.00  0.00    -0.146 I 
ENDROOT
TORSDOF 0
ENDMDL
