MODEL 1
REMARK minimizedAffinity 4.99004936
REMARK minimizedRMSD -1
REMARK  0 active torsions:
REMARK  status: ('A' for Active; 'I' for Inactive)
ROOT
ATOM      1  C   UNL d   1       4.227   3.318   2.783  0.00  0.00     0.023 A 
ATOM      2  C1  UNL d   1       3.286   2.382   3.213  0.00  0.00     0.003 A 
ATOM      3  C2  UNL d   1       3.691   1.279   3.968  0.00  0.00     0.048 A 
ATOM      4  C3  UNL d   1       5.038   1.119   4.290  0.00  0.00     0.023 A 
ATOM      5  C4  UNL d   1       5.983   2.053   3.863  0.00  0.00     0.048 A 
ATOM      6  C5  UNL d   1       5.574   3.154   3.108  0.00  0.00     0.003 A 
ATOM      7  I   UNL d   1       5.643  -0.522   5.413  0.00  0.00    -0.146 I 
ENDROOT
TORSDOF 0
ENDMDL
