MODEL 1
REMARK minimizedAffinity -0.118718401
REMARK minimizedRMSD -1
REMARK  0 active torsions:
REMARK  status: ('A' for Active; 'I' for Inactive)
ROOT
ATOM      1  C   UNL d   1      -5.196   5.965   1.985  0.00  0.00     0.023 A 
ATOM      2  C1  UNL d   1      -3.805   5.958   1.878  0.00  0.00     0.003 A 
ATOM      3  C2  UNL d   1      -3.015   5.968   3.030  0.00  0.00     0.048 A 
ATOM      4  C3  UNL d   1      -3.622   5.983   4.285  0.00  0.00     0.023 A 
ATOM      5  C4  UNL d   1      -5.013   5.989   4.397  0.00  0.00     0.048 A 
ATOM      6  C5  UNL d   1      -5.799   5.980   3.243  0.00  0.00     0.003 A 
ATOM      7  I   UNL d   1      -2.448   5.997   6.000  0.00  0.00    -0.146 I 
ENDROOT
TORSDOF 0
ENDMDL
