MODEL 1
REMARK minimizedAffinity 1.98227561
REMARK minimizedRMSD -1
REMARK  0 active torsions:
REMARK  status: ('A' for Active; 'I' for Inactive)
ROOT
ATOM      1  C   UNL d   1      -4.310   5.716   1.191  0.00  0.00     0.023 A 
ATOM      2  C1  UNL d   1      -5.391   5.593   2.064  0.00  0.00     0.003 A 
ATOM      3  C2  UNL d   1      -5.186   5.655   3.444  0.00  0.00     0.048 A 
ATOM      4  C3  UNL d   1      -3.898   5.840   3.944  0.00  0.00     0.023 A 
ATOM      5  C4  UNL d   1      -2.813   5.965   3.074  0.00  0.00     0.048 A 
ATOM      6  C5  UNL d   1      -3.023   5.902   1.695  0.00  0.00     0.003 A 
ATOM      7  I   UNL d   1      -3.591   5.932   5.998  0.00  0.00    -0.146 I 
ENDROOT
TORSDOF 0
ENDMDL
