MODEL 1
REMARK minimizedAffinity 0.815685332
REMARK minimizedRMSD -1
REMARK  0 active torsions:
REMARK  status: ('A' for Active; 'I' for Inactive)
ROOT
ATOM      1  C   UNL d   1       4.870  -1.168   5.246  0.00  0.00     0.023 A 
ATOM      2  C1  UNL d   1       3.739  -1.921   4.927  0.00  0.00     0.003 A 
ATOM      3  C2  UNL d   1       3.734  -3.300   5.142  0.00  0.00     0.048 A 
ATOM      4  C3  UNL d   1       4.862  -3.921   5.677  0.00  0.00     0.023 A 
ATOM      5  C4  UNL d   1       5.995  -3.172   5.998  0.00  0.00     0.048 A 
ATOM      6  C5  UNL d   1       5.996  -1.793   5.781  0.00  0.00     0.003 A 
ATOM      7  I   UNL d   1       4.856  -5.974   5.998  0.00  0.00    -0.146 I 
ENDROOT
TORSDOF 0
ENDMDL
