MODEL 1
REMARK minimizedAffinity 4.91575098
REMARK minimizedRMSD -1
REMARK  0 active torsions:
REMARK  status: ('A' for Active; 'I' for Inactive)
ROOT
ATOM      1  C   UNL d   1      -4.892   5.786   1.391  0.00  0.00     0.023 A 
ATOM      2  C1  UNL d   1      -3.526   5.728   1.669  0.00  0.00     0.003 A 
ATOM      3  C2  UNL d   1      -3.077   5.789   2.990  0.00  0.00     0.048 A 
ATOM      4  C3  UNL d   1      -4.000   5.907   4.029  0.00  0.00     0.023 A 
ATOM      5  C4  UNL d   1      -5.368   5.965   3.756  0.00  0.00     0.048 A 
ATOM      6  C5  UNL d   1      -5.811   5.904   2.433  0.00  0.00     0.003 A 
ATOM      7  I   UNL d   1      -3.335   5.999   5.996  0.00  0.00    -0.146 I 
ENDROOT
TORSDOF 0
ENDMDL
