MODEL 1
REMARK minimizedAffinity 1.49626684
REMARK minimizedRMSD -1
REMARK  0 active torsions:
REMARK  status: ('A' for Active; 'I' for Inactive)
ROOT
ATOM      1  O1  BZF d   1      -2.674  -1.196  -5.901  0.00  0.00    -0.204 OA
ATOM      2  C2  BZF d   1      -3.320   0.019  -5.784  0.00  0.00     0.174 A 
ATOM      3  C3  BZF d   1      -4.657  -0.151  -5.744  0.00  0.00    -0.012 A 
ATOM      4  C3A BZF d   1      -4.856  -1.568  -5.749  0.00  0.00    -0.107 A 
ATOM      5  C4  BZF d   1      -5.968  -2.360  -5.707  0.00  0.00     0.055 A 
ATOM      6  C5  BZF d   1      -5.823  -3.708  -5.802  0.00  0.00    -0.016 A 
ATOM      7  C6  BZF d   1      -4.583  -4.296  -5.946  0.00  0.00     0.022 A 
ATOM      8  C7  BZF d   1      -3.451  -3.552  -5.988  0.00  0.00     0.029 A 
ATOM      9  C7A BZF d   1      -3.592  -2.192  -5.859  0.00  0.00     0.058 A 
ENDROOT
TORSDOF 0
ENDMDL
