MODEL 1
REMARK minimizedAffinity -0.614872396
REMARK minimizedRMSD -1
REMARK  0 active torsions:
REMARK  status: ('A' for Active; 'I' for Inactive)
ROOT
ATOM      1  O1  BZF d   1      -4.743   3.743  -5.972  0.00  0.00    -0.204 OA
ATOM      2  C2  BZF d   1      -3.697   4.645  -6.000  0.00  0.00     0.174 A 
ATOM      3  C3  BZF d   1      -2.511   4.003  -5.960  0.00  0.00    -0.012 A 
ATOM      4  C3A BZF d   1      -2.836   2.610  -5.997  0.00  0.00    -0.107 A 
ATOM      5  C4  BZF d   1      -2.083   1.471  -5.999  0.00  0.00     0.055 A 
ATOM      6  C5  BZF d   1      -2.709   0.265  -5.967  0.00  0.00    -0.016 A 
ATOM      7  C6  BZF d   1      -4.084   0.162  -5.926  0.00  0.00     0.022 A 
ATOM      8  C7  BZF d   1      -4.873   1.264  -5.928  0.00  0.00     0.029 A 
ATOM      9  C7A BZF d   1      -4.244   2.484  -5.994  0.00  0.00     0.058 A 
ENDROOT
TORSDOF 0
ENDMDL
