MODEL 1
REMARK minimizedAffinity -2.74121451
REMARK minimizedRMSD -1
REMARK  0 active torsions:
REMARK  status: ('A' for Active; 'I' for Inactive)
ROOT
ATOM      1  O1  BZF d   1      -3.234   5.118  -5.980  0.00  0.00    -0.204 OA
ATOM      2  C2  BZF d   1      -1.889   5.435  -6.000  0.00  0.00     0.174 A 
ATOM      3  C3  BZF d   1      -1.134   4.319  -5.953  0.00  0.00    -0.012 A 
ATOM      4  C3A BZF d   1      -2.064   3.233  -5.993  0.00  0.00    -0.107 A 
ATOM      5  C4  BZF d   1      -1.922   1.874  -5.991  0.00  0.00     0.055 A 
ATOM      6  C5  BZF d   1      -3.035   1.094  -5.964  0.00  0.00    -0.016 A 
ATOM      7  C6  BZF d   1      -4.302   1.638  -5.933  0.00  0.00     0.022 A 
ATOM      8  C7  BZF d   1      -4.493   2.979  -5.939  0.00  0.00     0.029 A 
ATOM      9  C7A BZF d   1      -3.372   3.770  -6.000  0.00  0.00     0.058 A 
ENDROOT
TORSDOF 0
ENDMDL
