MODEL 1
REMARK minimizedAffinity 6.77735853
REMARK minimizedRMSD -1
REMARK  0 active torsions:
REMARK  status: ('A' for Active; 'I' for Inactive)
ROOT
ATOM      1  O1  BZF d   1       1.129   0.754  -3.390  0.00  0.00    -0.204 OA
ATOM      2  C2  BZF d   1       0.581  -0.466  -3.736  0.00  0.00     0.174 A 
ATOM      3  C3  BZF d   1       0.365  -1.221  -2.639  0.00  0.00    -0.012 A 
ATOM      4  C3A BZF d   1       0.719  -0.386  -1.532  0.00  0.00    -0.107 A 
ATOM      5  C4  BZF d   1       0.706  -0.567  -0.178  0.00  0.00     0.055 A 
ATOM      6  C5  BZF d   1       1.185   0.420   0.624  0.00  0.00    -0.016 A 
ATOM      7  C6  BZF d   1       1.688   1.596   0.107  0.00  0.00     0.022 A 
ATOM      8  C7  BZF d   1       1.717   1.823  -1.229  0.00  0.00     0.029 A 
ATOM      9  C7A BZF d   1       1.204   0.841  -2.041  0.00  0.00     0.058 A 
ENDROOT
TORSDOF 0
ENDMDL
