MODEL 1
REMARK minimizedAffinity 2.6616919
REMARK minimizedRMSD -1
REMARK  0 active torsions:
REMARK  status: ('A' for Active; 'I' for Inactive)
ROOT
ATOM      1  O1  BZF d   1      -4.072   4.511  -5.999  0.00  0.00    -0.204 OA
ATOM      2  C2  BZF d   1      -5.416   4.191  -5.983  0.00  0.00     0.174 A 
ATOM      3  C3  BZF d   1      -5.590   2.854  -6.000  0.00  0.00    -0.012 A 
ATOM      4  C3A BZF d   1      -4.272   2.302  -5.935  0.00  0.00    -0.107 A 
ATOM      5  C4  BZF d   1      -3.789   1.025  -5.903  0.00  0.00     0.055 A 
ATOM      6  C5  BZF d   1      -2.445   0.827  -5.915  0.00  0.00    -0.016 A 
ATOM      7  C6  BZF d   1      -1.556   1.880  -5.963  0.00  0.00     0.022 A 
ATOM      8  C7  BZF d   1      -1.987   3.165  -5.991  0.00  0.00     0.029 A 
ATOM      9  C7A BZF d   1      -3.344   3.369  -5.947  0.00  0.00     0.058 A 
ENDROOT
TORSDOF 0
ENDMDL
