MODEL 1
REMARK minimizedAffinity 1.87133157
REMARK minimizedRMSD -1
REMARK  0 active torsions:
REMARK  status: ('A' for Active; 'I' for Inactive)
ROOT
ATOM      1  O1  BZF d   1      -1.986   2.643  -5.974  0.00  0.00    -0.204 OA
ATOM      2  C2  BZF d   1      -1.850   1.268  -5.997  0.00  0.00     0.174 A 
ATOM      3  C3  BZF d   1      -3.057   0.668  -5.956  0.00  0.00    -0.012 A 
ATOM      4  C3A BZF d   1      -4.010   1.734  -5.997  0.00  0.00    -0.107 A 
ATOM      5  C4  BZF d   1      -5.375   1.775  -6.000  0.00  0.00     0.055 A 
ATOM      6  C5  BZF d   1      -6.000   2.981  -5.971  0.00  0.00    -0.016 A 
ATOM      7  C6  BZF d   1      -5.293   4.165  -5.934  0.00  0.00     0.022 A 
ATOM      8  C7  BZF d   1      -3.937   4.175  -5.935  0.00  0.00     0.029 A 
ATOM      9  C7A BZF d   1      -3.303   2.959  -5.998  0.00  0.00     0.058 A 
ENDROOT
TORSDOF 0
ENDMDL
