MODEL 1
REMARK minimizedAffinity 11.0239191
REMARK minimizedRMSD -1
REMARK  0 active torsions:
REMARK  status: ('A' for Active; 'I' for Inactive)
ROOT
ATOM      1  O1  BZF d   1       5.249  -0.068  -0.530  0.00  0.00    -0.204 OA
ATOM      2  C2  BZF d   1       5.991   1.097  -0.552  0.00  0.00     0.174 A 
ATOM      3  C3  BZF d   1       5.188   2.175  -0.663  0.00  0.00    -0.012 A 
ATOM      4  C3A BZF d   1       3.855   1.656  -0.620  0.00  0.00    -0.107 A 
ATOM      5  C4  BZF d   1       2.620   2.236  -0.670  0.00  0.00     0.055 A 
ATOM      6  C5  BZF d   1       1.517   1.442  -0.678  0.00  0.00    -0.016 A 
ATOM      7  C6  BZF d   1       1.613   0.067  -0.643  0.00  0.00     0.022 A 
ATOM      8  C7  BZF d   1       2.816  -0.555  -0.588  0.00  0.00     0.029 A 
ATOM      9  C7A BZF d   1       3.931   0.246  -0.546  0.00  0.00     0.058 A 
ENDROOT
TORSDOF 0
ENDMDL
