MODEL 1
REMARK minimizedAffinity 5.65938711
REMARK minimizedRMSD -1
REMARK  0 active torsions:
REMARK  status: ('A' for Active; 'I' for Inactive)
ROOT
ATOM      1  O1  BZF d   1      -4.734   1.883  -5.832  0.00  0.00    -0.204 OA
ATOM      2  C2  BZF d   1      -3.485   2.471  -5.779  0.00  0.00     0.174 A 
ATOM      3  C3  BZF d   1      -2.515   1.535  -5.752  0.00  0.00    -0.012 A 
ATOM      4  C3A BZF d   1      -3.197   0.284  -5.883  0.00  0.00    -0.107 A 
ATOM      5  C4  BZF d   1      -2.775  -1.014  -5.939  0.00  0.00     0.055 A 
ATOM      6  C5  BZF d   1      -3.700  -2.008  -5.996  0.00  0.00    -0.016 A 
ATOM      7  C6  BZF d   1      -5.053  -1.740  -5.994  0.00  0.00     0.022 A 
ATOM      8  C7  BZF d   1      -5.520  -0.469  -5.945  0.00  0.00     0.029 A 
ATOM      9  C7A BZF d   1      -4.587   0.539  -5.921  0.00  0.00     0.058 A 
ENDROOT
TORSDOF 0
ENDMDL
