MODEL 1
REMARK minimizedAffinity 0.71891737
REMARK minimizedRMSD -1
REMARK  0 active torsions:
REMARK  status: ('A' for Active; 'I' for Inactive)
ROOT
ATOM      1  O1  BZF d   1      -5.765  -1.633  -5.903  0.00  0.00    -0.204 OA
ATOM      2  C2  BZF d   1      -4.717  -0.733  -5.935  0.00  0.00     0.174 A 
ATOM      3  C3  BZF d   1      -3.532  -1.376  -5.922  0.00  0.00    -0.012 A 
ATOM      4  C3A BZF d   1      -3.860  -2.768  -5.972  0.00  0.00    -0.107 A 
ATOM      5  C4  BZF d   1      -3.109  -3.909  -6.000  0.00  0.00     0.055 A 
ATOM      6  C5  BZF d   1      -3.737  -5.113  -5.973  0.00  0.00    -0.016 A 
ATOM      7  C6  BZF d   1      -5.111  -5.215  -5.912  0.00  0.00     0.022 A 
ATOM      8  C7  BZF d   1      -5.898  -4.111  -5.888  0.00  0.00     0.029 A 
ATOM      9  C7A BZF d   1      -5.268  -2.893  -5.948  0.00  0.00     0.058 A 
ENDROOT
TORSDOF 0
ENDMDL
