MODEL 1
REMARK minimizedAffinity 4.55498028
REMARK minimizedRMSD -1
REMARK  0 active torsions:
REMARK  status: ('A' for Active; 'I' for Inactive)
ROOT
ATOM      1  O1  BZF d   1      -5.446  -2.471  -5.951  0.00  0.00    -0.204 OA
ATOM      2  C2  BZF d   1      -4.464  -1.499  -5.934  0.00  0.00     0.174 A 
ATOM      3  C3  BZF d   1      -3.238  -2.059  -5.885  0.00  0.00    -0.012 A 
ATOM      4  C3A BZF d   1      -3.465  -3.470  -5.964  0.00  0.00    -0.107 A 
ATOM      5  C4  BZF d   1      -2.636  -4.555  -5.979  0.00  0.00     0.055 A 
ATOM      6  C5  BZF d   1      -3.178  -5.800  -5.990  0.00  0.00    -0.016 A 
ATOM      7  C6  BZF d   1      -4.544  -5.998  -5.982  0.00  0.00     0.022 A 
ATOM      8  C7  BZF d   1      -5.406  -4.952  -5.972  0.00  0.00     0.029 A 
ATOM      9  C7A BZF d   1      -4.861  -3.692  -5.994  0.00  0.00     0.058 A 
ENDROOT
TORSDOF 0
ENDMDL
