MODEL 1
REMARK minimizedAffinity -2.29458952
REMARK minimizedRMSD -1
REMARK  0 active torsions:
REMARK  status: ('A' for Active; 'I' for Inactive)
ROOT
ATOM      1  O1  BZF d   1      -2.659   0.601  -5.956  0.00  0.00    -0.204 OA
ATOM      2  C2  BZF d   1      -3.658  -0.353  -5.952  0.00  0.00     0.174 A 
ATOM      3  C3  BZF d   1      -4.874   0.229  -5.911  0.00  0.00    -0.012 A 
ATOM      4  C3A BZF d   1      -4.621   1.635  -5.982  0.00  0.00    -0.107 A 
ATOM      5  C4  BZF d   1      -5.430   2.735  -5.999  0.00  0.00     0.055 A 
ATOM      6  C5  BZF d   1      -4.865   3.971  -5.999  0.00  0.00    -0.016 A 
ATOM      7  C6  BZF d   1      -3.497   4.143  -5.978  0.00  0.00     0.022 A 
ATOM      8  C7  BZF d   1      -2.653   3.083  -5.966  0.00  0.00     0.029 A 
ATOM      9  C7A BZF d   1      -3.221   1.832  -5.999  0.00  0.00     0.058 A 
ENDROOT
TORSDOF 0
ENDMDL
