MODEL 1
REMARK minimizedAffinity -2.18241715
REMARK minimizedRMSD -1
REMARK  0 active torsions:
REMARK  status: ('A' for Active; 'I' for Inactive)
ROOT
ATOM      1  O1  BZF d   1      -5.808   4.599  -5.948  0.00  0.00    -0.204 OA
ATOM      2  C2  BZF d   1      -5.178   5.829  -5.926  0.00  0.00     0.174 A 
ATOM      3  C3  BZF d   1      -3.838   5.679  -5.879  0.00  0.00    -0.012 A 
ATOM      4  C3A BZF d   1      -3.614   4.268  -5.964  0.00  0.00    -0.107 A 
ATOM      5  C4  BZF d   1      -2.488   3.496  -5.982  0.00  0.00     0.055 A 
ATOM      6  C5  BZF d   1      -2.615   2.143  -5.998  0.00  0.00    -0.016 A 
ATOM      7  C6  BZF d   1      -3.850   1.530  -5.991  0.00  0.00     0.022 A 
ATOM      8  C7  BZF d   1      -4.996   2.254  -5.978  0.00  0.00     0.029 A 
ATOM      9  C7A BZF d   1      -4.871   3.622  -5.995  0.00  0.00     0.058 A 
ENDROOT
TORSDOF 0
ENDMDL
