MODEL 1
REMARK minimizedAffinity 5.29388428
REMARK minimizedRMSD -1
REMARK  0 active torsions:
REMARK  status: ('A' for Active; 'I' for Inactive)
ROOT
ATOM      1  O1  BZF d   1      -1.949   2.131  -5.940  0.00  0.00    -0.204 OA
ATOM      2  C2  BZF d   1      -2.401   0.825  -5.920  0.00  0.00     0.174 A 
ATOM      3  C3  BZF d   1      -3.749   0.786  -5.876  0.00  0.00    -0.012 A 
ATOM      4  C3A BZF d   1      -4.168   2.151  -5.962  0.00  0.00    -0.107 A 
ATOM      5  C4  BZF d   1      -5.391   2.758  -5.984  0.00  0.00     0.055 A 
ATOM      6  C5  BZF d   1      -5.454   4.116  -6.000  0.00  0.00    -0.016 A 
ATOM      7  C6  BZF d   1      -4.317   4.896  -5.989  0.00  0.00     0.022 A 
ATOM      8  C7  BZF d   1      -3.081   4.339  -5.973  0.00  0.00     0.029 A 
ATOM      9  C7A BZF d   1      -3.013   2.968  -5.990  0.00  0.00     0.058 A 
ENDROOT
TORSDOF 0
ENDMDL
