MODEL 1
REMARK minimizedAffinity -1.97017646
REMARK minimizedRMSD -1
REMARK  0 active torsions:
REMARK  status: ('A' for Active; 'I' for Inactive)
ROOT
ATOM      1  O1  BZF d   1      -5.733  -0.162  -5.944  0.00  0.00    -0.204 OA
ATOM      2  C2  BZF d   1      -5.044  -1.359  -5.937  0.00  0.00     0.174 A 
ATOM      3  C3  BZF d   1      -3.713  -1.146  -6.000  0.00  0.00    -0.012 A 
ATOM      4  C3A BZF d   1      -3.558   0.276  -5.955  0.00  0.00    -0.107 A 
ATOM      5  C4  BZF d   1      -2.471   1.102  -5.967  0.00  0.00     0.055 A 
ATOM      6  C5  BZF d   1      -2.664   2.447  -5.987  0.00  0.00    -0.016 A 
ATOM      7  C6  BZF d   1      -3.929   2.999  -6.000  0.00  0.00     0.022 A 
ATOM      8  C7  BZF d   1      -5.037   2.220  -5.983  0.00  0.00     0.029 A 
ATOM      9  C7A BZF d   1      -4.845   0.861  -5.930  0.00  0.00     0.058 A 
ENDROOT
TORSDOF 0
ENDMDL
