MODEL 1
REMARK minimizedAffinity -1.25435114
REMARK minimizedRMSD -1
REMARK  0 active torsions:
REMARK  status: ('A' for Active; 'I' for Inactive)
ROOT
ATOM      1  O1  BZF d   1      -4.680   3.691  -5.936  0.00  0.00    -0.204 OA
ATOM      2  C2  BZF d   1      -3.495   4.400  -5.936  0.00  0.00     0.174 A 
ATOM      3  C3  BZF d   1      -2.437   3.564  -5.903  0.00  0.00    -0.012 A 
ATOM      4  C3A BZF d   1      -2.995   2.249  -5.976  0.00  0.00    -0.107 A 
ATOM      5  C4  BZF d   1      -2.449   0.997  -6.000  0.00  0.00     0.055 A 
ATOM      6  C5  BZF d   1      -3.273  -0.083  -6.000  0.00  0.00    -0.016 A 
ATOM      7  C6  BZF d   1      -4.645   0.051  -5.971  0.00  0.00     0.022 A 
ATOM      8  C7  BZF d   1      -5.234   1.271  -5.951  0.00  0.00     0.029 A 
ATOM      9  C7A BZF d   1      -4.404   2.366  -5.985  0.00  0.00     0.058 A 
ENDROOT
TORSDOF 0
ENDMDL
