MODEL 1
REMARK minimizedAffinity 0.679664612
REMARK minimizedRMSD -1
REMARK  0 active torsions:
REMARK  status: ('A' for Active; 'I' for Inactive)
ROOT
ATOM      1  O1  BZF d   1      -3.530   4.768  -5.959  0.00  0.00    -0.204 OA
ATOM      2  C2  BZF d   1      -2.247   5.276  -6.000  0.00  0.00     0.174 A 
ATOM      3  C3  BZF d   1      -1.337   4.281  -5.967  0.00  0.00    -0.012 A 
ATOM      4  C3A BZF d   1      -2.100   3.072  -5.996  0.00  0.00    -0.107 A 
ATOM      5  C4  BZF d   1      -1.763   1.749  -5.999  0.00  0.00     0.055 A 
ATOM      6  C5  BZF d   1      -2.750   0.815  -5.955  0.00  0.00    -0.016 A 
ATOM      7  C6  BZF d   1      -4.082   1.170  -5.903  0.00  0.00     0.022 A 
ATOM      8  C7  BZF d   1      -4.466   2.469  -5.903  0.00  0.00     0.029 A 
ATOM      9  C7A BZF d   1      -3.472   3.414  -5.980  0.00  0.00     0.058 A 
ENDROOT
TORSDOF 0
ENDMDL
