MODEL 1
REMARK minimizedAffinity 7.85228395
REMARK minimizedRMSD -1
REMARK  0 active torsions:
REMARK  status: ('A' for Active; 'I' for Inactive)
ROOT
ATOM      1  O1  BZF d   1       1.417   0.139   0.430  0.00  0.00    -0.204 OA
ATOM      2  C2  BZF d   1       0.225   0.562   0.987  0.00  0.00     0.174 A 
ATOM      3  C3  BZF d   1      -0.782   0.458   0.096  0.00  0.00    -0.012 A 
ATOM      4  C3A BZF d   1      -0.200  -0.149  -1.061  0.00  0.00    -0.107 A 
ATOM      5  C4  BZF d   1      -0.699  -0.525  -2.276  0.00  0.00     0.055 A 
ATOM      6  C5  BZF d   1       0.150  -1.024  -3.213  0.00  0.00    -0.016 A 
ATOM      7  C6  BZF d   1       1.502  -1.154  -2.972  0.00  0.00     0.022 A 
ATOM      8  C7  BZF d   1       2.042  -0.799  -1.781  0.00  0.00     0.029 A 
ATOM      9  C7A BZF d   1       1.182  -0.326  -0.820  0.00  0.00     0.058 A 
ENDROOT
TORSDOF 0
ENDMDL
