MODEL 1
REMARK minimizedAffinity 5.16281605
REMARK minimizedRMSD -1
REMARK  0 active torsions:
REMARK  status: ('A' for Active; 'I' for Inactive)
ROOT
ATOM      1  O1  BZF d   1       2.379   0.799   0.186  0.00  0.00    -0.204 OA
ATOM      2  C2  BZF d   1       3.679   0.454  -0.133  0.00  0.00     0.174 A 
ATOM      3  C3  BZF d   1       3.703  -0.441  -1.142  0.00  0.00    -0.012 A 
ATOM      4  C3A BZF d   1       2.337  -0.600  -1.536  0.00  0.00    -0.107 A 
ATOM      5  C4  BZF d   1       1.718  -1.345  -2.499  0.00  0.00     0.055 A 
ATOM      6  C5  BZF d   1       0.362  -1.331  -2.575  0.00  0.00    -0.016 A 
ATOM      7  C6  BZF d   1      -0.407  -0.589  -1.703  0.00  0.00     0.022 A 
ATOM      8  C7  BZF d   1       0.162   0.170  -0.735  0.00  0.00     0.029 A 
ATOM      9  C7A BZF d   1       1.534   0.184  -0.676  0.00  0.00     0.058 A 
ENDROOT
TORSDOF 0
ENDMDL
