MODEL 1
REMARK minimizedAffinity -1.50851583
REMARK minimizedRMSD -1
REMARK  0 active torsions:
REMARK  status: ('A' for Active; 'I' for Inactive)
ROOT
ATOM      1  O1  BZF d   1      -3.995   4.685  -5.928  0.00  0.00    -0.204 OA
ATOM      2  C2  BZF d   1      -5.367   4.846  -5.921  0.00  0.00     0.174 A 
ATOM      3  C3  BZF d   1      -5.989   3.652  -5.988  0.00  0.00    -0.012 A 
ATOM      4  C3A BZF d   1      -4.942   2.678  -5.948  0.00  0.00    -0.107 A 
ATOM      5  C4  BZF d   1      -4.927   1.313  -5.966  0.00  0.00     0.055 A 
ATOM      6  C5  BZF d   1      -3.733   0.665  -5.989  0.00  0.00    -0.016 A 
ATOM      7  C6  BZF d   1      -2.536   1.350  -5.999  0.00  0.00     0.022 A 
ATOM      8  C7  BZF d   1      -2.499   2.705  -5.977  0.00  0.00     0.029 A 
ATOM      9  C7A BZF d   1      -3.704   3.362  -5.921  0.00  0.00     0.058 A 
ENDROOT
TORSDOF 0
ENDMDL
