MODEL 1
REMARK minimizedAffinity -0.63512069
REMARK minimizedRMSD -1
REMARK  0 active torsions:
REMARK  status: ('A' for Active; 'I' for Inactive)
ROOT
ATOM      1  O1  BZF d   1      -5.556  -1.015  -5.923  0.00  0.00    -0.204 OA
ATOM      2  C2  BZF d   1      -4.977  -2.270  -5.923  0.00  0.00     0.174 A 
ATOM      3  C3  BZF d   1      -3.634  -2.177  -6.000  0.00  0.00    -0.012 A 
ATOM      4  C3A BZF d   1      -3.351  -0.775  -5.957  0.00  0.00    -0.107 A 
ATOM      5  C4  BZF d   1      -2.194  -0.050  -5.981  0.00  0.00     0.055 A 
ATOM      6  C5  BZF d   1      -2.265   1.307  -6.000  0.00  0.00    -0.016 A 
ATOM      7  C6  BZF d   1      -3.475   1.971  -6.000  0.00  0.00     0.022 A 
ATOM      8  C7  BZF d   1      -4.649   1.294  -5.972  0.00  0.00     0.029 A 
ATOM      9  C7A BZF d   1      -4.580  -0.076  -5.920  0.00  0.00     0.058 A 
ENDROOT
TORSDOF 0
ENDMDL
