MODEL 1
REMARK minimizedAffinity -2.13591361
REMARK minimizedRMSD -1
REMARK  0 active torsions:
REMARK  status: ('A' for Active; 'I' for Inactive)
ROOT
ATOM      1  C1  BNZ d   1      -1.899   4.716  -5.997  0.00  0.00     0.000 A 
ATOM      2  C2  BNZ d   1      -1.111   4.865  -4.887  0.00  0.00     0.000 A 
ATOM      3  C3  BNZ d   1      -1.588   5.489  -3.769  0.00  0.00     0.000 A 
ATOM      4  C4  BNZ d   1      -2.836   5.998  -3.775  0.00  0.00     0.000 A 
ATOM      5  C5  BNZ d   1      -3.640   5.864  -4.889  0.00  0.00     0.000 A 
ATOM      6  C6  BNZ d   1      -3.170   5.201  -6.000  0.00  0.00     0.000 A 
ENDROOT
TORSDOF 0
ENDMDL
