MODEL 1
REMARK minimizedAffinity -0.000168185288
REMARK minimizedRMSD -1
REMARK  0 active torsions:
REMARK  status: ('A' for Active; 'I' for Inactive)
ROOT
ATOM      1  C1  BNZ d   1       3.303   4.756  -1.885  0.00  0.00     0.000 A 
ATOM      2  C2  BNZ d   1       2.251   3.913  -2.124  0.00  0.00     0.000 A 
ATOM      3  C3  BNZ d   1       2.366   2.887  -3.019  0.00  0.00     0.000 A 
ATOM      4  C4  BNZ d   1       3.518   2.729  -3.703  0.00  0.00     0.000 A 
ATOM      5  C5  BNZ d   1       4.584   3.577  -3.480  0.00  0.00     0.000 A 
ATOM      6  C6  BNZ d   1       4.478   4.585  -2.550  0.00  0.00     0.000 A 
ENDROOT
TORSDOF 0
ENDMDL
