MODEL 1
REMARK minimizedAffinity 1.35365546
REMARK minimizedRMSD -1
REMARK  0 active torsions:
REMARK  status: ('A' for Active; 'I' for Inactive)
ROOT
ATOM      1  C1  BNZ d   1      -4.876   5.103  -1.111  0.00  0.00     0.000 A 
ATOM      2  C2  BNZ d   1      -3.753   4.902  -1.870  0.00  0.00     0.000 A 
ATOM      3  C3  BNZ d   1      -3.739   5.226  -3.198  0.00  0.00     0.000 A 
ATOM      4  C4  BNZ d   1      -4.857   5.711  -3.774  0.00  0.00     0.000 A 
ATOM      5  C5  BNZ d   1      -6.000   5.910  -3.025  0.00  0.00     0.000 A 
ATOM      6  C6  BNZ d   1      -5.999   5.620  -1.680  0.00  0.00     0.000 A 
ENDROOT
TORSDOF 0
ENDMDL
