MODEL 1
REMARK minimizedAffinity 10.1353693
REMARK minimizedRMSD -1
REMARK  0 active torsions:
REMARK  status: ('A' for Active; 'I' for Inactive)
ROOT
ATOM      1  C1  BNZ d   1      -3.193  -1.425   0.505  0.00  0.00     0.000 A 
ATOM      2  C2  BNZ d   1      -4.267  -2.207   0.834  0.00  0.00     0.000 A 
ATOM      3  C3  BNZ d   1      -4.108  -3.538   1.102  0.00  0.00     0.000 A 
ATOM      4  C4  BNZ d   1      -2.883  -4.093   1.001  0.00  0.00     0.000 A 
ATOM      5  C5  BNZ d   1      -1.791  -3.319   0.661  0.00  0.00     0.000 A 
ATOM      6  C6  BNZ d   1      -1.949  -1.972   0.431  0.00  0.00     0.000 A 
ENDROOT
TORSDOF 0
ENDMDL
