MODEL 1
REMARK minimizedAffinity 9.42921543
REMARK minimizedRMSD -1
REMARK  0 active torsions:
REMARK  status: ('A' for Active; 'I' for Inactive)
ROOT
ATOM      1  C1  BNZ d   1      -5.835   2.245  -0.750  0.00  0.00     0.000 A 
ATOM      2  C2  BNZ d   1      -5.283   1.677   0.367  0.00  0.00     0.000 A 
ATOM      3  C3  BNZ d   1      -4.880   0.371   0.362  0.00  0.00     0.000 A 
ATOM      4  C4  BNZ d   1      -5.067  -0.377  -0.745  0.00  0.00     0.000 A 
ATOM      5  C5  BNZ d   1      -5.631   0.179  -1.876  0.00  0.00     0.000 A 
ATOM      6  C6  BNZ d   1      -5.999   1.505  -1.881  0.00  0.00     0.000 A 
ENDROOT
TORSDOF 0
ENDMDL
