MODEL 1
REMARK minimizedAffinity 14.0191717
REMARK minimizedRMSD -1
REMARK  0 active torsions:
REMARK  status: ('A' for Active; 'I' for Inactive)
ROOT
ATOM      1  C1  BNZ d   1      -0.943  -3.992  -3.139  0.00  0.00     0.000 A 
ATOM      2  C2  BNZ d   1      -0.357  -4.511  -4.263  0.00  0.00     0.000 A 
ATOM      3  C3  BNZ d   1      -0.970  -5.502  -4.978  0.00  0.00     0.000 A 
ATOM      4  C4  BNZ d   1      -2.147  -6.000  -4.546  0.00  0.00     0.000 A 
ATOM      5  C5  BNZ d   1      -2.745  -5.494  -3.409  0.00  0.00     0.000 A 
ATOM      6  C6  BNZ d   1      -2.144  -4.470  -2.714  0.00  0.00     0.000 A 
ENDROOT
TORSDOF 0
ENDMDL
