MODEL 1
REMARK minimizedAffinity 12.6089916
REMARK minimizedRMSD -1
REMARK  0 active torsions:
REMARK  status: ('A' for Active; 'I' for Inactive)
ROOT
ATOM      1  C1  BNZ d   1       3.920  -4.531  -0.960  0.00  0.00     0.000 A 
ATOM      2  C2  BNZ d   1       2.851  -5.316  -0.616  0.00  0.00     0.000 A 
ATOM      3  C3  BNZ d   1       1.998  -4.938   0.383  0.00  0.00     0.000 A 
ATOM      4  C4  BNZ d   1       2.238  -3.799   1.064  0.00  0.00     0.000 A 
ATOM      5  C5  BNZ d   1       3.317  -3.002   0.736  0.00  0.00     0.000 A 
ATOM      6  C6  BNZ d   1       4.150  -3.366  -0.296  0.00  0.00     0.000 A 
ENDROOT
TORSDOF 0
ENDMDL
