MODEL 1
REMARK minimizedAffinity 7.960217
REMARK minimizedRMSD -1
REMARK  0 active torsions:
REMARK  status: ('A' for Active; 'I' for Inactive)
ROOT
ATOM      1  C1  BNZ d   1       3.723  -3.699  -1.099  0.00  0.00     0.000 A 
ATOM      2  C2  BNZ d   1       5.030  -3.290  -1.067  0.00  0.00     0.000 A 
ATOM      3  C3  BNZ d   1       6.000  -4.089  -0.529  0.00  0.00     0.000 A 
ATOM      4  C4  BNZ d   1       5.657  -5.276   0.012  0.00  0.00     0.000 A 
ATOM      5  C5  BNZ d   1       4.342  -5.698  -0.004  0.00  0.00     0.000 A 
ATOM      6  C6  BNZ d   1       3.374  -4.908  -0.581  0.00  0.00     0.000 A 
ENDROOT
TORSDOF 0
ENDMDL
