MODEL 1
REMARK minimizedAffinity 10.024107
REMARK minimizedRMSD -1
REMARK  0 active torsions:
REMARK  status: ('A' for Active; 'I' for Inactive)
ROOT
ATOM      1  C1  BNZ d   1       4.823   1.744   0.179  0.00  0.00     0.000 A 
ATOM      2  C2  BNZ d   1       4.355   0.869  -0.765  0.00  0.00     0.000 A 
ATOM      3  C3  BNZ d   1       3.083   0.374  -0.691  0.00  0.00     0.000 A 
ATOM      4  C4  BNZ d   1       2.295   0.722   0.347  0.00  0.00     0.000 A 
ATOM      5  C5  BNZ d   1       2.756   1.596   1.312  0.00  0.00     0.000 A 
ATOM      6  C6  BNZ d   1       4.024   2.123   1.213  0.00  0.00     0.000 A 
ENDROOT
TORSDOF 0
ENDMDL
