MODEL 1
REMARK minimizedAffinity 9.23533726
REMARK minimizedRMSD -1
REMARK  0 active torsions:
REMARK  status: ('A' for Active; 'I' for Inactive)
ROOT
ATOM      1  C1  BNZ d   1       3.233   3.905  -2.433  0.00  0.00     0.000 A 
ATOM      2  C2  BNZ d   1       4.443   4.542  -2.355  0.00  0.00     0.000 A 
ATOM      3  C3  BNZ d   1       5.353   4.441  -3.370  0.00  0.00     0.000 A 
ATOM      4  C4  BNZ d   1       5.070   3.672  -4.441  0.00  0.00     0.000 A 
ATOM      5  C5  BNZ d   1       3.858   3.016  -4.530  0.00  0.00     0.000 A 
ATOM      6  C6  BNZ d   1       2.928   3.151  -3.524  0.00  0.00     0.000 A 
ENDROOT
TORSDOF 0
ENDMDL
