MODEL 1
REMARK minimizedAffinity 9.26895428
REMARK minimizedRMSD -1
REMARK  0 active torsions:
REMARK  status: ('A' for Active; 'I' for Inactive)
ROOT
ATOM      1  C1  BNZ d   1      -2.927  -0.745   1.738  0.00  0.00     0.000 A 
ATOM      2  C2  BNZ d   1      -2.868   0.326   2.589  0.00  0.00     0.000 A 
ATOM      3  C3  BNZ d   1      -1.666   0.800   3.036  0.00  0.00     0.000 A 
ATOM      4  C4  BNZ d   1      -0.529   0.178   2.664  0.00  0.00     0.000 A 
ATOM      5  C5  BNZ d   1      -0.572  -0.909   1.814  0.00  0.00     0.000 A 
ATOM      6  C6  BNZ d   1      -1.781  -1.359   1.335  0.00  0.00     0.000 A 
ENDROOT
TORSDOF 0
ENDMDL
