MODEL 1
REMARK minimizedAffinity 7.13188601
REMARK minimizedRMSD -1
REMARK  0 active torsions:
REMARK  status: ('A' for Active; 'I' for Inactive)
ROOT
ATOM      1  C1  BNZ d   1       4.550   3.334  -4.489  0.00  0.00     0.000 A 
ATOM      2  C2  BNZ d   1       3.402   2.588  -4.454  0.00  0.00     0.000 A 
ATOM      3  C3  BNZ d   1       2.796   2.292  -3.265  0.00  0.00     0.000 A 
ATOM      4  C4  BNZ d   1       3.359   2.708  -2.112  0.00  0.00     0.000 A 
ATOM      5  C5  BNZ d   1       4.521   3.453  -2.131  0.00  0.00     0.000 A 
ATOM      6  C6  BNZ d   1       5.107   3.782  -3.331  0.00  0.00     0.000 A 
ENDROOT
TORSDOF 0
ENDMDL
