MODEL 1
REMARK minimizedAffinity 6.88015556
REMARK minimizedRMSD -1
REMARK  0 active torsions:
REMARK  status: ('A' for Active; 'I' for Inactive)
ROOT
ATOM      1  C1  BNZ d   1      -1.465  -1.617   1.848  0.00  0.00     0.000 A 
ATOM      2  C2  BNZ d   1      -0.776  -1.101   2.913  0.00  0.00     0.000 A 
ATOM      3  C3  BNZ d   1      -1.150   0.086   3.479  0.00  0.00     0.000 A 
ATOM      4  C4  BNZ d   1      -2.185   0.774   2.956  0.00  0.00     0.000 A 
ATOM      5  C5  BNZ d   1      -2.883   0.271   1.876  0.00  0.00     0.000 A 
ATOM      6  C6  BNZ d   1      -2.529  -0.942   1.333  0.00  0.00     0.000 A 
ENDROOT
TORSDOF 0
ENDMDL
