MODEL 1
REMARK minimizedAffinity 9.65589809
REMARK minimizedRMSD -1
REMARK  0 active torsions:
REMARK  status: ('A' for Active; 'I' for Inactive)
ROOT
ATOM      1  C1  BNZ d   1      -5.824  -5.979   2.692  0.00  0.00     0.000 A 
ATOM      2  C2  BNZ d   1      -5.643  -4.796   2.026  0.00  0.00     0.000 A 
ATOM      3  C3  BNZ d   1      -5.614  -3.609   2.704  0.00  0.00     0.000 A 
ATOM      4  C4  BNZ d   1      -5.807  -3.603   4.039  0.00  0.00     0.000 A 
ATOM      5  C5  BNZ d   1      -6.000  -4.787   4.723  0.00  0.00     0.000 A 
ATOM      6  C6  BNZ d   1      -5.989  -5.983   4.043  0.00  0.00     0.000 A 
ENDROOT
TORSDOF 0
ENDMDL
