MODEL 1
REMARK minimizedAffinity 7.71669912
REMARK minimizedRMSD -1
REMARK  0 active torsions:
REMARK  status: ('A' for Active; 'I' for Inactive)
ROOT
ATOM      1  C1  BNZ d   1      -1.763   0.281   3.502  0.00  0.00     0.000 A 
ATOM      2  C2  BNZ d   1      -1.906  -0.042   2.179  0.00  0.00     0.000 A 
ATOM      3  C3  BNZ d   1      -1.116  -0.997   1.602  0.00  0.00     0.000 A 
ATOM      4  C4  BNZ d   1      -0.158  -1.598   2.338  0.00  0.00     0.000 A 
ATOM      5  C5  BNZ d   1       0.004  -1.277   3.670  0.00  0.00     0.000 A 
ATOM      6  C6  BNZ d   1      -0.819  -0.343   4.257  0.00  0.00     0.000 A 
ENDROOT
TORSDOF 0
ENDMDL
