MODEL 1
REMARK minimizedAffinity 6.99372911
REMARK minimizedRMSD -1
REMARK  0 active torsions:
REMARK  status: ('A' for Active; 'I' for Inactive)
ROOT
ATOM      1  C1  BNZ d   1       1.899   5.286  -2.533  0.00  0.00     0.000 A 
ATOM      2  C2  BNZ d   1       1.295   4.225  -3.153  0.00  0.00     0.000 A 
ATOM      3  C3  BNZ d   1       2.036   3.193  -3.655  0.00  0.00     0.000 A 
ATOM      4  C4  BNZ d   1       3.382   3.242  -3.574  0.00  0.00     0.000 A 
ATOM      5  C5  BNZ d   1       4.006   4.310  -2.960  0.00  0.00     0.000 A 
ATOM      6  C6  BNZ d   1       3.255   5.328  -2.421  0.00  0.00     0.000 A 
ENDROOT
TORSDOF 0
ENDMDL
