MODEL 1
REMARK minimizedAffinity 4.63409758
REMARK minimizedRMSD -1
REMARK  0 active torsions:
REMARK  status: ('A' for Active; 'I' for Inactive)
ROOT
ATOM      1  C1  BNZ d   1       5.950   5.010  -4.599  0.00  0.00     0.000 A 
ATOM      2  C2  BNZ d   1       5.998   6.000  -3.654  0.00  0.00     0.000 A 
ATOM      3  C3  BNZ d   1       5.136   5.996  -2.593  0.00  0.00     0.000 A 
ATOM      4  C4  BNZ d   1       4.203   5.027  -2.500  0.00  0.00     0.000 A 
ATOM      5  C5  BNZ d   1       4.136   4.027  -3.450  0.00  0.00     0.000 A 
ATOM      6  C6  BNZ d   1       5.031   4.012  -4.496  0.00  0.00     0.000 A 
ENDROOT
TORSDOF 0
ENDMDL
