MODEL 1
REMARK minimizedAffinity 3.20283771
REMARK minimizedRMSD -1
REMARK  0 active torsions:
REMARK  status: ('A' for Active; 'I' for Inactive)
ROOT
ATOM      1  C   UNL d   1       0.842  -1.364  -0.980  0.00  0.00     0.172 C 
ATOM      2  N   UNL d   1       1.494  -1.839   0.217  0.00  0.00    -0.070 N 
ATOM      3  C1  UNL d   1       0.876  -2.459   1.270  0.00  0.00    -0.004 A 
ATOM      4  C2  UNL d   1       1.839  -2.756   2.210  0.00  0.00    -0.047 A 
ATOM      5  C3  UNL d   1       3.079  -2.297   1.705  0.00  0.00    -0.047 A 
ATOM      6  C4  UNL d   1       2.836  -1.733   0.470  0.00  0.00    -0.004 A 
ENDROOT
TORSDOF 0
ENDMDL
