MODEL 1
REMARK minimizedAffinity 1.25342441
REMARK minimizedRMSD -1
REMARK  0 active torsions:
REMARK  status: ('A' for Active; 'I' for Inactive)
ROOT
ATOM      1  C   UNL d   1       1.129   1.854   4.129  0.00  0.00     0.172 C 
ATOM      2  N   UNL d   1       1.295   3.180   4.677  0.00  0.00    -0.070 N 
ATOM      3  C1  UNL d   1       1.986   3.491   5.818  0.00  0.00    -0.004 A 
ATOM      4  C2  UNL d   1       1.909   4.855   5.998  0.00  0.00    -0.047 A 
ATOM      5  C3  UNL d   1       1.146   5.382   4.929  0.00  0.00    -0.047 A 
ATOM      6  C4  UNL d   1       0.778   4.323   4.127  0.00  0.00    -0.004 A 
ENDROOT
TORSDOF 0
ENDMDL
