MODEL 1
REMARK minimizedAffinity -1.10185802
REMARK minimizedRMSD -1
REMARK  0 active torsions:
REMARK  status: ('A' for Active; 'I' for Inactive)
ROOT
ATOM      1  C   UNL d   1      -0.729  -0.516   3.365  0.00  0.00     0.172 C 
ATOM      2  N   UNL d   1       0.241  -1.389   2.745  0.00  0.00    -0.070 N 
ATOM      3  C1  UNL d   1      -0.002  -2.235   1.696  0.00  0.00    -0.004 A 
ATOM      4  C2  UNL d   1       1.174  -2.889   1.401  0.00  0.00    -0.047 A 
ATOM      5  C3  UNL d   1       2.158  -2.420   2.304  0.00  0.00    -0.047 A 
ATOM      6  C4  UNL d   1       1.553  -1.493   3.125  0.00  0.00    -0.004 A 
ENDROOT
TORSDOF 0
ENDMDL
