MODEL 1
REMARK minimizedAffinity 0.762778521
REMARK minimizedRMSD -1
REMARK  0 active torsions:
REMARK  status: ('A' for Active; 'I' for Inactive)
ROOT
ATOM      1  C   UNL d   1       1.511  -2.879   0.795  0.00  0.00     0.172 C 
ATOM      2  N   UNL d   1       0.609  -2.204   1.699  0.00  0.00    -0.070 N 
ATOM      3  C1  UNL d   1      -0.410  -1.367   1.333  0.00  0.00    -0.004 A 
ATOM      4  C2  UNL d   1      -1.032  -0.930   2.483  0.00  0.00    -0.047 A 
ATOM      5  C3  UNL d   1      -0.362  -1.526   3.578  0.00  0.00    -0.047 A 
ATOM      6  C4  UNL d   1       0.650  -2.309   3.065  0.00  0.00    -0.004 A 
ENDROOT
TORSDOF 0
ENDMDL
