MODEL 1
REMARK minimizedAffinity 1.95921147
REMARK minimizedRMSD -1
REMARK  0 active torsions:
REMARK  status: ('A' for Active; 'I' for Inactive)
ROOT
ATOM      1  C   UNL d   1       5.985  -0.726  -0.808  0.00  0.00     0.172 C 
ATOM      2  N   UNL d   1       5.989   0.480  -0.013  0.00  0.00    -0.070 N 
ATOM      3  C1  UNL d   1       5.987   1.758  -0.503  0.00  0.00    -0.004 A 
ATOM      4  C2  UNL d   1       5.991   2.622   0.571  0.00  0.00    -0.047 A 
ATOM      5  C3  UNL d   1       5.998   1.834   1.747  0.00  0.00    -0.047 A 
ATOM      6  C4  UNL d   1       5.996   0.512   1.356  0.00  0.00    -0.004 A 
ENDROOT
TORSDOF 0
ENDMDL
