MODEL 1
REMARK minimizedAffinity 2.62991953
REMARK minimizedRMSD -1
REMARK  0 active torsions:
REMARK  status: ('A' for Active; 'I' for Inactive)
ROOT
ATOM      1  C   UNL d   1       0.093  -1.405   2.805  0.00  0.00     0.172 C 
ATOM      2  N   UNL d   1       1.086  -2.084   2.006  0.00  0.00    -0.070 N 
ATOM      3  C1  UNL d   1       1.613  -1.626   0.828  0.00  0.00    -0.004 A 
ATOM      4  C2  UNL d   1       2.523  -2.559   0.381  0.00  0.00    -0.047 A 
ATOM      5  C3  UNL d   1       2.544  -3.615   1.323  0.00  0.00    -0.047 A 
ATOM      6  C4  UNL d   1       1.645  -3.295   2.318  0.00  0.00    -0.004 A 
ENDROOT
TORSDOF 0
ENDMDL
