MODEL 1
REMARK minimizedAffinity 2.73220086
REMARK minimizedRMSD -1
REMARK  0 active torsions:
REMARK  status: ('A' for Active; 'I' for Inactive)
ROOT
ATOM      1  C   UNL d   1       0.379  -1.138  -0.779  0.00  0.00     0.172 C 
ATOM      2  N   UNL d   1       1.176  -1.719   0.276  0.00  0.00    -0.070 N 
ATOM      3  C1  UNL d   1       0.689  -2.365   1.381  0.00  0.00    -0.004 A 
ATOM      4  C2  UNL d   1       1.764  -2.770   2.141  0.00  0.00    -0.047 A 
ATOM      5  C3  UNL d   1       2.938  -2.351   1.471  0.00  0.00    -0.047 A 
ATOM      6  C4  UNL d   1       2.545  -1.703   0.320  0.00  0.00    -0.004 A 
ENDROOT
TORSDOF 0
ENDMDL
