MODEL 1
REMARK minimizedAffinity 0.72402668
REMARK minimizedRMSD -1
REMARK  0 active torsions:
REMARK  status: ('A' for Active; 'I' for Inactive)
ROOT
ATOM      1  C   UNL d   1       5.999   2.837   2.658  0.00  0.00     0.172 C 
ATOM      2  N   UNL d   1       5.999   1.915   1.547  0.00  0.00    -0.070 N 
ATOM      3  C1  UNL d   1       6.000   0.549   1.644  0.00  0.00    -0.004 A 
ATOM      4  C2  UNL d   1       5.999   0.035   0.365  0.00  0.00    -0.047 A 
ATOM      5  C3  UNL d   1       5.999   1.130  -0.531  0.00  0.00    -0.047 A 
ATOM      6  C4  UNL d   1       5.999   2.282   0.228  0.00  0.00    -0.004 A 
ENDROOT
TORSDOF 0
ENDMDL
