MODEL 1
REMARK minimizedAffinity 9.60477161
REMARK minimizedRMSD -1
REMARK  0 active torsions:
REMARK  status: ('A' for Active; 'I' for Inactive)
ROOT
ATOM      1  C   UNL d   1      -4.686  -0.938   3.725  0.00  0.00     0.020 A 
ATOM      2  C1  UNL d   1      -5.920  -0.345   3.462  0.00  0.00     0.020 A 
ATOM      3  C2  UNL d   1      -6.000   0.745   2.592  0.00  0.00     0.034 A 
ATOM      4  C3  UNL d   1      -4.844   1.246   1.984  0.00  0.00     0.017 A 
ATOM      5  C4  UNL d   1      -3.605   0.651   2.249  0.00  0.00     0.017 A 
ATOM      6  C5  UNL d   1      -3.531  -0.441   3.120  0.00  0.00     0.034 A 
ATOM      7 Cl   UNL d   1      -2.135   1.213   1.535  0.00  0.00    -0.070 Cl
ATOM      8 Cl1  UNL d   1      -5.016   2.596   0.920  0.00  0.00    -0.070 Cl
ENDROOT
TORSDOF 0
ENDMDL
