MODEL 1
REMARK minimizedAffinity 4.75306177
REMARK minimizedRMSD -1
REMARK  0 active torsions:
REMARK  status: ('A' for Active; 'I' for Inactive)
ROOT
ATOM      1  C   UNL d   1       5.719   2.147  -5.622  0.00  0.00     0.020 A 
ATOM      2  C1  UNL d   1       4.439   2.552  -5.998  0.00  0.00     0.020 A 
ATOM      3  C2  UNL d   1       3.410   2.584  -5.054  0.00  0.00     0.034 A 
ATOM      4  C3  UNL d   1       3.660   2.211  -3.729  0.00  0.00     0.017 A 
ATOM      5  C4  UNL d   1       4.945   1.805  -3.351  0.00  0.00     0.017 A 
ATOM      6  C5  UNL d   1       5.971   1.774  -4.301  0.00  0.00     0.034 A 
ATOM      7 Cl   UNL d   1       5.330   1.330  -1.735  0.00  0.00    -0.070 Cl
ATOM      8 Cl1  UNL d   1       2.341   2.275  -2.614  0.00  0.00    -0.070 Cl
ENDROOT
TORSDOF 0
ENDMDL
