MODEL 1
REMARK minimizedAffinity 10.4869699
REMARK minimizedRMSD -1
REMARK  0 active torsions:
REMARK  status: ('A' for Active; 'I' for Inactive)
ROOT
ATOM      1  C   UNL d   1       1.819  -0.247   0.607  0.00  0.00     0.020 A 
ATOM      2  C1  UNL d   1       0.651   0.391   0.191  0.00  0.00     0.020 A 
ATOM      3  C2  UNL d   1       0.497   0.762  -1.146  0.00  0.00     0.034 A 
ATOM      4  C3  UNL d   1       1.512   0.495  -2.072  0.00  0.00     0.017 A 
ATOM      5  C4  UNL d   1       2.684  -0.145  -1.653  0.00  0.00     0.017 A 
ATOM      6  C5  UNL d   1       2.833  -0.515  -0.313  0.00  0.00     0.034 A 
ATOM      7 Cl   UNL d   1       3.980  -0.508  -2.737  0.00  0.00    -0.070 Cl
ATOM      8 Cl1  UNL d   1       1.254   0.982  -3.710  0.00  0.00    -0.070 Cl
ENDROOT
TORSDOF 0
ENDMDL
