MODEL 1
REMARK minimizedAffinity 9.15830612
REMARK minimizedRMSD -1
REMARK  0 active torsions:
REMARK  status: ('A' for Active; 'I' for Inactive)
ROOT
ATOM      1  C   UNL d   1      -5.201   2.724  -5.992  0.00  0.00     0.020 A 
ATOM      2  C1  UNL d   1      -5.533   4.078  -5.991  0.00  0.00     0.020 A 
ATOM      3  C2  UNL d   1      -4.524   5.044  -5.993  0.00  0.00     0.034 A 
ATOM      4  C3  UNL d   1      -3.179   4.657  -5.995  0.00  0.00     0.017 A 
ATOM      5  C4  UNL d   1      -2.847   3.298  -5.996  0.00  0.00     0.017 A 
ATOM      6  C5  UNL d   1      -3.860   2.335  -5.994  0.00  0.00     0.034 A 
ATOM      7 Cl   UNL d   1      -1.210   2.744  -5.998  0.00  0.00    -0.070 Cl
ATOM      8 Cl1  UNL d   1      -1.984   5.906  -5.998  0.00  0.00    -0.070 Cl
ENDROOT
TORSDOF 0
ENDMDL
