MODEL 1
REMARK minimizedAffinity 19.6204834
REMARK minimizedRMSD -1
REMARK  0 active torsions:
REMARK  status: ('A' for Active; 'I' for Inactive)
ROOT
ATOM      1  C   UNL d   1       3.044   3.165   1.414  0.00  0.00     0.020 A 
ATOM      2  C1  UNL d   1       2.695   2.321   2.468  0.00  0.00     0.020 A 
ATOM      3  C2  UNL d   1       1.744   1.317   2.272  0.00  0.00     0.034 A 
ATOM      4  C3  UNL d   1       1.139   1.154   1.021  0.00  0.00     0.017 A 
ATOM      5  C4  UNL d   1       1.490   2.001  -0.036  0.00  0.00     0.017 A 
ATOM      6  C5  UNL d   1       2.443   3.005   0.165  0.00  0.00     0.034 A 
ATOM      7 Cl   UNL d   1       0.787   1.862  -1.609  0.00  0.00    -0.070 Cl
ATOM      8 Cl1  UNL d   1      -0.028  -0.109   0.851  0.00  0.00    -0.070 Cl
ENDROOT
TORSDOF 0
ENDMDL
