MODEL 1
REMARK minimizedAffinity 5.20802069
REMARK minimizedRMSD -1
REMARK  0 active torsions:
REMARK  status: ('A' for Active; 'I' for Inactive)
ROOT
ATOM      1  C   UNL d   1      -3.135   2.066  -5.997  0.00  0.00     0.020 A 
ATOM      2  C1  UNL d   1      -4.529   2.047  -5.992  0.00  0.00     0.020 A 
ATOM      3  C2  UNL d   1      -5.244   3.247  -5.989  0.00  0.00     0.034 A 
ATOM      4  C3  UNL d   1      -4.565   4.471  -5.991  0.00  0.00     0.017 A 
ATOM      5  C4  UNL d   1      -3.165   4.489  -5.995  0.00  0.00     0.017 A 
ATOM      6  C5  UNL d   1      -2.455   3.285  -5.998  0.00  0.00     0.034 A 
ATOM      7 Cl   UNL d   1      -2.258   5.960  -5.998  0.00  0.00    -0.070 Cl
ATOM      8 Cl1  UNL d   1      -5.513   5.916  -5.987  0.00  0.00    -0.070 Cl
ENDROOT
TORSDOF 0
ENDMDL
