MODEL 1
REMARK minimizedAffinity 2.06691885
REMARK minimizedRMSD -1
REMARK  0 active torsions:
REMARK  status: ('A' for Active; 'I' for Inactive)
ROOT
ATOM      1  C   UNL d   1       2.378   5.881   6.000  0.00  0.00     0.020 A 
ATOM      2  C1  UNL d   1       1.477   6.000   4.942  0.00  0.00     0.020 A 
ATOM      3  C2  UNL d   1       1.805   5.487   3.685  0.00  0.00     0.034 A 
ATOM      4  C3  UNL d   1       3.036   4.854   3.482  0.00  0.00     0.017 A 
ATOM      5  C4  UNL d   1       3.940   4.734   4.544  0.00  0.00     0.017 A 
ATOM      6  C5  UNL d   1       3.607   5.249   5.801  0.00  0.00     0.034 A 
ATOM      7 Cl   UNL d   1       5.478   3.965   4.371  0.00  0.00    -0.070 Cl
ATOM      8 Cl1  UNL d   1       3.374   4.243   1.902  0.00  0.00    -0.070 Cl
ENDROOT
TORSDOF 0
ENDMDL
