MODEL 1
REMARK minimizedAffinity 16.8538036
REMARK minimizedRMSD -1
REMARK  0 active torsions:
REMARK  status: ('A' for Active; 'I' for Inactive)
ROOT
ATOM      1  C   UNL d   1       2.561   5.995   4.916  0.00  0.00     0.020 A 
ATOM      2  C1  UNL d   1       3.471   5.993   5.973  0.00  0.00     0.020 A 
ATOM      3  C2  UNL d   1       4.512   5.062   5.996  0.00  0.00     0.034 A 
ATOM      4  C3  UNL d   1       4.645   4.129   4.962  0.00  0.00     0.017 A 
ATOM      5  C4  UNL d   1       3.731   4.131   3.902  0.00  0.00     0.017 A 
ATOM      6  C5  UNL d   1       2.691   5.066   3.883  0.00  0.00     0.034 A 
ATOM      7 Cl   UNL d   1       3.831   3.011   2.590  0.00  0.00    -0.070 Cl
ATOM      8 Cl1  UNL d   1       5.956   3.007   5.056  0.00  0.00    -0.070 Cl
ENDROOT
TORSDOF 0
ENDMDL
