MODEL 1
REMARK minimizedAffinity 5.87795162
REMARK minimizedRMSD -1
REMARK  0 active torsions:
REMARK  status: ('A' for Active; 'I' for Inactive)
ROOT
ATOM      1  C   UNL d   1       0.659   1.469  -0.444  0.00  0.00     0.020 A 
ATOM      2  C1  UNL d   1       0.545   0.874   0.812  0.00  0.00     0.020 A 
ATOM      3  C2  UNL d   1       1.506   1.125   1.793  0.00  0.00     0.034 A 
ATOM      4  C3  UNL d   1       2.586   1.972   1.521  0.00  0.00     0.017 A 
ATOM      5  C4  UNL d   1       2.699   2.569   0.260  0.00  0.00     0.017 A 
ATOM      6  C5  UNL d   1       1.734   2.315  -0.719  0.00  0.00     0.034 A 
ATOM      7 Cl   UNL d   1       4.003   3.627  -0.151  0.00  0.00    -0.070 Cl
ATOM      8 Cl1  UNL d   1       3.738   2.238   2.781  0.00  0.00    -0.070 Cl
ENDROOT
TORSDOF 0
ENDMDL
