MODEL 1
REMARK minimizedAffinity 4.43358469
REMARK minimizedRMSD -1
REMARK  0 active torsions:
REMARK  status: ('A' for Active; 'I' for Inactive)
ROOT
ATOM      1  C   UNL d   1       3.929   1.472  -1.542  0.00  0.00     0.020 A 
ATOM      2  C1  UNL d   1       4.120   0.190  -2.055  0.00  0.00     0.020 A 
ATOM      3  C2  UNL d   1       3.606  -0.918  -1.377  0.00  0.00     0.034 A 
ATOM      4  C3  UNL d   1       2.898  -0.745  -0.182  0.00  0.00     0.017 A 
ATOM      5  C4  UNL d   1       2.707   0.542   0.332  0.00  0.00     0.017 A 
ATOM      6  C5  UNL d   1       3.224   1.648  -0.351  0.00  0.00     0.034 A 
ATOM      7 Cl   UNL d   1       1.845   0.834   1.802  0.00  0.00    -0.070 Cl
ATOM      8 Cl1  UNL d   1       2.290  -2.159   0.603  0.00  0.00    -0.070 Cl
ENDROOT
TORSDOF 0
ENDMDL
