MODEL 1
REMARK minimizedAffinity 10.4544382
REMARK minimizedRMSD -1
REMARK  0 active torsions:
REMARK  status: ('A' for Active; 'I' for Inactive)
ROOT
ATOM      1  C   UNL d   1       6.000   3.017  -2.661  0.00  0.00     0.020 A 
ATOM      2  C1  UNL d   1       5.484   1.745  -2.414  0.00  0.00     0.020 A 
ATOM      3  C2  UNL d   1       4.316   1.599  -1.662  0.00  0.00     0.034 A 
ATOM      4  C3  UNL d   1       3.660   2.727  -1.155  0.00  0.00     0.017 A 
ATOM      5  C4  UNL d   1       4.178   4.003  -1.404  0.00  0.00     0.017 A 
ATOM      6  C5  UNL d   1       5.348   4.143  -2.157  0.00  0.00     0.034 A 
ATOM      7 Cl   UNL d   1       3.424   5.441  -0.812  0.00  0.00    -0.070 Cl
ATOM      8 Cl1  UNL d   1       2.220   2.472  -0.235  0.00  0.00    -0.070 Cl
ENDROOT
TORSDOF 0
ENDMDL
