MODEL 1
REMARK minimizedAffinity 0.706150234
REMARK minimizedRMSD -1
REMARK  0 active torsions:
REMARK  status: ('A' for Active; 'I' for Inactive)
ROOT
ATOM      1  C   UNL d   1      -2.029   3.669  -5.940  0.00  0.00     0.020 A 
ATOM      2  C1  UNL d   1      -2.037   5.062  -5.981  0.00  0.00     0.020 A 
ATOM      3  C2  UNL d   1      -3.250   5.753  -5.999  0.00  0.00     0.034 A 
ATOM      4  C3  UNL d   1      -4.460   5.051  -5.976  0.00  0.00     0.017 A 
ATOM      5  C4  UNL d   1      -4.451   3.652  -5.934  0.00  0.00     0.017 A 
ATOM      6  C5  UNL d   1      -3.234   2.965  -5.916  0.00  0.00     0.034 A 
ATOM      7 Cl   UNL d   1      -5.904   2.716  -5.902  0.00  0.00    -0.070 Cl
ATOM      8 Cl1  UNL d   1      -5.923   5.970  -5.999  0.00  0.00    -0.070 Cl
ENDROOT
TORSDOF 0
ENDMDL
