MODEL 1
REMARK minimizedAffinity 8.84823895
REMARK minimizedRMSD -1
REMARK  0 active torsions:
REMARK  status: ('A' for Active; 'I' for Inactive)
ROOT
ATOM      1  C   UNL d   1      -2.455   1.367  -5.999  0.00  0.00     0.020 A 
ATOM      2  C1  UNL d   1      -1.543   2.421  -5.999  0.00  0.00     0.020 A 
ATOM      3  C2  UNL d   1      -2.000   3.741  -5.998  0.00  0.00     0.034 A 
ATOM      4  C3  UNL d   1      -3.373   4.010  -5.998  0.00  0.00     0.017 A 
ATOM      5  C4  UNL d   1      -4.289   2.951  -5.999  0.00  0.00     0.017 A 
ATOM      6  C5  UNL d   1      -3.825   1.632  -5.999  0.00  0.00     0.034 A 
ATOM      7 Cl   UNL d   1      -5.998   3.204  -5.999  0.00  0.00    -0.070 Cl
ATOM      8 Cl1  UNL d   1      -3.868   5.666  -5.997  0.00  0.00    -0.070 Cl
ENDROOT
TORSDOF 0
ENDMDL
