MODEL 1
REMARK minimizedAffinity 5.07309866
REMARK minimizedRMSD -1
REMARK  0 active torsions:
REMARK  status: ('A' for Active; 'I' for Inactive)
ROOT
ATOM      1  C   UNL d   1       3.004   1.597  -6.000  0.00  0.00     0.020 A 
ATOM      2  C1  UNL d   1       2.990   2.991  -6.000  0.00  0.00     0.020 A 
ATOM      3  C2  UNL d   1       1.774   3.678  -5.998  0.00  0.00     0.034 A 
ATOM      4  C3  UNL d   1       0.566   2.970  -5.997  0.00  0.00     0.017 A 
ATOM      5  C4  UNL d   1       0.581   1.571  -5.997  0.00  0.00     0.017 A 
ATOM      6  C5  UNL d   1       1.801   0.889  -5.998  0.00  0.00     0.034 A 
ATOM      7 Cl   UNL d   1      -0.868   0.629  -5.995  0.00  0.00    -0.070 Cl
ATOM      8 Cl1  UNL d   1      -0.900   3.884  -5.995  0.00  0.00    -0.070 Cl
ENDROOT
TORSDOF 0
ENDMDL
