MODEL 1
REMARK minimizedAffinity 6.40999126
REMARK minimizedRMSD -1
REMARK  0 active torsions:
REMARK  status: ('A' for Active; 'I' for Inactive)
ROOT
ATOM      1  C   UNL d   1       3.614   1.130  -0.897  0.00  0.00     0.020 A 
ATOM      2  C1  UNL d   1       2.774   1.826  -0.028  0.00  0.00     0.020 A 
ATOM      3  C2  UNL d   1       1.638   2.471  -0.523  0.00  0.00     0.034 A 
ATOM      4  C3  UNL d   1       1.340   2.421  -1.890  0.00  0.00     0.017 A 
ATOM      5  C4  UNL d   1       2.184   1.723  -2.760  0.00  0.00     0.017 A 
ATOM      6  C5  UNL d   1       3.320   1.078  -2.260  0.00  0.00     0.034 A 
ATOM      7 Cl   UNL d   1       1.882   1.617  -4.459  0.00  0.00    -0.070 Cl
ATOM      8 Cl1  UNL d   1      -0.081   3.241  -2.432  0.00  0.00    -0.070 Cl
ENDROOT
TORSDOF 0
ENDMDL
