MODEL 1
REMARK minimizedAffinity 0.536181509
REMARK minimizedRMSD -1
REMARK  0 active torsions:
REMARK  status: ('A' for Active; 'I' for Inactive)
ROOT
ATOM      1  C   UNL d   1       2.265   5.748   5.056  0.00  0.00     0.020 A 
ATOM      2  C1  UNL d   1       3.440   5.998   5.764  0.00  0.00     0.020 A 
ATOM      3  C2  UNL d   1       4.571   5.210   5.540  0.00  0.00     0.034 A 
ATOM      4  C3  UNL d   1       4.530   4.168   4.607  0.00  0.00     0.017 A 
ATOM      5  C4  UNL d   1       3.350   3.917   3.897  0.00  0.00     0.017 A 
ATOM      6  C5  UNL d   1       2.220   4.710   4.124  0.00  0.00     0.034 A 
ATOM      7 Cl   UNL d   1       3.222   2.650   2.729  0.00  0.00    -0.070 Cl
ATOM      8 Cl1  UNL d   1       5.966   3.234   4.381  0.00  0.00    -0.070 Cl
ENDROOT
TORSDOF 0
ENDMDL
