MODEL 1
REMARK minimizedAffinity 18.8254147
REMARK minimizedRMSD -1
REMARK  0 active torsions:
REMARK  status: ('A' for Active; 'I' for Inactive)
ROOT
ATOM      1  C   UNL d   1      -4.494  -0.869   2.745  0.00  0.00     0.020 A 
ATOM      2  C1  UNL d   1      -5.783  -1.139   3.201  0.00  0.00     0.020 A 
ATOM      3  C2  UNL d   1      -6.000  -2.182   4.104  0.00  0.00     0.034 A 
ATOM      4  C3  UNL d   1      -4.926  -2.959   4.554  0.00  0.00     0.017 A 
ATOM      5  C4  UNL d   1      -3.632  -2.687   4.095  0.00  0.00     0.017 A 
ATOM      6  C5  UNL d   1      -3.420  -1.641   3.191  0.00  0.00     0.034 A 
ATOM      7 Cl   UNL d   1      -2.256  -3.601   4.605  0.00  0.00    -0.070 Cl
ATOM      8 Cl1  UNL d   1      -5.267  -4.232   5.671  0.00  0.00    -0.070 Cl
ENDROOT
TORSDOF 0
ENDMDL
