MODEL 1
REMARK minimizedAffinity 17.5888252
REMARK minimizedRMSD -1
REMARK  0 active torsions:
REMARK  status: ('A' for Active; 'I' for Inactive)
ROOT
ATOM      1  C   UNL d   1      -0.273   1.329  -4.672  0.00  0.00     0.020 A 
ATOM      2  C1  UNL d   1      -0.059   2.343  -5.605  0.00  0.00     0.020 A 
ATOM      3  C2  UNL d   1       1.242   2.667  -5.998  0.00  0.00     0.034 A 
ATOM      4  C3  UNL d   1       2.333   1.976  -5.458  0.00  0.00     0.017 A 
ATOM      5  C4  UNL d   1       2.117   0.958  -4.522  0.00  0.00     0.017 A 
ATOM      6  C5  UNL d   1       0.812   0.637  -4.133  0.00  0.00     0.034 A 
ATOM      7 Cl   UNL d   1       3.412   0.060  -3.813  0.00  0.00    -0.070 Cl
ATOM      8 Cl1  UNL d   1       3.913   2.428  -5.990  0.00  0.00    -0.070 Cl
ENDROOT
TORSDOF 0
ENDMDL
