MODEL 1
REMARK minimizedAffinity 13.612462
REMARK minimizedRMSD -1
REMARK  0 active torsions:
REMARK  status: ('A' for Active; 'I' for Inactive)
ROOT
ATOM      1  C   UNL d   1       4.156   5.788   5.428  0.00  0.00     0.020 A 
ATOM      2  C1  UNL d   1       2.987   5.992   4.695  0.00  0.00     0.020 A 
ATOM      3  C2  UNL d   1       2.584   5.049   3.747  0.00  0.00     0.034 A 
ATOM      4  C3  UNL d   1       3.351   3.899   3.528  0.00  0.00     0.017 A 
ATOM      5  C4  UNL d   1       4.524   3.695   4.264  0.00  0.00     0.017 A 
ATOM      6  C5  UNL d   1       4.922   4.642   5.212  0.00  0.00     0.034 A 
ATOM      7 Cl   UNL d   1       5.522   2.300   4.050  0.00  0.00    -0.070 Cl
ATOM      8 Cl1  UNL d   1       2.793   2.775   2.340  0.00  0.00    -0.070 Cl
ENDROOT
TORSDOF 0
ENDMDL
