MODEL 1
REMARK minimizedAffinity 18.8305969
REMARK minimizedRMSD -1
REMARK  0 active torsions:
REMARK  status: ('A' for Active; 'I' for Inactive)
ROOT
ATOM      1  C   UNL d   1      -2.616   5.871  -5.995  0.00  0.00     0.020 A 
ATOM      2  C1  UNL d   1      -4.010   5.900  -5.998  0.00  0.00     0.020 A 
ATOM      3  C2  UNL d   1      -4.734   4.705  -5.999  0.00  0.00     0.034 A 
ATOM      4  C3  UNL d   1      -4.063   3.477  -5.997  0.00  0.00     0.017 A 
ATOM      5  C4  UNL d   1      -2.664   3.449  -5.994  0.00  0.00     0.017 A 
ATOM      6  C5  UNL d   1      -1.945   4.648  -5.993  0.00  0.00     0.034 A 
ATOM      7 Cl   UNL d   1      -1.767   1.971  -5.991  0.00  0.00    -0.070 Cl
ATOM      8 Cl1  UNL d   1      -5.021   2.039  -5.998  0.00  0.00    -0.070 Cl
ENDROOT
TORSDOF 0
ENDMDL
