MODEL 1
REMARK minimizedAffinity 6.24257278
REMARK minimizedRMSD -1
REMARK  1 active torsions:
REMARK  status: ('A' for Active; 'I' for Inactive)
REMARK    1  A    between atoms: C1_2  and  C2_3 
ROOT
ATOM      1  C2  UNL d   1       1.005   0.984  -1.429  0.00  0.00    -0.081 A 
ATOM      2  C3  UNL d   1       1.616  -0.275  -1.382  0.00  0.00     0.006 A 
ATOM      3  C4  UNL d   1       2.862  -0.480  -1.979  0.00  0.00     0.002 A 
ATOM      4  C5  UNL d   1       3.521   0.571  -2.625  0.00  0.00    -0.080 A 
ATOM      5  C6  UNL d   1       4.873   0.372  -3.243  0.00  0.00     0.076 C 
ATOM      6  C7  UNL d   1       2.903   1.825  -2.687  0.00  0.00     0.002 A 
ATOM      7  C8  UNL d   1       1.657   2.030  -2.091  0.00  0.00     0.006 A 
ENDROOT
BRANCH   1   8
ATOM      8  C1  UNL d   1      -0.309   1.225  -0.731  0.00  0.00     0.054 C 
ATOM      9  C   UNL d   1      -0.122   2.063   0.526  0.00  0.00     0.018 C 
ENDBRANCH   1   8
TORSDOF 1
ENDMDL
