MODEL 1
REMARK minimizedAffinity 2.00298834
REMARK minimizedRMSD -1
REMARK  1 active torsions:
REMARK  status: ('A' for Active; 'I' for Inactive)
REMARK    1  A    between atoms: C1_2  and  C2_3 
ROOT
ATOM      1  C2  UNL d   1       2.520   1.387  -2.102  0.00  0.00    -0.081 A 
ATOM      2  C3  UNL d   1       1.373   0.584  -2.099  0.00  0.00     0.006 A 
ATOM      3  C4  UNL d   1       1.451  -0.760  -1.729  0.00  0.00     0.002 A 
ATOM      4  C5  UNL d   1       2.675  -1.322  -1.349  0.00  0.00    -0.080 A 
ATOM      5  C6  UNL d   1       2.767  -2.756  -0.920  0.00  0.00     0.076 C 
ATOM      6  C7  UNL d   1       3.824  -0.524  -1.369  0.00  0.00     0.002 A 
ATOM      7  C8  UNL d   1       3.747   0.820  -1.739  0.00  0.00     0.006 A 
ENDROOT
BRANCH   1   8
ATOM      8  C1  UNL d   1       2.428   2.854  -2.439  0.00  0.00     0.054 C 
ATOM      9  C   UNL d   1       1.073   3.200  -3.040  0.00  0.00     0.018 C 
ENDBRANCH   1   8
TORSDOF 1
ENDMDL
