MODEL 1
REMARK minimizedAffinity 10.1557312
REMARK minimizedRMSD -1
REMARK  1 active torsions:
REMARK  status: ('A' for Active; 'I' for Inactive)
REMARK    1  A    between atoms: C1_2  and  C2_3 
ROOT
ATOM      1  C2  UNL d   1       1.769  -0.175  -1.914  0.00  0.00    -0.081 A 
ATOM      2  C3  UNL d   1       2.792  -0.479  -1.007  0.00  0.00     0.006 A 
ATOM      3  C4  UNL d   1       2.709  -1.618  -0.202  0.00  0.00     0.002 A 
ATOM      4  C5  UNL d   1       1.607  -2.474  -0.296  0.00  0.00    -0.080 A 
ATOM      5  C6  UNL d   1       1.520  -3.716   0.541  0.00  0.00     0.076 C 
ATOM      6  C7  UNL d   1       0.577  -2.161  -1.189  0.00  0.00     0.002 A 
ATOM      7  C8  UNL d   1       0.659  -1.022  -1.994  0.00  0.00     0.006 A 
ENDROOT
BRANCH   1   8
ATOM      8  C1  UNL d   1       1.886   1.017  -2.830  0.00  0.00     0.054 C 
ATOM      9  C   UNL d   1       1.125   2.214  -2.279  0.00  0.00     0.018 C 
ENDBRANCH   1   8
TORSDOF 1
ENDMDL
