MODEL 1
REMARK minimizedAffinity 5.97170258
REMARK minimizedRMSD -1
REMARK  1 active torsions:
REMARK  status: ('A' for Active; 'I' for Inactive)
REMARK    1  A    between atoms: C1_2  and  C2_3 
ROOT
ATOM      1  C2  UNL d   1       0.954  -0.036  -2.812  0.00  0.00    -0.081 A 
ATOM      2  C3  UNL d   1       0.865  -0.537  -4.117  0.00  0.00     0.006 A 
ATOM      3  C4  UNL d   1       0.826  -1.914  -4.347  0.00  0.00     0.002 A 
ATOM      4  C5  UNL d   1       0.867  -2.813  -3.276  0.00  0.00    -0.080 A 
ATOM      5  C6  UNL d   1       0.795  -4.294  -3.506  0.00  0.00     0.076 C 
ATOM      6  C7  UNL d   1       0.974  -2.314  -1.973  0.00  0.00     0.002 A 
ATOM      7  C8  UNL d   1       1.014  -0.937  -1.743  0.00  0.00     0.006 A 
ENDROOT
BRANCH   1   8
ATOM      8  C1  UNL d   1       0.932   1.449  -2.558  0.00  0.00     0.054 C 
ATOM      9  C   UNL d   1       1.119   2.235  -3.848  0.00  0.00     0.018 C 
ENDBRANCH   1   8
TORSDOF 1
ENDMDL
