MODEL 1
REMARK minimizedAffinity 1.75311673
REMARK minimizedRMSD -1
REMARK  1 active torsions:
REMARK  status: ('A' for Active; 'I' for Inactive)
REMARK    1  A    between atoms: C1_2  and  C2_3 
ROOT
ATOM      1  C2  UNL d   1      -3.714   0.774   4.789  0.00  0.00    -0.081 A 
ATOM      2  C3  UNL d   1      -4.513   0.048   3.897  0.00  0.00     0.006 A 
ATOM      3  C4  UNL d   1      -3.931  -0.826   2.975  0.00  0.00     0.002 A 
ATOM      4  C5  UNL d   1      -2.543  -0.995   2.936  0.00  0.00    -0.080 A 
ATOM      5  C6  UNL d   1      -1.907  -1.953   1.973  0.00  0.00     0.076 C 
ATOM      6  C7  UNL d   1      -1.743  -0.257   3.816  0.00  0.00     0.002 A 
ATOM      7  C8  UNL d   1      -2.324   0.617   4.737  0.00  0.00     0.006 A 
ENDROOT
BRANCH   1   8
ATOM      8  C1  UNL d   1      -4.342   1.668   5.827  0.00  0.00     0.054 C 
ATOM      9  C   UNL d   1      -3.618   3.004   5.918  0.00  0.00     0.018 C 
ENDBRANCH   1   8
TORSDOF 1
ENDMDL
