MODEL 1
REMARK minimizedAffinity -2.42485023
REMARK minimizedRMSD -1
REMARK  1 active torsions:
REMARK  status: ('A' for Active; 'I' for Inactive)
REMARK    1  A    between atoms: C1_2  and  C2_3 
ROOT
ATOM      1  C2  UNL d   1       1.464  -0.467  -1.300  0.00  0.00    -0.081 A 
ATOM      2  C3  UNL d   1       0.806  -1.694  -1.150  0.00  0.00     0.006 A 
ATOM      3  C4  UNL d   1      -0.522  -1.738  -0.719  0.00  0.00     0.002 A 
ATOM      4  C5  UNL d   1      -1.216  -0.556  -0.438  0.00  0.00    -0.080 A 
ATOM      5  C6  UNL d   1      -2.651  -0.588  -0.003  0.00  0.00     0.076 C 
ATOM      6  C7  UNL d   1      -0.553   0.669  -0.570  0.00  0.00     0.002 A 
ATOM      7  C8  UNL d   1       0.774   0.713  -1.001  0.00  0.00     0.006 A 
ENDROOT
BRANCH   1   8
ATOM      8  C1  UNL d   1       2.875  -0.414  -1.827  0.00  0.00     0.054 C 
ATOM      9  C   UNL d   1       3.035   0.684  -2.869  0.00  0.00     0.018 C 
ENDBRANCH   1   8
TORSDOF 1
ENDMDL
