MODEL 1
REMARK minimizedAffinity -0.509117782
REMARK minimizedRMSD -1
REMARK  1 active torsions:
REMARK  status: ('A' for Active; 'I' for Inactive)
REMARK    1  A    between atoms: C1_2  and  C2_3 
ROOT
ATOM      1  C2  UNL d   1       1.245   1.863  -2.432  0.00  0.00    -0.081 A 
ATOM      2  C3  UNL d   1       2.456   2.087  -1.766  0.00  0.00     0.006 A 
ATOM      3  C4  UNL d   1       2.478   2.278  -0.382  0.00  0.00     0.002 A 
ATOM      4  C5  UNL d   1       1.292   2.241   0.358  0.00  0.00    -0.080 A 
ATOM      5  C6  UNL d   1       1.305   2.414   1.848  0.00  0.00     0.076 C 
ATOM      6  C7  UNL d   1       0.080   2.035  -0.310  0.00  0.00     0.002 A 
ATOM      7  C8  UNL d   1       0.057   1.844  -1.693  0.00  0.00     0.006 A 
ENDROOT
BRANCH   1   8
ATOM      8  C1  UNL d   1       1.225   1.592  -3.915  0.00  0.00     0.054 C 
ATOM      9  C   UNL d   1       1.182   2.887  -4.714  0.00  0.00     0.018 C 
ENDBRANCH   1   8
TORSDOF 1
ENDMDL
