MODEL 1
REMARK minimizedAffinity 7.23330164
REMARK minimizedRMSD -1
REMARK  1 active torsions:
REMARK  status: ('A' for Active; 'I' for Inactive)
REMARK    1  A    between atoms: C1_2  and  C2_3 
ROOT
ATOM      1  C2  UNL d   1       1.905   0.556  -2.097  0.00  0.00    -0.081 A 
ATOM      2  C3  UNL d   1       0.594   0.173  -1.785  0.00  0.00     0.006 A 
ATOM      3  C4  UNL d   1       0.347  -1.034  -1.127  0.00  0.00     0.002 A 
ATOM      4  C5  UNL d   1       1.405  -1.874  -0.763  0.00  0.00    -0.080 A 
ATOM      5  C6  UNL d   1       1.155  -3.158  -0.029  0.00  0.00     0.076 C 
ATOM      6  C7  UNL d   1       2.713  -1.500  -1.090  0.00  0.00     0.002 A 
ATOM      7  C8  UNL d   1       2.961  -0.294  -1.749  0.00  0.00     0.006 A 
ENDROOT
BRANCH   1   8
ATOM      8  C1  UNL d   1       2.180   1.887  -2.749  0.00  0.00     0.054 C 
ATOM      9  C   UNL d   1       0.887   2.617  -3.084  0.00  0.00     0.018 C 
ENDBRANCH   1   8
TORSDOF 1
ENDMDL
