MODEL 1
REMARK minimizedAffinity 6.28218937
REMARK minimizedRMSD -1
REMARK  1 active torsions:
REMARK  status: ('A' for Active; 'I' for Inactive)
REMARK    1  A    between atoms: C1_2  and  C2_3 
ROOT
ATOM      1  C2  UNL d   1       1.360   1.054  -1.547  0.00  0.00    -0.081 A 
ATOM      2  C3  UNL d   1       1.820   1.572  -0.331  0.00  0.00     0.006 A 
ATOM      3  C4  UNL d   1       0.939   2.210   0.546  0.00  0.00     0.002 A 
ATOM      4  C5  UNL d   1      -0.417   2.333   0.225  0.00  0.00    -0.080 A 
ATOM      5  C6  UNL d   1      -1.378   2.988   1.171  0.00  0.00     0.076 C 
ATOM      6  C7  UNL d   1      -0.874   1.830  -0.998  0.00  0.00     0.002 A 
ATOM      7  C8  UNL d   1       0.007   1.193  -1.875  0.00  0.00     0.006 A 
ENDROOT
BRANCH   1   8
ATOM      8  C1  UNL d   1       2.294   0.309  -2.466  0.00  0.00     0.054 C 
ATOM      9  C   UNL d   1       2.105  -1.196  -2.346  0.00  0.00     0.018 C 
ENDBRANCH   1   8
TORSDOF 1
ENDMDL
