MODEL 1
REMARK minimizedAffinity 1.63945925
REMARK minimizedRMSD -1
REMARK  1 active torsions:
REMARK  status: ('A' for Active; 'I' for Inactive)
REMARK    1  A    between atoms: C1_2  and  C2_3 
ROOT
ATOM      1  C2  UNL d   1       2.306  -0.485  -1.747  0.00  0.00    -0.081 A 
ATOM      2  C3  UNL d   1       3.172   0.086  -2.687  0.00  0.00     0.006 A 
ATOM      3  C4  UNL d   1       2.953   1.384  -3.155  0.00  0.00     0.002 A 
ATOM      4  C5  UNL d   1       1.870   2.134  -2.686  0.00  0.00    -0.080 A 
ATOM      5  C6  UNL d   1       1.641   3.540  -3.157  0.00  0.00     0.076 C 
ATOM      6  C7  UNL d   1       0.995   1.557  -1.760  0.00  0.00     0.002 A 
ATOM      7  C8  UNL d   1       1.213   0.260  -1.292  0.00  0.00     0.006 A 
ENDROOT
BRANCH   1   8
ATOM      8  C1  UNL d   1       2.577  -1.860  -1.192  0.00  0.00     0.054 C 
ATOM      9  C   UNL d   1       1.282  -2.618  -0.937  0.00  0.00     0.018 C 
ENDBRANCH   1   8
TORSDOF 1
ENDMDL
