MODEL 1
REMARK minimizedAffinity 6.96999693
REMARK minimizedRMSD -1
REMARK  1 active torsions:
REMARK  status: ('A' for Active; 'I' for Inactive)
REMARK    1  A    between atoms: C1_2  and  C2_3 
ROOT
ATOM      1  C2  UNL d   1       2.178  -0.040  -1.595  0.00  0.00    -0.081 A 
ATOM      2  C3  UNL d   1       2.979  -0.547  -0.565  0.00  0.00     0.006 A 
ATOM      3  C4  UNL d   1       2.610  -1.713   0.110  0.00  0.00     0.002 A 
ATOM      4  C5  UNL d   1       1.439  -2.395  -0.238  0.00  0.00    -0.080 A 
ATOM      5  C6  UNL d   1       1.048  -3.664   0.459  0.00  0.00     0.076 C 
ATOM      6  C7  UNL d   1       0.630  -1.879  -1.255  0.00  0.00     0.002 A 
ATOM      7  C8  UNL d   1       0.997  -0.713  -1.930  0.00  0.00     0.006 A 
ENDROOT
BRANCH   1   8
ATOM      8  C1  UNL d   1       2.606   1.181  -2.369  0.00  0.00     0.054 C 
ATOM      9  C   UNL d   1       1.423   1.835  -3.069  0.00  0.00     0.018 C 
ENDBRANCH   1   8
TORSDOF 1
ENDMDL
