MODEL 1
REMARK minimizedAffinity -0.12589176
REMARK minimizedRMSD -1
REMARK  0 active torsions:
REMARK  status: ('A' for Active; 'I' for Inactive)
ROOT
ATOM      1  C   UNL d   1       2.076   3.826  -5.996  0.00  0.00    -0.002 A 
ATOM      2  C1  UNL d   1       2.044   5.214  -5.991  0.00  0.00     0.010 A 
ATOM      3  C2  UNL d   1       0.827   5.897  -5.987  0.00  0.00     0.041 A 
ATOM      4  C3  UNL d   1      -0.371   5.154  -5.987  0.00  0.00    -0.075 A 
ATOM      5  S   UNL d   1      -1.979   5.776  -5.981  0.00  0.00     0.015 SA
ATOM      6  C4  UNL d   1      -2.662   4.214  -5.985  0.00  0.00     0.022 A 
ATOM      7  C5  UNL d   1      -1.701   3.231  -5.990  0.00  0.00     0.026 A 
ATOM      8  C6  UNL d   1      -0.365   3.757  -5.991  0.00  0.00    -0.082 A 
ATOM      9  C7  UNL d   1       0.886   3.094  -5.995  0.00  0.00     0.045 A 
ENDROOT
TORSDOF 0
ENDMDL
