MODEL 1
REMARK minimizedAffinity 5.90550566
REMARK minimizedRMSD -1
REMARK  0 active torsions:
REMARK  status: ('A' for Active; 'I' for Inactive)
ROOT
ATOM      1  C   UNL d   1       2.583   2.584  -4.008  0.00  0.00    -0.002 A 
ATOM      2  C1  UNL d   1       2.177   2.985  -2.743  0.00  0.00     0.010 A 
ATOM      3  C2  UNL d   1       1.040   3.779  -2.580  0.00  0.00     0.041 A 
ATOM      4  C3  UNL d   1       0.310   4.166  -3.721  0.00  0.00    -0.075 A 
ATOM      5  S   UNL d   1      -1.115   5.135  -3.763  0.00  0.00     0.015 SA
ATOM      6  C4  UNL d   1      -1.220   5.039  -5.462  0.00  0.00     0.022 A 
ATOM      7  C5  UNL d   1      -0.200   4.290  -6.000  0.00  0.00     0.026 A 
ATOM      8  C6  UNL d   1       0.698   3.774  -5.005  0.00  0.00    -0.082 A 
ATOM      9  C7  UNL d   1       1.855   2.970  -5.138  0.00  0.00     0.045 A 
ENDROOT
TORSDOF 0
ENDMDL
