MODEL 1
REMARK minimizedAffinity 4.26590347
REMARK minimizedRMSD -1
REMARK  0 active torsions:
REMARK  status: ('A' for Active; 'I' for Inactive)
ROOT
ATOM      1  C   UNL d   1       2.592   3.495  -6.000  0.00  0.00    -0.002 A 
ATOM      2  C1  UNL d   1       2.324   4.857  -5.999  0.00  0.00     0.010 A 
ATOM      3  C2  UNL d   1       1.007   5.321  -5.999  0.00  0.00     0.041 A 
ATOM      4  C3  UNL d   1      -0.046   4.384  -5.999  0.00  0.00    -0.075 A 
ATOM      5  S   UNL d   1      -1.737   4.721  -5.998  0.00  0.00     0.015 SA
ATOM      6  C4  UNL d   1      -2.142   3.066  -5.999  0.00  0.00     0.022 A 
ATOM      7  C5  UNL d   1      -1.027   2.262  -6.000  0.00  0.00     0.026 A 
ATOM      8  C6  UNL d   1       0.199   3.008  -5.999  0.00  0.00    -0.082 A 
ATOM      9  C7  UNL d   1       1.545   2.569  -5.999  0.00  0.00     0.045 A 
ENDROOT
TORSDOF 0
ENDMDL
