MODEL 1
REMARK minimizedAffinity -1.58981979
REMARK minimizedRMSD -1
REMARK  0 active torsions:
REMARK  status: ('A' for Active; 'I' for Inactive)
ROOT
ATOM      1  C   UNL d   1      -4.099   4.316  -5.983  0.00  0.00    -0.002 A 
ATOM      2  C1  UNL d   1      -3.636   5.624  -5.987  0.00  0.00     0.010 A 
ATOM      3  C2  UNL d   1      -2.265   5.892  -5.992  0.00  0.00     0.041 A 
ATOM      4  C3  UNL d   1      -1.360   4.814  -5.994  0.00  0.00    -0.075 A 
ATOM      5  S   UNL d   1       0.362   4.902  -6.000  0.00  0.00     0.015 SA
ATOM      6  C4  UNL d   1       0.524   3.205  -5.998  0.00  0.00     0.022 A 
ATOM      7  C5  UNL d   1      -0.696   2.571  -5.992  0.00  0.00     0.026 A 
ATOM      8  C6  UNL d   1      -1.802   3.488  -5.990  0.00  0.00    -0.082 A 
ATOM      9  C7  UNL d   1      -3.197   3.248  -5.985  0.00  0.00     0.045 A 
ENDROOT
TORSDOF 0
ENDMDL
