MODEL 1
REMARK minimizedAffinity 2.61260867
REMARK minimizedRMSD -1
REMARK  0 active torsions:
REMARK  status: ('A' for Active; 'I' for Inactive)
ROOT
ATOM      1  C   UNL d   1       2.604   2.973  -6.000  0.00  0.00    -0.002 A 
ATOM      2  C1  UNL d   1       2.549   4.360  -5.999  0.00  0.00     0.010 A 
ATOM      3  C2  UNL d   1       1.319   5.022  -6.000  0.00  0.00     0.041 A 
ATOM      4  C3  UNL d   1       0.135   4.259  -6.000  0.00  0.00    -0.075 A 
ATOM      5  S   UNL d   1      -1.484   4.854  -6.000  0.00  0.00     0.015 SA
ATOM      6  C4  UNL d   1      -2.140   3.281  -6.000  0.00  0.00     0.022 A 
ATOM      7  C5  UNL d   1      -1.163   2.314  -6.000  0.00  0.00     0.026 A 
ATOM      8  C6  UNL d   1       0.164   2.862  -5.999  0.00  0.00    -0.082 A 
ATOM      9  C7  UNL d   1       1.426   2.220  -6.000  0.00  0.00     0.045 A 
ENDROOT
TORSDOF 0
ENDMDL
