MODEL 1
REMARK minimizedAffinity 8.64117527
REMARK minimizedRMSD -1
REMARK  0 active torsions:
REMARK  status: ('A' for Active; 'I' for Inactive)
ROOT
ATOM      1  C   UNL d   1       1.962   2.767  -4.198  0.00  0.00    -0.002 A 
ATOM      2  C1  UNL d   1       2.328   3.403  -5.376  0.00  0.00     0.010 A 
ATOM      3  C2  UNL d   1       1.457   4.298  -6.000  0.00  0.00     0.041 A 
ATOM      4  C3  UNL d   1       0.200   4.547  -5.414  0.00  0.00    -0.075 A 
ATOM      5  S   UNL d   1      -1.029   5.605  -5.999  0.00  0.00     0.015 SA
ATOM      6  C4  UNL d   1      -2.069   5.237  -4.700  0.00  0.00     0.022 A 
ATOM      7  C5  UNL d   1      -1.508   4.331  -3.831  0.00  0.00     0.026 A 
ATOM      8  C6  UNL d   1      -0.191   3.919  -4.228  0.00  0.00    -0.082 A 
ATOM      9  C7  UNL d   1       0.714   3.016  -3.620  0.00  0.00     0.045 A 
ENDROOT
TORSDOF 0
ENDMDL
