MODEL 1
REMARK minimizedAffinity -1.55304456
REMARK minimizedRMSD -1
REMARK  0 active torsions:
REMARK  status: ('A' for Active; 'I' for Inactive)
ROOT
ATOM      1  C   UNL d   1      -4.283   4.512  -5.998  0.00  0.00    -0.002 A 
ATOM      2  C1  UNL d   1      -3.758   5.797  -5.995  0.00  0.00     0.010 A 
ATOM      3  C2  UNL d   1      -2.376   5.999  -5.993  0.00  0.00     0.041 A 
ATOM      4  C3  UNL d   1      -1.523   4.878  -5.996  0.00  0.00    -0.075 A 
ATOM      5  S   UNL d   1       0.201   4.884  -5.995  0.00  0.00     0.015 SA
ATOM      6  C4  UNL d   1       0.281   3.182  -5.998  0.00  0.00     0.022 A 
ATOM      7  C5  UNL d   1      -0.968   2.607  -6.000  0.00  0.00     0.026 A 
ATOM      8  C6  UNL d   1      -2.028   3.575  -5.999  0.00  0.00    -0.082 A 
ATOM      9  C7  UNL d   1      -3.433   3.403  -6.000  0.00  0.00     0.045 A 
ENDROOT
TORSDOF 0
ENDMDL
