MODEL 1
REMARK minimizedAffinity -0.509142101
REMARK minimizedRMSD -1
REMARK  0 active torsions:
REMARK  status: ('A' for Active; 'I' for Inactive)
ROOT
ATOM      1  C   UNL d   1       0.992   3.116  -6.000  0.00  0.00    -0.002 A 
ATOM      2  C1  UNL d   1       1.195   4.489  -5.999  0.00  0.00     0.010 A 
ATOM      3  C2  UNL d   1       0.110   5.367  -6.000  0.00  0.00     0.041 A 
ATOM      4  C3  UNL d   1      -1.195   4.838  -5.999  0.00  0.00    -0.075 A 
ATOM      5  S   UNL d   1      -2.676   5.722  -5.999  0.00  0.00     0.015 SA
ATOM      6  C4  UNL d   1      -3.612   4.298  -5.998  0.00  0.00     0.022 A 
ATOM      7  C5  UNL d   1      -2.831   3.166  -5.999  0.00  0.00     0.026 A 
ATOM      8  C6  UNL d   1      -1.425   3.459  -5.999  0.00  0.00    -0.082 A 
ATOM      9  C7  UNL d   1      -0.304   2.594  -5.999  0.00  0.00     0.045 A 
ENDROOT
TORSDOF 0
ENDMDL
