MODEL 1
REMARK minimizedAffinity 0.510286808
REMARK minimizedRMSD -1
REMARK  0 active torsions:
REMARK  status: ('A' for Active; 'I' for Inactive)
ROOT
ATOM      1  C   UNL d   1      -0.107   2.157  -5.958  0.00  0.00    -0.002 A 
ATOM      2  C1  UNL d   1       0.621   3.338  -5.963  0.00  0.00     0.010 A 
ATOM      3  C2  UNL d   1      -0.030   4.574  -5.977  0.00  0.00     0.041 A 
ATOM      4  C3  UNL d   1      -1.439   4.602  -5.983  0.00  0.00    -0.075 A 
ATOM      5  S   UNL d   1      -2.450   5.998  -5.998  0.00  0.00     0.015 SA
ATOM      6  C4  UNL d   1      -3.873   5.059  -5.997  0.00  0.00     0.022 A 
ATOM      7  C5  UNL d   1      -3.601   3.711  -5.985  0.00  0.00     0.026 A 
ATOM      8  C6  UNL d   1      -2.194   3.426  -5.976  0.00  0.00    -0.082 A 
ATOM      9  C7  UNL d   1      -1.504   2.189  -5.964  0.00  0.00     0.045 A 
ENDROOT
TORSDOF 0
ENDMDL
