MODEL 1
REMARK minimizedAffinity 7.74072552
REMARK minimizedRMSD -1
REMARK  0 active torsions:
REMARK  status: ('A' for Active; 'I' for Inactive)
ROOT
ATOM      1  C   UNL d   1      -1.567   5.737  -5.638  0.00  0.00    -0.002 A 
ATOM      2  C1  UNL d   1      -2.566   4.774  -5.666  0.00  0.00     0.010 A 
ATOM      3  C2  UNL d   1      -2.245   3.419  -5.771  0.00  0.00     0.041 A 
ATOM      4  C3  UNL d   1      -0.889   3.045  -5.846  0.00  0.00    -0.075 A 
ATOM      5  S   UNL d   1      -0.258   1.446  -5.978  0.00  0.00     0.015 SA
ATOM      6  C4  UNL d   1       1.353   2.003  -6.000  0.00  0.00     0.022 A 
ATOM      7  C5  UNL d   1       1.426   3.373  -5.910  0.00  0.00     0.026 A 
ATOM      8  C6  UNL d   1       0.135   3.996  -5.819  0.00  0.00    -0.082 A 
ATOM      9  C7  UNL d   1      -0.223   5.361  -5.713  0.00  0.00     0.045 A 
ENDROOT
TORSDOF 0
ENDMDL
