MODEL 1
REMARK minimizedAffinity -1.42539787
REMARK minimizedRMSD -1
REMARK  0 active torsions:
REMARK  status: ('A' for Active; 'I' for Inactive)
ROOT
ATOM      1  C   UNL d   1       1.507   2.736  -5.995  0.00  0.00    -0.002 A 
ATOM      2  C1  UNL d   1       1.801   4.093  -5.993  0.00  0.00     0.010 A 
ATOM      3  C2  UNL d   1       0.776   5.041  -5.995  0.00  0.00     0.041 A 
ATOM      4  C3  UNL d   1      -0.562   4.600  -5.996  0.00  0.00    -0.075 A 
ATOM      5  S   UNL d   1      -1.980   5.580  -5.998  0.00  0.00     0.015 SA
ATOM      6  C4  UNL d   1      -3.009   4.221  -6.000  0.00  0.00     0.022 A 
ATOM      7  C5  UNL d   1      -2.305   3.041  -6.000  0.00  0.00     0.026 A 
ATOM      8  C6  UNL d   1      -0.883   3.239  -5.997  0.00  0.00    -0.082 A 
ATOM      9  C7  UNL d   1       0.178   2.302  -5.997  0.00  0.00     0.045 A 
ENDROOT
TORSDOF 0
ENDMDL
