MODEL 1
REMARK minimizedAffinity -0.235050991
REMARK minimizedRMSD -1
REMARK  0 active torsions:
REMARK  status: ('A' for Active; 'I' for Inactive)
ROOT
ATOM      1  C   UNL d   1       1.467   3.502  -5.993  0.00  0.00    -0.002 A 
ATOM      2  C1  UNL d   1       0.903   2.234  -5.994  0.00  0.00     0.010 A 
ATOM      3  C2  UNL d   1      -0.485   2.074  -5.995  0.00  0.00     0.041 A 
ATOM      4  C3  UNL d   1      -1.303   3.220  -5.997  0.00  0.00    -0.075 A 
ATOM      5  S   UNL d   1      -3.027   3.267  -5.999  0.00  0.00     0.015 SA
ATOM      6  C4  UNL d   1      -3.055   4.971  -6.000  0.00  0.00     0.022 A 
ATOM      7  C5  UNL d   1      -1.789   5.508  -5.998  0.00  0.00     0.026 A 
ATOM      8  C6  UNL d   1      -0.758   4.507  -5.997  0.00  0.00    -0.082 A 
ATOM      9  C7  UNL d   1       0.651   4.637  -5.995  0.00  0.00     0.045 A 
ENDROOT
TORSDOF 0
ENDMDL
