MODEL 1
REMARK minimizedAffinity 7.93968439
REMARK minimizedRMSD -1
REMARK  0 active torsions:
REMARK  status: ('A' for Active; 'I' for Inactive)
ROOT
ATOM      1  C1  DEN d   1      -4.673   5.776  -5.503  0.00  0.00     0.130 A 
ATOM      2  C2  DEN d   1      -5.998   5.956  -4.917  0.00  0.00    -0.031 A 
ATOM      3  C3  DEN d   1      -5.998   5.323  -3.583  0.00  0.00     0.027 A 
ATOM      4  C4  DEN d   1      -4.083   4.091  -2.373  0.00  0.00     0.027 A 
ATOM      5  C5  DEN d   1      -2.774   3.674  -2.476  0.00  0.00    -0.003 A 
ATOM      6  C6  DEN d   1      -2.023   3.897  -3.600  0.00  0.00     0.001 A 
ATOM      7  C7  DEN d   1      -2.562   4.595  -4.648  0.00  0.00     0.017 A 
ATOM      8  C8  DEN d   1      -3.883   5.012  -4.555  0.00  0.00    -0.094 A 
ATOM      9  C9  DEN d   1      -4.622   4.787  -3.405  0.00  0.00    -0.072 A 
ENDROOT
TORSDOF 0
ENDMDL
