MODEL 1
REMARK minimizedAffinity 3.98740554
REMARK minimizedRMSD -1
REMARK  0 active torsions:
REMARK  status: ('A' for Active; 'I' for Inactive)
ROOT
ATOM      1  C1  DEN d   1      -0.742   1.000  -0.490  0.00  0.00     0.130 A 
ATOM      2  C2  DEN d   1      -0.928   1.812  -1.689  0.00  0.00    -0.031 A 
ATOM      3  C3  DEN d   1      -1.425   3.138  -1.269  0.00  0.00     0.027 A 
ATOM      4  C4  DEN d   1      -1.918   4.008   1.108  0.00  0.00     0.027 A 
ATOM      5  C5  DEN d   1      -1.923   3.679   2.445  0.00  0.00    -0.003 A 
ATOM      6  C6  DEN d   1      -1.570   2.433   2.892  0.00  0.00     0.001 A 
ATOM      7  C7  DEN d   1      -1.154   1.484   1.996  0.00  0.00     0.017 A 
ATOM      8  C8  DEN d   1      -1.153   1.806   0.645  0.00  0.00    -0.094 A 
ATOM      9  C9  DEN d   1      -1.501   3.075   0.215  0.00  0.00    -0.072 A 
ENDROOT
TORSDOF 0
ENDMDL
