MODEL 1
REMARK minimizedAffinity 17.0243721
REMARK minimizedRMSD -1
REMARK  0 active torsions:
REMARK  status: ('A' for Active; 'I' for Inactive)
ROOT
ATOM      1  C1  DEN d   1      -1.521   2.348   2.842  0.00  0.00     0.130 A 
ATOM      2  C2  DEN d   1      -0.915   1.149   3.412  0.00  0.00    -0.031 A 
ATOM      3  C3  DEN d   1      -0.115   0.495   2.355  0.00  0.00     0.027 A 
ATOM      4  C4  DEN d   1       0.244   1.225  -0.092  0.00  0.00     0.027 A 
ATOM      5  C5  DEN d   1      -0.077   2.171  -1.040  0.00  0.00    -0.003 A 
ATOM      6  C6  DEN d   1      -0.922   3.215  -0.773  0.00  0.00     0.001 A 
ATOM      7  C7  DEN d   1      -1.440   3.364   0.487  0.00  0.00     0.017 A 
ATOM      8  C8  DEN d   1      -1.127   2.410   1.446  0.00  0.00    -0.094 A 
ATOM      9  C9  DEN d   1      -0.261   1.368   1.159  0.00  0.00    -0.072 A 
ENDROOT
TORSDOF 0
ENDMDL
