MODEL 1
REMARK minimizedAffinity -0.784707069
REMARK minimizedRMSD -1
REMARK  0 active torsions:
REMARK  status: ('A' for Active; 'I' for Inactive)
ROOT
ATOM      1  C1  DEN d   1      -5.509   2.882  -3.238  0.00  0.00     0.130 A 
ATOM      2  C2  DEN d   1      -4.778   4.111  -3.537  0.00  0.00    -0.031 A 
ATOM      3  C3  DEN d   1      -3.354   3.884  -3.219  0.00  0.00     0.027 A 
ATOM      4  C4  DEN d   1      -2.214   1.760  -2.301  0.00  0.00     0.027 A 
ATOM      5  C5  DEN d   1      -2.425   0.466  -1.880  0.00  0.00    -0.003 A 
ATOM      6  C6  DEN d   1      -3.673  -0.098  -1.850  0.00  0.00     0.001 A 
ATOM      7  C7  DEN d   1      -4.753   0.620  -2.291  0.00  0.00     0.017 A 
ATOM      8  C8  DEN d   1      -4.550   1.928  -2.710  0.00  0.00    -0.094 A 
ATOM      9  C9  DEN d   1      -3.278   2.476  -2.745  0.00  0.00    -0.072 A 
ENDROOT
TORSDOF 0
ENDMDL
