MODEL 1
REMARK minimizedAffinity 9.9346838
REMARK minimizedRMSD -1
REMARK  0 active torsions:
REMARK  status: ('A' for Active; 'I' for Inactive)
ROOT
ATOM      1  C1  DEN d   1      -1.021   1.865   1.830  0.00  0.00     0.130 A 
ATOM      2  C2  DEN d   1       0.003   2.261   2.793  0.00  0.00    -0.031 A 
ATOM      3  C3  DEN d   1       0.788   3.362   2.197  0.00  0.00     0.027 A 
ATOM      4  C4  DEN d   1       0.513   4.489  -0.106  0.00  0.00     0.027 A 
ATOM      5  C5  DEN d   1      -0.211   4.487  -1.278  0.00  0.00    -0.003 A 
ATOM      6  C6  DEN d   1      -1.226   3.596  -1.507  0.00  0.00     0.001 A 
ATOM      7  C7  DEN d   1      -1.574   2.698  -0.533  0.00  0.00     0.017 A 
ATOM      8  C8  DEN d   1      -0.844   2.689   0.648  0.00  0.00    -0.094 A 
ATOM      9  C9  DEN d   1       0.170   3.606   0.866  0.00  0.00    -0.072 A 
ENDROOT
TORSDOF 0
ENDMDL
