MODEL 1
REMARK minimizedAffinity -5.31242275
REMARK minimizedRMSD -1
REMARK  0 active torsions:
REMARK  status: ('A' for Active; 'I' for Inactive)
ROOT
ATOM      1  C4' PXY d   1      -5.350  -2.327  -5.183  0.00  0.00     0.077 C 
ATOM      2  C1' PXY d   1      -0.412  -5.332  -5.119  0.00  0.00     0.077 C 
ATOM      3  C1  PXY d   1      -1.704  -4.538  -5.124  0.00  0.00    -0.082 A 
ATOM      4  C2  PXY d   1      -2.756  -5.005  -5.777  0.00  0.00     0.003 A 
ATOM      5  C3  PXY d   1      -3.922  -4.285  -5.820  0.00  0.00     0.003 A 
ATOM      6  C4  PXY d   1      -4.029  -3.099  -5.142  0.00  0.00    -0.082 A 
ATOM      7  C5  PXY d   1      -2.963  -2.622  -4.465  0.00  0.00     0.003 A 
ATOM      8  C6  PXY d   1      -1.776  -3.348  -4.469  0.00  0.00     0.003 A 
ENDROOT
TORSDOF 0
ENDMDL
