MODEL 1
REMARK minimizedAffinity -5.17419147
REMARK minimizedRMSD -1
REMARK  0 active torsions:
REMARK  status: ('A' for Active; 'I' for Inactive)
ROOT
ATOM      1  C4' PXY d   1      -3.781   2.291  -5.612  0.00  0.00     0.077 C 
ATOM      2  C1' PXY d   1      -3.580  -3.482  -5.825  0.00  0.00     0.077 C 
ATOM      3  C1  PXY d   1      -3.644  -1.968  -5.775  0.00  0.00    -0.082 A 
ATOM      4  C2  PXY d   1      -2.531  -1.271  -5.614  0.00  0.00     0.003 A 
ATOM      5  C3  PXY d   1      -2.574   0.097  -5.535  0.00  0.00     0.003 A 
ATOM      6  C4  PXY d   1      -3.763   0.762  -5.677  0.00  0.00    -0.082 A 
ATOM      7  C5  PXY d   1      -4.901   0.059  -5.853  0.00  0.00     0.003 A 
ATOM      8  C6  PXY d   1      -4.841  -1.332  -5.889  0.00  0.00     0.003 A 
ENDROOT
TORSDOF 0
ENDMDL
