MODEL 1
REMARK minimizedAffinity 1.12844622
REMARK minimizedRMSD -1
REMARK  0 active torsions:
REMARK  status: ('A' for Active; 'I' for Inactive)
ROOT
ATOM      1  C4' PXY d   1      -0.053   1.892  -0.047  0.00  0.00     0.077 C 
ATOM      2  C1' PXY d   1       4.047  -1.569  -2.198  0.00  0.00     0.077 C 
ATOM      3  C1  PXY d   1       2.964  -0.671  -1.634  0.00  0.00    -0.082 A 
ATOM      4  C2  PXY d   1       3.031   0.636  -1.827  0.00  0.00     0.003 A 
ATOM      5  C3  PXY d   1       2.077   1.466  -1.296  0.00  0.00     0.003 A 
ATOM      6  C4  PXY d   1       1.014   0.947  -0.607  0.00  0.00    -0.082 A 
ATOM      7  C5  PXY d   1       0.932  -0.387  -0.415  0.00  0.00     0.003 A 
ATOM      8  C6  PXY d   1       1.933  -1.208  -0.926  0.00  0.00     0.003 A 
ENDROOT
TORSDOF 0
ENDMDL
