MODEL 1
REMARK minimizedAffinity 2.71931934
REMARK minimizedRMSD -1
REMARK  0 active torsions:
REMARK  status: ('A' for Active; 'I' for Inactive)
ROOT
ATOM      1  C4' PXY d   1      -0.825  -1.973  -2.906  0.00  0.00     0.077 C 
ATOM      2  C1' PXY d   1       1.262   2.299   0.382  0.00  0.00     0.077 C 
ATOM      3  C1  PXY d   1       0.720   1.170  -0.472  0.00  0.00    -0.082 A 
ATOM      4  C2  PXY d   1       0.477   1.379  -1.756  0.00  0.00     0.003 A 
ATOM      5  C3  PXY d   1      -0.043   0.379  -2.535  0.00  0.00     0.003 A 
ATOM      6  C4  PXY d   1      -0.268  -0.865  -2.008  0.00  0.00    -0.082 A 
ATOM      7  C5  PXY d   1      -0.013  -1.089  -0.701  0.00  0.00     0.003 A 
ATOM      8  C6  PXY d   1       0.477  -0.048   0.083  0.00  0.00     0.003 A 
ENDROOT
TORSDOF 0
ENDMDL
