MODEL 1
REMARK minimizedAffinity 0.299838662
REMARK minimizedRMSD -1
REMARK  0 active torsions:
REMARK  status: ('A' for Active; 'I' for Inactive)
ROOT
ATOM      1  C4' PXY d   1      -0.690   3.131  -5.509  0.00  0.00     0.077 C 
ATOM      2  C1' PXY d   1      -6.000   5.362  -6.000  0.00  0.00     0.077 C 
ATOM      3  C1  PXY d   1      -4.602   4.789  -5.874  0.00  0.00    -0.082 A 
ATOM      4  C2  PXY d   1      -4.417   3.484  -5.998  0.00  0.00     0.003 A 
ATOM      5  C3  PXY d   1      -3.165   2.945  -5.856  0.00  0.00     0.003 A 
ATOM      6  C4  PXY d   1      -2.082   3.755  -5.637  0.00  0.00    -0.082 A 
ATOM      7  C5  PXY d   1      -2.262   5.088  -5.521  0.00  0.00     0.003 A 
ATOM      8  C6  PXY d   1      -3.547   5.611  -5.627  0.00  0.00     0.003 A 
ENDROOT
TORSDOF 0
ENDMDL
