MODEL 1
REMARK minimizedAffinity 2.84258056
REMARK minimizedRMSD -1
REMARK  0 active torsions:
REMARK  status: ('A' for Active; 'I' for Inactive)
ROOT
ATOM      1  C4' PXY d   1      -5.005  -4.108  -5.999  0.00  0.00     0.077 C 
ATOM      2  C1' PXY d   1      -0.296  -2.465  -3.078  0.00  0.00     0.077 C 
ATOM      3  C1  PXY d   1      -1.525  -2.908  -3.846  0.00  0.00    -0.082 A 
ATOM      4  C2  PXY d   1      -2.285  -2.003  -4.443  0.00  0.00     0.003 A 
ATOM      5  C3  PXY d   1      -3.418  -2.383  -5.114  0.00  0.00     0.003 A 
ATOM      6  C4  PXY d   1      -3.749  -3.708  -5.221  0.00  0.00    -0.082 A 
ATOM      7  C5  PXY d   1      -2.973  -4.637  -4.624  0.00  0.00     0.003 A 
ATOM      8  C6  PXY d   1      -1.850  -4.227  -3.912  0.00  0.00     0.003 A 
ENDROOT
TORSDOF 0
ENDMDL
