MODEL 1
REMARK minimizedAffinity 0.521392524
REMARK minimizedRMSD -1
REMARK  0 active torsions:
REMARK  status: ('A' for Active; 'I' for Inactive)
ROOT
ATOM      1  C4' PXY d   1      -5.881   0.888  -5.975  0.00  0.00     0.077 C 
ATOM      2  C1' PXY d   1      -3.182   6.000  -5.986  0.00  0.00     0.077 C 
ATOM      3  C1  PXY d   1      -3.901   4.665  -5.977  0.00  0.00    -0.082 A 
ATOM      4  C2  PXY d   1      -3.198   3.544  -5.971  0.00  0.00     0.003 A 
ATOM      5  C3  PXY d   1      -3.831   2.328  -5.996  0.00  0.00     0.003 A 
ATOM      6  C4  PXY d   1      -5.198   2.258  -5.974  0.00  0.00    -0.082 A 
ATOM      7  C5  PXY d   1      -5.923   3.398  -5.969  0.00  0.00     0.003 A 
ATOM      8  C6  PXY d   1      -5.261   4.622  -5.986  0.00  0.00     0.003 A 
ENDROOT
TORSDOF 0
ENDMDL
