MODEL 1
REMARK minimizedAffinity -0.492401302
REMARK minimizedRMSD -1
REMARK  0 active torsions:
REMARK  status: ('A' for Active; 'I' for Inactive)
ROOT
ATOM      1  C4' PXY d   1      -5.892   0.990  -5.999  0.00  0.00     0.077 C 
ATOM      2  C1' PXY d   1      -3.011   5.997  -5.793  0.00  0.00     0.077 C 
ATOM      3  C1  PXY d   1      -3.777   4.690  -5.842  0.00  0.00    -0.082 A 
ATOM      4  C2  PXY d   1      -3.115   3.547  -5.920  0.00  0.00     0.003 A 
ATOM      5  C3  PXY d   1      -3.792   2.357  -5.997  0.00  0.00     0.003 A 
ATOM      6  C4  PXY d   1      -5.160   2.333  -5.939  0.00  0.00    -0.082 A 
ATOM      7  C5  PXY d   1      -5.842   3.495  -5.848  0.00  0.00     0.003 A 
ATOM      8  C6  PXY d   1      -5.137   4.694  -5.813  0.00  0.00     0.003 A 
ENDROOT
TORSDOF 0
ENDMDL
