MODEL 1
REMARK minimizedAffinity -2.6960032
REMARK minimizedRMSD -1
REMARK  0 active torsions:
REMARK  status: ('A' for Active; 'I' for Inactive)
ROOT
ATOM      1  C4' PXY d   1      -4.877   0.463  -5.959  0.00  0.00     0.077 C 
ATOM      2  C1' PXY d   1      -3.563  -5.158  -5.648  0.00  0.00     0.077 C 
ATOM      3  C1  PXY d   1      -3.919  -3.686  -5.736  0.00  0.00    -0.082 A 
ATOM      4  C2  PXY d   1      -2.964  -2.776  -5.636  0.00  0.00     0.003 A 
ATOM      5  C3  PXY d   1      -3.272  -1.440  -5.682  0.00  0.00     0.003 A 
ATOM      6  C4  PXY d   1      -4.563  -1.034  -5.885  0.00  0.00    -0.082 A 
ATOM      7  C5  PXY d   1      -5.541  -1.957  -5.999  0.00  0.00     0.003 A 
ATOM      8  C6  PXY d   1      -5.214  -3.307  -5.909  0.00  0.00     0.003 A 
ENDROOT
TORSDOF 0
ENDMDL
