MODEL 1
REMARK minimizedAffinity -2.22646785
REMARK minimizedRMSD -1
REMARK  0 active torsions:
REMARK  status: ('A' for Active; 'I' for Inactive)
ROOT
ATOM      1  C4' PXY d   1      -1.385  -6.000  -4.494  0.00  0.00     0.077 C 
ATOM      2  C1' PXY d   1      -5.302  -2.019  -5.988  0.00  0.00     0.077 C 
ATOM      3  C1  PXY d   1      -4.265  -3.054  -5.596  0.00  0.00    -0.082 A 
ATOM      4  C2  PXY d   1      -4.456  -4.324  -5.915  0.00  0.00     0.003 A 
ATOM      5  C3  PXY d   1      -3.544  -5.277  -5.540  0.00  0.00     0.003 A 
ATOM      6  C4  PXY d   1      -2.400  -4.920  -4.878  0.00  0.00    -0.082 A 
ATOM      7  C5  PXY d   1      -2.194  -3.624  -4.558  0.00  0.00     0.003 A 
ATOM      8  C6  PXY d   1      -3.151  -2.678  -4.912  0.00  0.00     0.003 A 
ENDROOT
TORSDOF 0
ENDMDL
