MODEL 1
REMARK minimizedAffinity -3.05716276
REMARK minimizedRMSD -1
REMARK  0 active torsions:
REMARK  status: ('A' for Active; 'I' for Inactive)
ROOT
ATOM      1  C4' PXY d   1      -1.159  -2.540  -3.300  0.00  0.00     0.077 C 
ATOM      2  C1' PXY d   1      -6.000  -4.181  -5.998  0.00  0.00     0.077 C 
ATOM      3  C1  PXY d   1      -4.728  -3.763  -5.287  0.00  0.00    -0.082 A 
ATOM      4  C2  PXY d   1      -4.608  -2.526  -4.834  0.00  0.00     0.003 A 
ATOM      5  C3  PXY d   1      -3.452  -2.122  -4.217  0.00  0.00     0.003 A 
ATOM      6  C4  PXY d   1      -2.429  -3.008  -4.015  0.00  0.00    -0.082 A 
ATOM      7  C5  PXY d   1      -2.547  -4.275  -4.466  0.00  0.00     0.003 A 
ATOM      8  C6  PXY d   1      -3.712  -4.654  -5.126  0.00  0.00     0.003 A 
ENDROOT
TORSDOF 0
ENDMDL
