MODEL 1
REMARK minimizedAffinity 3.21828222
REMARK minimizedRMSD -1
REMARK  0 active torsions:
REMARK  status: ('A' for Active; 'I' for Inactive)
ROOT
ATOM      1  C4' PXY d   1      -1.076  -2.634   0.379  0.00  0.00     0.077 C 
ATOM      2  C1' PXY d   1       1.415   2.478  -0.662  0.00  0.00     0.077 C 
ATOM      3  C1  PXY d   1       0.756   1.137  -0.401  0.00  0.00    -0.082 A 
ATOM      4  C2  PXY d   1       0.527   0.752   0.844  0.00  0.00     0.003 A 
ATOM      5  C3  PXY d   1      -0.038  -0.470   1.099  0.00  0.00     0.003 A 
ATOM      6  C4  PXY d   1      -0.422  -1.285   0.068  0.00  0.00    -0.082 A 
ATOM      7  C5  PXY d   1      -0.201  -0.895  -1.205  0.00  0.00     0.003 A 
ATOM      8  C6  PXY d   1       0.412   0.332  -1.442  0.00  0.00     0.003 A 
ENDROOT
TORSDOF 0
ENDMDL
