MODEL 1
REMARK minimizedAffinity 0.351340324
REMARK minimizedRMSD -1
REMARK  0 active torsions:
REMARK  status: ('A' for Active; 'I' for Inactive)
ROOT
ATOM      1  C4' PXY d   1      -1.546  -2.835  -3.463  0.00  0.00     0.077 C 
ATOM      2  C1' PXY d   1       0.892   1.344  -0.299  0.00  0.00     0.077 C 
ATOM      3  C1  PXY d   1       0.258   0.239  -1.121  0.00  0.00    -0.082 A 
ATOM      4  C2  PXY d   1      -0.113   0.482  -2.368  0.00  0.00     0.003 A 
ATOM      5  C3  PXY d   1      -0.716  -0.497  -3.115  0.00  0.00     0.003 A 
ATOM      6  C4  PXY d   1      -0.894  -1.753  -2.599  0.00  0.00    -0.082 A 
ATOM      7  C5  PXY d   1      -0.508  -2.011  -1.331  0.00  0.00     0.003 A 
ATOM      8  C6  PXY d   1       0.065  -0.993  -0.576  0.00  0.00     0.003 A 
ENDROOT
TORSDOF 0
ENDMDL
