MODEL 1
REMARK minimizedAffinity 3.05630827
REMARK minimizedRMSD -1
REMARK  0 active torsions:
REMARK  status: ('A' for Active; 'I' for Inactive)
ROOT
ATOM      1  C4' PXY d   1      -5.974   3.934  -5.724  0.00  0.00     0.077 C 
ATOM      2  C1' PXY d   1      -0.391   5.410  -5.983  0.00  0.00     0.077 C 
ATOM      3  C1  PXY d   1      -1.858   5.035  -5.911  0.00  0.00    -0.082 A 
ATOM      4  C2  PXY d   1      -2.203   3.765  -5.773  0.00  0.00     0.003 A 
ATOM      5  C3  PXY d   1      -3.525   3.405  -5.738  0.00  0.00     0.003 A 
ATOM      6  C4  PXY d   1      -4.505   4.360  -5.792  0.00  0.00    -0.082 A 
ATOM      7  C5  PXY d   1      -4.161   5.659  -5.922  0.00  0.00     0.003 A 
ATOM      8  C6  PXY d   1      -2.814   5.999  -5.997  0.00  0.00     0.003 A 
ENDROOT
TORSDOF 0
ENDMDL
