MODEL 1
REMARK minimizedAffinity -0.632506132
REMARK minimizedRMSD -1
REMARK  0 active torsions:
REMARK  status: ('A' for Active; 'I' for Inactive)
ROOT
ATOM      1  C4' PXY d   1      -5.212   0.294  -5.884  0.00  0.00     0.077 C 
ATOM      2  C1' PXY d   1      -4.193   5.983  -5.987  0.00  0.00     0.077 C 
ATOM      3  C1  PXY d   1      -4.448   4.489  -5.965  0.00  0.00    -0.082 A 
ATOM      4  C2  PXY d   1      -5.692   4.037  -5.974  0.00  0.00     0.003 A 
ATOM      5  C3  PXY d   1      -5.942   2.690  -5.922  0.00  0.00     0.003 A 
ATOM      6  C4  PXY d   1      -4.907   1.794  -5.915  0.00  0.00    -0.082 A 
ATOM      7  C5  PXY d   1      -3.635   2.246  -5.916  0.00  0.00     0.003 A 
ATOM      8  C6  PXY d   1      -3.403   3.618  -5.927  0.00  0.00     0.003 A 
ENDROOT
TORSDOF 0
ENDMDL
