MODEL 1
REMARK minimizedAffinity -1.45227957
REMARK minimizedRMSD -1
REMARK  0 active torsions:
REMARK  status: ('A' for Active; 'I' for Inactive)
ROOT
ATOM      1  C4' PXY d   1       1.473   1.034   0.761  0.00  0.00     0.077 C 
ATOM      2  C1' PXY d   1       3.535   5.229   4.162  0.00  0.00     0.077 C 
ATOM      3  C1  PXY d   1       3.006   4.122   3.272  0.00  0.00    -0.082 A 
ATOM      4  C2  PXY d   1       2.015   4.376   2.432  0.00  0.00     0.003 A 
ATOM      5  C3  PXY d   1       1.503   3.379   1.642  0.00  0.00     0.003 A 
ATOM      6  C4  PXY d   1       2.046   2.123   1.673  0.00  0.00    -0.082 A 
ATOM      7  C5  PXY d   1       3.064   1.859   2.519  0.00  0.00     0.003 A 
ATOM      8  C6  PXY d   1       3.542   2.874   3.343  0.00  0.00     0.003 A 
ENDROOT
TORSDOF 0
ENDMDL
