MODEL 1
REMARK minimizedAffinity 5.24055576
REMARK minimizedRMSD -1
REMARK  0 active torsions:
REMARK  status: ('A' for Active; 'I' for Inactive)
ROOT
ATOM      1  C4' PXY d   1      -1.242  -1.624  -2.565  0.00  0.00     0.077 C 
ATOM      2  C1' PXY d   1       1.836   2.227   0.454  0.00  0.00     0.077 C 
ATOM      3  C1  PXY d   1       1.021   1.227  -0.343  0.00  0.00    -0.082 A 
ATOM      4  C2  PXY d   1       0.950  -0.030   0.064  0.00  0.00     0.003 A 
ATOM      5  C3  PXY d   1       0.244  -0.955  -0.662  0.00  0.00     0.003 A 
ATOM      6  C4  PXY d   1      -0.439  -0.578  -1.787  0.00  0.00    -0.082 A 
ATOM      7  C5  PXY d   1      -0.380   0.705  -2.202  0.00  0.00     0.003 A 
ATOM      8  C6  PXY d   1       0.376   1.619  -1.474  0.00  0.00     0.003 A 
ENDROOT
TORSDOF 0
ENDMDL
