MODEL 1
REMARK minimizedAffinity 0.245793611
REMARK minimizedRMSD -1
REMARK  0 active torsions:
REMARK  status: ('A' for Active; 'I' for Inactive)
ROOT
ATOM      1  C4' PXY d   1      -0.800   2.964  -5.458  0.00  0.00     0.077 C 
ATOM      2  C1' PXY d   1      -5.998   5.433  -6.000  0.00  0.00     0.077 C 
ATOM      3  C1  PXY d   1      -4.630   4.795  -5.865  0.00  0.00    -0.082 A 
ATOM      4  C2  PXY d   1      -4.534   3.497  -5.628  0.00  0.00     0.003 A 
ATOM      5  C3  PXY d   1      -3.305   2.909  -5.472  0.00  0.00     0.003 A 
ATOM      6  C4  PXY d   1      -2.161   3.649  -5.611  0.00  0.00    -0.082 A 
ATOM      7  C5  PXY d   1      -2.250   4.972  -5.863  0.00  0.00     0.003 A 
ATOM      8  C6  PXY d   1      -3.508   5.557  -5.978  0.00  0.00     0.003 A 
ENDROOT
TORSDOF 0
ENDMDL
