MODEL 1
REMARK minimizedAffinity 7.57560015
REMARK minimizedRMSD -1
REMARK  0 active torsions:
REMARK  status: ('A' for Active; 'I' for Inactive)
ROOT
ATOM      1  C4' PXY d   1       4.832  -3.014  -5.995  0.00  0.00     0.077 C 
ATOM      2  C1' PXY d   1       4.824  -0.186  -0.953  0.00  0.00     0.077 C 
ATOM      3  C1  PXY d   1       4.836  -0.935  -2.271  0.00  0.00    -0.082 A 
ATOM      4  C2  PXY d   1       4.382  -0.343  -3.364  0.00  0.00     0.003 A 
ATOM      5  C3  PXY d   1       4.356  -1.017  -4.558  0.00  0.00     0.003 A 
ATOM      6  C4  PXY d   1       4.848  -2.292  -4.644  0.00  0.00    -0.082 A 
ATOM      7  C5  PXY d   1       5.323  -2.899  -3.536  0.00  0.00     0.003 A 
ATOM      8  C6  PXY d   1       5.303  -2.212  -2.326  0.00  0.00     0.003 A 
ENDROOT
TORSDOF 0
ENDMDL
