MODEL 1
REMARK minimizedAffinity -4.76281214
REMARK minimizedRMSD -1
REMARK  2 active torsions:
REMARK  status: ('A' for Active; 'I' for Inactive)
REMARK    1  A    between atoms: C2'_3  and  C1'_4 
REMARK    2  A    between atoms: C1'_4  and  C1_5 
ROOT
ATOM      1  C1  I4B d   1       0.856  -0.641  -0.215  0.00  0.00    -0.075 A 
ATOM      2  C2  I4B d   1       1.396   0.451  -0.847  0.00  0.00     0.003 A 
ATOM      3  C3  I4B d   1       2.240   0.279  -1.971  0.00  0.00     0.002 A 
ATOM      4  C4  I4B d   1       2.556  -0.995  -2.395  0.00  0.00    -0.004 A 
ATOM      5  C5  I4B d   1       1.990  -2.101  -1.767  0.00  0.00     0.002 A 
ATOM      6  C6  I4B d   1       1.124  -1.923  -0.678  0.00  0.00     0.003 A 
ENDROOT
BRANCH   1   7
ATOM      7  C1' I4B d   1      -0.005  -0.424   0.989  0.00  0.00     0.060 C 
BRANCH   7   8
ATOM      8  C2' I4B d   1      -1.391  -0.046   0.509  0.00  0.00    -0.013 C 
ATOM      9  C4' I4B d   1      -2.160  -1.259   0.054  0.00  0.00     0.013 C 
ATOM     10  C3' I4B d   1      -2.096   0.651   1.635  0.00  0.00     0.013 C 
ENDBRANCH   7   8
ENDBRANCH   1   7
TORSDOF 2
ENDMDL
