MODEL 1
REMARK minimizedAffinity -4.73898315
REMARK minimizedRMSD -1
REMARK  2 active torsions:
REMARK  status: ('A' for Active; 'I' for Inactive)
REMARK    1  A    between atoms: C2'_3  and  C1'_4 
REMARK    2  A    between atoms: C1'_4  and  C1_5 
ROOT
ATOM      1  C1  I4B d   1      -0.144  -0.726   0.281  0.00  0.00    -0.075 A 
ATOM      2  C2  I4B d   1       0.081   0.614   0.086  0.00  0.00     0.003 A 
ATOM      3  C3  I4B d   1       0.974   1.047  -0.924  0.00  0.00     0.002 A 
ATOM      4  C4  I4B d   1       1.655   0.112  -1.675  0.00  0.00    -0.004 A 
ATOM      5  C5  I4B d   1       1.409  -1.246  -1.491  0.00  0.00     0.002 A 
ATOM      6  C6  I4B d   1       0.494  -1.668  -0.515  0.00  0.00     0.003 A 
ENDROOT
BRANCH   1   7
ATOM      7  C1' I4B d   1      -1.069  -1.149   1.378  0.00  0.00     0.060 C 
BRANCH   7   8
ATOM      8  C2' I4B d   1      -2.330  -0.316   1.273  0.00  0.00    -0.013 C 
ATOM      9  C4' I4B d   1      -3.541  -1.185   1.060  0.00  0.00     0.013 C 
ATOM     10  C3' I4B d   1      -2.457   0.492   2.530  0.00  0.00     0.013 C 
ENDBRANCH   7   8
ENDBRANCH   1   7
TORSDOF 2
ENDMDL
