MODEL 1
REMARK minimizedAffinity 2.81833339
REMARK minimizedRMSD -1
REMARK  2 active torsions:
REMARK  status: ('A' for Active; 'I' for Inactive)
REMARK    1  A    between atoms: C2'_3  and  C1'_4 
REMARK    2  A    between atoms: C1'_4  and  C1_5 
ROOT
ATOM      1  C1  I4B d   1       0.991  -0.833  -0.768  0.00  0.00    -0.075 A 
ATOM      2  C2  I4B d   1       0.815  -1.086  -2.106  0.00  0.00     0.003 A 
ATOM      3  C3  I4B d   1       1.280  -0.162  -3.073  0.00  0.00     0.002 A 
ATOM      4  C4  I4B d   1       1.865   1.018  -2.660  0.00  0.00    -0.004 A 
ATOM      5  C5  I4B d   1       2.063   1.262  -1.304  0.00  0.00     0.002 A 
ATOM      6  C6  I4B d   1       1.634   0.326  -0.352  0.00  0.00     0.003 A 
ENDROOT
BRANCH   1   7
ATOM      7  C1' I4B d   1       0.458  -1.814   0.227  0.00  0.00     0.060 C 
BRANCH   7   8
ATOM      8  C2' I4B d   1      -0.610  -2.641  -0.459  0.00  0.00    -0.013 C 
ATOM      9  C4' I4B d   1      -0.287  -4.111  -0.396  0.00  0.00     0.013 C 
ATOM     10  C3' I4B d   1      -1.922  -2.346   0.206  0.00  0.00     0.013 C 
ENDBRANCH   7   8
ENDBRANCH   1   7
TORSDOF 2
ENDMDL
