MODEL 1
REMARK minimizedAffinity 3.82189727
REMARK minimizedRMSD -1
REMARK  2 active torsions:
REMARK  status: ('A' for Active; 'I' for Inactive)
REMARK    1  A    between atoms: C2'_3  and  C1'_4 
REMARK    2  A    between atoms: C1'_4  and  C1_5 
ROOT
ATOM      1  C1  I4B d   1       1.558   0.162  -0.771  0.00  0.00    -0.075 A 
ATOM      2  C2  I4B d   1       2.405   0.161  -1.851  0.00  0.00     0.003 A 
ATOM      3  C3  I4B d   1       2.521   1.313  -2.666  0.00  0.00     0.002 A 
ATOM      4  C4  I4B d   1       1.741   2.419  -2.396  0.00  0.00    -0.004 A 
ATOM      5  C5  I4B d   1       0.900   2.426  -1.286  0.00  0.00     0.002 A 
ATOM      6  C6  I4B d   1       0.817   1.295  -0.461  0.00  0.00     0.003 A 
ENDROOT
BRANCH   1   7
ATOM      7  C1' I4B d   1       1.435  -1.083   0.049  0.00  0.00     0.060 C 
BRANCH   7   8
ATOM      8  C2' I4B d   1       0.068  -1.681  -0.213  0.00  0.00    -0.013 C 
ATOM      9  C4' I4B d   1       0.087  -2.577  -1.424  0.00  0.00     0.013 C 
ATOM     10  C3' I4B d   1      -0.349  -2.438   1.013  0.00  0.00     0.013 C 
ENDBRANCH   7   8
ENDBRANCH   1   7
TORSDOF 2
ENDMDL
