MODEL 1
REMARK minimizedAffinity 10.6823158
REMARK minimizedRMSD -1
REMARK  2 active torsions:
REMARK  status: ('A' for Active; 'I' for Inactive)
REMARK    1  A    between atoms: C2'_3  and  C1'_4 
REMARK    2  A    between atoms: C1'_4  and  C1_5 
ROOT
ATOM      1  C1  I4B d   1      -0.973  -2.559  -0.212  0.00  0.00    -0.075 A 
ATOM      2  C2  I4B d   1      -1.739  -2.604   0.927  0.00  0.00     0.003 A 
ATOM      3  C3  I4B d   1      -3.074  -2.133   0.908  0.00  0.00     0.002 A 
ATOM      4  C4  I4B d   1      -3.583  -1.581  -0.250  0.00  0.00    -0.004 A 
ATOM      5  C5  I4B d   1      -2.813  -1.557  -1.410  0.00  0.00     0.002 A 
ATOM      6  C6  I4B d   1      -1.504  -2.060  -1.394  0.00  0.00     0.003 A 
ENDROOT
BRANCH   1   7
ATOM      7  C1' I4B d   1       0.443  -3.035  -0.148  0.00  0.00     0.060 C 
BRANCH   7   8
ATOM      8  C2' I4B d   1       1.018  -2.979  -1.548  0.00  0.00    -0.013 C 
ATOM      9  C4' I4B d   1       2.499  -2.702  -1.519  0.00  0.00     0.013 C 
ATOM     10  C3' I4B d   1       0.725  -4.286  -2.222  0.00  0.00     0.013 C 
ENDBRANCH   7   8
ENDBRANCH   1   7
TORSDOF 2
ENDMDL
