MODEL 1
REMARK minimizedAffinity -4.73160744
REMARK minimizedRMSD -1
REMARK  2 active torsions:
REMARK  status: ('A' for Active; 'I' for Inactive)
REMARK    1  A    between atoms: C2'_3  and  C1'_4 
REMARK    2  A    between atoms: C1'_4  and  C1_5 
ROOT
ATOM      1  C1  I4B d   1      -1.400   0.024  -0.350  0.00  0.00    -0.075 A 
ATOM      2  C2  I4B d   1      -1.210   1.324  -0.748  0.00  0.00     0.003 A 
ATOM      3  C3  I4B d   1       0.065   1.927  -0.629  0.00  0.00     0.002 A 
ATOM      4  C4  I4B d   1       1.103   1.215  -0.063  0.00  0.00    -0.004 A 
ATOM      5  C5  I4B d   1       0.915  -0.110   0.319  0.00  0.00     0.002 A 
ATOM      6  C6  I4B d   1      -0.342  -0.714   0.164  0.00  0.00     0.003 A 
ENDROOT
BRANCH   1   7
ATOM      7  C1' I4B d   1      -2.768  -0.571  -0.460  0.00  0.00     0.060 C 
BRANCH   7   8
ATOM      8  C2' I4B d   1      -3.622   0.014   0.646  0.00  0.00    -0.013 C 
ATOM      9  C4' I4B d   1      -4.692   0.917   0.090  0.00  0.00     0.013 C 
ATOM     10  C3' I4B d   1      -4.221  -1.122   1.419  0.00  0.00     0.013 C 
ENDBRANCH   7   8
ENDBRANCH   1   7
TORSDOF 2
ENDMDL
