MODEL 1
REMARK minimizedAffinity 5.0600605
REMARK minimizedRMSD -1
REMARK  2 active torsions:
REMARK  status: ('A' for Active; 'I' for Inactive)
REMARK    1  A    between atoms: C2'_3  and  C1'_4 
REMARK    2  A    between atoms: C1'_4  and  C1_5 
ROOT
ATOM      1  C1  I4B d   1       4.114  -1.789  -2.725  0.00  0.00    -0.075 A 
ATOM      2  C2  I4B d   1       4.588  -3.046  -2.446  0.00  0.00     0.003 A 
ATOM      3  C3  I4B d   1       5.045  -3.885  -3.491  0.00  0.00     0.002 A 
ATOM      4  C4  I4B d   1       4.964  -3.448  -4.797  0.00  0.00    -0.004 A 
ATOM      5  C5  I4B d   1       4.505  -2.164  -5.077  0.00  0.00     0.002 A 
ATOM      6  C6  I4B d   1       4.089  -1.324  -4.034  0.00  0.00     0.003 A 
ENDROOT
BRANCH   1   7
ATOM      7  C1' I4B d   1       3.609  -0.942  -1.601  0.00  0.00     0.060 C 
BRANCH   7   8
ATOM      8  C2' I4B d   1       3.626   0.502  -2.059  0.00  0.00    -0.013 C 
ATOM      9  C4' I4B d   1       2.260   1.125  -1.951  0.00  0.00     0.013 C 
ATOM     10  C3' I4B d   1       4.626   1.241  -1.221  0.00  0.00     0.013 C 
ENDBRANCH   7   8
ENDBRANCH   1   7
TORSDOF 2
ENDMDL
