MODEL 1
REMARK minimizedAffinity -1.41823161
REMARK minimizedRMSD -1
REMARK  2 active torsions:
REMARK  status: ('A' for Active; 'I' for Inactive)
REMARK    1  A    between atoms: C2'_3  and  C1'_4 
REMARK    2  A    between atoms: C1'_4  and  C1_5 
ROOT
ATOM      1  C1  I4B d   1      -3.747   1.451  -5.860  0.00  0.00    -0.075 A 
ATOM      2  C2  I4B d   1      -4.098   2.747  -5.573  0.00  0.00     0.003 A 
ATOM      3  C3  I4B d   1      -3.098   3.736  -5.406  0.00  0.00     0.002 A 
ATOM      4  C4  I4B d   1      -1.768   3.377  -5.484  0.00  0.00    -0.004 A 
ATOM      5  C5  I4B d   1      -1.414   2.068  -5.797  0.00  0.00     0.002 A 
ATOM      6  C6  I4B d   1      -2.410   1.101  -5.999  0.00  0.00     0.003 A 
ENDROOT
BRANCH   1   7
ATOM      7  C1' I4B d   1      -4.827   0.425  -5.998  0.00  0.00     0.060 C 
BRANCH   7   8
ATOM      8  C2' I4B d   1      -4.384  -0.821  -5.259  0.00  0.00    -0.013 C 
ATOM      9  C4' I4B d   1      -4.859  -0.806  -3.831  0.00  0.00     0.013 C 
ATOM     10  C3' I4B d   1      -4.921  -2.011  -5.996  0.00  0.00     0.013 C 
ENDBRANCH   7   8
ENDBRANCH   1   7
TORSDOF 2
ENDMDL
