MODEL 1
REMARK minimizedAffinity 2.7864027
REMARK minimizedRMSD -1
REMARK  2 active torsions:
REMARK  status: ('A' for Active; 'I' for Inactive)
REMARK    1  A    between atoms: C2'_3  and  C1'_4 
REMARK    2  A    between atoms: C1'_4  and  C1_5 
ROOT
ATOM      1  C1  I4B d   1       0.924  -1.078   0.001  0.00  0.00    -0.075 A 
ATOM      2  C2  I4B d   1       0.257  -0.005   0.536  0.00  0.00     0.003 A 
ATOM      3  C3  I4B d   1       0.666   1.315   0.228  0.00  0.00     0.002 A 
ATOM      4  C4  I4B d   1       1.771   1.514  -0.575  0.00  0.00    -0.004 A 
ATOM      5  C5  I4B d   1       2.432   0.425  -1.135  0.00  0.00     0.002 A 
ATOM      6  C6  I4B d   1       1.999  -0.879  -0.855  0.00  0.00     0.003 A 
ENDROOT
BRANCH   1   7
ATOM      7  C1' I4B d   1       0.486  -2.459   0.375  0.00  0.00     0.060 C 
BRANCH   7   8
ATOM      8  C2' I4B d   1      -0.984  -2.590   0.034  0.00  0.00    -0.013 C 
ATOM      9  C4' I4B d   1      -1.176  -3.248  -1.307  0.00  0.00     0.013 C 
ATOM     10  C3' I4B d   1      -1.643  -3.380   1.124  0.00  0.00     0.013 C 
ENDBRANCH   7   8
ENDBRANCH   1   7
TORSDOF 2
ENDMDL
