MODEL 1
REMARK minimizedAffinity -4.57953119
REMARK minimizedRMSD -1
REMARK  2 active torsions:
REMARK  status: ('A' for Active; 'I' for Inactive)
REMARK    1  A    between atoms: C2'_3  and  C1'_4 
REMARK    2  A    between atoms: C1'_4  and  C1_5 
ROOT
ATOM      1  C1  I4B d   1      -0.984  -0.301   0.912  0.00  0.00    -0.075 A 
ATOM      2  C2  I4B d   1      -1.212   0.667   1.859  0.00  0.00     0.003 A 
ATOM      3  C3  I4B d   1      -2.495   0.806   2.442  0.00  0.00     0.002 A 
ATOM      4  C4  I4B d   1      -3.527  -0.005   2.015  0.00  0.00    -0.004 A 
ATOM      5  C5  I4B d   1      -3.289  -1.000   1.072  0.00  0.00     0.002 A 
ATOM      6  C6  I4B d   1      -2.007  -1.157   0.526  0.00  0.00     0.003 A 
ENDROOT
BRANCH   1   7
ATOM      7  C1' I4B d   1       0.374  -0.398   0.294  0.00  0.00     0.060 C 
BRANCH   7   8
ATOM      8  C2' I4B d   1       0.784   0.990  -0.154  0.00  0.00    -0.013 C 
ATOM      9  C4' I4B d   1       1.738   1.620   0.827  0.00  0.00     0.013 C 
ATOM     10  C3' I4B d   1       1.404   0.874  -1.514  0.00  0.00     0.013 C 
ENDBRANCH   7   8
ENDBRANCH   1   7
TORSDOF 2
ENDMDL
