MODEL 1
REMARK minimizedAffinity -2.02947593
REMARK minimizedRMSD -1
REMARK  2 active torsions:
REMARK  status: ('A' for Active; 'I' for Inactive)
REMARK    1  A    between atoms: C2'_3  and  C1'_4 
REMARK    2  A    between atoms: C1'_4  and  C1_5 
ROOT
ATOM      1  C1  I4B d   1      -1.449   0.174   0.687  0.00  0.00    -0.075 A 
ATOM      2  C2  I4B d   1      -0.693  -0.947   0.452  0.00  0.00     0.003 A 
ATOM      3  C3  I4B d   1       0.651  -0.824   0.024  0.00  0.00     0.002 A 
ATOM      4  C4  I4B d   1       1.179   0.430  -0.205  0.00  0.00    -0.004 A 
ATOM      5  C5  I4B d   1       0.418   1.566   0.055  0.00  0.00     0.002 A 
ATOM      6  C6  I4B d   1      -0.900   1.438   0.515  0.00  0.00     0.003 A 
ENDROOT
BRANCH   1   7
ATOM      7  C1' I4B d   1      -2.875   0.007   1.107  0.00  0.00     0.060 C 
BRANCH   7   8
ATOM      8  C2' I4B d   1      -3.270   1.227   1.914  0.00  0.00    -0.013 C 
ATOM      9  C4' I4B d   1      -4.731   1.546   1.741  0.00  0.00     0.013 C 
ATOM     10  C3' I4B d   1      -2.941   0.958   3.352  0.00  0.00     0.013 C 
ENDBRANCH   7   8
ENDBRANCH   1   7
TORSDOF 2
ENDMDL
