MODEL 1
REMARK minimizedAffinity 7.82691622
REMARK minimizedRMSD -1
REMARK  0 active torsions:
REMARK  status: ('A' for Active; 'I' for Inactive)
ROOT
ATOM      1  C   UNL d   1      -1.084  -2.213   3.701  0.00  0.00     0.020 A 
ATOM      2  C1  UNL d   1      -0.623  -2.922   2.593  0.00  0.00     0.020 A 
ATOM      3  C2  UNL d   1       0.455  -2.433   1.851  0.00  0.00     0.034 A 
ATOM      4  C3  UNL d   1       1.074  -1.233   2.216  0.00  0.00     0.017 A 
ATOM      5  C4  UNL d   1       0.610  -0.522   3.329  0.00  0.00     0.017 A 
ATOM      6  C5  UNL d   1      -0.469  -1.016   4.068  0.00  0.00     0.034 A 
ATOM      7 Cl   UNL d   1       1.324   0.967   3.841  0.00  0.00    -0.070 Cl
ATOM      8 Cl1  UNL d   1       2.402  -0.688   1.254  0.00  0.00    -0.070 Cl
ENDROOT
TORSDOF 0
ENDMDL
