MODEL 1
REMARK minimizedAffinity 6.94604445
REMARK minimizedRMSD -1
REMARK  0 active torsions:
REMARK  status: ('A' for Active; 'I' for Inactive)
ROOT
ATOM      1  C   UNL d   1       5.987   1.645   1.627  0.00  0.00     0.020 A 
ATOM      2  C1  UNL d   1       5.995   2.231   0.362  0.00  0.00     0.020 A 
ATOM      3  C2  UNL d   1       5.999   1.428  -0.780  0.00  0.00     0.034 A 
ATOM      4  C3  UNL d   1       5.994   0.033  -0.659  0.00  0.00     0.017 A 
ATOM      5  C4  UNL d   1       5.986  -0.555   0.611  0.00  0.00     0.017 A 
ATOM      6  C5  UNL d   1       5.982   0.255   1.751  0.00  0.00     0.034 A 
ATOM      7 Cl   UNL d   1       5.979  -2.268   0.839  0.00  0.00    -0.070 Cl
ATOM      8 Cl1  UNL d   1       5.999  -0.899  -2.114  0.00  0.00    -0.070 Cl
ENDROOT
TORSDOF 0
ENDMDL
