MODEL 1
REMARK minimizedAffinity 3.97202682
REMARK minimizedRMSD -1
REMARK  0 active torsions:
REMARK  status: ('A' for Active; 'I' for Inactive)
ROOT
ATOM      1  C   UNL d   1       2.455  -3.303   1.185  0.00  0.00     0.020 A 
ATOM      2  C1  UNL d   1       1.899  -4.582   1.162  0.00  0.00     0.020 A 
ATOM      3  C2  UNL d   1       0.688  -4.828   1.814  0.00  0.00     0.034 A 
ATOM      4  C3  UNL d   1       0.031  -3.794   2.491  0.00  0.00     0.017 A 
ATOM      5  C4  UNL d   1       0.591  -2.512   2.514  0.00  0.00     0.017 A 
ATOM      6  C5  UNL d   1       1.802  -2.271   1.859  0.00  0.00     0.034 A 
ATOM      7 Cl   UNL d   1      -0.162  -1.186   3.329  0.00  0.00    -0.070 Cl
ATOM      8 Cl1  UNL d   1      -1.462  -4.170   3.275  0.00  0.00    -0.070 Cl
ENDROOT
TORSDOF 0
ENDMDL
