MODEL 1
REMARK minimizedAffinity 8.3578949
REMARK minimizedRMSD -1
REMARK  0 active torsions:
REMARK  status: ('A' for Active; 'I' for Inactive)
ROOT
ATOM      1  C   UNL d   1       1.642   4.413   4.767  0.00  0.00     0.020 A 
ATOM      2  C1  UNL d   1       1.808   5.551   5.556  0.00  0.00     0.020 A 
ATOM      3  C2  UNL d   1       3.093   5.991   5.884  0.00  0.00     0.034 A 
ATOM      4  C3  UNL d   1       4.215   5.293   5.423  0.00  0.00     0.017 A 
ATOM      5  C4  UNL d   1       4.046   4.152   4.631  0.00  0.00     0.017 A 
ATOM      6  C5  UNL d   1       2.758   3.716   4.306  0.00  0.00     0.034 A 
ATOM      7 Cl   UNL d   1       5.383   3.239   4.024  0.00  0.00    -0.070 Cl
ATOM      8 Cl1  UNL d   1       5.773   5.894   5.867  0.00  0.00    -0.070 Cl
ENDROOT
TORSDOF 0
ENDMDL
