MODEL 1
REMARK minimizedAffinity 6.75025797
REMARK minimizedRMSD -1
REMARK  0 active torsions:
REMARK  status: ('A' for Active; 'I' for Inactive)
ROOT
ATOM      1  C   UNL d   1       3.063  -3.885   1.062  0.00  0.00     0.020 A 
ATOM      2  C1  UNL d   1       2.590  -4.020   2.366  0.00  0.00     0.020 A 
ATOM      3  C2  UNL d   1       1.628  -3.134   2.855  0.00  0.00     0.034 A 
ATOM      4  C3  UNL d   1       1.137  -2.108   2.040  0.00  0.00     0.017 A 
ATOM      5  C4  UNL d   1       1.613  -1.973   0.730  0.00  0.00     0.017 A 
ATOM      6  C5  UNL d   1       2.576  -2.863   0.246  0.00  0.00     0.034 A 
ATOM      7 Cl   UNL d   1       1.054  -0.732  -0.335  0.00  0.00    -0.070 Cl
ATOM      8 Cl1  UNL d   1      -0.052  -1.048   2.710  0.00  0.00    -0.070 Cl
ENDROOT
TORSDOF 0
ENDMDL
