MODEL 1
REMARK minimizedAffinity 0.417526126
REMARK minimizedRMSD -1
REMARK  0 active torsions:
REMARK  status: ('A' for Active; 'I' for Inactive)
ROOT
ATOM      1  C   UNL d   1       2.057  -3.586   1.609  0.00  0.00     0.020 A 
ATOM      2  C1  UNL d   1       1.489  -4.859   1.624  0.00  0.00     0.020 A 
ATOM      3  C2  UNL d   1       0.269  -5.072   2.269  0.00  0.00     0.034 A 
ATOM      4  C3  UNL d   1      -0.387  -4.011   2.902  0.00  0.00     0.017 A 
ATOM      5  C4  UNL d   1       0.183  -2.733   2.887  0.00  0.00     0.017 A 
ATOM      6  C5  UNL d   1       1.405  -2.525   2.239  0.00  0.00     0.034 A 
ATOM      7 Cl   UNL d   1      -0.567  -1.373   3.645  0.00  0.00    -0.070 Cl
ATOM      8 Cl1  UNL d   1      -1.893  -4.346   3.680  0.00  0.00    -0.070 Cl
ENDROOT
TORSDOF 0
ENDMDL
