MODEL 1
REMARK minimizedAffinity 9.66559029
REMARK minimizedRMSD -1
REMARK  0 active torsions:
REMARK  status: ('A' for Active; 'I' for Inactive)
ROOT
ATOM      1  C   UNL d   1      -0.821  -1.000   3.299  0.00  0.00     0.020 A 
ATOM      2  C1  UNL d   1      -1.299  -1.395   2.050  0.00  0.00     0.020 A 
ATOM      3  C2  UNL d   1      -0.540  -2.252   1.250  0.00  0.00     0.034 A 
ATOM      4  C3  UNL d   1       0.702  -2.717   1.699  0.00  0.00     0.017 A 
ATOM      5  C4  UNL d   1       1.181  -2.320   2.952  0.00  0.00     0.017 A 
ATOM      6  C5  UNL d   1       0.417  -1.462   3.749  0.00  0.00     0.034 A 
ATOM      7 Cl   UNL d   1       2.704  -2.853   3.573  0.00  0.00    -0.070 Cl
ATOM      8 Cl1  UNL d   1       1.587  -3.775   0.658  0.00  0.00    -0.070 Cl
ENDROOT
TORSDOF 0
ENDMDL
