MODEL 1
REMARK minimizedAffinity 3.34914064
REMARK minimizedRMSD -1
REMARK  0 active torsions:
REMARK  status: ('A' for Active; 'I' for Inactive)
ROOT
ATOM      1  C   UNL d   1       5.980   2.278   0.837  0.00  0.00     0.020 A 
ATOM      2  C1  UNL d   1       5.982   1.671   2.092  0.00  0.00     0.020 A 
ATOM      3  C2  UNL d   1       5.988   0.278   2.194  0.00  0.00     0.034 A 
ATOM      4  C3  UNL d   1       5.992  -0.512   1.039  0.00  0.00     0.017 A 
ATOM      5  C4  UNL d   1       5.990   0.098  -0.220  0.00  0.00     0.017 A 
ATOM      6  C5  UNL d   1       5.984   1.493  -0.317  0.00  0.00     0.034 A 
ATOM      7 Cl   UNL d   1       5.995  -0.811  -1.690  0.00  0.00    -0.070 Cl
ATOM      8 Cl1  UNL d   1       6.000  -2.229   1.240  0.00  0.00    -0.070 Cl
ENDROOT
TORSDOF 0
ENDMDL
