MODEL 1
REMARK minimizedAffinity 1.08245647
REMARK minimizedRMSD -1
REMARK  0 active torsions:
REMARK  status: ('A' for Active; 'I' for Inactive)
ROOT
ATOM      1  C   UNL d   1      -0.575  -1.587   2.321  0.00  0.00     0.020 A 
ATOM      2  C1  UNL d   1      -0.915  -0.925   3.501  0.00  0.00     0.020 A 
ATOM      3  C2  UNL d   1      -2.038  -0.097   3.538  0.00  0.00     0.034 A 
ATOM      4  C3  UNL d   1      -2.827   0.071   2.394  0.00  0.00     0.017 A 
ATOM      5  C4  UNL d   1      -2.486  -0.594   1.211  0.00  0.00     0.017 A 
ATOM      6  C5  UNL d   1      -1.360  -1.422   1.179  0.00  0.00     0.034 A 
ATOM      7 Cl   UNL d   1      -3.411  -0.436  -0.241  0.00  0.00    -0.070 Cl
ATOM      8 Cl1  UNL d   1      -4.203   1.110   2.512  0.00  0.00    -0.070 Cl
ENDROOT
TORSDOF 0
ENDMDL
