MODEL 1
REMARK minimizedAffinity 6.28777218
REMARK minimizedRMSD -1
REMARK  0 active torsions:
REMARK  status: ('A' for Active; 'I' for Inactive)
ROOT
ATOM      1  C   UNL d   1      -0.489  -0.355  -0.532  0.00  0.00     0.020 A 
ATOM      2  C1  UNL d   1       0.720  -0.856  -1.013  0.00  0.00     0.020 A 
ATOM      3  C2  UNL d   1       1.508  -1.676  -0.203  0.00  0.00     0.034 A 
ATOM      4  C3  UNL d   1       1.089  -1.996   1.094  0.00  0.00     0.017 A 
ATOM      5  C4  UNL d   1      -0.124  -1.492   1.576  0.00  0.00     0.017 A 
ATOM      6  C5  UNL d   1      -0.910  -0.673   0.760  0.00  0.00     0.034 A 
ATOM      7 Cl   UNL d   1      -0.707  -1.844   3.165  0.00  0.00    -0.070 Cl
ATOM      8 Cl1  UNL d   1       2.115  -3.015   2.041  0.00  0.00    -0.070 Cl
ENDROOT
TORSDOF 0
ENDMDL
