MODEL 1
REMARK minimizedAffinity -4.69412661
REMARK minimizedRMSD -1
REMARK  0 active torsions:
REMARK  status: ('A' for Active; 'I' for Inactive)
ROOT
ATOM      1  O1  BZF d   1       0.108   0.201  -0.970  0.00  0.00    -0.204 OA
ATOM      2  C2  BZF d   1      -0.172   0.448   0.361  0.00  0.00     0.174 A 
ATOM      3  C3  BZF d   1      -0.825  -0.594   0.913  0.00  0.00    -0.012 A 
ATOM      4  C3A BZF d   1      -0.881  -1.590  -0.112  0.00  0.00    -0.107 A 
ATOM      5  C4  BZF d   1      -1.392  -2.856  -0.165  0.00  0.00     0.055 A 
ATOM      6  C5  BZF d   1      -1.348  -3.537  -1.340  0.00  0.00    -0.016 A 
ATOM      7  C6  BZF d   1      -0.805  -2.982  -2.481  0.00  0.00     0.022 A 
ATOM      8  C7  BZF d   1      -0.282  -1.732  -2.476  0.00  0.00     0.029 A 
ATOM      9  C7A BZF d   1      -0.295  -1.054  -1.282  0.00  0.00     0.058 A 
ENDROOT
TORSDOF 0
ENDMDL
