MODEL 1
REMARK minimizedAffinity -1.25168526
REMARK minimizedRMSD -1
REMARK  0 active torsions:
REMARK  status: ('A' for Active; 'I' for Inactive)
ROOT
ATOM      1  O1  BZF d   1       0.223   0.733  -1.117  0.00  0.00    -0.204 OA
ATOM      2  C2  BZF d   1       0.665   1.989  -0.750  0.00  0.00     0.174 A 
ATOM      3  C3  BZF d   1       0.478   2.195   0.570  0.00  0.00    -0.012 A 
ATOM      4  C3A BZF d   1      -0.034   0.959   1.075  0.00  0.00    -0.107 A 
ATOM      5  C4  BZF d   1      -0.402   0.533   2.320  0.00  0.00     0.055 A 
ATOM      6  C5  BZF d   1      -0.931  -0.710   2.463  0.00  0.00    -0.016 A 
ATOM      7  C6  BZF d   1      -1.111  -1.552   1.385  0.00  0.00     0.022 A 
ATOM      8  C7  BZF d   1      -0.756  -1.176   0.132  0.00  0.00     0.029 A 
ATOM      9  C7A BZF d   1      -0.191   0.067  -0.012  0.00  0.00     0.058 A 
ENDROOT
TORSDOF 0
ENDMDL
