MODEL 1
REMARK minimizedAffinity -1.53230238
REMARK minimizedRMSD -1
REMARK  0 active torsions:
REMARK  status: ('A' for Active; 'I' for Inactive)
ROOT
ATOM      1  O1  BZF d   1       0.323  -1.030  -2.410  0.00  0.00    -0.204 OA
ATOM      2  C2  BZF d   1       0.096  -2.358  -2.713  0.00  0.00     0.174 A 
ATOM      3  C3  BZF d   1      -0.398  -3.015  -1.644  0.00  0.00    -0.012 A 
ATOM      4  C3A BZF d   1      -0.572  -2.016  -0.635  0.00  0.00    -0.107 A 
ATOM      5  C4  BZF d   1      -1.043  -2.047   0.646  0.00  0.00     0.055 A 
ATOM      6  C5  BZF d   1      -1.012  -0.909   1.389  0.00  0.00    -0.016 A 
ATOM      7  C6  BZF d   1      -0.514   0.274   0.884  0.00  0.00     0.022 A 
ATOM      8  C7  BZF d   1      -0.040   0.355  -0.383  0.00  0.00     0.029 A 
ATOM      9  C7A BZF d   1      -0.100  -0.785  -1.147  0.00  0.00     0.058 A 
ENDROOT
TORSDOF 0
ENDMDL
