MODEL 1
REMARK minimizedAffinity -3.18367147
REMARK minimizedRMSD -1
REMARK  0 active torsions:
REMARK  status: ('A' for Active; 'I' for Inactive)
ROOT
ATOM      1  O1  BZF d   1       0.925   1.795  -1.433  0.00  0.00    -0.204 OA
ATOM      2  C2  BZF d   1       0.921   2.887  -0.587  0.00  0.00     0.174 A 
ATOM      3  C3  BZF d   1       0.479   2.542   0.639  0.00  0.00    -0.012 A 
ATOM      4  C3A BZF d   1       0.276   1.127   0.581  0.00  0.00    -0.107 A 
ATOM      5  C4  BZF d   1      -0.142   0.200   1.492  0.00  0.00     0.055 A 
ATOM      6  C5  BZF d   1      -0.303  -1.090   1.097  0.00  0.00    -0.016 A 
ATOM      7  C6  BZF d   1      -0.061  -1.487  -0.202  0.00  0.00     0.022 A 
ATOM      8  C7  BZF d   1       0.360  -0.604  -1.141  0.00  0.00     0.029 A 
ATOM      9  C7A BZF d   1       0.555   0.694  -0.736  0.00  0.00     0.058 A 
ENDROOT
TORSDOF 0
ENDMDL
