MODEL 1
REMARK minimizedAffinity -3.59863663
REMARK minimizedRMSD -1
REMARK  0 active torsions:
REMARK  status: ('A' for Active; 'I' for Inactive)
ROOT
ATOM      1  O1  BZF d   1       0.105   0.610  -1.207  0.00  0.00    -0.204 OA
ATOM      2  C2  BZF d   1      -0.102   1.115   0.062  0.00  0.00     0.174 A 
ATOM      3  C3  BZF d   1      -0.557   0.153   0.891  0.00  0.00    -0.012 A 
ATOM      4  C3A BZF d   1      -0.552  -1.048   0.112  0.00  0.00    -0.107 A 
ATOM      5  C4  BZF d   1      -0.882  -2.345   0.384  0.00  0.00     0.055 A 
ATOM      6  C5  BZF d   1      -0.835  -3.263  -0.617  0.00  0.00    -0.016 A 
ATOM      7  C6  BZF d   1      -0.467  -2.918  -1.901  0.00  0.00     0.022 A 
ATOM      8  C7  BZF d   1      -0.126  -1.645  -2.218  0.00  0.00     0.029 A 
ATOM      9  C7A BZF d   1      -0.141  -0.722  -1.201  0.00  0.00     0.058 A 
ENDROOT
TORSDOF 0
ENDMDL
