MODEL 1
REMARK minimizedAffinity -1.6155014
REMARK minimizedRMSD -1
REMARK  0 active torsions:
REMARK  status: ('A' for Active; 'I' for Inactive)
ROOT
ATOM      1  O1  BZF d   1       0.206  -2.343  -0.863  0.00  0.00    -0.204 OA
ATOM      2  C2  BZF d   1      -0.504  -3.263  -0.116  0.00  0.00     0.174 A 
ATOM      3  C3  BZF d   1      -0.978  -2.697   1.013  0.00  0.00    -0.012 A 
ATOM      4  C3A BZF d   1      -0.615  -1.316   0.924  0.00  0.00    -0.107 A 
ATOM      5  C4  BZF d   1      -0.820  -0.237   1.735  0.00  0.00     0.055 A 
ATOM      6  C5  BZF d   1      -0.273   0.959   1.394  0.00  0.00    -0.016 A 
ATOM      7  C6  BZF d   1       0.488   1.111   0.253  0.00  0.00     0.022 A 
ATOM      8  C7  BZF d   1       0.714   0.071  -0.586  0.00  0.00     0.029 A 
ATOM      9  C7A BZF d   1       0.135  -1.132  -0.261  0.00  0.00     0.058 A 
ENDROOT
TORSDOF 0
ENDMDL
