MODEL 1
REMARK minimizedAffinity -3.17431474
REMARK minimizedRMSD -1
REMARK  0 active torsions:
REMARK  status: ('A' for Active; 'I' for Inactive)
ROOT
ATOM      1  O1  BZF d   1       0.295  -1.411  -2.551  0.00  0.00    -0.204 OA
ATOM      2  C2  BZF d   1      -0.136  -2.691  -2.843  0.00  0.00     0.174 A 
ATOM      3  C3  BZF d   1      -0.669  -3.277  -1.751  0.00  0.00    -0.012 A 
ATOM      4  C3A BZF d   1      -0.648  -2.270  -0.735  0.00  0.00    -0.107 A 
ATOM      5  C4  BZF d   1      -1.058  -2.242   0.567  0.00  0.00     0.055 A 
ATOM      6  C5  BZF d   1      -0.829  -1.125   1.307  0.00  0.00    -0.016 A 
ATOM      7  C6  BZF d   1      -0.189  -0.023   0.780  0.00  0.00     0.022 A 
ATOM      8  C7  BZF d   1       0.232  -0.002  -0.508  0.00  0.00     0.029 A 
ATOM      9  C7A BZF d   1      -0.028  -1.116  -1.268  0.00  0.00     0.058 A 
ENDROOT
TORSDOF 0
ENDMDL
