MODEL 1
REMARK minimizedAffinity -0.128957704
REMARK minimizedRMSD -1
REMARK  0 active torsions:
REMARK  status: ('A' for Active; 'I' for Inactive)
ROOT
ATOM      1  O1  BZF d   1       0.925   0.271  -0.529  0.00  0.00    -0.204 OA
ATOM      2  C2  BZF d   1      -0.415   0.006  -0.324  0.00  0.00     0.174 A 
ATOM      3  C3  BZF d   1      -1.003   1.011   0.358  0.00  0.00    -0.012 A 
ATOM      4  C3A BZF d   1       0.015   2.004   0.515  0.00  0.00    -0.107 A 
ATOM      5  C4  BZF d   1       0.039   3.240   1.095  0.00  0.00     0.055 A 
ATOM      6  C5  BZF d   1       1.211   3.925   1.143  0.00  0.00    -0.016 A 
ATOM      7  C6  BZF d   1       2.378   3.403   0.625  0.00  0.00     0.022 A 
ATOM      8  C7  BZF d   1       2.403   2.183   0.034  0.00  0.00     0.029 A 
ATOM      9  C7A BZF d   1       1.213   1.503  -0.044  0.00  0.00     0.058 A 
ENDROOT
TORSDOF 0
ENDMDL
