MODEL 1
REMARK minimizedAffinity 0.102045648
REMARK minimizedRMSD -1
REMARK  0 active torsions:
REMARK  status: ('A' for Active; 'I' for Inactive)
ROOT
ATOM      1  O1  BZF d   1       0.244  -1.755  -2.495  0.00  0.00    -0.204 OA
ATOM      2  C2  BZF d   1      -0.391  -2.982  -2.468  0.00  0.00     0.174 A 
ATOM      3  C3  BZF d   1      -0.949  -3.205  -1.260  0.00  0.00    -0.012 A 
ATOM      4  C3A BZF d   1      -0.723  -2.005  -0.514  0.00  0.00    -0.107 A 
ATOM      5  C4  BZF d   1      -1.056  -1.610   0.750  0.00  0.00     0.055 A 
ATOM      6  C5  BZF d   1      -0.622  -0.403   1.200  0.00  0.00    -0.016 A 
ATOM      7  C6  BZF d   1       0.150   0.430   0.416  0.00  0.00     0.022 A 
ATOM      8  C7  BZF d   1       0.501   0.082  -0.846  0.00  0.00     0.029 A 
ATOM      9  C7A BZF d   1       0.036  -1.122  -1.315  0.00  0.00     0.058 A 
ENDROOT
TORSDOF 0
ENDMDL
