MODEL 1
REMARK minimizedAffinity -2.4298985
REMARK minimizedRMSD -1
REMARK  0 active torsions:
REMARK  status: ('A' for Active; 'I' for Inactive)
ROOT
ATOM      1  O1  BZF d   1       0.057   0.601  -1.134  0.00  0.00    -0.204 OA
ATOM      2  C2  BZF d   1      -0.199   1.203   0.083  0.00  0.00     0.174 A 
ATOM      3  C3  BZF d   1      -0.652   0.301   0.977  0.00  0.00    -0.012 A 
ATOM      4  C3A BZF d   1      -0.594  -0.959   0.302  0.00  0.00    -0.107 A 
ATOM      5  C4  BZF d   1      -0.899  -2.238   0.673  0.00  0.00     0.055 A 
ATOM      6  C5  BZF d   1      -0.800  -3.234  -0.246  0.00  0.00    -0.016 A 
ATOM      7  C6  BZF d   1      -0.405  -2.986  -1.544  0.00  0.00     0.022 A 
ATOM      8  C7  BZF d   1      -0.087  -1.735  -1.958  0.00  0.00     0.029 A 
ATOM      9  C7A BZF d   1      -0.155  -0.732  -1.022  0.00  0.00     0.058 A 
ENDROOT
TORSDOF 0
ENDMDL
