MODEL 1
REMARK minimizedAffinity -4.14600039
REMARK minimizedRMSD -1
REMARK  0 active torsions:
REMARK  status: ('A' for Active; 'I' for Inactive)
ROOT
ATOM      1  O1  BZF d   1       0.109   0.767  -0.785  0.00  0.00    -0.204 OA
ATOM      2  C2  BZF d   1      -0.226   1.155   0.497  0.00  0.00     0.174 A 
ATOM      3  C3  BZF d   1      -0.690   0.108   1.209  0.00  0.00    -0.012 A 
ATOM      4  C3A BZF d   1      -0.555  -1.024   0.343  0.00  0.00    -0.107 A 
ATOM      5  C4  BZF d   1      -0.832  -2.353   0.487  0.00  0.00     0.055 A 
ATOM      6  C5  BZF d   1      -0.653  -3.183  -0.574  0.00  0.00    -0.016 A 
ATOM      7  C6  BZF d   1      -0.205  -2.717  -1.793  0.00  0.00     0.022 A 
ATOM      8  C7  BZF d   1       0.088  -1.408  -1.982  0.00  0.00     0.029 A 
ATOM      9  C7A BZF d   1      -0.060  -0.572  -0.902  0.00  0.00     0.058 A 
ENDROOT
TORSDOF 0
ENDMDL
