MODEL 1
REMARK minimizedAffinity -4.62952852
REMARK minimizedRMSD -1
REMARK  0 active torsions:
REMARK  status: ('A' for Active; 'I' for Inactive)
ROOT
ATOM      1  O1  BZF d   1       0.096  -1.537  -2.759  0.00  0.00    -0.204 OA
ATOM      2  C2  BZF d   1      -0.140  -2.890  -2.905  0.00  0.00     0.174 A 
ATOM      3  C3  BZF d   1      -0.546  -3.433  -1.739  0.00  0.00    -0.012 A 
ATOM      4  C3A BZF d   1      -0.654  -2.333  -0.829  0.00  0.00    -0.107 A 
ATOM      5  C4  BZF d   1      -1.028  -2.231   0.480  0.00  0.00     0.055 A 
ATOM      6  C5  BZF d   1      -0.954  -1.022   1.096  0.00  0.00    -0.016 A 
ATOM      7  C6  BZF d   1      -0.506   0.103   0.435  0.00  0.00     0.022 A 
ATOM      8  C7  BZF d   1      -0.129   0.052  -0.866  0.00  0.00     0.029 A 
ATOM      9  C7A BZF d   1      -0.234  -1.162  -1.500  0.00  0.00     0.058 A 
ENDROOT
TORSDOF 0
ENDMDL
