MODEL 1
REMARK minimizedAffinity -3.13389277
REMARK minimizedRMSD -1
REMARK  0 active torsions:
REMARK  status: ('A' for Active; 'I' for Inactive)
ROOT
ATOM      1  O1  BZF d   1       0.448   0.455  -1.545  0.00  0.00    -0.204 OA
ATOM      2  C2  BZF d   1       0.186   1.101  -0.353  0.00  0.00     0.174 A 
ATOM      3  C3  BZF d   1      -0.370   0.254   0.538  0.00  0.00    -0.012 A 
ATOM      4  C3A BZF d   1      -0.376  -1.022  -0.109  0.00  0.00    -0.107 A 
ATOM      5  C4  BZF d   1      -0.789  -2.266   0.272  0.00  0.00     0.055 A 
ATOM      6  C5  BZF d   1      -0.724  -3.287  -0.622  0.00  0.00    -0.016 A 
ATOM      7  C6  BZF d   1      -0.257  -3.098  -1.907  0.00  0.00     0.022 A 
ATOM      8  C7  BZF d   1       0.168  -1.883  -2.330  0.00  0.00     0.029 A 
ATOM      9  C7A BZF d   1       0.135  -0.857  -1.418  0.00  0.00     0.058 A 
ENDROOT
TORSDOF 0
ENDMDL
