MODEL 1
REMARK minimizedAffinity -3.21319675
REMARK minimizedRMSD -1
REMARK  0 active torsions:
REMARK  status: ('A' for Active; 'I' for Inactive)
ROOT
ATOM      1  O1  BZF d   1      -0.007  -1.215  -2.622  0.00  0.00    -0.204 OA
ATOM      2  C2  BZF d   1      -0.136  -2.542  -2.986  0.00  0.00     0.174 A 
ATOM      3  C3  BZF d   1      -0.348  -3.317  -1.902  0.00  0.00    -0.012 A 
ATOM      4  C3A BZF d   1      -0.443  -2.407  -0.802  0.00  0.00    -0.107 A 
ATOM      5  C4  BZF d   1      -0.663  -2.571   0.536  0.00  0.00     0.055 A 
ATOM      6  C5  BZF d   1      -0.623  -1.484   1.350  0.00  0.00    -0.016 A 
ATOM      7  C6  BZF d   1      -0.361  -0.221   0.862  0.00  0.00     0.022 A 
ATOM      8  C7  BZF d   1      -0.142  -0.007  -0.458  0.00  0.00     0.029 A 
ATOM      9  C7A BZF d   1      -0.214  -1.099  -1.288  0.00  0.00     0.058 A 
ENDROOT
TORSDOF 0
ENDMDL
