MODEL 1
REMARK minimizedAffinity -0.242940471
REMARK minimizedRMSD -1
REMARK  0 active torsions:
REMARK  status: ('A' for Active; 'I' for Inactive)
ROOT
ATOM      1  O1  BZF d   1      -1.186  -2.485   0.815  0.00  0.00    -0.204 OA
ATOM      2  C2  BZF d   1      -1.367  -1.690   1.931  0.00  0.00     0.174 A 
ATOM      3  C3  BZF d   1      -1.009  -0.416   1.674  0.00  0.00    -0.012 A 
ATOM      4  C3A BZF d   1      -0.663  -0.394   0.286  0.00  0.00    -0.107 A 
ATOM      5  C4  BZF d   1      -0.243   0.590  -0.562  0.00  0.00     0.055 A 
ATOM      6  C5  BZF d   1       0.080   0.266  -1.842  0.00  0.00    -0.016 A 
ATOM      7  C6  BZF d   1      -0.001  -1.031  -2.305  0.00  0.00     0.022 A 
ATOM      8  C7  BZF d   1      -0.418  -2.040  -1.503  0.00  0.00     0.029 A 
ATOM      9  C7A BZF d   1      -0.776  -1.711  -0.218  0.00  0.00     0.058 A 
ENDROOT
TORSDOF 0
ENDMDL
