MODEL 1
REMARK minimizedAffinity -4.38660812
REMARK minimizedRMSD -1
REMARK  0 active torsions:
REMARK  status: ('A' for Active; 'I' for Inactive)
ROOT
ATOM      1  N1  IND d   1       2.123  -0.866   1.400  0.00  0.00    -0.196 N 
ATOM      2  C2  IND d   1       1.912  -0.709   0.059  0.00  0.00     0.054 A 
ATOM      3  C3  IND d   1       0.673  -0.218  -0.168  0.00  0.00    -0.031 A 
ATOM      4  C4  IND d   1      -1.137   0.497   1.518  0.00  0.00     0.051 A 
ATOM      5  C5  IND d   1      -1.420   0.507   2.855  0.00  0.00    -0.031 A 
ATOM      6  C6  IND d   1      -0.517   0.054   3.795  0.00  0.00     0.015 A 
ATOM      7  C7  IND d   1       0.713  -0.419   3.431  0.00  0.00    -0.016 A 
ATOM      8  C8  IND d   1       1.001  -0.437   2.074  0.00  0.00    -0.047 A 
ATOM      9  C9  IND d   1       0.072  -0.018   1.113  0.00  0.00    -0.096 A 
ATOM     10  HN1 IND d   1       2.837  -1.180   1.762  0.00  0.00     0.298 HD
ENDROOT
TORSDOF 0
ENDMDL
