MODEL 1
REMARK minimizedAffinity 6.66436577
REMARK minimizedRMSD -1
REMARK  0 active torsions:
REMARK  status: ('A' for Active; 'I' for Inactive)
ROOT
ATOM      1  N1  IND d   1       0.911  -1.297   3.082  0.00  0.00    -0.196 N 
ATOM      2  C2  IND d   1       0.606  -0.902   4.355  0.00  0.00     0.054 A 
ATOM      3  C3  IND d   1      -0.510  -0.140   4.357  0.00  0.00    -0.031 A 
ATOM      4  C4  IND d   1      -2.054   0.503   2.400  0.00  0.00     0.051 A 
ATOM      5  C5  IND d   1      -2.168   0.408   1.041  0.00  0.00    -0.031 A 
ATOM      6  C6  IND d   1      -1.243  -0.276   0.278  0.00  0.00     0.015 A 
ATOM      7  C7  IND d   1      -0.172  -0.903   0.850  0.00  0.00    -0.016 A 
ATOM      8  C8  IND d   1      -0.050  -0.803   2.228  0.00  0.00    -0.047 A 
ATOM      9  C9  IND d   1      -0.962  -0.074   3.003  0.00  0.00    -0.096 A 
ATOM     10  HN1 IND d   1       1.590  -1.773   2.854  0.00  0.00     0.298 HD
ENDROOT
TORSDOF 0
ENDMDL
