MODEL 1
REMARK minimizedAffinity 9.14808369
REMARK minimizedRMSD -1
REMARK  0 active torsions:
REMARK  status: ('A' for Active; 'I' for Inactive)
ROOT
ATOM      1  N1  IND d   1      -0.168  -0.692   1.525  0.00  0.00    -0.196 N 
ATOM      2  C2  IND d   1       0.230  -0.961   0.245  0.00  0.00     0.054 A 
ATOM      3  C3  IND d   1      -0.759  -0.662  -0.628  0.00  0.00    -0.031 A 
ATOM      4  C4  IND d   1      -3.072   0.377  -0.184  0.00  0.00     0.051 A 
ATOM      5  C5  IND d   1      -3.903   0.764   0.830  0.00  0.00    -0.031 A 
ATOM      6  C6  IND d   1      -3.522   0.686   2.154  0.00  0.00     0.015 A 
ATOM      7  C7  IND d   1      -2.286   0.227   2.514  0.00  0.00    -0.016 A 
ATOM      8  C8  IND d   1      -1.443  -0.173   1.488  0.00  0.00    -0.047 A 
ATOM      9  C9  IND d   1      -1.840  -0.137   0.145  0.00  0.00    -0.096 A 
ATOM     10  HN1 IND d   1       0.300  -0.825   2.234  0.00  0.00     0.298 HD
ENDROOT
TORSDOF 0
ENDMDL
