MODEL 1
REMARK minimizedAffinity 1.9125824
REMARK minimizedRMSD -1
REMARK  0 active torsions:
REMARK  status: ('A' for Active; 'I' for Inactive)
ROOT
ATOM      1  N1  IND d   1       0.259  -0.667   0.567  0.00  0.00    -0.196 N 
ATOM      2  C2  IND d   1      -0.730  -0.307  -0.305  0.00  0.00     0.054 A 
ATOM      3  C3  IND d   1      -1.908  -0.181   0.345  0.00  0.00    -0.031 A 
ATOM      4  C4  IND d   1      -2.424  -0.419   2.856  0.00  0.00     0.051 A 
ATOM      5  C5  IND d   1      -1.850  -0.772   4.045  0.00  0.00    -0.031 A 
ATOM      6  C6  IND d   1      -0.516  -1.114   4.138  0.00  0.00     0.015 A 
ATOM      7  C7  IND d   1       0.299  -1.103   3.042  0.00  0.00    -0.016 A 
ATOM      8  C8  IND d   1      -0.282  -0.751   1.832  0.00  0.00    -0.047 A 
ATOM      9  C9  IND d   1      -1.644  -0.445   1.724  0.00  0.00    -0.096 A 
ATOM     10  HN1 IND d   1       1.080  -0.817   0.361  0.00  0.00     0.298 HD
ENDROOT
TORSDOF 0
ENDMDL
