MODEL 1
REMARK minimizedAffinity -0.166932568
REMARK minimizedRMSD -1
REMARK  0 active torsions:
REMARK  status: ('A' for Active; 'I' for Inactive)
ROOT
ATOM      1  N1  IND d   1       3.267   3.296   0.180  0.00  0.00    -0.196 N 
ATOM      2  C2  IND d   1       2.809   2.632   1.284  0.00  0.00     0.054 A 
ATOM      3  C3  IND d   1       2.884   1.296   1.093  0.00  0.00    -0.031 A 
ATOM      4  C4  IND d   1       3.819  -0.020  -0.913  0.00  0.00     0.051 A 
ATOM      5  C5  IND d   1       4.317   0.149  -2.174  0.00  0.00    -0.031 A 
ATOM      6  C6  IND d   1       4.496   1.401  -2.726  0.00  0.00     0.015 A 
ATOM      7  C7  IND d   1       4.194   2.537  -2.028  0.00  0.00    -0.016 A 
ATOM      8  C8  IND d   1       3.681   2.369  -0.750  0.00  0.00    -0.047 A 
ATOM      9  C9  IND d   1       3.457   1.099  -0.201  0.00  0.00    -0.096 A 
ATOM     10  HN1 IND d   1       3.291   4.150   0.083  0.00  0.00     0.298 HD
ENDROOT
TORSDOF 0
ENDMDL
