MODEL 1
REMARK minimizedAffinity 0.60710907
REMARK minimizedRMSD -1
REMARK  0 active torsions:
REMARK  status: ('A' for Active; 'I' for Inactive)
ROOT
ATOM      1  N1  IND d   1      -1.640  -0.419   3.111  0.00  0.00    -0.196 N 
ATOM      2  C2  IND d   1      -0.295  -0.186   3.186  0.00  0.00     0.054 A 
ATOM      3  C3  IND d   1       0.211   0.045   1.954  0.00  0.00    -0.031 A 
ATOM      4  C4  IND d   1      -1.001   0.190  -0.312  0.00  0.00     0.051 A 
ATOM      5  C5  IND d   1      -2.227   0.014  -0.892  0.00  0.00    -0.031 A 
ATOM      6  C6  IND d   1      -3.342  -0.320  -0.151  0.00  0.00     0.015 A 
ATOM      7  C7  IND d   1      -3.276  -0.479   1.204  0.00  0.00    -0.016 A 
ATOM      8  C8  IND d   1      -2.032  -0.308   1.795  0.00  0.00    -0.047 A 
ATOM      9  C9  IND d   1      -0.888  -0.011   1.043  0.00  0.00    -0.096 A 
ATOM     10  HN1 IND d   1      -2.155  -0.604   3.775  0.00  0.00     0.298 HD
ENDROOT
TORSDOF 0
ENDMDL
