MODEL 1
REMARK minimizedAffinity -1.19812131
REMARK minimizedRMSD -1
REMARK  0 active torsions:
REMARK  status: ('A' for Active; 'I' for Inactive)
ROOT
ATOM      1  N1  IND d   1       1.555  -1.250   1.079  0.00  0.00    -0.196 N 
ATOM      2  C2  IND d   1       1.449  -1.430  -0.272  0.00  0.00     0.054 A 
ATOM      3  C3  IND d   1       0.195  -1.140  -0.689  0.00  0.00    -0.031 A 
ATOM      4  C4  IND d   1      -1.812  -0.254   0.659  0.00  0.00     0.051 A 
ATOM      5  C5  IND d   1      -2.210   0.034   1.934  0.00  0.00    -0.031 A 
ATOM      6  C6  IND d   1      -1.356  -0.091   3.010  0.00  0.00     0.015 A 
ATOM      7  C7  IND d   1      -0.062  -0.500   2.850  0.00  0.00    -0.016 A 
ATOM      8  C8  IND d   1       0.344  -0.800   1.557  0.00  0.00    -0.047 A 
ATOM      9  C9  IND d   1      -0.531  -0.716   0.466  0.00  0.00    -0.096 A 
ATOM     10  HN1 IND d   1       2.259  -1.393   1.550  0.00  0.00     0.298 HD
ENDROOT
TORSDOF 0
ENDMDL
