MODEL 1
REMARK minimizedAffinity 0.250873804
REMARK minimizedRMSD -1
REMARK  0 active torsions:
REMARK  status: ('A' for Active; 'I' for Inactive)
ROOT
ATOM      1  N1  IND d   1      -0.545  -0.363  -0.589  0.00  0.00    -0.196 N 
ATOM      2  C2  IND d   1      -1.719   0.063  -1.146  0.00  0.00     0.054 A 
ATOM      3  C3  IND d   1      -2.607   0.388  -0.179  0.00  0.00    -0.031 A 
ATOM      4  C4  IND d   1      -2.311   0.394   2.378  0.00  0.00     0.051 A 
ATOM      5  C5  IND d   1      -1.426   0.050   3.361  0.00  0.00    -0.031 A 
ATOM      6  C6  IND d   1      -0.176  -0.457   3.072  0.00  0.00     0.015 A 
ATOM      7  C7  IND d   1       0.242  -0.629   1.782  0.00  0.00    -0.016 A 
ATOM      8  C8  IND d   1      -0.657  -0.287   0.782  0.00  0.00    -0.047 A 
ATOM      9  C9  IND d   1      -1.943   0.188   1.070  0.00  0.00    -0.096 A 
ATOM     10  HN1 IND d   1       0.147  -0.634  -1.023  0.00  0.00     0.298 HD
ENDROOT
TORSDOF 0
ENDMDL
