MODEL 1
REMARK minimizedAffinity 6.8886466
REMARK minimizedRMSD -1
REMARK  0 active torsions:
REMARK  status: ('A' for Active; 'I' for Inactive)
ROOT
ATOM      1  C4' PXY d   1       1.511  -0.902  -0.485  0.00  0.00     0.077 C 
ATOM      2  C1' PXY d   1      -3.219   0.167   2.661  0.00  0.00     0.077 C 
ATOM      3  C1  PXY d   1      -1.986  -0.116   1.826  0.00  0.00    -0.082 A 
ATOM      4  C2  PXY d   1      -0.859  -0.469   2.422  0.00  0.00     0.003 A 
ATOM      5  C3  PXY d   1       0.274  -0.697   1.684  0.00  0.00     0.003 A 
ATOM      6  C4  PXY d   1       0.239  -0.616   0.318  0.00  0.00    -0.082 A 
ATOM      7  C5  PXY d   1      -0.910  -0.267  -0.299  0.00  0.00     0.003 A 
ATOM      8  C6  PXY d   1      -2.038   0.001   0.471  0.00  0.00     0.003 A 
ENDROOT
TORSDOF 0
ENDMDL
