MODEL 1
REMARK minimizedAffinity 4.61229181
REMARK minimizedRMSD -1
REMARK  0 active torsions:
REMARK  status: ('A' for Active; 'I' for Inactive)
ROOT
ATOM      1  C4' PXY d   1      -3.706  -1.013   0.741  0.00  0.00     0.077 C 
ATOM      2  C1' PXY d   1       1.983  -0.287   0.016  0.00  0.00     0.077 C 
ATOM      3  C1  PXY d   1       0.489  -0.473   0.194  0.00  0.00    -0.082 A 
ATOM      4  C2  PXY d   1      -0.028  -0.488   1.412  0.00  0.00     0.003 A 
ATOM      5  C3  PXY d   1      -1.372  -0.687   1.592  0.00  0.00     0.003 A 
ATOM      6  C4  PXY d   1      -2.204  -0.819   0.513  0.00  0.00    -0.082 A 
ATOM      7  C5  PXY d   1      -1.686  -0.794  -0.733  0.00  0.00     0.003 A 
ATOM      8  C6  PXY d   1      -0.313  -0.632  -0.894  0.00  0.00     0.003 A 
ENDROOT
TORSDOF 0
ENDMDL
