MODEL 1
REMARK minimizedAffinity 1.43949318
REMARK minimizedRMSD -1
REMARK  0 active torsions:
REMARK  status: ('A' for Active; 'I' for Inactive)
ROOT
ATOM      1  C4' PXY d   1       5.655   5.998   1.851  0.00  0.00     0.077 C 
ATOM      2  C1' PXY d   1       0.574   5.980   4.607  0.00  0.00     0.077 C 
ATOM      3  C1  PXY d   1       1.901   5.980   3.874  0.00  0.00    -0.082 A 
ATOM      4  C2  PXY d   1       3.030   5.968   4.564  0.00  0.00     0.003 A 
ATOM      5  C3  PXY d   1       4.238   6.000   3.917  0.00  0.00     0.003 A 
ATOM      6  C4  PXY d   1       4.293   5.990   2.549  0.00  0.00    -0.082 A 
ATOM      7  C5  PXY d   1       3.145   5.991   1.838  0.00  0.00     0.003 A 
ATOM      8  C6  PXY d   1       1.928   6.000   2.514  0.00  0.00     0.003 A 
ENDROOT
TORSDOF 0
ENDMDL
