MODEL 1
REMARK minimizedAffinity 8.68024921
REMARK minimizedRMSD -1
REMARK  0 active torsions:
REMARK  status: ('A' for Active; 'I' for Inactive)
ROOT
ATOM      1  C4' PXY d   1       1.866  -0.111  -1.554  0.00  0.00     0.077 C 
ATOM      2  C1' PXY d   1      -1.345  -1.778   2.955  0.00  0.00     0.077 C 
ATOM      3  C1  PXY d   1      -0.493  -1.341   1.780  0.00  0.00    -0.082 A 
ATOM      4  C2  PXY d   1      -1.048  -0.675   0.781  0.00  0.00     0.003 A 
ATOM      5  C3  PXY d   1      -0.298  -0.300  -0.305  0.00  0.00     0.003 A 
ATOM      6  C4  PXY d   1       1.045  -0.564  -0.343  0.00  0.00    -0.082 A 
ATOM      7  C5  PXY d   1       1.621  -1.234   0.678  0.00  0.00     0.003 A 
ATOM      8  C6  PXY d   1       0.834  -1.641   1.751  0.00  0.00     0.003 A 
ENDROOT
TORSDOF 0
ENDMDL
