MODEL 1
REMARK minimizedAffinity -0.838865459
REMARK minimizedRMSD -1
REMARK  0 active torsions:
REMARK  status: ('A' for Active; 'I' for Inactive)
ROOT
ATOM      1  C4' PXY d   1       3.642   0.867  -1.298  0.00  0.00     0.077 C 
ATOM      2  C1' PXY d   1      -1.376  -0.316   1.316  0.00  0.00     0.077 C 
ATOM      3  C1  PXY d   1      -0.056  -0.018   0.632  0.00  0.00    -0.082 A 
ATOM      4  C2  PXY d   1       0.383   1.229   0.573  0.00  0.00     0.003 A 
ATOM      5  C3  PXY d   1       1.559   1.521  -0.069  0.00  0.00     0.003 A 
ATOM      6  C4  PXY d   1       2.319   0.519  -0.610  0.00  0.00    -0.082 A 
ATOM      7  C5  PXY d   1       1.883  -0.757  -0.545  0.00  0.00     0.003 A 
ATOM      8  C6  PXY d   1       0.667  -1.027   0.076  0.00  0.00     0.003 A 
ENDROOT
TORSDOF 0
ENDMDL
