MODEL 1
REMARK minimizedAffinity -0.683018506
REMARK minimizedRMSD -1
REMARK  0 active torsions:
REMARK  status: ('A' for Active; 'I' for Inactive)
ROOT
ATOM      1  C4' PXY d   1      -3.341  -0.183   1.938  0.00  0.00     0.077 C 
ATOM      2  C1' PXY d   1       2.037  -1.197   0.078  0.00  0.00     0.077 C 
ATOM      3  C1  PXY d   1       0.625  -0.923   0.555  0.00  0.00    -0.082 A 
ATOM      4  C2  PXY d   1       0.335  -1.037   1.841  0.00  0.00     0.003 A 
ATOM      5  C3  PXY d   1      -0.944  -0.824   2.286  0.00  0.00     0.003 A 
ATOM      6  C4  PXY d   1      -1.926  -0.440   1.412  0.00  0.00    -0.082 A 
ATOM      7  C5  PXY d   1      -1.637  -0.311   0.100  0.00  0.00     0.003 A 
ATOM      8  C6  PXY d   1      -0.341  -0.572  -0.337  0.00  0.00     0.003 A 
ENDROOT
TORSDOF 0
ENDMDL
