MODEL 1
REMARK minimizedAffinity 12.4778452
REMARK minimizedRMSD -1
REMARK  3 active torsions:
REMARK  status: ('A' for Active; 'I' for Inactive)
REMARK    1  A    between atoms: C3'_2  and  C2'_3 
REMARK    2  A    between atoms: C2'_3  and  C1'_4 
REMARK    3  A    between atoms: C1'_4  and  C1_5 
ROOT
ATOM      1  C1  N4B d   1      -1.518  -0.600  -0.214  0.00  0.00    -0.075 A 
ATOM      2  C2  N4B d   1      -1.999  -1.922  -0.336  0.00  0.00     0.002 A 
ATOM      3  C3  N4B d   1      -2.738  -2.285  -1.435  0.00  0.00     0.002 A 
ATOM      4  C4  N4B d   1      -3.025  -1.342  -2.411  0.00  0.00    -0.004 A 
ATOM      5  C5  N4B d   1      -2.535  -0.073  -2.298  0.00  0.00     0.002 A 
ATOM      6  C6  N4B d   1      -1.787   0.304  -1.201  0.00  0.00     0.002 A 
ENDROOT
BRANCH   1   7
ATOM      7  C1' N4B d   1      -0.778  -0.134   1.010  0.00  0.00     0.057 C 
BRANCH   7   8
ATOM      8  C2' N4B d   1       0.606  -0.776   1.034  0.00  0.00     0.009 C 
BRANCH   8   9
ATOM      9  C3' N4B d   1       1.493  -0.176   2.111  0.00  0.00     0.004 C 
ATOM     10  C4' N4B d   1       2.289  -1.209   2.850  0.00  0.00     0.003 C 
ENDBRANCH   8   9
ENDBRANCH   7   8
ENDBRANCH   1   7
TORSDOF 3
ENDMDL
