MODEL 1
REMARK minimizedAffinity 4.10325241
REMARK minimizedRMSD -1
REMARK  3 active torsions:
REMARK  status: ('A' for Active; 'I' for Inactive)
REMARK    1  A    between atoms: C3'_2  and  C2'_3 
REMARK    2  A    between atoms: C2'_3  and  C1'_4 
REMARK    3  A    between atoms: C1'_4  and  C1_5 
ROOT
ATOM      1  C1  N4B d   1       2.362  -1.640   3.766  0.00  0.00    -0.075 A 
ATOM      2  C2  N4B d   1       3.767  -1.596   3.635  0.00  0.00     0.002 A 
ATOM      3  C3  N4B d   1       4.567  -1.959   4.691  0.00  0.00     0.002 A 
ATOM      4  C4  N4B d   1       3.986  -2.350   5.889  0.00  0.00    -0.004 A 
ATOM      5  C5  N4B d   1       2.628  -2.414   5.998  0.00  0.00     0.002 A 
ATOM      6  C6  N4B d   1       1.812  -2.056   4.944  0.00  0.00     0.002 A 
ENDROOT
BRANCH   1   7
ATOM      7  C1' N4B d   1       1.447  -1.171   2.668  0.00  0.00     0.057 C 
BRANCH   7   8
ATOM      8  C2' N4B d   1       2.192  -0.170   1.789  0.00  0.00     0.009 C 
BRANCH   8   9
ATOM      9  C3' N4B d   1       2.015   1.257   2.279  0.00  0.00     0.004 C 
ATOM     10  C4' N4B d   1       2.836   2.244   1.502  0.00  0.00     0.003 C 
ENDBRANCH   8   9
ENDBRANCH   7   8
ENDBRANCH   1   7
TORSDOF 3
ENDMDL
