MODEL 1
REMARK minimizedAffinity 0.73333931
REMARK minimizedRMSD -1
REMARK  1 active torsions:
REMARK  status: ('A' for Active; 'I' for Inactive)
REMARK    1  A    between atoms: C1_2  and  C2_3 
ROOT
ATOM      1  C2  UNL d   1      -2.063  -5.429  -3.306  0.00  0.00    -0.077 A 
ATOM      2  C3  UNL d   1      -1.888  -6.000  -4.575  0.00  0.00     0.002 A 
ATOM      3  C4  UNL d   1      -0.632  -5.994  -5.185  0.00  0.00     0.002 A 
ATOM      4  C5  UNL d   1       0.458  -5.424  -4.532  0.00  0.00    -0.004 A 
ATOM      5  C6  UNL d   1       0.294  -4.852  -3.271  0.00  0.00     0.002 A 
ATOM      6  C7  UNL d   1      -0.961  -4.855  -2.661  0.00  0.00     0.002 A 
ENDROOT
BRANCH   1   7
ATOM      7  C1  UNL d   1      -3.406  -5.478  -2.626  0.00  0.00     0.055 C 
ATOM      8  C   UNL d   1      -3.259  -5.673  -1.124  0.00  0.00     0.019 C 
ENDBRANCH   1   7
TORSDOF 1
ENDMDL
