MODEL 1
REMARK minimizedAffinity 5.72907686
REMARK minimizedRMSD -1
REMARK  1 active torsions:
REMARK  status: ('A' for Active; 'I' for Inactive)
REMARK    1  A    between atoms: C1_2  and  C2_3 
ROOT
ATOM      1  C2  UNL d   1      -0.490  -0.481   1.399  0.00  0.00    -0.077 A 
ATOM      2  C3  UNL d   1       0.103  -1.312   2.361  0.00  0.00     0.002 A 
ATOM      3  C4  UNL d   1       1.486  -1.507   2.370  0.00  0.00     0.002 A 
ATOM      4  C5  UNL d   1       2.287  -0.871   1.424  0.00  0.00    -0.004 A 
ATOM      5  C6  UNL d   1       1.707  -0.044   0.463  0.00  0.00     0.002 A 
ATOM      6  C7  UNL d   1       0.325   0.151   0.451  0.00  0.00     0.002 A 
ENDROOT
BRANCH   1   7
ATOM      7  C1  UNL d   1      -1.975  -0.231   1.418  0.00  0.00     0.055 C 
ATOM      8  C   UNL d   1      -2.547  -0.191   0.009  0.00  0.00     0.019 C 
ENDBRANCH   1   7
TORSDOF 1
ENDMDL
