MODEL 1
REMARK minimizedAffinity 1.45097041
REMARK minimizedRMSD -1
REMARK  1 active torsions:
REMARK  status: ('A' for Active; 'I' for Inactive)
REMARK    1  A    between atoms: C1_2  and  C2_3 
ROOT
ATOM      1  C2  UNL d   1       1.813  -0.976   1.567  0.00  0.00    -0.077 A 
ATOM      2  C3  UNL d   1       0.592  -0.378   1.223  0.00  0.00     0.002 A 
ATOM      3  C4  UNL d   1       0.547   0.634   0.262  0.00  0.00     0.002 A 
ATOM      4  C5  UNL d   1       1.718   1.053  -0.366  0.00  0.00    -0.004 A 
ATOM      5  C6  UNL d   1       2.937   0.467  -0.029  0.00  0.00     0.002 A 
ATOM      6  C7  UNL d   1       2.984  -0.544   0.932  0.00  0.00     0.002 A 
ENDROOT
BRANCH   1   7
ATOM      7  C1  UNL d   1       1.857  -2.101   2.567  0.00  0.00     0.055 C 
ATOM      8  C   UNL d   1       1.385  -1.641   3.939  0.00  0.00     0.019 C 
ENDBRANCH   1   7
TORSDOF 1
ENDMDL
