MODEL 1
REMARK minimizedAffinity -0.426686168
REMARK minimizedRMSD -1
REMARK  1 active torsions:
REMARK  status: ('A' for Active; 'I' for Inactive)
REMARK    1  A    between atoms: C1_2  and  C2_3 
ROOT
ATOM      1  C2  UNL d   1      -0.154  -5.987  -4.256  0.00  0.00    -0.077 A 
ATOM      2  C3  UNL d   1      -1.499  -5.974  -4.652  0.00  0.00     0.002 A 
ATOM      3  C4  UNL d   1      -2.517  -5.975  -3.697  0.00  0.00     0.002 A 
ATOM      4  C5  UNL d   1      -2.201  -5.985  -2.340  0.00  0.00    -0.004 A 
ATOM      5  C6  UNL d   1      -0.866  -6.000  -1.936  0.00  0.00     0.002 A 
ATOM      6  C7  UNL d   1       0.152  -6.000  -2.889  0.00  0.00     0.002 A 
ENDROOT
BRANCH   1   7
ATOM      7  C1  UNL d   1       0.945  -5.936  -5.285  0.00  0.00     0.055 C 
ATOM      8  C   UNL d   1       2.105  -5.072  -4.813  0.00  0.00     0.019 C 
ENDBRANCH   1   7
TORSDOF 1
ENDMDL
