MODEL 1
REMARK minimizedAffinity 2.76705194
REMARK minimizedRMSD -1
REMARK  1 active torsions:
REMARK  status: ('A' for Active; 'I' for Inactive)
REMARK    1  A    between atoms: C1_2  and  C2_3 
ROOT
ATOM      1  C2  UNL d   1       1.075  -0.524   0.953  0.00  0.00    -0.077 A 
ATOM      2  C3  UNL d   1       0.646  -1.850   0.798  0.00  0.00     0.002 A 
ATOM      3  C4  UNL d   1       0.901  -2.795   1.793  0.00  0.00     0.002 A 
ATOM      4  C5  UNL d   1       1.581  -2.424   2.951  0.00  0.00    -0.004 A 
ATOM      5  C6  UNL d   1       2.014  -1.109   3.113  0.00  0.00     0.002 A 
ATOM      6  C7  UNL d   1       1.761  -0.163   2.119  0.00  0.00     0.002 A 
ENDROOT
BRANCH   1   7
ATOM      7  C1  UNL d   1       0.759   0.508  -0.098  0.00  0.00     0.055 C 
ATOM      8  C   UNL d   1       0.958   1.920   0.436  0.00  0.00     0.019 C 
ENDBRANCH   1   7
TORSDOF 1
ENDMDL
