MODEL 1
REMARK minimizedAffinity 2.93481898
REMARK minimizedRMSD -1
REMARK  1 active torsions:
REMARK  status: ('A' for Active; 'I' for Inactive)
REMARK    1  A    between atoms: C1_2  and  C2_3 
ROOT
ATOM      1  C2  UNL d   1      -4.194  -0.865  -0.200  0.00  0.00    -0.077 A 
ATOM      2  C3  UNL d   1      -4.515  -1.564  -1.372  0.00  0.00     0.002 A 
ATOM      3  C4  UNL d   1      -5.416  -1.023  -2.292  0.00  0.00     0.002 A 
ATOM      4  C5  UNL d   1      -5.998   0.219  -2.052  0.00  0.00    -0.004 A 
ATOM      5  C6  UNL d   1      -5.687   0.921  -0.888  0.00  0.00     0.002 A 
ATOM      6  C7  UNL d   1      -4.788   0.382   0.033  0.00  0.00     0.002 A 
ENDROOT
BRANCH   1   7
ATOM      7  C1  UNL d   1      -3.185  -1.423   0.770  0.00  0.00     0.055 C 
ATOM      8  C   UNL d   1      -1.773  -0.979   0.418  0.00  0.00     0.019 C 
ENDBRANCH   1   7
TORSDOF 1
ENDMDL
