MODEL 1
REMARK minimizedAffinity 3.82929301
REMARK minimizedRMSD -1
REMARK  1 active torsions:
REMARK  status: ('A' for Active; 'I' for Inactive)
REMARK    1  A    between atoms: C1_2  and  C2_3 
ROOT
ATOM      1  C2  UNL d   1       1.005  -5.726  -4.796  0.00  0.00    -0.077 A 
ATOM      2  C3  UNL d   1       0.238  -5.740  -5.970  0.00  0.00     0.002 A 
ATOM      3  C4  UNL d   1      -1.150  -5.874  -5.904  0.00  0.00     0.002 A 
ATOM      4  C5  UNL d   1      -1.783  -5.991  -4.668  0.00  0.00    -0.004 A 
ATOM      5  C6  UNL d   1      -1.029  -5.980  -3.496  0.00  0.00     0.002 A 
ATOM      6  C7  UNL d   1       0.359  -5.848  -3.559  0.00  0.00     0.002 A 
ENDROOT
BRANCH   1   7
ATOM      7  C1  UNL d   1       2.498  -5.532  -4.862  0.00  0.00     0.055 C 
ATOM      8  C   UNL d   1       3.165  -5.923  -3.552  0.00  0.00     0.019 C 
ENDBRANCH   1   7
TORSDOF 1
ENDMDL
