MODEL 1
REMARK minimizedAffinity 2.6609273
REMARK minimizedRMSD -1
REMARK  1 active torsions:
REMARK  status: ('A' for Active; 'I' for Inactive)
REMARK    1  A    between atoms: C1_2  and  C2_3 
ROOT
ATOM      1  C2  UNL d   1      -2.583   1.124   0.300  0.00  0.00    -0.077 A 
ATOM      2  C3  UNL d   1      -3.578   0.255   0.770  0.00  0.00     0.002 A 
ATOM      3  C4  UNL d   1      -4.679  -0.056  -0.030  0.00  0.00     0.002 A 
ATOM      4  C5  UNL d   1      -4.793   0.493  -1.305  0.00  0.00    -0.004 A 
ATOM      5  C6  UNL d   1      -3.810   1.359  -1.781  0.00  0.00     0.002 A 
ATOM      6  C7  UNL d   1      -2.709   1.672  -0.982  0.00  0.00     0.002 A 
ENDROOT
BRANCH   1   7
ATOM      7  C1  UNL d   1      -1.370   1.422   1.142  0.00  0.00     0.055 C 
ATOM      8  C   UNL d   1      -0.109   0.836   0.523  0.00  0.00     0.019 C 
ENDBRANCH   1   7
TORSDOF 1
ENDMDL
