MODEL 1
REMARK minimizedAffinity 2.56256437
REMARK minimizedRMSD -1
REMARK  1 active torsions:
REMARK  status: ('A' for Active; 'I' for Inactive)
REMARK    1  A    between atoms: C1_2  and  C2_3 
ROOT
ATOM      1  C2  UNL d   1      -1.292  -0.292   0.419  0.00  0.00    -0.077 A 
ATOM      2  C3  UNL d   1      -1.055  -1.665   0.575  0.00  0.00     0.002 A 
ATOM      3  C4  UNL d   1       0.241  -2.138   0.791  0.00  0.00     0.002 A 
ATOM      4  C5  UNL d   1       1.309  -1.245   0.858  0.00  0.00    -0.004 A 
ATOM      5  C6  UNL d   1       1.083   0.123   0.702  0.00  0.00     0.002 A 
ATOM      6  C7  UNL d   1      -0.211   0.597   0.484  0.00  0.00     0.002 A 
ENDROOT
BRANCH   1   7
ATOM      7  C1  UNL d   1      -2.695   0.225   0.235  0.00  0.00     0.055 C 
ATOM      8  C   UNL d   1      -3.123   0.155  -1.224  0.00  0.00     0.019 C 
ENDBRANCH   1   7
TORSDOF 1
ENDMDL
