MODEL 1
REMARK minimizedAffinity 3.25763798
REMARK minimizedRMSD -1
REMARK  1 active torsions:
REMARK  status: ('A' for Active; 'I' for Inactive)
REMARK    1  A    between atoms: C1_2  and  C2_3 
ROOT
ATOM      1  C2  UNL d   1      -0.242  -5.953  -5.190  0.00  0.00    -0.077 A 
ATOM      2  C3  UNL d   1       1.007  -5.958  -5.827  0.00  0.00     0.002 A 
ATOM      3  C4  UNL d   1       2.183  -5.975  -5.075  0.00  0.00     0.002 A 
ATOM      4  C5  UNL d   1       2.122  -5.991  -3.683  0.00  0.00    -0.004 A 
ATOM      5  C6  UNL d   1       0.885  -5.985  -3.040  0.00  0.00     0.002 A 
ATOM      6  C7  UNL d   1      -0.292  -5.966  -3.790  0.00  0.00     0.002 A 
ENDROOT
BRANCH   1   7
ATOM      7  C1  UNL d   1      -1.512  -5.984  -5.999  0.00  0.00     0.055 C 
ATOM      8  C   UNL d   1      -2.736  -5.793  -5.116  0.00  0.00     0.019 C 
ENDBRANCH   1   7
TORSDOF 1
ENDMDL
