MODEL 1
REMARK minimizedAffinity -0.671736896
REMARK minimizedRMSD -1
REMARK  1 active torsions:
REMARK  status: ('A' for Active; 'I' for Inactive)
REMARK    1  A    between atoms: C1_2  and  C2_3 
ROOT
ATOM      1  C2  UNL d   1      -2.390  -5.947  -3.009  0.00  0.00    -0.077 A 
ATOM      2  C3  UNL d   1      -1.223  -5.999  -2.234  0.00  0.00     0.002 A 
ATOM      3  C4  UNL d   1       0.033  -5.955  -2.844  0.00  0.00     0.002 A 
ATOM      4  C5  UNL d   1       0.133  -5.855  -4.230  0.00  0.00    -0.004 A 
ATOM      5  C6  UNL d   1      -1.022  -5.804  -5.010  0.00  0.00     0.002 A 
ATOM      6  C7  UNL d   1      -2.278  -5.849  -4.402  0.00  0.00     0.002 A 
ENDROOT
BRANCH   1   7
ATOM      7  C1  UNL d   1      -3.744  -5.944  -2.350  0.00  0.00     0.055 C 
ATOM      8  C   UNL d   1      -4.862  -6.000  -3.382  0.00  0.00     0.019 C 
ENDBRANCH   1   7
TORSDOF 1
ENDMDL
