MODEL 1
REMARK minimizedAffinity 3.55304599
REMARK minimizedRMSD -1
REMARK  1 active torsions:
REMARK  status: ('A' for Active; 'I' for Inactive)
REMARK    1  A    between atoms: C1_2  and  C2_3 
ROOT
ATOM      1  C2  UNL d   1      -3.588  -0.752  -0.388  0.00  0.00    -0.077 A 
ATOM      2  C3  UNL d   1      -4.250   0.367   0.137  0.00  0.00     0.002 A 
ATOM      3  C4  UNL d   1      -5.274   0.985  -0.584  0.00  0.00     0.002 A 
ATOM      4  C5  UNL d   1      -5.648   0.488  -1.831  0.00  0.00    -0.004 A 
ATOM      5  C6  UNL d   1      -4.994  -0.623  -2.362  0.00  0.00     0.002 A 
ATOM      6  C7  UNL d   1      -3.970  -1.241  -1.643  0.00  0.00     0.002 A 
ENDROOT
BRANCH   1   7
ATOM      7  C1  UNL d   1      -2.517  -1.449   0.410  0.00  0.00     0.055 C 
ATOM      8  C   UNL d   1      -2.957  -2.845   0.825  0.00  0.00     0.019 C 
ENDBRANCH   1   7
TORSDOF 1
ENDMDL
