MODEL 1
REMARK minimizedAffinity -4.25140333
REMARK minimizedRMSD -1
REMARK  0 active torsions:
REMARK  status: ('A' for Active; 'I' for Inactive)
ROOT
ATOM      1  C   UNL d   1       3.054  -1.397   1.389  0.00  0.00     0.023 A 
ATOM      2  C1  UNL d   1       1.834  -1.869   1.875  0.00  0.00     0.003 A 
ATOM      3  C2  UNL d   1       0.640  -1.482   1.262  0.00  0.00     0.048 A 
ATOM      4  C3  UNL d   1       0.673  -0.624   0.163  0.00  0.00     0.023 A 
ATOM      5  C4  UNL d   1       1.891  -0.150  -0.327  0.00  0.00     0.048 A 
ATOM      6  C5  UNL d   1       3.082  -0.539   0.289  0.00  0.00     0.003 A 
ATOM      7  I   UNL d   1      -1.102  -0.047  -0.750  0.00  0.00    -0.146 I 
ENDROOT
TORSDOF 0
ENDMDL
