MODEL 1
REMARK minimizedAffinity -2.6375351
REMARK minimizedRMSD -1
REMARK  0 active torsions:
REMARK  status: ('A' for Active; 'I' for Inactive)
ROOT
ATOM      1  C   UNL d   1       2.964   0.905   0.398  0.00  0.00     0.023 A 
ATOM      2  C1  UNL d   1       2.084   1.164  -0.653  0.00  0.00     0.003 A 
ATOM      3  C2  UNL d   1       0.778   0.669  -0.610  0.00  0.00     0.048 A 
ATOM      4  C3  UNL d   1       0.359  -0.082   0.487  0.00  0.00     0.023 A 
ATOM      5  C4  UNL d   1       1.236  -0.342   1.542  0.00  0.00     0.048 A 
ATOM      6  C5  UNL d   1       2.540   0.153   1.494  0.00  0.00     0.003 A 
ATOM      7  I   UNL d   1      -1.583  -0.818   0.553  0.00  0.00    -0.146 I 
ENDROOT
TORSDOF 0
ENDMDL
