MODEL 1
REMARK minimizedAffinity -3.37799644
REMARK minimizedRMSD -1
REMARK  0 active torsions:
REMARK  status: ('A' for Active; 'I' for Inactive)
ROOT
ATOM      1  C   UNL d   1       2.281  -0.802   2.397  0.00  0.00     0.023 A 
ATOM      2  C1  UNL d   1       2.272   0.340   1.595  0.00  0.00     0.003 A 
ATOM      3  C2  UNL d   1       1.235   0.546   0.683  0.00  0.00     0.048 A 
ATOM      4  C3  UNL d   1       0.209  -0.393   0.579  0.00  0.00     0.023 A 
ATOM      5  C4  UNL d   1       0.214  -1.537   1.379  0.00  0.00     0.048 A 
ATOM      6  C5  UNL d   1       1.254  -1.739   2.289  0.00  0.00     0.003 A 
ATOM      7  I   UNL d   1      -1.336  -0.089  -0.778  0.00  0.00    -0.146 I 
ENDROOT
TORSDOF 0
ENDMDL
