MODEL 1
REMARK minimizedAffinity -4.90069294
REMARK minimizedRMSD -1
REMARK  0 active torsions:
REMARK  status: ('A' for Active; 'I' for Inactive)
ROOT
ATOM      1  C   UNL d   1       2.987   0.078   1.536  0.00  0.00     0.023 A 
ATOM      2  C1  UNL d   1       2.369  -1.161   1.367  0.00  0.00     0.003 A 
ATOM      3  C2  UNL d   1       1.140  -1.246   0.709  0.00  0.00     0.048 A 
ATOM      4  C3  UNL d   1       0.536  -0.088   0.220  0.00  0.00     0.023 A 
ATOM      5  C4  UNL d   1       1.152   1.154   0.386  0.00  0.00     0.048 A 
ATOM      6  C5  UNL d   1       2.379   1.234   1.046  0.00  0.00     0.003 A 
ATOM      7  I   UNL d   1      -1.292  -0.212  -0.760  0.00  0.00    -0.146 I 
ENDROOT
TORSDOF 0
ENDMDL
