MODEL 1
REMARK minimizedAffinity -3.82288599
REMARK minimizedRMSD -1
REMARK  0 active torsions:
REMARK  status: ('A' for Active; 'I' for Inactive)
ROOT
ATOM      1  C   UNL d   1       3.083  -0.189   0.551  0.00  0.00     0.023 A 
ATOM      2  C1  UNL d   1       2.213   0.754   1.098  0.00  0.00     0.003 A 
ATOM      3  C2  UNL d   1       0.924   0.900   0.581  0.00  0.00     0.048 A 
ATOM      4  C3  UNL d   1       0.511   0.099  -0.483  0.00  0.00     0.023 A 
ATOM      5  C4  UNL d   1       1.377  -0.848  -1.033  0.00  0.00     0.048 A 
ATOM      6  C5  UNL d   1       2.665  -0.989  -0.513  0.00  0.00     0.003 A 
ATOM      7  I   UNL d   1      -1.407   0.314  -1.253  0.00  0.00    -0.146 I 
ENDROOT
TORSDOF 0
ENDMDL
