MODEL 1
REMARK minimizedAffinity -3.42709565
REMARK minimizedRMSD -1
REMARK  0 active torsions:
REMARK  status: ('A' for Active; 'I' for Inactive)
ROOT
ATOM      1  C   UNL d   1       2.491   0.232   0.871  0.00  0.00     0.023 A 
ATOM      2  C1  UNL d   1       1.575  -0.811   1.010  0.00  0.00     0.003 A 
ATOM      3  C2  UNL d   1       0.315  -0.719   0.417  0.00  0.00     0.048 A 
ATOM      4  C3  UNL d   1      -0.024   0.418  -0.315  0.00  0.00     0.023 A 
ATOM      5  C4  UNL d   1       0.889   1.464  -0.458  0.00  0.00     0.048 A 
ATOM      6  C5  UNL d   1       2.148   1.368   0.138  0.00  0.00     0.003 A 
ATOM      7  I   UNL d   1      -1.900   0.557  -1.199  0.00  0.00    -0.146 I 
ENDROOT
TORSDOF 0
ENDMDL
