MODEL 1
REMARK minimizedAffinity -3.46657825
REMARK minimizedRMSD -1
REMARK  0 active torsions:
REMARK  status: ('A' for Active; 'I' for Inactive)
ROOT
ATOM      1  C   UNL d   1       2.276  -1.080   1.918  0.00  0.00     0.023 A 
ATOM      2  C1  UNL d   1       2.460  -0.057   0.987  0.00  0.00     0.003 A 
ATOM      3  C2  UNL d   1       1.409   0.324   0.150  0.00  0.00     0.048 A 
ATOM      4  C3  UNL d   1       0.177  -0.320   0.250  0.00  0.00     0.023 A 
ATOM      5  C4  UNL d   1      -0.012  -1.343   1.181  0.00  0.00     0.048 A 
ATOM      6  C5  UNL d   1       1.042  -1.722   2.015  0.00  0.00     0.003 A 
ATOM      7  I   UNL d   1      -1.389   0.246  -0.994  0.00  0.00    -0.146 I 
ENDROOT
TORSDOF 0
ENDMDL
