MODEL 1
REMARK minimizedAffinity -3.87819862
REMARK minimizedRMSD -1
REMARK  0 active torsions:
REMARK  status: ('A' for Active; 'I' for Inactive)
ROOT
ATOM      1  C   UNL d   1       3.131  -0.096   1.428  0.00  0.00     0.023 A 
ATOM      2  C1  UNL d   1       2.565  -1.278   0.948  0.00  0.00     0.003 A 
ATOM      3  C2  UNL d   1       1.265  -1.275   0.440  0.00  0.00     0.048 A 
ATOM      4  C3  UNL d   1       0.536  -0.087   0.413  0.00  0.00     0.023 A 
ATOM      5  C4  UNL d   1       1.098   1.098   0.891  0.00  0.00     0.048 A 
ATOM      6  C5  UNL d   1       2.398   1.090   1.399  0.00  0.00     0.003 A 
ATOM      7  I   UNL d   1      -1.400  -0.080  -0.344  0.00  0.00    -0.146 I 
ENDROOT
TORSDOF 0
ENDMDL
