MODEL 1
REMARK minimizedAffinity -0.470016003
REMARK minimizedRMSD -1
REMARK  0 active torsions:
REMARK  status: ('A' for Active; 'I' for Inactive)
ROOT
ATOM      1  C   UNL d   1       0.805   1.706  -0.420  0.00  0.00     0.023 A 
ATOM      2  C1  UNL d   1      -0.238   0.803  -0.214  0.00  0.00     0.003 A 
ATOM      3  C2  UNL d   1      -0.069  -0.272   0.662  0.00  0.00     0.048 A 
ATOM      4  C3  UNL d   1       1.144  -0.437   1.329  0.00  0.00     0.023 A 
ATOM      5  C4  UNL d   1       2.190   0.465   1.126  0.00  0.00     0.048 A 
ATOM      6  C5  UNL d   1       2.017   1.538   0.249  0.00  0.00     0.003 A 
ATOM      7  I   UNL d   1       1.397  -2.036   2.632  0.00  0.00    -0.146 I 
ENDROOT
TORSDOF 0
ENDMDL
