MODEL 1
REMARK minimizedAffinity -1.98791909
REMARK minimizedRMSD -1
REMARK  0 active torsions:
REMARK  status: ('A' for Active; 'I' for Inactive)
ROOT
ATOM      1  C   UNL d   1       1.590  -0.660   2.923  0.00  0.00    -0.002 A 
ATOM      2  C1  UNL d   1       2.164   0.533   2.506  0.00  0.00     0.010 A 
ATOM      3  C2  UNL d   1       1.710   1.174   1.351  0.00  0.00     0.041 A 
ATOM      4  C3  UNL d   1       0.659   0.591   0.617  0.00  0.00    -0.075 A 
ATOM      5  S   UNL d   1      -0.061   1.197  -0.828  0.00  0.00     0.015 SA
ATOM      6  C4  UNL d   1      -1.147  -0.113  -0.925  0.00  0.00     0.022 A 
ATOM      7  C5  UNL d   1      -0.978  -1.001   0.111  0.00  0.00     0.026 A 
ATOM      8  C6  UNL d   1       0.065  -0.610   1.017  0.00  0.00    -0.082 A 
ATOM      9  C7  UNL d   1       0.548  -1.235   2.191  0.00  0.00     0.045 A 
ENDROOT
TORSDOF 0
ENDMDL
