MODEL 1
REMARK minimizedAffinity -3.1305809
REMARK minimizedRMSD -1
REMARK  0 active torsions:
REMARK  status: ('A' for Active; 'I' for Inactive)
ROOT
ATOM      1  C   UNL d   1      -0.304  -0.673   2.768  0.00  0.00    -0.002 A 
ATOM      2  C1  UNL d   1       1.045  -0.794   2.464  0.00  0.00     0.010 A 
ATOM      3  C2  UNL d   1       1.524  -0.440   1.202  0.00  0.00     0.041 A 
ATOM      4  C3  UNL d   1       0.616   0.046   0.240  0.00  0.00    -0.075 A 
ATOM      5  S   UNL d   1       0.975   0.543  -1.371  0.00  0.00     0.015 SA
ATOM      6  C4  UNL d   1      -0.653   0.929  -1.694  0.00  0.00     0.022 A 
ATOM      7  C5  UNL d   1      -1.465   0.691  -0.610  0.00  0.00     0.026 A 
ATOM      8  C6  UNL d   1      -0.747   0.179   0.523  0.00  0.00    -0.082 A 
ATOM      9  C7  UNL d   1      -1.201  -0.190   1.812  0.00  0.00     0.045 A 
ENDROOT
TORSDOF 0
ENDMDL
