MODEL 1
REMARK minimizedAffinity 0.791082919
REMARK minimizedRMSD -1
REMARK  0 active torsions:
REMARK  status: ('A' for Active; 'I' for Inactive)
ROOT
ATOM      1  C   UNL d   1      -0.587  -1.047   2.540  0.00  0.00    -0.002 A 
ATOM      2  C1  UNL d   1       0.795  -1.079   2.419  0.00  0.00     0.010 A 
ATOM      3  C2  UNL d   1       1.417  -0.628   1.253  0.00  0.00     0.041 A 
ATOM      4  C3  UNL d   1       0.619  -0.138   0.201  0.00  0.00    -0.075 A 
ATOM      5  S   UNL d   1       1.161   0.467  -1.320  0.00  0.00     0.015 SA
ATOM      6  C4  UNL d   1      -0.430   0.783  -1.845  0.00  0.00     0.022 A 
ATOM      7  C5  UNL d   1      -1.364   0.441  -0.896  0.00  0.00     0.026 A 
ATOM      8  C6  UNL d   1      -0.775  -0.095   0.299  0.00  0.00    -0.082 A 
ATOM      9  C7  UNL d   1      -1.376  -0.561   1.493  0.00  0.00     0.045 A 
ENDROOT
TORSDOF 0
ENDMDL
