MODEL 1
REMARK minimizedAffinity -1.31976628
REMARK minimizedRMSD -1
REMARK  0 active torsions:
REMARK  status: ('A' for Active; 'I' for Inactive)
ROOT
ATOM      1  C   UNL d   1       0.270   0.569   2.629  0.00  0.00    -0.002 A 
ATOM      2  C1  UNL d   1       0.586  -0.748   2.328  0.00  0.00     0.010 A 
ATOM      3  C2  UNL d   1       0.579  -1.196   1.006  0.00  0.00     0.041 A 
ATOM      4  C3  UNL d   1       0.247  -0.288  -0.019  0.00  0.00    -0.075 A 
ATOM      5  S   UNL d   1       0.173  -0.612  -1.711  0.00  0.00     0.015 SA
ATOM      6  C4  UNL d   1      -0.278   0.990  -2.074  0.00  0.00     0.022 A 
ATOM      7  C5  UNL d   1      -0.375   1.767  -0.944  0.00  0.00     0.026 A 
ATOM      8  C6  UNL d   1      -0.074   1.043   0.259  0.00  0.00    -0.082 A 
ATOM      9  C7  UNL d   1      -0.058   1.467   1.610  0.00  0.00     0.045 A 
ENDROOT
TORSDOF 0
ENDMDL
