MODEL 1
REMARK minimizedAffinity 16.9015675
REMARK minimizedRMSD -1
REMARK  0 active torsions:
REMARK  status: ('A' for Active; 'I' for Inactive)
ROOT
ATOM      1  C   UNL d   1       1.960   2.367   3.230  0.00  0.00     0.023 A 
ATOM      2  C1  UNL d   1       2.591   2.536   1.997  0.00  0.00     0.003 A 
ATOM      3  C2  UNL d   1       2.849   1.430   1.186  0.00  0.00     0.048 A 
ATOM      4  C3  UNL d   1       2.473   0.157   1.613  0.00  0.00     0.023 A 
ATOM      5  C4  UNL d   1       1.841  -0.018   2.845  0.00  0.00     0.048 A 
ATOM      6  C5  UNL d   1       1.586   1.092   3.654  0.00  0.00     0.003 A 
ATOM      7  I   UNL d   1       2.856  -1.492   0.406  0.00  0.00    -0.146 I 
ENDROOT
TORSDOF 0
ENDMDL
