MODEL 1
REMARK minimizedAffinity 7.4086709
REMARK minimizedRMSD -1
REMARK  0 active torsions:
REMARK  status: ('A' for Active; 'I' for Inactive)
ROOT
ATOM      1  C   UNL d   1      -3.933   1.687  -4.330  0.00  0.00     0.023 A 
ATOM      2  C1  UNL d   1      -4.184   2.896  -3.682  0.00  0.00     0.003 A 
ATOM      3  C2  UNL d   1      -3.814   3.064  -2.346  0.00  0.00     0.048 A 
ATOM      4  C3  UNL d   1      -3.192   2.018  -1.664  0.00  0.00     0.023 A 
ATOM      5  C4  UNL d   1      -2.938   0.807  -2.309  0.00  0.00     0.048 A 
ATOM      6  C5  UNL d   1      -3.311   0.643  -3.645  0.00  0.00     0.003 A 
ATOM      7  I   UNL d   1      -2.639   2.265   0.324  0.00  0.00    -0.146 I 
ENDROOT
TORSDOF 0
ENDMDL
