MODEL 1
REMARK minimizedAffinity 9.68434048
REMARK minimizedRMSD -1
REMARK  0 active torsions:
REMARK  status: ('A' for Active; 'I' for Inactive)
ROOT
ATOM      1  C   UNL d   1       4.360  -2.138  -4.475  0.00  0.00     0.023 A 
ATOM      2  C1  UNL d   1       3.951  -0.971  -3.830  0.00  0.00     0.003 A 
ATOM      3  C2  UNL d   1       4.421   0.270  -4.266  0.00  0.00     0.048 A 
ATOM      4  C3  UNL d   1       5.297   0.336  -5.349  0.00  0.00     0.023 A 
ATOM      5  C4  UNL d   1       5.708  -0.829  -5.998  0.00  0.00     0.048 A 
ATOM      6  C5  UNL d   1       5.237  -2.068  -5.557  0.00  0.00     0.003 A 
ATOM      7  I   UNL d   1       5.997   2.182  -6.000  0.00  0.00    -0.146 I 
ENDROOT
TORSDOF 0
ENDMDL
