MODEL 1
REMARK minimizedAffinity 2.774966
REMARK minimizedRMSD -1
REMARK  0 active torsions:
REMARK  status: ('A' for Active; 'I' for Inactive)
ROOT
ATOM      1  C   UNL d   1       5.065   0.473  -6.000  0.00  0.00     0.023 A 
ATOM      2  C1  UNL d   1       3.757   0.794  -5.637  0.00  0.00     0.003 A 
ATOM      3  C2  UNL d   1       2.996  -0.107  -4.889  0.00  0.00     0.048 A 
ATOM      4  C3  UNL d   1       3.550  -1.328  -4.507  0.00  0.00     0.023 A 
ATOM      5  C4  UNL d   1       4.859  -1.654  -4.867  0.00  0.00     0.048 A 
ATOM      6  C5  UNL d   1       5.615  -0.750  -5.616  0.00  0.00     0.003 A 
ATOM      7  I   UNL d   1       2.421  -2.672  -3.394  0.00  0.00    -0.146 I 
ENDROOT
TORSDOF 0
ENDMDL
