MODEL 1
REMARK minimizedAffinity 12.0916529
REMARK minimizedRMSD -1
REMARK  0 active torsions:
REMARK  status: ('A' for Active; 'I' for Inactive)
ROOT
ATOM      1  C   UNL d   1       1.172  -0.595   2.348  0.00  0.00     0.023 A 
ATOM      2  C1  UNL d   1       1.621  -1.311   3.457  0.00  0.00     0.003 A 
ATOM      3  C2  UNL d   1       1.930  -2.667   3.336  0.00  0.00     0.048 A 
ATOM      4  C3  UNL d   1       1.789  -3.301   2.103  0.00  0.00     0.023 A 
ATOM      5  C4  UNL d   1       1.340  -2.589   0.989  0.00  0.00     0.048 A 
ATOM      6  C5  UNL d   1       1.031  -1.233   1.115  0.00  0.00     0.003 A 
ATOM      7  I   UNL d   1       2.248  -5.320   1.920  0.00  0.00    -0.146 I 
ENDROOT
TORSDOF 0
ENDMDL
