MODEL 1
REMARK minimizedAffinity 5.02273512
REMARK minimizedRMSD -1
REMARK  0 active torsions:
REMARK  status: ('A' for Active; 'I' for Inactive)
ROOT
ATOM      1  C   UNL d   1       1.167  -3.434   1.298  0.00  0.00     0.023 A 
ATOM      2  C1  UNL d   1       2.200  -3.292   2.225  0.00  0.00     0.003 A 
ATOM      3  C2  UNL d   1       2.539  -2.026   2.706  0.00  0.00     0.048 A 
ATOM      4  C3  UNL d   1       1.841  -0.906   2.256  0.00  0.00     0.023 A 
ATOM      5  C4  UNL d   1       0.806  -1.043   1.329  0.00  0.00     0.048 A 
ATOM      6  C5  UNL d   1       0.471  -2.311   0.851  0.00  0.00     0.003 A 
ATOM      7  I   UNL d   1       2.344   0.980   2.970  0.00  0.00    -0.146 I 
ENDROOT
TORSDOF 0
ENDMDL
