MODEL 1
REMARK minimizedAffinity -0.852696478
REMARK minimizedRMSD -1
REMARK  0 active torsions:
REMARK  status: ('A' for Active; 'I' for Inactive)
ROOT
ATOM      1  C   UNL d   1       3.429   5.220  -1.853  0.00  0.00     0.023 A 
ATOM      2  C1  UNL d   1       2.891   4.877  -3.094  0.00  0.00     0.003 A 
ATOM      3  C2  UNL d   1       3.627   5.095  -4.260  0.00  0.00     0.048 A 
ATOM      4  C3  UNL d   1       4.901   5.655  -4.179  0.00  0.00     0.023 A 
ATOM      5  C4  UNL d   1       5.444   6.000  -2.940  0.00  0.00     0.048 A 
ATOM      6  C5  UNL d   1       4.704   5.781  -1.776  0.00  0.00     0.003 A 
ATOM      7  I   UNL d   1       5.999   5.980  -5.913  0.00  0.00    -0.146 I 
ENDROOT
TORSDOF 0
ENDMDL
