MODEL 1
REMARK minimizedAffinity 0.601679385
REMARK minimizedRMSD -1
REMARK  0 active torsions:
REMARK  status: ('A' for Active; 'I' for Inactive)
ROOT
ATOM      1  C   UNL d   1       4.094   0.002  -3.085  0.00  0.00     0.023 A 
ATOM      2  C1  UNL d   1       3.278  -1.048  -3.507  0.00  0.00     0.003 A 
ATOM      3  C2  UNL d   1       3.820  -2.101  -4.246  0.00  0.00     0.048 A 
ATOM      4  C3  UNL d   1       5.179  -2.099  -4.559  0.00  0.00     0.023 A 
ATOM      5  C4  UNL d   1       5.999  -1.051  -4.139  0.00  0.00     0.048 A 
ATOM      6  C5  UNL d   1       5.452   0.001  -3.400  0.00  0.00     0.003 A 
ATOM      7  I   UNL d   1       5.988  -3.665  -5.659  0.00  0.00    -0.146 I 
ENDROOT
TORSDOF 0
ENDMDL
