MODEL 1
REMARK minimizedAffinity -2.1946888
REMARK minimizedRMSD -1
REMARK  2 active torsions:
REMARK  status: ('A' for Active; 'I' for Inactive)
REMARK    1  A    between atoms: C1_2  and  C2_3 
REMARK    2  A    between atoms: C2_3  and  C3_4 
ROOT
ATOM      1  C3  UNL d   1      -0.765  -0.455   0.241  0.00  0.00    -0.075 A 
ATOM      2  C4  UNL d   1       0.029   0.182   1.205  0.00  0.00     0.002 A 
ATOM      3  C5  UNL d   1      -0.084  -0.158   2.554  0.00  0.00     0.002 A 
ATOM      4  C6  UNL d   1      -0.997  -1.130   2.956  0.00  0.00    -0.004 A 
ATOM      5  C7  UNL d   1      -1.803  -1.758   2.009  0.00  0.00     0.002 A 
ATOM      6  C8  UNL d   1      -1.689  -1.423   0.658  0.00  0.00     0.002 A 
ENDROOT
BRANCH   1   7
ATOM      7  C2  UNL d   1      -0.627  -0.113  -1.223  0.00  0.00     0.056 C 
BRANCH   7   8
ATOM      8  C1  UNL d   1       0.815   0.159  -1.666  0.00  0.00     0.007 C 
ATOM      9  C   UNL d   1       1.205  -0.590  -2.934  0.00  0.00     0.009 C 
ENDBRANCH   7   8
ENDBRANCH   1   7
TORSDOF 2
ENDMDL
