MODEL 1
REMARK minimizedAffinity -4.79129171
REMARK minimizedRMSD -1
REMARK  2 active torsions:
REMARK  status: ('A' for Active; 'I' for Inactive)
REMARK    1  A    between atoms: C1_2  and  C2_3 
REMARK    2  A    between atoms: C2_3  and  C3_4 
ROOT
ATOM      1  C3  UNL d   1       0.297   0.210  -0.530  0.00  0.00    -0.075 A 
ATOM      2  C4  UNL d   1       1.389   0.486   0.306  0.00  0.00     0.002 A 
ATOM      3  C5  UNL d   1       1.278   0.336   1.689  0.00  0.00     0.002 A 
ATOM      4  C6  UNL d   1       0.074  -0.082   2.253  0.00  0.00    -0.004 A 
ATOM      5  C7  UNL d   1      -1.021  -0.343   1.433  0.00  0.00     0.002 A 
ATOM      6  C8  UNL d   1      -0.912  -0.198   0.049  0.00  0.00     0.002 A 
ENDROOT
BRANCH   1   7
ATOM      7  C2  UNL d   1       0.420   0.342  -2.029  0.00  0.00     0.056 C 
BRANCH   7   8
ATOM      8  C1  UNL d   1       0.053  -0.931  -2.800  0.00  0.00     0.007 C 
ATOM      9  C   UNL d   1       1.172  -1.429  -3.705  0.00  0.00     0.009 C 
ENDBRANCH   7   8
ENDBRANCH   1   7
TORSDOF 2
ENDMDL
