MODEL 1
REMARK minimizedAffinity -3.91237068
REMARK minimizedRMSD -1
REMARK  2 active torsions:
REMARK  status: ('A' for Active; 'I' for Inactive)
REMARK    1  A    between atoms: C1_2  and  C2_3 
REMARK    2  A    between atoms: C2_3  and  C3_4 
ROOT
ATOM      1  C3  UNL d   1      -0.035   0.033   0.110  0.00  0.00    -0.075 A 
ATOM      2  C4  UNL d   1      -0.842  -0.178   1.238  0.00  0.00     0.002 A 
ATOM      3  C5  UNL d   1      -0.315  -0.032   2.522  0.00  0.00     0.002 A 
ATOM      4  C6  UNL d   1       1.024   0.313   2.694  0.00  0.00    -0.004 A 
ATOM      5  C7  UNL d   1       1.838   0.508   1.580  0.00  0.00     0.002 A 
ATOM      6  C8  UNL d   1       1.312   0.368   0.295  0.00  0.00     0.002 A 
ENDROOT
BRANCH   1   7
ATOM      7  C2  UNL d   1      -0.607  -0.094  -1.282  0.00  0.00     0.056 C 
BRANCH   7   8
ATOM      8  C1  UNL d   1       0.447  -0.322  -2.371  0.00  0.00     0.007 C 
ATOM      9  C   UNL d   1       0.058  -1.407  -3.366  0.00  0.00     0.009 C 
ENDBRANCH   7   8
ENDBRANCH   1   7
TORSDOF 2
ENDMDL
