MODEL 1
REMARK minimizedAffinity -3.99956656
REMARK minimizedRMSD -1
REMARK  2 active torsions:
REMARK  status: ('A' for Active; 'I' for Inactive)
REMARK    1  A    between atoms: C1_2  and  C2_3 
REMARK    2  A    between atoms: C2_3  and  C3_4 
ROOT
ATOM      1  C3  UNL d   1       0.455  -1.633  -1.181  0.00  0.00    -0.075 A 
ATOM      2  C4  UNL d   1       1.034  -2.073   0.018  0.00  0.00     0.002 A 
ATOM      3  C5  UNL d   1       0.908  -1.317   1.184  0.00  0.00     0.002 A 
ATOM      4  C6  UNL d   1       0.213  -0.110   1.164  0.00  0.00    -0.004 A 
ATOM      5  C7  UNL d   1      -0.352   0.345  -0.025  0.00  0.00     0.002 A 
ATOM      6  C8  UNL d   1      -0.232  -0.411  -1.193  0.00  0.00     0.002 A 
ENDROOT
BRANCH   1   7
ATOM      7  C2  UNL d   1       0.562  -2.460  -2.440  0.00  0.00     0.056 C 
BRANCH   7   8
ATOM      8  C1  UNL d   1       1.950  -2.432  -3.089  0.00  0.00     0.007 C 
ATOM      9  C   UNL d   1       2.142  -1.262  -4.045  0.00  0.00     0.009 C 
ENDBRANCH   7   8
ENDBRANCH   1   7
TORSDOF 2
ENDMDL
