MODEL 1
REMARK minimizedAffinity -3.87444615
REMARK minimizedRMSD -1
REMARK  2 active torsions:
REMARK  status: ('A' for Active; 'I' for Inactive)
REMARK    1  A    between atoms: C1_2  and  C2_3 
REMARK    2  A    between atoms: C2_3  and  C3_4 
ROOT
ATOM      1  C3  UNL d   1       0.530  -0.165   0.334  0.00  0.00    -0.075 A 
ATOM      2  C4  UNL d   1      -0.830  -0.428   0.550  0.00  0.00     0.002 A 
ATOM      3  C5  UNL d   1      -1.352  -0.446   1.844  0.00  0.00     0.002 A 
ATOM      4  C6  UNL d   1      -0.520  -0.213   2.937  0.00  0.00    -0.004 A 
ATOM      5  C7  UNL d   1       0.836   0.032   2.735  0.00  0.00     0.002 A 
ATOM      6  C8  UNL d   1       1.360   0.056   1.442  0.00  0.00     0.002 A 
ENDROOT
BRANCH   1   7
ATOM      7  C2  UNL d   1       1.095  -0.114  -1.065  0.00  0.00     0.056 C 
BRANCH   7   8
ATOM      8  C1  UNL d   1       0.032  -0.145  -2.168  0.00  0.00     0.007 C 
ATOM      9  C   UNL d   1       0.431  -1.001  -3.363  0.00  0.00     0.009 C 
ENDBRANCH   7   8
ENDBRANCH   1   7
TORSDOF 2
ENDMDL
