MODEL 1
REMARK minimizedAffinity -4.91993666
REMARK minimizedRMSD -1
REMARK  2 active torsions:
REMARK  status: ('A' for Active; 'I' for Inactive)
REMARK    1  A    between atoms: C1_2  and  C2_3 
REMARK    2  A    between atoms: C2_3  and  C3_4 
ROOT
ATOM      1  C3  UNL d   1       0.131   0.073  -0.060  0.00  0.00    -0.075 A 
ATOM      2  C4  UNL d   1       0.917  -0.100   1.089  0.00  0.00     0.002 A 
ATOM      3  C5  UNL d   1       0.383  -0.703   2.228  0.00  0.00     0.002 A 
ATOM      4  C6  UNL d   1      -0.942  -1.132   2.237  0.00  0.00    -0.004 A 
ATOM      5  C7  UNL d   1      -1.737  -0.950   1.107  0.00  0.00     0.002 A 
ATOM      6  C8  UNL d   1      -1.205  -0.350  -0.035  0.00  0.00     0.002 A 
ENDROOT
BRANCH   1   7
ATOM      7  C2  UNL d   1       0.711   0.699  -1.306  0.00  0.00     0.056 C 
BRANCH   7   8
ATOM      8  C1  UNL d   1       0.741  -0.237  -2.518  0.00  0.00     0.007 C 
ATOM      9  C   UNL d   1       1.963  -0.033  -3.404  0.00  0.00     0.009 C 
ENDBRANCH   7   8
ENDBRANCH   1   7
TORSDOF 2
ENDMDL
