MODEL 1
REMARK minimizedAffinity -2.50128913
REMARK minimizedRMSD -1
REMARK  2 active torsions:
REMARK  status: ('A' for Active; 'I' for Inactive)
REMARK    1  A    between atoms: C1_2  and  C2_3 
REMARK    2  A    between atoms: C2_3  and  C3_4 
ROOT
ATOM      1  C3  UNL d   1       0.153   0.302   0.089  0.00  0.00    -0.075 A 
ATOM      2  C4  UNL d   1       1.134   0.946   0.856  0.00  0.00     0.002 A 
ATOM      3  C5  UNL d   1       1.087   0.902   2.250  0.00  0.00     0.002 A 
ATOM      4  C6  UNL d   1       0.055   0.223   2.893  0.00  0.00    -0.004 A 
ATOM      5  C7  UNL d   1      -0.935  -0.407   2.141  0.00  0.00     0.002 A 
ATOM      6  C8  UNL d   1      -0.888  -0.368   0.747  0.00  0.00     0.002 A 
ENDROOT
BRANCH   1   7
ATOM      7  C2  UNL d   1       0.215   0.322  -1.420  0.00  0.00     0.056 C 
BRANCH   7   8
ATOM      8  C1  UNL d   1       0.591  -1.025  -2.046  0.00  0.00     0.007 C 
ATOM      9  C   UNL d   1       1.492  -0.888  -3.267  0.00  0.00     0.009 C 
ENDBRANCH   7   8
ENDBRANCH   1   7
TORSDOF 2
ENDMDL
