MODEL 1
REMARK minimizedAffinity -5.75465631
REMARK minimizedRMSD -1
REMARK  2 active torsions:
REMARK  status: ('A' for Active; 'I' for Inactive)
REMARK    1  A    between atoms: C1_2  and  C2_3 
REMARK    2  A    between atoms: C2_3  and  C3_4 
ROOT
ATOM      1  C3  UNL d   1      -0.180   0.065  -0.734  0.00  0.00    -0.075 A 
ATOM      2  C4  UNL d   1       0.683   0.017   0.370  0.00  0.00     0.002 A 
ATOM      3  C5  UNL d   1       0.192  -0.291   1.639  0.00  0.00     0.002 A 
ATOM      4  C6  UNL d   1      -1.165  -0.544   1.822  0.00  0.00    -0.004 A 
ATOM      5  C7  UNL d   1      -2.034  -0.482   0.735  0.00  0.00     0.002 A 
ATOM      6  C8  UNL d   1      -1.546  -0.179  -0.537  0.00  0.00     0.002 A 
ENDROOT
BRANCH   1   7
ATOM      7  C2  UNL d   1       0.349   0.369  -2.116  0.00  0.00     0.056 C 
BRANCH   7   8
ATOM      8  C1  UNL d   1       0.265  -0.812  -3.089  0.00  0.00     0.007 C 
ATOM      9  C   UNL d   1       1.590  -1.541  -3.265  0.00  0.00     0.009 C 
ENDBRANCH   7   8
ENDBRANCH   1   7
TORSDOF 2
ENDMDL
