MODEL 1
REMARK minimizedAffinity -3.41516495
REMARK minimizedRMSD -1
REMARK  2 active torsions:
REMARK  status: ('A' for Active; 'I' for Inactive)
REMARK    1  A    between atoms: C1_2  and  C2_3 
REMARK    2  A    between atoms: C2_3  and  C3_4 
ROOT
ATOM      1  C3  UNL d   1       0.065   0.085   0.150  0.00  0.00    -0.075 A 
ATOM      2  C4  UNL d   1       0.913   0.492   1.191  0.00  0.00     0.002 A 
ATOM      3  C5  UNL d   1       0.634   0.139   2.511  0.00  0.00     0.002 A 
ATOM      4  C6  UNL d   1      -0.499  -0.615   2.809  0.00  0.00    -0.004 A 
ATOM      5  C7  UNL d   1      -1.357  -1.011   1.786  0.00  0.00     0.002 A 
ATOM      6  C8  UNL d   1      -1.078  -0.663   0.463  0.00  0.00     0.002 A 
ENDROOT
BRANCH   1   7
ATOM      7  C2  UNL d   1       0.378   0.438  -1.284  0.00  0.00     0.056 C 
BRANCH   7   8
ATOM      8  C1  UNL d   1       0.410  -0.766  -2.230  0.00  0.00     0.007 C 
ATOM      9  C   UNL d   1       1.693  -0.854  -3.047  0.00  0.00     0.009 C 
ENDBRANCH   7   8
ENDBRANCH   1   7
TORSDOF 2
ENDMDL
