MODEL 1
REMARK minimizedAffinity -4.36093473
REMARK minimizedRMSD -1
REMARK  2 active torsions:
REMARK  status: ('A' for Active; 'I' for Inactive)
REMARK    1  A    between atoms: C1_2  and  C2_3 
REMARK    2  A    between atoms: C2_3  and  C3_4 
ROOT
ATOM      1  C3  UNL d   1       0.158  -0.134  -0.415  0.00  0.00    -0.075 A 
ATOM      2  C4  UNL d   1      -0.751  -0.974   0.244  0.00  0.00     0.002 A 
ATOM      3  C5  UNL d   1      -0.861  -0.948   1.634  0.00  0.00     0.002 A 
ATOM      4  C6  UNL d   1      -0.058  -0.090   2.383  0.00  0.00    -0.004 A 
ATOM      5  C7  UNL d   1       0.860   0.738   1.740  0.00  0.00     0.002 A 
ATOM      6  C8  UNL d   1       0.969   0.716   0.349  0.00  0.00     0.002 A 
ENDROOT
BRANCH   1   7
ATOM      7  C2  UNL d   1       0.260  -0.136  -1.922  0.00  0.00     0.056 C 
BRANCH   7   8
ATOM      8  C1  UNL d   1       0.160  -1.530  -2.551  0.00  0.00     0.007 C 
ATOM      9  C   UNL d   1       1.191  -1.769  -3.646  0.00  0.00     0.009 C 
ENDBRANCH   7   8
ENDBRANCH   1   7
TORSDOF 2
ENDMDL
