MODEL 1
REMARK minimizedAffinity -0.135960311
REMARK minimizedRMSD -1
REMARK  2 active torsions:
REMARK  status: ('A' for Active; 'I' for Inactive)
REMARK    1  A    between atoms: C1_2  and  C2_3 
REMARK    2  A    between atoms: C2_3  and  C3_4 
ROOT
ATOM      1  C3  UNL d   1      -0.632   0.261   1.614  0.00  0.00    -0.075 A 
ATOM      2  C4  UNL d   1       0.454  -0.151   0.828  0.00  0.00     0.002 A 
ATOM      3  C5  UNL d   1       0.317  -0.287  -0.554  0.00  0.00     0.002 A 
ATOM      4  C6  UNL d   1      -0.907  -0.023  -1.165  0.00  0.00    -0.004 A 
ATOM      5  C7  UNL d   1      -1.997   0.371  -0.392  0.00  0.00     0.002 A 
ATOM      6  C8  UNL d   1      -1.862   0.512   0.990  0.00  0.00     0.002 A 
ENDROOT
BRANCH   1   7
ATOM      7  C2  UNL d   1      -0.483   0.438   3.106  0.00  0.00     0.056 C 
BRANCH   7   8
ATOM      8  C1  UNL d   1       0.568   1.478   3.508  0.00  0.00     0.007 C 
ATOM      9  C   UNL d   1      -0.025   2.852   3.794  0.00  0.00     0.009 C 
ENDBRANCH   7   8
ENDBRANCH   1   7
TORSDOF 2
ENDMDL
