MODEL 1
REMARK minimizedAffinity 11.0563431
REMARK minimizedRMSD -1
REMARK  0 active torsions:
REMARK  status: ('A' for Active; 'I' for Inactive)
ROOT
ATOM      1  C2' OXE d   1       2.453  -0.342   1.189  0.00  0.00     0.078 C 
ATOM      2  C1' OXE d   1       0.732  -0.698   3.378  0.00  0.00     0.078 C 
ATOM      3  C1  OXE d   1       0.327   0.297   2.320  0.00  0.00    -0.078 A 
ATOM      4  C2  OXE d   1       1.197   0.499   1.276  0.00  0.00    -0.078 A 
ATOM      5  C3  OXE d   1       0.847   1.365   0.244  0.00  0.00     0.003 A 
ATOM      6  C4  OXE d   1      -0.311   2.146   0.337  0.00  0.00    -0.002 A 
ATOM      7  C5  OXE d   1      -1.192   1.985   1.412  0.00  0.00    -0.002 A 
ATOM      8  C6  OXE d   1      -0.909   1.036   2.388  0.00  0.00     0.003 A 
ENDROOT
TORSDOF 0
ENDMDL
