MODEL 1
REMARK minimizedAffinity 3.24534225
REMARK minimizedRMSD -1
REMARK  0 active torsions:
REMARK  status: ('A' for Active; 'I' for Inactive)
ROOT
ATOM      1  C2' OXE d   1      -0.790  -0.588  -2.972  0.00  0.00     0.078 C 
ATOM      2  C1' OXE d   1      -3.195  -1.647  -1.985  0.00  0.00     0.078 C 
ATOM      3  C1  OXE d   1      -3.279  -0.603  -3.071  0.00  0.00    -0.078 A 
ATOM      4  C2  OXE d   1      -2.099  -0.057  -3.515  0.00  0.00    -0.078 A 
ATOM      5  C3  OXE d   1      -2.116   0.870  -4.554  0.00  0.00     0.003 A 
ATOM      6  C4  OXE d   1      -3.332   1.363  -5.043  0.00  0.00    -0.002 A 
ATOM      7  C5  OXE d   1      -4.546   0.849  -4.576  0.00  0.00    -0.002 A 
ATOM      8  C6  OXE d   1      -4.536  -0.163  -3.623  0.00  0.00     0.003 A 
ENDROOT
TORSDOF 0
ENDMDL
