MODEL 1
REMARK minimizedAffinity 7.63301134
REMARK minimizedRMSD -1
REMARK  0 active torsions:
REMARK  status: ('A' for Active; 'I' for Inactive)
ROOT
ATOM      1  C2' OXE d   1      -0.530  -3.771  -1.333  0.00  0.00     0.078 C 
ATOM      2  C1' OXE d   1       0.132  -1.499  -2.843  0.00  0.00     0.078 C 
ATOM      3  C1  OXE d   1       0.952  -1.789  -1.611  0.00  0.00    -0.078 A 
ATOM      4  C2  OXE d   1       0.592  -2.876  -0.853  0.00  0.00    -0.078 A 
ATOM      5  C3  OXE d   1       1.349  -3.220   0.264  0.00  0.00     0.003 A 
ATOM      6  C4  OXE d   1       2.378  -2.381   0.707  0.00  0.00    -0.002 A 
ATOM      7  C5  OXE d   1       2.736  -1.246  -0.028  0.00  0.00    -0.002 A 
ATOM      8  C6  OXE d   1       2.062  -0.960  -1.210  0.00  0.00     0.003 A 
ENDROOT
TORSDOF 0
ENDMDL
