MODEL 1
REMARK minimizedAffinity 2.96384788
REMARK minimizedRMSD -1
REMARK  0 active torsions:
REMARK  status: ('A' for Active; 'I' for Inactive)
ROOT
ATOM      1  C2' OXE d   1       0.278  -0.555  -0.799  0.00  0.00     0.078 C 
ATOM      2  C1' OXE d   1       2.455  -2.239  -0.248  0.00  0.00     0.078 C 
ATOM      3  C1  OXE d   1       2.643  -0.757  -0.042  0.00  0.00    -0.078 A 
ATOM      4  C2  OXE d   1       1.587   0.064  -0.359  0.00  0.00    -0.078 A 
ATOM      5  C3  OXE d   1       1.688   1.434  -0.135  0.00  0.00     0.003 A 
ATOM      6  C4  OXE d   1       2.906   1.999   0.262  0.00  0.00    -0.002 A 
ATOM      7  C5  OXE d   1       4.006   1.185   0.552  0.00  0.00    -0.002 A 
ATOM      8  C6  OXE d   1       3.878  -0.196   0.446  0.00  0.00     0.003 A 
ENDROOT
TORSDOF 0
ENDMDL
