MODEL 1
REMARK minimizedAffinity 10.0234814
REMARK minimizedRMSD -1
REMARK  0 active torsions:
REMARK  status: ('A' for Active; 'I' for Inactive)
ROOT
ATOM      1  C2' OXE d   1       0.780  -0.823  -1.439  0.00  0.00     0.078 C 
ATOM      2  C1' OXE d   1       1.136   1.176   0.499  0.00  0.00     0.078 C 
ATOM      3  C1  OXE d   1       2.014  -0.048   0.581  0.00  0.00    -0.078 A 
ATOM      4  C2  OXE d   1       1.801  -1.042  -0.343  0.00  0.00    -0.078 A 
ATOM      5  C3  OXE d   1       2.619  -2.168  -0.346  0.00  0.00     0.003 A 
ATOM      6  C4  OXE d   1       3.554  -2.367   0.677  0.00  0.00    -0.002 A 
ATOM      7  C5  OXE d   1       3.760  -1.385   1.652  0.00  0.00    -0.002 A 
ATOM      8  C6  OXE d   1       3.029  -0.204   1.593  0.00  0.00     0.003 A 
ENDROOT
TORSDOF 0
ENDMDL
