MODEL 1
REMARK minimizedAffinity 9.45011806
REMARK minimizedRMSD -1
REMARK  0 active torsions:
REMARK  status: ('A' for Active; 'I' for Inactive)
ROOT
ATOM      1  C2' OXE d   1       1.953   3.234   0.709  0.00  0.00     0.078 C 
ATOM      2  C1' OXE d   1       0.273   1.228   1.725  0.00  0.00     0.078 C 
ATOM      3  C1  OXE d   1       1.644   0.821   1.246  0.00  0.00    -0.078 A 
ATOM      4  C2  OXE d   1       2.442   1.801   0.707  0.00  0.00    -0.078 A 
ATOM      5  C3  OXE d   1       3.737   1.490   0.301  0.00  0.00     0.003 A 
ATOM      6  C4  OXE d   1       4.177   0.161   0.294  0.00  0.00    -0.002 A 
ATOM      7  C5  OXE d   1       3.366  -0.858   0.802  0.00  0.00    -0.002 A 
ATOM      8  C6  OXE d   1       2.115  -0.540   1.320  0.00  0.00     0.003 A 
ENDROOT
TORSDOF 0
ENDMDL
