MODEL 1
REMARK minimizedAffinity 5.75919628
REMARK minimizedRMSD -1
REMARK  0 active torsions:
REMARK  status: ('A' for Active; 'I' for Inactive)
ROOT
ATOM      1  C2' OXE d   1      -3.880  -1.682  -2.631  0.00  0.00     0.078 C 
ATOM      2  C1' OXE d   1      -5.998  -1.749  -4.472  0.00  0.00     0.078 C 
ATOM      3  C1  OXE d   1      -5.033  -0.593  -4.552  0.00  0.00    -0.078 A 
ATOM      4  C2  OXE d   1      -4.026  -0.544  -3.618  0.00  0.00    -0.078 A 
ATOM      5  C3  OXE d   1      -3.076   0.472  -3.680  0.00  0.00     0.003 A 
ATOM      6  C4  OXE d   1      -3.225   1.526  -4.589  0.00  0.00    -0.002 A 
ATOM      7  C5  OXE d   1      -4.266   1.516  -5.524  0.00  0.00    -0.002 A 
ATOM      8  C6  OXE d   1      -5.152   0.445  -5.546  0.00  0.00     0.003 A 
ENDROOT
TORSDOF 0
ENDMDL
