MODEL 1
REMARK minimizedAffinity 6.99092054
REMARK minimizedRMSD -1
REMARK  0 active torsions:
REMARK  status: ('A' for Active; 'I' for Inactive)
ROOT
ATOM      1  C2' OXE d   1       0.084   0.093  -1.461  0.00  0.00     0.078 C 
ATOM      2  C1' OXE d   1       2.344   0.839   0.028  0.00  0.00     0.078 C 
ATOM      3  C1  OXE d   1       1.924  -0.609   0.065  0.00  0.00    -0.078 A 
ATOM      4  C2  OXE d   1       0.790  -0.956  -0.629  0.00  0.00    -0.078 A 
ATOM      5  C3  OXE d   1       0.389  -2.289  -0.672  0.00  0.00     0.003 A 
ATOM      6  C4  OXE d   1       1.041  -3.251   0.108  0.00  0.00    -0.002 A 
ATOM      7  C5  OXE d   1       2.175  -2.910   0.854  0.00  0.00    -0.002 A 
ATOM      8  C6  OXE d   1       2.653  -1.606   0.810  0.00  0.00     0.003 A 
ENDROOT
TORSDOF 0
ENDMDL
