MODEL 1
REMARK minimizedAffinity 9.35773468
REMARK minimizedRMSD -1
REMARK  0 active torsions:
REMARK  status: ('A' for Active; 'I' for Inactive)
ROOT
ATOM      1  C2' OXE d   1       2.268  -1.416  -2.065  0.00  0.00     0.078 C 
ATOM      2  C1' OXE d   1      -0.251  -0.278  -2.560  0.00  0.00     0.078 C 
ATOM      3  C1  OXE d   1       0.556   0.272  -1.411  0.00  0.00    -0.078 A 
ATOM      4  C2  OXE d   1       1.767  -0.321  -1.147  0.00  0.00    -0.078 A 
ATOM      5  C3  OXE d   1       2.576   0.183  -0.133  0.00  0.00     0.003 A 
ATOM      6  C4  OXE d   1       2.101   1.189   0.718  0.00  0.00    -0.002 A 
ATOM      7  C5  OXE d   1       0.854   1.780   0.492  0.00  0.00    -0.002 A 
ATOM      8  C6  OXE d   1       0.089   1.364  -0.592  0.00  0.00     0.003 A 
ENDROOT
TORSDOF 0
ENDMDL
