MODEL 1
REMARK minimizedAffinity 6.16053677
REMARK minimizedRMSD -1
REMARK  0 active torsions:
REMARK  status: ('A' for Active; 'I' for Inactive)
ROOT
ATOM      1  C2' OXE d   1       4.017  -0.739   1.075  0.00  0.00     0.078 C 
ATOM      2  C1' OXE d   1       1.978  -1.890  -0.474  0.00  0.00     0.078 C 
ATOM      3  C1  OXE d   1       1.853  -0.429  -0.121  0.00  0.00    -0.078 A 
ATOM      4  C2  OXE d   1       2.832   0.114   0.677  0.00  0.00    -0.078 A 
ATOM      5  C3  OXE d   1       2.794   1.471   0.987  0.00  0.00     0.003 A 
ATOM      6  C4  OXE d   1       1.689   2.250   0.623  0.00  0.00    -0.002 A 
ATOM      7  C5  OXE d   1       0.662   1.707  -0.155  0.00  0.00    -0.002 A 
ATOM      8  C6  OXE d   1       0.750   0.382  -0.571  0.00  0.00     0.003 A 
ENDROOT
TORSDOF 0
ENDMDL
