MODEL 1
REMARK minimizedAffinity 2.4026587
REMARK minimizedRMSD -1
REMARK  0 active torsions:
REMARK  status: ('A' for Active; 'I' for Inactive)
ROOT
ATOM      1  C2' OXE d   1      -0.312   1.666  -0.046  0.00  0.00     0.078 C 
ATOM      2  C1' OXE d   1       2.332   2.139   0.769  0.00  0.00     0.078 C 
ATOM      3  C1  OXE d   1       2.012   0.794   0.166  0.00  0.00    -0.078 A 
ATOM      4  C2  OXE d   1       0.706   0.554  -0.187  0.00  0.00    -0.078 A 
ATOM      5  C3  OXE d   1       0.366  -0.649  -0.799  0.00  0.00     0.003 A 
ATOM      6  C4  OXE d   1       1.312  -1.675  -0.917  0.00  0.00    -0.002 A 
ATOM      7  C5  OXE d   1       2.639  -1.466  -0.527  0.00  0.00    -0.002 A 
ATOM      8  C6  OXE d   1       3.014  -0.226  -0.024  0.00  0.00     0.003 A 
ENDROOT
TORSDOF 0
ENDMDL
