MODEL 1
REMARK minimizedAffinity 23.8562489
REMARK minimizedRMSD -1
REMARK  0 active torsions:
REMARK  status: ('A' for Active; 'I' for Inactive)
ROOT
ATOM      1  C   UNL d   1       4.819   0.768  -0.523  0.00  0.00     0.124 A 
ATOM      2  C1  UNL d   1       3.694   0.220  -1.122  0.00  0.00     0.062 A 
ATOM      3  C2  UNL d   1       2.465   0.255  -0.468  0.00  0.00     0.162 A 
ATOM      4  C3  UNL d   1       2.356   0.841   0.793  0.00  0.00    -0.034 A 
ATOM      5  C4  UNL d   1       3.492   1.390   1.389  0.00  0.00     0.162 A 
ATOM      6  C5  UNL d   1       4.717   1.353   0.732  0.00  0.00     0.062 A 
ATOM      7  F   UNL d   1       5.804   1.883   1.312  0.00  0.00    -0.097 F 
ATOM      8  F1  UNL d   1       3.422   1.962   2.601  0.00  0.00    -0.096 F 
ATOM      9  I   UNL d   1       0.521   0.896   1.773  0.00  0.00    -0.060 I 
ATOM     10  F2  UNL d   1       1.394  -0.283  -1.071  0.00  0.00    -0.096 F 
ATOM     11  F3  UNL d   1       3.790  -0.346  -2.334  0.00  0.00    -0.097 F 
ATOM     12  F4  UNL d   1       6.000   0.732  -1.153  0.00  0.00    -0.092 F 
ENDROOT
TORSDOF 0
ENDMDL
