MODEL 1
REMARK minimizedAffinity 22.0773525
REMARK minimizedRMSD -1
REMARK  0 active torsions:
REMARK  status: ('A' for Active; 'I' for Inactive)
ROOT
ATOM      1  C   UNL d   1       4.690   0.804  -1.056  0.00  0.00     0.124 A 
ATOM      2  C1  UNL d   1       4.649   1.168   0.283  0.00  0.00     0.062 A 
ATOM      3  C2  UNL d   1       3.816   0.489   1.168  0.00  0.00     0.162 A 
ATOM      4  C3  UNL d   1       3.018  -0.563   0.718  0.00  0.00    -0.034 A 
ATOM      5  C4  UNL d   1       3.064  -0.923  -0.630  0.00  0.00     0.162 A 
ATOM      6  C5  UNL d   1       3.898  -0.241  -1.511  0.00  0.00     0.062 A 
ATOM      7  F   UNL d   1       3.936  -0.594  -2.804  0.00  0.00    -0.097 F 
ATOM      8  F1  UNL d   1       2.311  -1.929  -1.097  0.00  0.00    -0.096 F 
ATOM      9  I   UNL d   1       1.772  -1.581   2.038  0.00  0.00    -0.060 I 
ATOM     10  F2  UNL d   1       3.797   0.863   2.456  0.00  0.00    -0.096 F 
ATOM     11  F3  UNL d   1       5.412   2.178   0.725  0.00  0.00    -0.097 F 
ATOM     12  F4  UNL d   1       5.491   1.460  -1.905  0.00  0.00    -0.092 F 
ENDROOT
TORSDOF 0
ENDMDL
