MODEL 1
REMARK minimizedAffinity 27.4617119
REMARK minimizedRMSD -1
REMARK  0 active torsions:
REMARK  status: ('A' for Active; 'I' for Inactive)
ROOT
ATOM      1  C   UNL d   1       0.711  -4.825   5.373  0.00  0.00     0.124 A 
ATOM      2  C1  UNL d   1      -0.369  -4.243   4.724  0.00  0.00     0.062 A 
ATOM      3  C2  UNL d   1      -0.220  -3.022   4.074  0.00  0.00     0.162 A 
ATOM      4  C3  UNL d   1       1.015  -2.373   4.069  0.00  0.00    -0.034 A 
ATOM      5  C4  UNL d   1       2.096  -2.964   4.724  0.00  0.00     0.162 A 
ATOM      6  C5  UNL d   1       1.942  -4.185   5.373  0.00  0.00     0.062 A 
ATOM      7  F   UNL d   1       2.987  -4.745   6.000  0.00  0.00    -0.097 F 
ATOM      8  F1  UNL d   1       3.298  -2.368   4.739  0.00  0.00    -0.096 F 
ATOM      9  I   UNL d   1       1.242  -0.547   3.097  0.00  0.00    -0.060 I 
ATOM     10  F2  UNL d   1      -1.281  -2.483   3.455  0.00  0.00    -0.096 F 
ATOM     11  F3  UNL d   1      -1.561  -4.859   4.724  0.00  0.00    -0.097 F 
ATOM     12  F4  UNL d   1       0.564  -6.000   5.999  0.00  0.00    -0.092 F 
ENDROOT
TORSDOF 0
ENDMDL
