MODEL 1
REMARK minimizedAffinity 30.3378544
REMARK minimizedRMSD -1
REMARK  0 active torsions:
REMARK  status: ('A' for Active; 'I' for Inactive)
ROOT
ATOM      1  C   UNL d   1       0.199  -4.338  -2.397  0.00  0.00     0.124 A 
ATOM      2  C1  UNL d   1      -1.168  -4.398  -2.634  0.00  0.00     0.062 A 
ATOM      3  C2  UNL d   1      -1.915  -3.227  -2.725  0.00  0.00     0.162 A 
ATOM      4  C3  UNL d   1      -1.296  -1.985  -2.581  0.00  0.00    -0.034 A 
ATOM      5  C4  UNL d   1       0.078  -1.932  -2.342  0.00  0.00     0.162 A 
ATOM      6  C5  UNL d   1       0.820  -3.105  -2.252  0.00  0.00     0.062 A 
ATOM      7  F   UNL d   1       2.140  -3.045  -2.023  0.00  0.00    -0.097 F 
ATOM      8  F1  UNL d   1       0.704  -0.755  -2.199  0.00  0.00    -0.096 F 
ATOM      9  I   UNL d   1      -2.410  -0.232  -2.718  0.00  0.00    -0.060 I 
ATOM     10  F2  UNL d   1      -3.233  -3.315  -2.955  0.00  0.00    -0.096 F 
ATOM     11  F3  UNL d   1      -1.771  -5.587  -2.773  0.00  0.00    -0.097 F 
ATOM     12  F4  UNL d   1       0.915  -5.466  -2.308  0.00  0.00    -0.092 F 
ENDROOT
TORSDOF 0
ENDMDL
