MODEL 1
REMARK minimizedAffinity 23.4876709
REMARK minimizedRMSD -1
REMARK  0 active torsions:
REMARK  status: ('A' for Active; 'I' for Inactive)
ROOT
ATOM      1  C   UNL d   1       0.245  -4.439  -1.582  0.00  0.00     0.124 A 
ATOM      2  C1  UNL d   1      -1.087  -4.434  -1.973  0.00  0.00     0.062 A 
ATOM      3  C2  UNL d   1      -1.697  -3.246  -2.365  0.00  0.00     0.162 A 
ATOM      4  C3  UNL d   1      -0.976  -2.052  -2.369  0.00  0.00    -0.034 A 
ATOM      5  C4  UNL d   1       0.363  -2.065  -1.974  0.00  0.00     0.162 A 
ATOM      6  C5  UNL d   1       0.968  -3.254  -1.583  0.00  0.00     0.062 A 
ATOM      7  F   UNL d   1       2.255  -3.257  -1.205  0.00  0.00    -0.097 F 
ATOM      8  F1  UNL d   1       1.086  -0.935  -1.966  0.00  0.00    -0.096 F 
ATOM      9  I   UNL d   1      -1.885  -0.274  -2.955  0.00  0.00    -0.060 I 
ATOM     10  F2  UNL d   1      -2.986  -3.271  -2.738  0.00  0.00    -0.096 F 
ATOM     11  F3  UNL d   1      -1.789  -5.577  -1.972  0.00  0.00    -0.097 F 
ATOM     12  F4  UNL d   1       0.829  -5.583  -1.204  0.00  0.00    -0.092 F 
ENDROOT
TORSDOF 0
ENDMDL
