MODEL 1
REMARK minimizedAffinity 10.1853275
REMARK minimizedRMSD -1
REMARK  0 active torsions:
REMARK  status: ('A' for Active; 'I' for Inactive)
ROOT
ATOM      1  C   UNL d   1      -4.897   3.069  -1.132  0.00  0.00     0.124 A 
ATOM      2  C1  UNL d   1      -3.775   3.844  -0.869  0.00  0.00     0.062 A 
ATOM      3  C2  UNL d   1      -2.628   3.259  -0.342  0.00  0.00     0.162 A 
ATOM      4  C3  UNL d   1      -2.595   1.890  -0.074  0.00  0.00    -0.034 A 
ATOM      5  C4  UNL d   1      -3.727   1.118  -0.340  0.00  0.00     0.162 A 
ATOM      6  C5  UNL d   1      -4.872   1.707  -0.867  0.00  0.00     0.062 A 
ATOM      7  F   UNL d   1      -5.954   0.957  -1.119  0.00  0.00    -0.097 F 
ATOM      8  F1  UNL d   1      -3.730  -0.201  -0.094  0.00  0.00    -0.096 F 
ATOM      9  I   UNL d   1      -0.881   1.012   0.714  0.00  0.00    -0.060 I 
ATOM     10  F2  UNL d   1      -1.559   4.032  -0.099  0.00  0.00    -0.096 F 
ATOM     11  F3  UNL d   1      -3.798   5.160  -1.124  0.00  0.00    -0.097 F 
ATOM     12  F4  UNL d   1      -6.000   3.635  -1.638  0.00  0.00    -0.092 F 
ENDROOT
TORSDOF 0
ENDMDL
