MODEL 1
REMARK minimizedAffinity 24.7634926
REMARK minimizedRMSD -1
REMARK  0 active torsions:
REMARK  status: ('A' for Active; 'I' for Inactive)
ROOT
ATOM      1  C   UNL d   1       4.804   0.046  -0.420  0.00  0.00     0.124 A 
ATOM      2  C1  UNL d   1       3.653  -0.440  -1.025  0.00  0.00     0.062 A 
ATOM      3  C2  UNL d   1       2.409  -0.223  -0.440  0.00  0.00     0.162 A 
ATOM      4  C3  UNL d   1       2.309   0.486   0.757  0.00  0.00    -0.034 A 
ATOM      5  C4  UNL d   1       3.470   0.970   1.361  0.00  0.00     0.162 A 
ATOM      6  C5  UNL d   1       4.711   0.750   0.772  0.00  0.00     0.062 A 
ATOM      7  F   UNL d   1       5.822   1.221   1.358  0.00  0.00    -0.097 F 
ATOM      8  F1  UNL d   1       3.410   1.655   2.512  0.00  0.00    -0.096 F 
ATOM      9  I   UNL d   1       0.450   0.813   1.635  0.00  0.00    -0.060 I 
ATOM     10  F2  UNL d   1       1.314  -0.704  -1.048  0.00  0.00    -0.096 F 
ATOM     11  F3  UNL d   1       3.740  -1.122  -2.177  0.00  0.00    -0.097 F 
ATOM     12  F4  UNL d   1       6.000  -0.166  -0.985  0.00  0.00    -0.092 F 
ENDROOT
TORSDOF 0
ENDMDL
