MODEL 1
REMARK minimizedAffinity 17.9463196
REMARK minimizedRMSD -1
REMARK  0 active torsions:
REMARK  status: ('A' for Active; 'I' for Inactive)
ROOT
ATOM      1  C   UNL d   1       1.045  -4.534  -2.868  0.00  0.00     0.124 A 
ATOM      2  C1  UNL d   1       1.086  -4.221  -1.516  0.00  0.00     0.062 A 
ATOM      3  C2  UNL d   1       1.884  -3.174  -1.064  0.00  0.00     0.162 A 
ATOM      4  C3  UNL d   1       2.647  -2.430  -1.965  0.00  0.00    -0.034 A 
ATOM      5  C4  UNL d   1       2.601  -2.752  -3.323  0.00  0.00     0.162 A 
ATOM      6  C5  UNL d   1       1.803  -3.800  -3.770  0.00  0.00     0.062 A 
ATOM      7  F   UNL d   1       1.765  -4.101  -5.076  0.00  0.00    -0.097 F 
ATOM      8  F1  UNL d   1       3.322  -2.058  -4.216  0.00  0.00    -0.096 F 
ATOM      9  I   UNL d   1       3.840  -0.864  -1.293  0.00  0.00    -0.060 I 
ATOM     10  F2  UNL d   1       1.903  -2.893   0.247  0.00  0.00    -0.096 F 
ATOM     11  F3  UNL d   1       0.356  -4.930  -0.643  0.00  0.00    -0.097 F 
ATOM     12  F4  UNL d   1       0.278  -5.543  -3.300  0.00  0.00    -0.092 F 
ENDROOT
TORSDOF 0
ENDMDL
