MODEL 1
REMARK minimizedAffinity 5.13072681
REMARK minimizedRMSD -1
REMARK  0 active torsions:
REMARK  status: ('A' for Active; 'I' for Inactive)
ROOT
ATOM      1  C4' PXY d   1       2.054   0.877   0.037  0.00  0.00     0.077 C 
ATOM      2  C1' PXY d   1      -1.510  -1.994   3.567  0.00  0.00     0.077 C 
ATOM      3  C1  PXY d   1      -0.581  -1.230   2.645  0.00  0.00    -0.082 A 
ATOM      4  C2  PXY d   1      -0.063  -1.836   1.589  0.00  0.00     0.003 A 
ATOM      5  C3  PXY d   1       0.805  -1.169   0.763  0.00  0.00     0.003 A 
ATOM      6  C4  PXY d   1       1.104   0.148   0.989  0.00  0.00    -0.082 A 
ATOM      7  C5  PXY d   1       0.571   0.776   2.059  0.00  0.00     0.003 A 
ATOM      8  C6  PXY d   1      -0.275   0.070   2.909  0.00  0.00     0.003 A 
ENDROOT
TORSDOF 0
ENDMDL
