MODEL 1
REMARK minimizedAffinity 10.4326496
REMARK minimizedRMSD -1
REMARK  0 active torsions:
REMARK  status: ('A' for Active; 'I' for Inactive)
ROOT
ATOM      1  C4' PXY d   1       2.389  -0.818   0.023  0.00  0.00     0.077 C 
ATOM      2  C1' PXY d   1      -3.268  -0.752  -1.164  0.00  0.00     0.077 C 
ATOM      3  C1  PXY d   1      -1.783  -0.777  -0.864  0.00  0.00    -0.082 A 
ATOM      4  C2  PXY d   1      -1.364  -0.605   0.380  0.00  0.00     0.003 A 
ATOM      5  C3  PXY d   1      -0.022  -0.592   0.664  0.00  0.00     0.003 A 
ATOM      6  C4  PXY d   1       0.898  -0.811  -0.326  0.00  0.00    -0.082 A 
ATOM      7  C5  PXY d   1       0.478  -0.997  -1.595  0.00  0.00     0.003 A 
ATOM      8  C6  PXY d   1      -0.886  -0.966  -1.870  0.00  0.00     0.003 A 
ENDROOT
TORSDOF 0
ENDMDL
