MODEL 1
REMARK minimizedAffinity 6.0395298
REMARK minimizedRMSD -1
REMARK  0 active torsions:
REMARK  status: ('A' for Active; 'I' for Inactive)
ROOT
ATOM      1  C4' PXY d   1       0.972   5.981   5.983  0.00  0.00     0.077 C 
ATOM      2  C1' PXY d   1       5.981   3.339   4.822  0.00  0.00     0.077 C 
ATOM      3  C1  PXY d   1       4.673   4.043   5.126  0.00  0.00    -0.082 A 
ATOM      4  C2  PXY d   1       3.696   3.380   5.722  0.00  0.00     0.003 A 
ATOM      5  C3  PXY d   1       2.496   3.992   5.976  0.00  0.00     0.003 A 
ATOM      6  C4  PXY d   1       2.313   5.313   5.665  0.00  0.00    -0.082 A 
ATOM      7  C5  PXY d   1       3.309   6.000   5.066  0.00  0.00     0.003 A 
ATOM      8  C6  PXY d   1       4.505   5.348   4.780  0.00  0.00     0.003 A 
ENDROOT
TORSDOF 0
ENDMDL
