MODEL 1
REMARK minimizedAffinity 11.8625154
REMARK minimizedRMSD -1
REMARK  0 active torsions:
REMARK  status: ('A' for Active; 'I' for Inactive)
ROOT
ATOM      1  C4' PXY d   1       5.998  -0.075  -4.077  0.00  0.00     0.077 C 
ATOM      2  C1' PXY d   1       3.594   3.189   0.044  0.00  0.00     0.077 C 
ATOM      3  C1  PXY d   1       4.217   2.323  -1.034  0.00  0.00    -0.082 A 
ATOM      4  C2  PXY d   1       5.434   2.600  -1.472  0.00  0.00     0.003 A 
ATOM      5  C3  PXY d   1       6.000   1.846  -2.469  0.00  0.00     0.003 A 
ATOM      6  C4  PXY d   1       5.334   0.767  -2.984  0.00  0.00    -0.082 A 
ATOM      7  C5  PXY d   1       4.096   0.472  -2.534  0.00  0.00     0.003 A 
ATOM      8  C6  PXY d   1       3.523   1.274  -1.551  0.00  0.00     0.003 A 
ENDROOT
TORSDOF 0
ENDMDL
