MODEL 1
REMARK minimizedAffinity 8.21221352
REMARK minimizedRMSD -1
REMARK  0 active torsions:
REMARK  status: ('A' for Active; 'I' for Inactive)
ROOT
ATOM      1  C4' PXY d   1       5.918  -2.196  -4.892  0.00  0.00     0.077 C 
ATOM      2  C1' PXY d   1       3.938   2.090  -1.557  0.00  0.00     0.077 C 
ATOM      3  C1  PXY d   1       4.451   0.957  -2.424  0.00  0.00    -0.082 A 
ATOM      4  C2  PXY d   1       5.530   1.140  -3.169  0.00  0.00     0.003 A 
ATOM      5  C3  PXY d   1       5.989   0.137  -3.983  0.00  0.00     0.003 A 
ATOM      6  C4  PXY d   1       5.369  -1.084  -3.995  0.00  0.00    -0.082 A 
ATOM      7  C5  PXY d   1       4.275  -1.282  -3.230  0.00  0.00     0.003 A 
ATOM      8  C6  PXY d   1       3.800  -0.238  -2.442  0.00  0.00     0.003 A 
ENDROOT
TORSDOF 0
ENDMDL
