MODEL 1
REMARK minimizedAffinity 5.90172005
REMARK minimizedRMSD -1
REMARK  0 active torsions:
REMARK  status: ('A' for Active; 'I' for Inactive)
ROOT
ATOM      1  C4' PXY d   1      -0.644  -0.984   0.480  0.00  0.00     0.077 C 
ATOM      2  C1' PXY d   1       1.887  -1.067   5.676  0.00  0.00     0.077 C 
ATOM      3  C1  PXY d   1       1.235  -1.043   4.308  0.00  0.00    -0.082 A 
ATOM      4  C2  PXY d   1      -0.065  -0.814   4.207  0.00  0.00     0.003 A 
ATOM      5  C3  PXY d   1      -0.676  -0.820   2.980  0.00  0.00     0.003 A 
ATOM      6  C4  PXY d   1       0.059  -1.009   1.840  0.00  0.00    -0.082 A 
ATOM      7  C5  PXY d   1       1.387  -1.232   1.934  0.00  0.00     0.003 A 
ATOM      8  C6  PXY d   1       1.982  -1.263   3.192  0.00  0.00     0.003 A 
ENDROOT
TORSDOF 0
ENDMDL
