MODEL 1
REMARK minimizedAffinity 14.8042307
REMARK minimizedRMSD -1
REMARK  0 active torsions:
REMARK  status: ('A' for Active; 'I' for Inactive)
ROOT
ATOM      1  C4' PXY d   1       3.771   1.433  -1.684  0.00  0.00     0.077 C 
ATOM      2  C1' PXY d   1       4.834  -2.263  -5.999  0.00  0.00     0.077 C 
ATOM      3  C1  PXY d   1       4.543  -1.294  -4.870  0.00  0.00    -0.082 A 
ATOM      4  C2  PXY d   1       5.493  -0.476  -4.448  0.00  0.00     0.003 A 
ATOM      5  C3  PXY d   1       5.256   0.384  -3.407  0.00  0.00     0.003 A 
ATOM      6  C4  PXY d   1       4.017   0.445  -2.827  0.00  0.00    -0.082 A 
ATOM      7  C5  PXY d   1       3.039  -0.379  -3.259  0.00  0.00     0.003 A 
ATOM      8  C6  PXY d   1       3.312  -1.274  -4.290  0.00  0.00     0.003 A 
ENDROOT
TORSDOF 0
ENDMDL
