MODEL 1
REMARK minimizedAffinity 19.169014
REMARK minimizedRMSD -1
REMARK  0 active torsions:
REMARK  status: ('A' for Active; 'I' for Inactive)
ROOT
ATOM      1  C4' PXY d   1       5.905   4.677   5.095  0.00  0.00     0.077 C 
ATOM      2  C1' PXY d   1       0.243   5.830   4.911  0.00  0.00     0.077 C 
ATOM      3  C1  PXY d   1       1.726   5.517   4.952  0.00  0.00    -0.082 A 
ATOM      4  C2  PXY d   1       2.467   5.991   5.940  0.00  0.00     0.003 A 
ATOM      5  C3  PXY d   1       3.816   5.745   5.975  0.00  0.00     0.003 A 
ATOM      6  C4  PXY d   1       4.402   4.960   5.018  0.00  0.00    -0.082 A 
ATOM      7  C5  PXY d   1       3.650   4.464   4.013  0.00  0.00     0.003 A 
ATOM      8  C6  PXY d   1       2.291   4.760   3.973  0.00  0.00     0.003 A 
ENDROOT
TORSDOF 0
ENDMDL
