MODEL 1
REMARK minimizedAffinity 4.74219656
REMARK minimizedRMSD -1
REMARK  0 active torsions:
REMARK  status: ('A' for Active; 'I' for Inactive)
ROOT
ATOM      1  C4' PXY d   1      -1.620  -2.462  -3.429  0.00  0.00     0.077 C 
ATOM      2  C1' PXY d   1      -1.579  -2.227   2.346  0.00  0.00     0.077 C 
ATOM      3  C1  PXY d   1      -1.600  -2.281   0.832  0.00  0.00    -0.082 A 
ATOM      4  C2  PXY d   1      -1.090  -3.329   0.207  0.00  0.00     0.003 A 
ATOM      5  C3  PXY d   1      -1.071  -3.380  -1.163  0.00  0.00     0.003 A 
ATOM      6  C4  PXY d   1      -1.629  -2.370  -1.901  0.00  0.00    -0.082 A 
ATOM      7  C5  PXY d   1      -2.161  -1.301  -1.271  0.00  0.00     0.003 A 
ATOM      8  C6  PXY d   1      -2.133  -1.251   0.120  0.00  0.00     0.003 A 
ENDROOT
TORSDOF 0
ENDMDL
