MODEL 1
REMARK minimizedAffinity 4.27021122
REMARK minimizedRMSD -1
REMARK  0 active torsions:
REMARK  status: ('A' for Active; 'I' for Inactive)
ROOT
ATOM      1  C4' PXY d   1      -1.444   2.556  -3.730  0.00  0.00     0.077 C 
ATOM      2  C1' PXY d   1      -2.209  -2.133  -0.438  0.00  0.00     0.077 C 
ATOM      3  C1  PXY d   1      -1.995  -0.904  -1.299  0.00  0.00    -0.082 A 
ATOM      4  C2  PXY d   1      -2.976  -0.027  -1.442  0.00  0.00     0.003 A 
ATOM      5  C3  PXY d   1      -2.810   1.073  -2.243  0.00  0.00     0.003 A 
ATOM      6  C4  PXY d   1      -1.612   1.306  -2.862  0.00  0.00    -0.082 A 
ATOM      7  C5  PXY d   1      -0.603   0.421  -2.713  0.00  0.00     0.003 A 
ATOM      8  C6  PXY d   1      -0.805  -0.711  -1.929  0.00  0.00     0.003 A 
ENDROOT
TORSDOF 0
ENDMDL
