MODEL 1
REMARK minimizedAffinity -4.15673161
REMARK minimizedRMSD -1
REMARK  0 active torsions:
REMARK  status: ('A' for Active; 'I' for Inactive)
ROOT
ATOM      1  C4' PXY d   1       1.760   0.507   0.089  0.00  0.00     0.077 C 
ATOM      2  C1' PXY d   1      -3.828  -0.957  -0.127  0.00  0.00     0.077 C 
ATOM      3  C1  PXY d   1      -2.363  -0.574  -0.057  0.00  0.00    -0.082 A 
ATOM      4  C2  PXY d   1      -1.824   0.131  -1.038  0.00  0.00     0.003 A 
ATOM      5  C3  PXY d   1      -0.493   0.459  -1.007  0.00  0.00     0.003 A 
ATOM      6  C4  PXY d   1       0.282   0.106   0.066  0.00  0.00    -0.082 A 
ATOM      7  C5  PXY d   1      -0.263  -0.605   1.075  0.00  0.00     0.003 A 
ATOM      8  C6  PXY d   1      -1.606  -0.963   1.005  0.00  0.00     0.003 A 
ENDROOT
TORSDOF 0
ENDMDL
