MODEL 1
REMARK minimizedAffinity -2.68142796
REMARK minimizedRMSD -1
REMARK  0 active torsions:
REMARK  status: ('A' for Active; 'I' for Inactive)
ROOT
ATOM      1  C4' PXY d   1       2.775  -0.091  -0.070  0.00  0.00     0.077 C 
ATOM      2  C1' PXY d   1      -2.907  -0.983  -0.649  0.00  0.00     0.077 C 
ATOM      3  C1  PXY d   1      -1.418  -0.750  -0.485  0.00  0.00    -0.082 A 
ATOM      4  C2  PXY d   1      -0.755  -0.077  -1.410  0.00  0.00     0.003 A 
ATOM      5  C3  PXY d   1       0.598   0.115  -1.293  0.00  0.00     0.003 A 
ATOM      6  C4  PXY d   1       1.269  -0.341  -0.190  0.00  0.00    -0.082 A 
ATOM      7  C5  PXY d   1       0.598  -1.020   0.764  0.00  0.00     0.003 A 
ATOM      8  C6  PXY d   1      -0.768  -1.240   0.606  0.00  0.00     0.003 A 
ENDROOT
TORSDOF 0
ENDMDL
