MODEL 1
REMARK minimizedAffinity 0.718063712
REMARK minimizedRMSD -1
REMARK  0 active torsions:
REMARK  status: ('A' for Active; 'I' for Inactive)
ROOT
ATOM      1  C4' PXY d   1       5.429   2.169   0.377  0.00  0.00     0.077 C 
ATOM      2  C1' PXY d   1       5.547  -1.846  -3.780  0.00  0.00     0.077 C 
ATOM      3  C1  PXY d   1       5.506  -0.800  -2.684  0.00  0.00    -0.082 A 
ATOM      4  C2  PXY d   1       6.000   0.406  -2.913  0.00  0.00     0.003 A 
ATOM      5  C3  PXY d   1       6.000   1.355  -1.923  0.00  0.00     0.003 A 
ATOM      6  C4  PXY d   1       5.440   1.083  -0.703  0.00  0.00    -0.082 A 
ATOM      7  C5  PXY d   1       4.925  -0.141  -0.466  0.00  0.00     0.003 A 
ATOM      8  C6  PXY d   1       4.972  -1.104  -1.470  0.00  0.00     0.003 A 
ENDROOT
TORSDOF 0
ENDMDL
