MODEL 1
REMARK minimizedAffinity -3.63758874
REMARK minimizedRMSD -1
REMARK  0 active torsions:
REMARK  status: ('A' for Active; 'I' for Inactive)
ROOT
ATOM      1  C4' PXY d   1      -0.181   0.632  -1.925  0.00  0.00     0.077 C 
ATOM      2  C1' PXY d   1      -3.844  -2.855   0.876  0.00  0.00     0.077 C 
ATOM      3  C1  PXY d   1      -2.881  -1.934   0.153  0.00  0.00    -0.082 A 
ATOM      4  C2  PXY d   1      -3.016  -1.738  -1.149  0.00  0.00     0.003 A 
ATOM      5  C3  PXY d   1      -2.135  -0.934  -1.824  0.00  0.00     0.003 A 
ATOM      6  C4  PXY d   1      -1.136  -0.282  -1.151  0.00  0.00    -0.082 A 
ATOM      7  C5  PXY d   1      -0.998  -0.469   0.178  0.00  0.00     0.003 A 
ATOM      8  C6  PXY d   1      -1.878  -1.321   0.838  0.00  0.00     0.003 A 
ENDROOT
TORSDOF 0
ENDMDL
