MODEL 1
REMARK minimizedAffinity -1.79510498
REMARK minimizedRMSD -1
REMARK  0 active torsions:
REMARK  status: ('A' for Active; 'I' for Inactive)
ROOT
ATOM      1  C4' PXY d   1       0.859  -0.040  -1.320  0.00  0.00     0.077 C 
ATOM      2  C1' PXY d   1      -4.341  -1.379   0.820  0.00  0.00     0.077 C 
ATOM      3  C1  PXY d   1      -2.976  -1.019   0.268  0.00  0.00    -0.082 A 
ATOM      4  C2  PXY d   1      -2.690  -1.287  -0.996  0.00  0.00     0.003 A 
ATOM      5  C3  PXY d   1      -1.449  -0.997  -1.503  0.00  0.00     0.003 A 
ATOM      6  C4  PXY d   1      -0.510  -0.378  -0.723  0.00  0.00    -0.082 A 
ATOM      7  C5  PXY d   1      -0.797  -0.091   0.565  0.00  0.00     0.003 A 
ATOM      8  C6  PXY d   1      -2.048  -0.431   1.072  0.00  0.00     0.003 A 
ENDROOT
TORSDOF 0
ENDMDL
