MODEL 1
REMARK minimizedAffinity -0.93997246
REMARK minimizedRMSD -1
REMARK  0 active torsions:
REMARK  status: ('A' for Active; 'I' for Inactive)
ROOT
ATOM      1  C4' PXY d   1      -3.725  -1.125   0.375  0.00  0.00     0.077 C 
ATOM      2  C1' PXY d   1       1.822   0.000  -0.799  0.00  0.00     0.077 C 
ATOM      3  C1  PXY d   1       0.364  -0.289  -0.502  0.00  0.00    -0.082 A 
ATOM      4  C2  PXY d   1      -0.028  -0.456   0.750  0.00  0.00     0.003 A 
ATOM      5  C3  PXY d   1      -1.337  -0.750   1.034  0.00  0.00     0.003 A 
ATOM      6  C4  PXY d   1      -2.265  -0.822   0.029  0.00  0.00    -0.082 A 
ATOM      7  C5  PXY d   1      -1.875  -0.642  -1.250  0.00  0.00     0.003 A 
ATOM      8  C6  PXY d   1      -0.534  -0.385  -1.521  0.00  0.00     0.003 A 
ENDROOT
TORSDOF 0
ENDMDL
