MODEL 1
REMARK minimizedAffinity -2.89315033
REMARK minimizedRMSD -1
REMARK  0 active torsions:
REMARK  status: ('A' for Active; 'I' for Inactive)
ROOT
ATOM      1  C4' PXY d   1       1.120   0.538  -1.473  0.00  0.00     0.077 C 
ATOM      2  C1' PXY d   1      -4.182  -0.711   0.463  0.00  0.00     0.077 C 
ATOM      3  C1  PXY d   1      -2.794  -0.391  -0.055  0.00  0.00    -0.082 A 
ATOM      4  C2  PXY d   1      -1.853  -0.005   0.791  0.00  0.00     0.003 A 
ATOM      5  C3  PXY d   1      -0.601   0.319   0.335  0.00  0.00     0.003 A 
ATOM      6  C4  PXY d   1      -0.294   0.196  -0.993  0.00  0.00    -0.082 A 
ATOM      7  C5  PXY d   1      -1.245  -0.207  -1.862  0.00  0.00     0.003 A 
ATOM      8  C6  PXY d   1      -2.522  -0.492  -1.385  0.00  0.00     0.003 A 
ENDROOT
TORSDOF 0
ENDMDL
