MODEL 1
REMARK minimizedAffinity 1.36318469
REMARK minimizedRMSD -1
REMARK  0 active torsions:
REMARK  status: ('A' for Active; 'I' for Inactive)
ROOT
ATOM      1  C4' PXY d   1      -0.788  -1.922   1.445  0.00  0.00     0.077 C 
ATOM      2  C1' PXY d   1      -1.102   1.641  -3.096  0.00  0.00     0.077 C 
ATOM      3  C1  PXY d   1      -1.033   0.707  -1.903  0.00  0.00    -0.082 A 
ATOM      4  C2  PXY d   1       0.096   0.599  -1.222  0.00  0.00     0.003 A 
ATOM      5  C3  PXY d   1       0.186  -0.265  -0.161  0.00  0.00     0.003 A 
ATOM      6  C4  PXY d   1      -0.907  -0.985   0.240  0.00  0.00    -0.082 A 
ATOM      7  C5  PXY d   1      -2.066  -0.872  -0.443  0.00  0.00     0.003 A 
ATOM      8  C6  PXY d   1      -2.124  -0.021  -1.542  0.00  0.00     0.003 A 
ENDROOT
TORSDOF 0
ENDMDL
