MODEL 1
REMARK minimizedAffinity -3.63573408
REMARK minimizedRMSD -1
REMARK  0 active torsions:
REMARK  status: ('A' for Active; 'I' for Inactive)
ROOT
ATOM      1  C4' PXY d   1       0.003   1.133  -2.623  0.00  0.00     0.077 C 
ATOM      2  C1' PXY d   1      -1.139  -2.242   1.929  0.00  0.00     0.077 C 
ATOM      3  C1  PXY d   1      -0.830  -1.351   0.742  0.00  0.00    -0.082 A 
ATOM      4  C2  PXY d   1      -1.744  -1.174  -0.198  0.00  0.00     0.003 A 
ATOM      5  C3  PXY d   1      -1.470  -0.397  -1.294  0.00  0.00     0.003 A 
ATOM      6  C4  PXY d   1      -0.268   0.249  -1.403  0.00  0.00    -0.082 A 
ATOM      7  C5  PXY d   1       0.666   0.083  -0.442  0.00  0.00     0.003 A 
ATOM      8  C6  PXY d   1       0.383  -0.744   0.642  0.00  0.00     0.003 A 
ENDROOT
TORSDOF 0
ENDMDL
