MODEL 1
REMARK minimizedAffinity -3.28698277
REMARK minimizedRMSD -1
REMARK  0 active torsions:
REMARK  status: ('A' for Active; 'I' for Inactive)
ROOT
ATOM      1  C4' PXY d   1      -3.639  -1.285  -0.177  0.00  0.00     0.077 C 
ATOM      2  C1' PXY d   1       1.857   0.484   0.103  0.00  0.00     0.077 C 
ATOM      3  C1  PXY d   1       0.418   0.010   0.038  0.00  0.00    -0.082 A 
ATOM      4  C2  PXY d   1      -0.336   0.352  -0.994  0.00  0.00     0.003 A 
ATOM      5  C3  PXY d   1      -1.649  -0.042  -1.054  0.00  0.00     0.003 A 
ATOM      6  C4  PXY d   1      -2.179  -0.837  -0.073  0.00  0.00    -0.082 A 
ATOM      7  C5  PXY d   1      -1.412  -1.199   0.977  0.00  0.00     0.003 A 
ATOM      8  C6  PXY d   1      -0.094  -0.755   1.039  0.00  0.00     0.003 A 
ENDROOT
TORSDOF 0
ENDMDL
