MODEL 1
REMARK minimizedAffinity -0.647790551
REMARK minimizedRMSD -1
REMARK  0 active torsions:
REMARK  status: ('A' for Active; 'I' for Inactive)
ROOT
ATOM      1  C   UNL d   1       0.732   0.736  -4.710  0.00  0.00     0.124 A 
ATOM      2  C1  UNL d   1       1.363   1.495  -3.734  0.00  0.00     0.062 A 
ATOM      3  C2  UNL d   1       1.260   1.137  -2.393  0.00  0.00     0.162 A 
ATOM      4  C3  UNL d   1       0.524   0.012  -2.020  0.00  0.00    -0.034 A 
ATOM      5  C4  UNL d   1      -0.108  -0.746  -3.008  0.00  0.00     0.162 A 
ATOM      6  C5  UNL d   1      -0.002  -0.383  -4.346  0.00  0.00     0.062 A 
ATOM      7  F   UNL d   1      -0.612  -1.118  -5.288  0.00  0.00    -0.097 F 
ATOM      8  F1  UNL d   1      -0.823  -1.834  -2.684  0.00  0.00    -0.096 F 
ATOM      9  I   UNL d   1       0.368  -0.528  -0.016  0.00  0.00    -0.060 I 
ATOM     10  F2  UNL d   1       1.880   1.888  -1.472  0.00  0.00    -0.096 F 
ATOM     11  F3  UNL d   1       2.072   2.578  -4.083  0.00  0.00    -0.097 F 
ATOM     12  F4  UNL d   1       0.832   1.085  -6.000  0.00  0.00    -0.092 F 
ENDROOT
TORSDOF 0
ENDMDL
