MODEL 1
REMARK minimizedAffinity -1.19757986
REMARK minimizedRMSD -1
REMARK  0 active torsions:
REMARK  status: ('A' for Active; 'I' for Inactive)
ROOT
ATOM      1  C   UNL d   1       0.631  -0.814  -1.655  0.00  0.00     0.124 A 
ATOM      2  C1  UNL d   1      -0.386   0.131  -1.658  0.00  0.00     0.062 A 
ATOM      3  C2  UNL d   1      -0.759   0.762  -0.475  0.00  0.00     0.162 A 
ATOM      4  C3  UNL d   1      -0.115   0.450   0.722  0.00  0.00    -0.034 A 
ATOM      5  C4  UNL d   1       0.906  -0.502   0.718  0.00  0.00     0.162 A 
ATOM      6  C5  UNL d   1       1.276  -1.129  -0.467  0.00  0.00     0.062 A 
ATOM      7  F   UNL d   1       2.258  -2.042  -0.462  0.00  0.00    -0.097 F 
ATOM      8  F1  UNL d   1       1.547  -0.825   1.851  0.00  0.00    -0.096 F 
ATOM      9  I   UNL d   1      -0.670   1.391   2.494  0.00  0.00    -0.060 I 
ATOM     10  F2  UNL d   1      -1.745   1.671  -0.508  0.00  0.00    -0.096 F 
ATOM     11  F3  UNL d   1      -1.011   0.437  -2.804  0.00  0.00    -0.097 F 
ATOM     12  F4  UNL d   1       0.988  -1.420  -2.794  0.00  0.00    -0.092 F 
ENDROOT
TORSDOF 0
ENDMDL
