MODEL 1
REMARK minimizedAffinity 6.19015646
REMARK minimizedRMSD -1
REMARK  0 active torsions:
REMARK  status: ('A' for Active; 'I' for Inactive)
ROOT
ATOM      1  C   UNL d   1      -1.443   0.839   2.756  0.00  0.00     0.124 A 
ATOM      2  C1  UNL d   1      -2.067  -0.373   3.016  0.00  0.00     0.062 A 
ATOM      3  C2  UNL d   1      -2.205  -1.320   2.005  0.00  0.00     0.162 A 
ATOM      4  C3  UNL d   1      -1.718  -1.059   0.724  0.00  0.00    -0.034 A 
ATOM      5  C4  UNL d   1      -1.092   0.163   0.470  0.00  0.00     0.162 A 
ATOM      6  C5  UNL d   1      -0.956   1.106   1.484  0.00  0.00     0.062 A 
ATOM      7  F   UNL d   1      -0.353   2.276   1.231  0.00  0.00    -0.097 F 
ATOM      8  F1  UNL d   1      -0.612   0.446  -0.749  0.00  0.00    -0.096 F 
ATOM      9  I   UNL d   1      -1.923  -2.472  -0.790  0.00  0.00    -0.060 I 
ATOM     10  F2  UNL d   1      -2.813  -2.483   2.285  0.00  0.00    -0.096 F 
ATOM     11  F3  UNL d   1      -2.538  -0.633   4.244  0.00  0.00    -0.097 F 
ATOM     12  F4  UNL d   1      -1.311   1.748   3.730  0.00  0.00    -0.092 F 
ENDROOT
TORSDOF 0
ENDMDL
