MODEL 1
REMARK minimizedAffinity -0.0962279364
REMARK minimizedRMSD -1
REMARK  0 active torsions:
REMARK  status: ('A' for Active; 'I' for Inactive)
ROOT
ATOM      1  C   UNL d   1       0.103   1.318   0.885  0.00  0.00     0.124 A 
ATOM      2  C1  UNL d   1       0.223   0.671  -0.336  0.00  0.00     0.062 A 
ATOM      3  C2  UNL d   1      -0.566  -0.440  -0.620  0.00  0.00     0.162 A 
ATOM      4  C3  UNL d   1      -1.483  -0.911   0.319  0.00  0.00    -0.034 A 
ATOM      5  C4  UNL d   1      -1.598  -0.255   1.546  0.00  0.00     0.162 A 
ATOM      6  C5  UNL d   1      -0.807   0.855   1.825  0.00  0.00     0.062 A 
ATOM      7  F   UNL d   1      -0.924   1.479   3.007  0.00  0.00    -0.097 F 
ATOM      8  F1  UNL d   1      -2.469  -0.681   2.473  0.00  0.00    -0.096 F 
ATOM      9  I   UNL d   1      -2.665  -2.571  -0.102  0.00  0.00    -0.060 I 
ATOM     10  F2  UNL d   1      -0.429  -1.046  -1.809  0.00  0.00    -0.096 F 
ATOM     11  F3  UNL d   1       1.102   1.116  -1.246  0.00  0.00    -0.097 F 
ATOM     12  F4  UNL d   1       0.864   2.386   1.156  0.00  0.00    -0.092 F 
ENDROOT
TORSDOF 0
ENDMDL
