MODEL 1
REMARK minimizedAffinity -2.37501812
REMARK minimizedRMSD -1
REMARK  0 active torsions:
REMARK  status: ('A' for Active; 'I' for Inactive)
ROOT
ATOM      1  C   UNL d   1      -0.225  -0.335  -4.752  0.00  0.00     0.124 A 
ATOM      2  C1  UNL d   1       0.893   0.402  -4.389  0.00  0.00     0.062 A 
ATOM      3  C2  UNL d   1       1.396   0.319  -3.094  0.00  0.00     0.162 A 
ATOM      4  C3  UNL d   1       0.782  -0.507  -2.152  0.00  0.00    -0.034 A 
ATOM      5  C4  UNL d   1      -0.342  -1.245  -2.525  0.00  0.00     0.162 A 
ATOM      6  C5  UNL d   1      -0.842  -1.158  -3.820  0.00  0.00     0.062 A 
ATOM      7  F   UNL d   1      -1.922  -1.872  -4.169  0.00  0.00    -0.097 F 
ATOM      8  F1  UNL d   1      -0.957  -2.049  -1.644  0.00  0.00    -0.096 F 
ATOM      9  I   UNL d   1       1.532  -0.634  -0.215  0.00  0.00    -0.060 I 
ATOM     10  F2  UNL d   1       2.478   1.043  -2.771  0.00  0.00    -0.096 F 
ATOM     11  F3  UNL d   1       1.490   1.199  -5.288  0.00  0.00    -0.097 F 
ATOM     12  F4  UNL d   1      -0.708  -0.252  -5.999  0.00  0.00    -0.092 F 
ENDROOT
TORSDOF 0
ENDMDL
