MODEL 1
REMARK minimizedAffinity 3.72221541
REMARK minimizedRMSD -1
REMARK  0 active torsions:
REMARK  status: ('A' for Active; 'I' for Inactive)
ROOT
ATOM      1  C   UNL d   1       1.189  -0.400   1.213  0.00  0.00     0.124 A 
ATOM      2  C1  UNL d   1       0.090   0.356   0.829  0.00  0.00     0.062 A 
ATOM      3  C2  UNL d   1      -0.056   0.756  -0.496  0.00  0.00     0.162 A 
ATOM      4  C3  UNL d   1       0.900   0.400  -1.448  0.00  0.00    -0.034 A 
ATOM      5  C4  UNL d   1       2.003  -0.360  -1.054  0.00  0.00     0.162 A 
ATOM      6  C5  UNL d   1       2.144  -0.757   0.271  0.00  0.00     0.062 A 
ATOM      7  F   UNL d   1       3.207  -1.487   0.640  0.00  0.00    -0.097 F 
ATOM      8  F1  UNL d   1       2.940  -0.719  -1.944  0.00  0.00    -0.096 F 
ATOM      9  I   UNL d   1       0.685   0.996  -3.431  0.00  0.00    -0.060 I 
ATOM     10  F2  UNL d   1      -1.128   1.485  -0.839  0.00  0.00    -0.096 F 
ATOM     11  F3  UNL d   1      -0.833   0.702   1.737  0.00  0.00    -0.097 F 
ATOM     12  F4  UNL d   1       1.328  -0.783   2.489  0.00  0.00    -0.092 F 
ENDROOT
TORSDOF 0
ENDMDL
