MODEL 1
REMARK minimizedAffinity 4.08408022
REMARK minimizedRMSD -1
REMARK  0 active torsions:
REMARK  status: ('A' for Active; 'I' for Inactive)
ROOT
ATOM      1  C   UNL d   1       0.339   0.900   2.526  0.00  0.00     0.124 A 
ATOM      2  C1  UNL d   1      -0.956   0.907   2.025  0.00  0.00     0.062 A 
ATOM      3  C2  UNL d   1      -1.216   0.409   0.752  0.00  0.00     0.162 A 
ATOM      4  C3  UNL d   1      -0.180  -0.101  -0.030  0.00  0.00    -0.034 A 
ATOM      5  C4  UNL d   1       1.119  -0.104   0.479  0.00  0.00     0.162 A 
ATOM      6  C5  UNL d   1       1.375   0.394   1.753  0.00  0.00     0.062 A 
ATOM      7  F   UNL d   1       2.626   0.386   2.235  0.00  0.00    -0.097 F 
ATOM      8  F1  UNL d   1       2.139  -0.588  -0.246  0.00  0.00    -0.096 F 
ATOM      9  I   UNL d   1      -0.566  -0.846  -1.935  0.00  0.00    -0.060 I 
ATOM     10  F2  UNL d   1      -2.477   0.429   0.293  0.00  0.00    -0.096 F 
ATOM     11  F3  UNL d   1      -1.958   1.396   2.769  0.00  0.00    -0.097 F 
ATOM     12  F4  UNL d   1       0.587   1.380   3.751  0.00  0.00    -0.092 F 
ENDROOT
TORSDOF 0
ENDMDL
