MODEL 1
REMARK minimizedAffinity -1.30207348
REMARK minimizedRMSD -1
REMARK  0 active torsions:
REMARK  status: ('A' for Active; 'I' for Inactive)
ROOT
ATOM      1  C   UNL d   1      -1.402  -0.155   1.948  0.00  0.00     0.124 A 
ATOM      2  C1  UNL d   1      -0.376   0.776   1.863  0.00  0.00     0.062 A 
ATOM      3  C2  UNL d   1       0.367   0.894   0.692  0.00  0.00     0.162 A 
ATOM      4  C3  UNL d   1       0.086   0.080  -0.405  0.00  0.00    -0.034 A 
ATOM      5  C4  UNL d   1      -0.947  -0.855  -0.311  0.00  0.00     0.162 A 
ATOM      6  C5  UNL d   1      -1.687  -0.969   0.861  0.00  0.00     0.062 A 
ATOM      7  F   UNL d   1      -2.678  -1.869   0.941  0.00  0.00    -0.097 F 
ATOM      8  F1  UNL d   1      -1.244  -1.654  -1.347  0.00  0.00    -0.096 F 
ATOM      9  I   UNL d   1       1.194   0.253  -2.157  0.00  0.00    -0.060 I 
ATOM     10  F2  UNL d   1       1.352   1.803   0.638  0.00  0.00    -0.096 F 
ATOM     11  F3  UNL d   1      -0.099   1.564   2.912  0.00  0.00    -0.097 F 
ATOM     12  F4  UNL d   1      -2.115  -0.267   3.076  0.00  0.00    -0.092 F 
ENDROOT
TORSDOF 0
ENDMDL
