MODEL 1
REMARK minimizedAffinity -3.17575383
REMARK minimizedRMSD -1
REMARK  0 active torsions:
REMARK  status: ('A' for Active; 'I' for Inactive)
ROOT
ATOM      1  C   UNL d   1      -1.373   2.013   1.001  0.00  0.00     0.172 C 
ATOM      2  N   UNL d   1      -0.697   1.127   0.084  0.00  0.00    -0.070 N 
ATOM      3  C1  UNL d   1      -0.131  -0.077   0.407  0.00  0.00    -0.004 A 
ATOM      4  C2  UNL d   1       0.411  -0.612  -0.742  0.00  0.00    -0.047 A 
ATOM      5  C3  UNL d   1       0.162   0.303  -1.792  0.00  0.00    -0.047 A 
ATOM      6  C4  UNL d   1      -0.525   1.370  -1.253  0.00  0.00    -0.004 A 
ENDROOT
TORSDOF 0
ENDMDL
