MODEL 1
REMARK minimizedAffinity -3.69131851
REMARK minimizedRMSD -1
REMARK  0 active torsions:
REMARK  status: ('A' for Active; 'I' for Inactive)
ROOT
ATOM      1  C   UNL d   1      -0.922   2.644   2.207  0.00  0.00     0.172 C 
ATOM      2  N   UNL d   1      -0.607   1.614   1.245  0.00  0.00    -0.070 N 
ATOM      3  C1  UNL d   1      -0.960   1.622  -0.078  0.00  0.00    -0.004 A 
ATOM      4  C2  UNL d   1      -0.473   0.467  -0.652  0.00  0.00    -0.047 A 
ATOM      5  C3  UNL d   1       0.195  -0.260   0.362  0.00  0.00    -0.047 A 
ATOM      6  C4  UNL d   1       0.097   0.473   1.526  0.00  0.00    -0.004 A 
ENDROOT
TORSDOF 0
ENDMDL
