MODEL 1
REMARK minimizedAffinity -3.49000287
REMARK minimizedRMSD -1
REMARK  0 active torsions:
REMARK  status: ('A' for Active; 'I' for Inactive)
ROOT
ATOM      1  C   UNL d   1      -0.056  -0.644  -0.601  0.00  0.00     0.172 C 
ATOM      2  N   UNL d   1      -0.527   0.528   0.099  0.00  0.00    -0.070 N 
ATOM      3  C1  UNL d   1      -1.131   1.613  -0.477  0.00  0.00    -0.004 A 
ATOM      4  C2  UNL d   1      -1.428   2.512   0.525  0.00  0.00    -0.047 A 
ATOM      5  C3  UNL d   1      -0.986   1.948   1.745  0.00  0.00    -0.047 A 
ATOM      6  C4  UNL d   1      -0.432   0.719   1.452  0.00  0.00    -0.004 A 
ENDROOT
TORSDOF 0
ENDMDL
