MODEL 1
REMARK minimizedAffinity -3.50906134
REMARK minimizedRMSD -1
REMARK  0 active torsions:
REMARK  status: ('A' for Active; 'I' for Inactive)
ROOT
ATOM      1  C   UNL d   1      -0.008   0.365  -1.128  0.00  0.00     0.172 C 
ATOM      2  N   UNL d   1      -0.611   1.431  -0.364  0.00  0.00    -0.070 N 
ATOM      3  C1  UNL d   1      -1.069   2.618  -0.871  0.00  0.00    -0.004 A 
ATOM      4  C2  UNL d   1      -1.570   3.360   0.176  0.00  0.00    -0.047 A 
ATOM      5  C3  UNL d   1      -1.407   2.593   1.354  0.00  0.00    -0.047 A 
ATOM      6  C4  UNL d   1      -0.812   1.404   0.991  0.00  0.00    -0.004 A 
ENDROOT
TORSDOF 0
ENDMDL
