MODEL 1
REMARK minimizedAffinity -2.3534224
REMARK minimizedRMSD -1
REMARK  0 active torsions:
REMARK  status: ('A' for Active; 'I' for Inactive)
ROOT
ATOM      1  C   UNL d   1      -0.528   2.201   1.989  0.00  0.00     0.172 C 
ATOM      2  N   UNL d   1       0.110   1.013   2.505  0.00  0.00    -0.070 N 
ATOM      3  C1  UNL d   1      -0.118   0.455   3.735  0.00  0.00    -0.004 A 
ATOM      4  C2  UNL d   1       0.682  -0.662   3.846  0.00  0.00    -0.047 A 
ATOM      5  C3  UNL d   1       1.416  -0.779   2.642  0.00  0.00    -0.047 A 
ATOM      6  C4  UNL d   1       1.042   0.271   1.830  0.00  0.00    -0.004 A 
ENDROOT
TORSDOF 0
ENDMDL
