MODEL 1
REMARK minimizedAffinity -3.59928465
REMARK minimizedRMSD -1
REMARK  0 active torsions:
REMARK  status: ('A' for Active; 'I' for Inactive)
ROOT
ATOM      1  C   UNL d   1       0.326  -0.636  -0.666  0.00  0.00     0.172 C 
ATOM      2  N   UNL d   1       0.017   0.362   0.330  0.00  0.00    -0.070 N 
ATOM      3  C1  UNL d   1       0.599   0.464   1.565  0.00  0.00    -0.004 A 
ATOM      4  C2  UNL d   1       0.032   1.542   2.211  0.00  0.00    -0.047 A 
ATOM      5  C3  UNL d   1      -0.924   2.107   1.333  0.00  0.00    -0.047 A 
ATOM      6  C4  UNL d   1      -0.913   1.357   0.176  0.00  0.00    -0.004 A 
ENDROOT
TORSDOF 0
ENDMDL
