MODEL 1
REMARK minimizedAffinity -2.9030757
REMARK minimizedRMSD -1
REMARK  0 active torsions:
REMARK  status: ('A' for Active; 'I' for Inactive)
ROOT
ATOM      1  C   UNL d   1       0.372  -0.701  -0.910  0.00  0.00     0.172 C 
ATOM      2  N   UNL d   1       0.043   0.187   0.180  0.00  0.00    -0.070 N 
ATOM      3  C1  UNL d   1       0.717   0.277   1.368  0.00  0.00    -0.004 A 
ATOM      4  C2  UNL d   1       0.093   1.236   2.136  0.00  0.00    -0.047 A 
ATOM      5  C3  UNL d   1      -0.995   1.740   1.384  0.00  0.00    -0.047 A 
ATOM      6  C4  UNL d   1      -1.003   1.073   0.177  0.00  0.00    -0.004 A 
ENDROOT
TORSDOF 0
ENDMDL
