MODEL 1
REMARK minimizedAffinity -3.74652648
REMARK minimizedRMSD -1
REMARK  0 active torsions:
REMARK  status: ('A' for Active; 'I' for Inactive)
ROOT
ATOM      1  C   UNL d   1      -0.165   1.325  -1.611  0.00  0.00     0.172 C 
ATOM      2  N   UNL d   1      -0.195   0.989  -0.207  0.00  0.00    -0.070 N 
ATOM      3  C1  UNL d   1       0.299  -0.160   0.350  0.00  0.00    -0.004 A 
ATOM      4  C2  UNL d   1       0.079  -0.099   1.709  0.00  0.00    -0.047 A 
ATOM      5  C3  UNL d   1      -0.572   1.128   1.978  0.00  0.00    -0.047 A 
ATOM      6  C4  UNL d   1      -0.729   1.782   0.774  0.00  0.00    -0.004 A 
ENDROOT
TORSDOF 0
ENDMDL
