MODEL 1
REMARK minimizedAffinity -4.00283813
REMARK minimizedRMSD -1
REMARK  0 active torsions:
REMARK  status: ('A' for Active; 'I' for Inactive)
ROOT
ATOM      1  C   UNL d   1      -1.141   2.229   1.818  0.00  0.00     0.172 C 
ATOM      2  N   UNL d   1      -0.539   1.145   1.079  0.00  0.00    -0.070 N 
ATOM      3  C1  UNL d   1      -0.749   0.867  -0.245  0.00  0.00    -0.004 A 
ATOM      4  C2  UNL d   1       0.005  -0.240  -0.569  0.00  0.00    -0.047 A 
ATOM      5  C3  UNL d   1       0.691  -0.643   0.601  0.00  0.00    -0.047 A 
ATOM      6  C4  UNL d   1       0.336   0.232   1.606  0.00  0.00    -0.004 A 
ENDROOT
TORSDOF 0
ENDMDL
