MODEL 1
REMARK minimizedAffinity -3.48636317
REMARK minimizedRMSD -1
REMARK  0 active torsions:
REMARK  status: ('A' for Active; 'I' for Inactive)
ROOT
ATOM      1  C   UNL d   1      -1.361   2.017   1.562  0.00  0.00     0.172 C 
ATOM      2  N   UNL d   1      -0.576   1.134   0.732  0.00  0.00    -0.070 N 
ATOM      3  C1  UNL d   1       0.354   0.234   1.180  0.00  0.00    -0.004 A 
ATOM      4  C2  UNL d   1       0.879  -0.412   0.081  0.00  0.00    -0.047 A 
ATOM      5  C3  UNL d   1       0.243   0.119  -1.066  0.00  0.00    -0.047 A 
ATOM      6  C4  UNL d   1      -0.653   1.074  -0.635  0.00  0.00    -0.004 A 
ENDROOT
TORSDOF 0
ENDMDL
