MODEL 1
REMARK minimizedAffinity 2.68848991
REMARK minimizedRMSD -1
REMARK  0 active torsions:
REMARK  status: ('A' for Active; 'I' for Inactive)
ROOT
ATOM      1  C   UNL d   1      -1.457  -3.994   0.655  0.00  0.00     0.020 A 
ATOM      2  C1  UNL d   1      -0.169  -4.438   0.359  0.00  0.00     0.020 A 
ATOM      3  C2  UNL d   1       0.938  -3.777   0.896  0.00  0.00     0.034 A 
ATOM      4  C3  UNL d   1       0.759  -2.668   1.731  0.00  0.00     0.017 A 
ATOM      5  C4  UNL d   1      -0.534  -2.223   2.027  0.00  0.00     0.017 A 
ATOM      6  C5  UNL d   1      -1.639  -2.889   1.487  0.00  0.00     0.034 A 
ATOM      7 Cl   UNL d   1      -0.835  -0.862   3.049  0.00  0.00    -0.070 Cl
ATOM      8 Cl1  UNL d   1       2.173  -1.899   2.360  0.00  0.00    -0.070 Cl
ENDROOT
TORSDOF 0
ENDMDL
