MODEL 1
REMARK minimizedAffinity 7.6362133
REMARK minimizedRMSD -1
REMARK  0 active torsions:
REMARK  status: ('A' for Active; 'I' for Inactive)
ROOT
ATOM      1  C   UNL d   1      -0.529   4.444  -5.969  0.00  0.00     0.020 A 
ATOM      2  C1  UNL d   1       0.368   5.512  -5.988  0.00  0.00     0.020 A 
ATOM      3  C2  UNL d   1       1.429   5.549  -5.081  0.00  0.00     0.034 A 
ATOM      4  C3  UNL d   1       1.596   4.516  -4.152  0.00  0.00     0.017 A 
ATOM      5  C4  UNL d   1       0.696   3.445  -4.133  0.00  0.00     0.017 A 
ATOM      6  C5  UNL d   1      -0.365   3.413  -5.044  0.00  0.00     0.034 A 
ATOM      7 Cl   UNL d   1       0.837   2.134  -3.016  0.00  0.00    -0.070 Cl
ATOM      8 Cl1  UNL d   1       2.931   4.626  -3.060  0.00  0.00    -0.070 Cl
ENDROOT
TORSDOF 0
ENDMDL
