MODEL 1
REMARK minimizedAffinity 7.85992479
REMARK minimizedRMSD -1
REMARK  0 active torsions:
REMARK  status: ('A' for Active; 'I' for Inactive)
ROOT
ATOM      1  C   UNL d   1       0.292   5.366  -5.367  0.00  0.00     0.020 A 
ATOM      2  C1  UNL d   1      -0.797   4.662  -4.856  0.00  0.00     0.020 A 
ATOM      3  C2  UNL d   1      -0.601   3.688  -3.875  0.00  0.00     0.034 A 
ATOM      4  C3  UNL d   1       0.687   3.416  -3.401  0.00  0.00     0.017 A 
ATOM      5  C4  UNL d   1       1.780   4.123  -3.914  0.00  0.00     0.017 A 
ATOM      6  C5  UNL d   1       1.578   5.098  -4.897  0.00  0.00     0.034 A 
ATOM      7 Cl   UNL d   1       3.400   3.843  -3.379  0.00  0.00    -0.070 Cl
ATOM      8 Cl1  UNL d   1       0.857   2.199  -2.186  0.00  0.00    -0.070 Cl
ENDROOT
TORSDOF 0
ENDMDL
