MODEL 1
REMARK minimizedAffinity 9.67301655
REMARK minimizedRMSD -1
REMARK  0 active torsions:
REMARK  status: ('A' for Active; 'I' for Inactive)
ROOT
ATOM      1  C   UNL d   1       1.656   4.154  -4.062  0.00  0.00     0.020 A 
ATOM      2  C1  UNL d   1       1.620   4.505  -5.411  0.00  0.00     0.020 A 
ATOM      3  C2  UNL d   1       0.422   4.931  -5.989  0.00  0.00     0.034 A 
ATOM      4  C3  UNL d   1      -0.744   5.007  -5.219  0.00  0.00     0.017 A 
ATOM      5  C4  UNL d   1      -0.706   4.655  -3.865  0.00  0.00     0.017 A 
ATOM      6  C5  UNL d   1       0.496   4.229  -3.290  0.00  0.00     0.034 A 
ATOM      7 Cl   UNL d   1      -2.103   4.723  -2.850  0.00  0.00    -0.070 Cl
ATOM      8 Cl1  UNL d   1      -2.189   5.542  -5.999  0.00  0.00    -0.070 Cl
ENDROOT
TORSDOF 0
ENDMDL
