MODEL 1
REMARK minimizedAffinity -0.0531237908
REMARK minimizedRMSD -1
REMARK  0 active torsions:
REMARK  status: ('A' for Active; 'I' for Inactive)
ROOT
ATOM      1  C   UNL d   1      -5.973   1.640  -3.995  0.00  0.00     0.020 A 
ATOM      2  C1  UNL d   1      -5.919   0.247  -3.976  0.00  0.00     0.020 A 
ATOM      3  C2  UNL d   1      -5.889  -0.435  -2.758  0.00  0.00     0.034 A 
ATOM      4  C3  UNL d   1      -5.912   0.277  -1.553  0.00  0.00     0.017 A 
ATOM      5  C4  UNL d   1      -5.966   1.675  -1.572  0.00  0.00     0.017 A 
ATOM      6  C5  UNL d   1      -5.996   2.352  -2.795  0.00  0.00     0.034 A 
ATOM      7 Cl   UNL d   1      -5.997   2.622  -0.126  0.00  0.00    -0.070 Cl
ATOM      8 Cl1  UNL d   1      -5.872  -0.631  -0.083  0.00  0.00    -0.070 Cl
ENDROOT
TORSDOF 0
ENDMDL
