MODEL 1
REMARK minimizedAffinity -0.480396479
REMARK minimizedRMSD -1
REMARK  0 active torsions:
REMARK  status: ('A' for Active; 'I' for Inactive)
ROOT
ATOM      1  C   UNL d   1      -2.122  -5.232  -3.569  0.00  0.00     0.020 A 
ATOM      2  C1  UNL d   1      -2.080  -5.831  -4.828  0.00  0.00     0.020 A 
ATOM      3  C2  UNL d   1      -3.256  -5.998  -5.561  0.00  0.00     0.034 A 
ATOM      4  C3  UNL d   1      -4.480  -5.566  -5.037  0.00  0.00     0.017 A 
ATOM      5  C4  UNL d   1      -4.521  -4.964  -3.774  0.00  0.00     0.017 A 
ATOM      6  C5  UNL d   1      -3.340  -4.799  -3.044  0.00  0.00     0.034 A 
ATOM      7 Cl   UNL d   1      -5.993  -4.405  -3.061  0.00  0.00    -0.070 Cl
ATOM      8 Cl1  UNL d   1      -5.895  -5.804  -5.999  0.00  0.00    -0.070 Cl
ENDROOT
TORSDOF 0
ENDMDL
