MODEL 1
REMARK minimizedAffinity 4.8203187
REMARK minimizedRMSD -1
REMARK  0 active torsions:
REMARK  status: ('A' for Active; 'I' for Inactive)
ROOT
ATOM      1  C   UNL d   1      -1.130   5.689  -4.900  0.00  0.00     0.020 A 
ATOM      2  C1  UNL d   1      -0.254   5.868  -5.969  0.00  0.00     0.020 A 
ATOM      3  C2  UNL d   1       1.043   5.356  -5.903  0.00  0.00     0.034 A 
ATOM      4  C3  UNL d   1       1.468   4.661  -4.765  0.00  0.00     0.017 A 
ATOM      5  C4  UNL d   1       0.588   4.481  -3.692  0.00  0.00     0.017 A 
ATOM      6  C5  UNL d   1      -0.710   4.997  -3.763  0.00  0.00     0.034 A 
ATOM      7 Cl   UNL d   1       1.040   3.635  -2.254  0.00  0.00    -0.070 Cl
ATOM      8 Cl1  UNL d   1       3.086   4.054  -4.752  0.00  0.00    -0.070 Cl
ENDROOT
TORSDOF 0
ENDMDL
