MODEL 1
REMARK minimizedAffinity 4.17490911
REMARK minimizedRMSD -1
REMARK  0 active torsions:
REMARK  status: ('A' for Active; 'I' for Inactive)
ROOT
ATOM      1  C   UNL d   1       0.039   5.252  -5.135  0.00  0.00     0.020 A 
ATOM      2  C1  UNL d   1      -0.768   4.117  -5.061  0.00  0.00     0.020 A 
ATOM      3  C2  UNL d   1      -0.537   3.160  -4.071  0.00  0.00     0.034 A 
ATOM      4  C3  UNL d   1       0.504   3.335  -3.151  0.00  0.00     0.017 A 
ATOM      5  C4  UNL d   1       1.313   4.475  -3.227  0.00  0.00     0.017 A 
ATOM      6  C5  UNL d   1       1.077   5.430  -4.220  0.00  0.00     0.034 A 
ATOM      7 Cl   UNL d   1       2.616   4.761  -2.128  0.00  0.00    -0.070 Cl
ATOM      8 Cl1  UNL d   1       0.732   2.112  -1.953  0.00  0.00    -0.070 Cl
ENDROOT
TORSDOF 0
ENDMDL
