MODEL 1
REMARK minimizedAffinity 6.95742416
REMARK minimizedRMSD -1
REMARK  0 active torsions:
REMARK  status: ('A' for Active; 'I' for Inactive)
ROOT
ATOM      1  C   UNL d   1      -1.082   5.569  -5.076  0.00  0.00     0.020 A 
ATOM      2  C1  UNL d   1      -0.123   5.986  -5.998  0.00  0.00     0.020 A 
ATOM      3  C2  UNL d   1       1.201   5.560  -5.870  0.00  0.00     0.034 A 
ATOM      4  C3  UNL d   1       1.569   4.715  -4.816  0.00  0.00     0.017 A 
ATOM      5  C4  UNL d   1       0.606   4.297  -3.891  0.00  0.00     0.017 A 
ATOM      6  C5  UNL d   1      -0.718   4.726  -4.025  0.00  0.00     0.034 A 
ATOM      7 Cl   UNL d   1       0.984   3.255  -2.566  0.00  0.00    -0.070 Cl
ATOM      8 Cl1  UNL d   1       3.224   4.227  -4.719  0.00  0.00    -0.070 Cl
ENDROOT
TORSDOF 0
ENDMDL
