MODEL 1
REMARK minimizedAffinity 4.3464179
REMARK minimizedRMSD -1
REMARK  0 active torsions:
REMARK  status: ('A' for Active; 'I' for Inactive)
ROOT
ATOM      1  C   UNL d   1      -5.951   1.490  -5.969  0.00  0.00     0.020 A 
ATOM      2  C1  UNL d   1      -5.925   0.111  -5.760  0.00  0.00     0.020 A 
ATOM      3  C2  UNL d   1      -5.923  -0.398  -4.460  0.00  0.00     0.034 A 
ATOM      4  C3  UNL d   1      -5.946   0.471  -3.363  0.00  0.00     0.017 A 
ATOM      5  C4  UNL d   1      -5.971   1.854  -3.573  0.00  0.00     0.017 A 
ATOM      6  C5  UNL d   1      -5.973   2.359  -4.877  0.00  0.00     0.034 A 
ATOM      7 Cl   UNL d   1      -6.000   2.989  -2.270  0.00  0.00    -0.070 Cl
ATOM      8 Cl1  UNL d   1      -5.941  -0.229  -1.783  0.00  0.00    -0.070 Cl
ENDROOT
TORSDOF 0
ENDMDL
