MODEL 1
REMARK minimizedAffinity 8.9445858
REMARK minimizedRMSD -1
REMARK  0 active torsions:
REMARK  status: ('A' for Active; 'I' for Inactive)
ROOT
ATOM      1  C   UNL d   1      -4.749  -3.886   2.967  0.00  0.00     0.020 A 
ATOM      2  C1  UNL d   1      -4.262  -5.127   2.559  0.00  0.00     0.020 A 
ATOM      3  C2  UNL d   1      -3.086  -5.203   1.810  0.00  0.00     0.034 A 
ATOM      4  C3  UNL d   1      -2.392  -4.037   1.468  0.00  0.00     0.017 A 
ATOM      5  C4  UNL d   1      -2.882  -2.792   1.878  0.00  0.00     0.017 A 
ATOM      6  C5  UNL d   1      -4.060  -2.721   2.628  0.00  0.00     0.034 A 
ATOM      7 Cl   UNL d   1      -2.081  -1.309   1.494  0.00  0.00    -0.070 Cl
ATOM      8 Cl1  UNL d   1      -0.944  -4.207   0.540  0.00  0.00    -0.070 Cl
ENDROOT
TORSDOF 0
ENDMDL
