MODEL 1
REMARK minimizedAffinity 5.78498983
REMARK minimizedRMSD -1
REMARK  0 active torsions:
REMARK  status: ('A' for Active; 'I' for Inactive)
ROOT
ATOM      1  C   UNL d   1      -5.996   1.471  -5.952  0.00  0.00     0.020 A 
ATOM      2  C1  UNL d   1      -5.996   0.084  -5.808  0.00  0.00     0.020 A 
ATOM      3  C2  UNL d   1      -5.996  -0.486  -4.533  0.00  0.00     0.034 A 
ATOM      4  C3  UNL d   1      -5.998   0.332  -3.397  0.00  0.00     0.017 A 
ATOM      5  C4  UNL d   1      -5.998   1.724  -3.542  0.00  0.00     0.017 A 
ATOM      6  C5  UNL d   1      -5.997   2.289  -4.821  0.00  0.00     0.034 A 
ATOM      7 Cl   UNL d   1      -5.999   2.797  -2.188  0.00  0.00    -0.070 Cl
ATOM      8 Cl1  UNL d   1      -5.999  -0.441  -1.852  0.00  0.00    -0.070 Cl
ENDROOT
TORSDOF 0
ENDMDL
