MODEL 1
REMARK minimizedAffinity 6.77908707
REMARK minimizedRMSD -1
REMARK  0 active torsions:
REMARK  status: ('A' for Active; 'I' for Inactive)
ROOT
ATOM      1  C   UNL d   1      -1.056   5.672  -4.950  0.00  0.00     0.020 A 
ATOM      2  C1  UNL d   1      -0.196   6.000  -5.998  0.00  0.00     0.020 A 
ATOM      3  C2  UNL d   1       1.116   5.523  -6.000  0.00  0.00     0.034 A 
ATOM      4  C3  UNL d   1       1.573   4.717  -4.951  0.00  0.00     0.017 A 
ATOM      5  C4  UNL d   1       0.710   4.388  -3.900  0.00  0.00     0.017 A 
ATOM      6  C5  UNL d   1      -0.604   4.868  -3.904  0.00  0.00     0.034 A 
ATOM      7 Cl   UNL d   1       1.201   3.398  -2.571  0.00  0.00    -0.070 Cl
ATOM      8 Cl1  UNL d   1       3.208   4.162  -5.018  0.00  0.00    -0.070 Cl
ENDROOT
TORSDOF 0
ENDMDL
