MODEL 1
REMARK minimizedAffinity 6.15763092
REMARK minimizedRMSD -1
REMARK  0 active torsions:
REMARK  status: ('A' for Active; 'I' for Inactive)
ROOT
ATOM      1  C   UNL d   1       0.168   5.357  -6.000  0.00  0.00     0.020 A 
ATOM      2  C1  UNL d   1      -0.856   4.875  -5.186  0.00  0.00     0.020 A 
ATOM      3  C2  UNL d   1      -0.548   4.149  -4.033  0.00  0.00     0.034 A 
ATOM      4  C3  UNL d   1       0.786   3.904  -3.691  0.00  0.00     0.017 A 
ATOM      5  C4  UNL d   1       1.814   4.388  -4.509  0.00  0.00     0.017 A 
ATOM      6  C5  UNL d   1       1.500   5.114  -5.662  0.00  0.00     0.034 A 
ATOM      7 Cl   UNL d   1       3.484   4.125  -4.152  0.00  0.00    -0.070 Cl
ATOM      8 Cl1  UNL d   1       1.094   3.000  -2.251  0.00  0.00    -0.070 Cl
ENDROOT
TORSDOF 0
ENDMDL
