MODEL 1
REMARK minimizedAffinity 4.2083931
REMARK minimizedRMSD -1
REMARK  0 active torsions:
REMARK  status: ('A' for Active; 'I' for Inactive)
ROOT
ATOM      1  C   UNL d   1      -0.209   5.997  -5.997  0.00  0.00     0.020 A 
ATOM      2  C1  UNL d   1      -1.120   5.560  -5.036  0.00  0.00     0.020 A 
ATOM      3  C2  UNL d   1      -0.706   4.689  -4.026  0.00  0.00     0.034 A 
ATOM      4  C3  UNL d   1       0.623   4.251  -3.975  0.00  0.00     0.017 A 
ATOM      5  C4  UNL d   1       1.536   4.691  -4.940  0.00  0.00     0.017 A 
ATOM      6  C5  UNL d   1       1.116   5.563  -5.949  0.00  0.00     0.034 A 
ATOM      7 Cl   UNL d   1       3.192   4.195  -4.943  0.00  0.00    -0.070 Cl
ATOM      8 Cl1  UNL d   1       1.065   3.174  -2.699  0.00  0.00    -0.070 Cl
ENDROOT
TORSDOF 0
ENDMDL
