MODEL 1
REMARK minimizedAffinity 9.4238596
REMARK minimizedRMSD -1
REMARK  0 active torsions:
REMARK  status: ('A' for Active; 'I' for Inactive)
ROOT
ATOM      1  C   UNL d   1      -0.161   5.440  -6.000  0.00  0.00     0.020 A 
ATOM      2  C1  UNL d   1      -0.915   5.521  -4.830  0.00  0.00     0.020 A 
ATOM      3  C2  UNL d   1      -0.377   5.075  -3.621  0.00  0.00     0.034 A 
ATOM      4  C3  UNL d   1       0.918   4.546  -3.579  0.00  0.00     0.017 A 
ATOM      5  C4  UNL d   1       1.674   4.465  -4.754  0.00  0.00     0.017 A 
ATOM      6  C5  UNL d   1       1.131   4.913  -5.962  0.00  0.00     0.034 A 
ATOM      7 Cl   UNL d   1       3.279   3.824  -4.781  0.00  0.00    -0.070 Cl
ATOM      8 Cl1  UNL d   1       1.519   4.014  -2.049  0.00  0.00    -0.070 Cl
ENDROOT
TORSDOF 0
ENDMDL
