MODEL 1
REMARK minimizedAffinity 5.17611694
REMARK minimizedRMSD -1
REMARK  0 active torsions:
REMARK  status: ('A' for Active; 'I' for Inactive)
ROOT
ATOM      1  C   UNL d   1       0.310   5.999  -5.553  0.00  0.00     0.020 A 
ATOM      2  C1  UNL d   1      -0.779   5.191  -5.229  0.00  0.00     0.020 A 
ATOM      3  C2  UNL d   1      -0.649   4.205  -4.249  0.00  0.00     0.034 A 
ATOM      4  C3  UNL d   1       0.572   4.023  -3.590  0.00  0.00     0.017 A 
ATOM      5  C4  UNL d   1       1.665   4.835  -3.916  0.00  0.00     0.017 A 
ATOM      6  C5  UNL d   1       1.530   5.821  -4.898  0.00  0.00     0.034 A 
ATOM      7 Cl   UNL d   1       3.204   4.671  -3.146  0.00  0.00    -0.070 Cl
ATOM      8 Cl1  UNL d   1       0.661   2.784  -2.389  0.00  0.00    -0.070 Cl
ENDROOT
TORSDOF 0
ENDMDL
