MODEL 1
REMARK minimizedAffinity 8.71796989
REMARK minimizedRMSD -1
REMARK  0 active torsions:
REMARK  status: ('A' for Active; 'I' for Inactive)
ROOT
ATOM      1  C   UNL d   1       4.176  -1.123   2.617  0.00  0.00     0.020 A 
ATOM      2  C1  UNL d   1       3.388  -2.054   3.293  0.00  0.00     0.020 A 
ATOM      3  C2  UNL d   1       1.997  -1.928   3.285  0.00  0.00     0.034 A 
ATOM      4  C3  UNL d   1       1.390  -0.869   2.601  0.00  0.00     0.017 A 
ATOM      5  C4  UNL d   1       2.182   0.065   1.923  0.00  0.00     0.017 A 
ATOM      6  C5  UNL d   1       3.574  -0.065   1.934  0.00  0.00     0.034 A 
ATOM      7 Cl   UNL d   1       1.505   1.399   1.057  0.00  0.00    -0.070 Cl
ATOM      8 Cl1  UNL d   1      -0.335  -0.775   2.634  0.00  0.00    -0.070 Cl
ENDROOT
TORSDOF 0
ENDMDL
