MODEL 1
REMARK minimizedAffinity 7.32890129
REMARK minimizedRMSD -1
REMARK  0 active torsions:
REMARK  status: ('A' for Active; 'I' for Inactive)
ROOT
ATOM      1  C   UNL d   1       0.748   5.043  -6.000  0.00  0.00     0.020 A 
ATOM      2  C1  UNL d   1      -0.270   5.995  -5.963  0.00  0.00     0.020 A 
ATOM      3  C2  UNL d   1      -1.187   5.995  -4.909  0.00  0.00     0.034 A 
ATOM      4  C3  UNL d   1      -1.088   5.042  -3.889  0.00  0.00     0.017 A 
ATOM      5  C4  UNL d   1      -0.064   4.088  -3.927  0.00  0.00     0.017 A 
ATOM      6  C5  UNL d   1       0.851   4.092  -4.984  0.00  0.00     0.034 A 
ATOM      7 Cl   UNL d   1       0.123   2.881  -2.704  0.00  0.00    -0.070 Cl
ATOM      8 Cl1  UNL d   1      -2.256   5.102  -2.617  0.00  0.00    -0.070 Cl
ENDROOT
TORSDOF 0
ENDMDL
