MODEL 1
REMARK minimizedAffinity -5.713099
REMARK minimizedRMSD -1
REMARK  1 active torsions:
REMARK  status: ('A' for Active; 'I' for Inactive)
REMARK    1  A    between atoms: C1_2  and  C2_3 
ROOT
ATOM      1  C2  UNL d   1      -0.181   0.208   1.215  0.00  0.00    -0.073 A 
ATOM      2  C3  UNL d   1       0.132   0.201   2.579  0.00  0.00    -0.002 A 
ATOM      3  C4  UNL d   1      -0.873   0.026   3.532  0.00  0.00     0.004 A 
ATOM      4  C5  UNL d   1      -2.197  -0.151   3.131  0.00  0.00    -0.004 A 
ATOM      5  C6  UNL d   1      -2.528  -0.159   1.772  0.00  0.00    -0.075 A 
ATOM      6  C7  UNL d   1      -3.948  -0.346   1.325  0.00  0.00     0.076 C 
ATOM      7  C8  UNL d   1      -1.514   0.020   0.822  0.00  0.00     0.001 A 
ENDROOT
BRANCH   1   8
ATOM      8  C1  UNL d   1       0.901   0.390   0.183  0.00  0.00     0.053 C 
ATOM      9  C   UNL d   1       0.355   0.321  -1.234  0.00  0.00     0.018 C 
ENDBRANCH   1   8
TORSDOF 1
ENDMDL
