MODEL 1
REMARK minimizedAffinity -4.97309351
REMARK minimizedRMSD -1
REMARK  1 active torsions:
REMARK  status: ('A' for Active; 'I' for Inactive)
REMARK    1  A    between atoms: C1_2  and  C2_3 
ROOT
ATOM      1  C2  UNL d   1       3.467   1.880  -4.512  0.00  0.00    -0.073 A 
ATOM      2  C3  UNL d   1       4.785   2.148  -4.897  0.00  0.00    -0.002 A 
ATOM      3  C4  UNL d   1       5.084   3.291  -5.640  0.00  0.00     0.004 A 
ATOM      4  C5  UNL d   1       4.070   4.179  -6.000  0.00  0.00    -0.004 A 
ATOM      5  C6  UNL d   1       2.748   3.934  -5.614  0.00  0.00    -0.075 A 
ATOM      6  C7  UNL d   1       1.646   4.879  -5.995  0.00  0.00     0.076 C 
ATOM      7  C8  UNL d   1       2.456   2.783  -4.870  0.00  0.00     0.001 A 
ENDROOT
BRANCH   1   8
ATOM      8  C1  UNL d   1       3.140   0.650  -3.704  0.00  0.00     0.053 C 
ATOM      9  C   UNL d   1       3.361  -0.628  -4.496  0.00  0.00     0.018 C 
ENDBRANCH   1   8
TORSDOF 1
ENDMDL
