MODEL 1
REMARK minimizedAffinity -3.20256948
REMARK minimizedRMSD -1
REMARK  1 active torsions:
REMARK  status: ('A' for Active; 'I' for Inactive)
REMARK    1  A    between atoms: C1_2  and  C2_3 
ROOT
ATOM      1  C2  UNL d   1      -0.112  -0.006  -1.024  0.00  0.00    -0.073 A 
ATOM      2  C3  UNL d   1      -1.349   0.516  -1.417  0.00  0.00    -0.002 A 
ATOM      3  C4  UNL d   1      -2.409   0.576  -0.512  0.00  0.00     0.004 A 
ATOM      4  C5  UNL d   1      -2.242   0.121   0.796  0.00  0.00    -0.004 A 
ATOM      5  C6  UNL d   1      -1.009  -0.393   1.212  0.00  0.00    -0.075 A 
ATOM      6  C7  UNL d   1      -0.814  -0.888   2.615  0.00  0.00     0.076 C 
ATOM      7  C8  UNL d   1       0.050  -0.452   0.296  0.00  0.00     0.001 A 
ENDROOT
BRANCH   1   8
ATOM      8  C1  UNL d   1       1.038  -0.066  -1.996  0.00  0.00     0.053 C 
ATOM      9  C   UNL d   1       0.859  -1.174  -3.022  0.00  0.00     0.018 C 
ENDBRANCH   1   8
TORSDOF 1
ENDMDL
