MODEL 1
REMARK minimizedAffinity -3.9108212
REMARK minimizedRMSD -1
REMARK  1 active torsions:
REMARK  status: ('A' for Active; 'I' for Inactive)
REMARK    1  A    between atoms: C1_2  and  C2_3 
ROOT
ATOM      1  C2  UNL d   1      -0.066   0.431  -0.253  0.00  0.00    -0.073 A 
ATOM      2  C3  UNL d   1       1.215   0.882   0.083  0.00  0.00    -0.002 A 
ATOM      3  C4  UNL d   1       1.629   0.901   1.416  0.00  0.00     0.004 A 
ATOM      4  C5  UNL d   1       0.770   0.463   2.424  0.00  0.00    -0.004 A 
ATOM      5  C6  UNL d   1      -0.510  -0.003   2.107  0.00  0.00    -0.075 A 
ATOM      6  C7  UNL d   1      -1.447  -0.475   3.179  0.00  0.00     0.076 C 
ATOM      7  C8  UNL d   1      -0.919  -0.016   0.766  0.00  0.00     0.001 A 
ENDROOT
BRANCH   1   8
ATOM      8  C1  UNL d   1      -0.515   0.403  -1.691  0.00  0.00     0.053 C 
ATOM      9  C   UNL d   1       0.619   0.037  -2.635  0.00  0.00     0.018 C 
ENDBRANCH   1   8
TORSDOF 1
ENDMDL
