MODEL 1
REMARK minimizedAffinity -1.37791443
REMARK minimizedRMSD -1
REMARK  1 active torsions:
REMARK  status: ('A' for Active; 'I' for Inactive)
REMARK    1  A    between atoms: C1_2  and  C2_3 
ROOT
ATOM      1  C2  UNL d   1      -0.928  -0.068   0.105  0.00  0.00    -0.073 A 
ATOM      2  C3  UNL d   1      -1.309  -0.499   1.381  0.00  0.00    -0.002 A 
ATOM      3  C4  UNL d   1      -0.446  -0.338   2.465  0.00  0.00     0.004 A 
ATOM      4  C5  UNL d   1       0.802   0.259   2.288  0.00  0.00    -0.004 A 
ATOM      5  C6  UNL d   1       1.196   0.707   1.022  0.00  0.00    -0.075 A 
ATOM      6  C7  UNL d   1       2.535   1.350   0.814  0.00  0.00     0.076 C 
ATOM      7  C8  UNL d   1       0.325   0.540  -0.063  0.00  0.00     0.001 A 
ENDROOT
BRANCH   1   8
ATOM      8  C1  UNL d   1      -1.859  -0.234  -1.069  0.00  0.00     0.053 C 
ATOM      9  C   UNL d   1      -3.254   0.290  -0.767  0.00  0.00     0.018 C 
ENDBRANCH   1   8
TORSDOF 1
ENDMDL
