MODEL 1
REMARK minimizedAffinity -4.7347188
REMARK minimizedRMSD -1
REMARK  1 active torsions:
REMARK  status: ('A' for Active; 'I' for Inactive)
REMARK    1  A    between atoms: C1_2  and  C2_3 
ROOT
ATOM      1  C2  UNL d   1       0.490   0.603  -0.440  0.00  0.00    -0.073 A 
ATOM      2  C3  UNL d   1       1.206   0.693   0.760  0.00  0.00    -0.002 A 
ATOM      3  C4  UNL d   1       0.538   0.642   1.984  0.00  0.00     0.004 A 
ATOM      4  C5  UNL d   1      -0.848   0.495   2.023  0.00  0.00    -0.004 A 
ATOM      5  C6  UNL d   1      -1.580   0.392   0.835  0.00  0.00    -0.075 A 
ATOM      6  C7  UNL d   1      -3.072   0.235   0.859  0.00  0.00     0.076 C 
ATOM      7  C8  UNL d   1      -0.903   0.446  -0.391  0.00  0.00     0.001 A 
ENDROOT
BRANCH   1   8
ATOM      8  C1  UNL d   1       1.207   0.651  -1.764  0.00  0.00     0.053 C 
ATOM      9  C   UNL d   1       0.822  -0.514  -2.663  0.00  0.00     0.018 C 
ENDBRANCH   1   8
TORSDOF 1
ENDMDL
