MODEL 1
REMARK minimizedAffinity -5.08560467
REMARK minimizedRMSD -1
REMARK  1 active torsions:
REMARK  status: ('A' for Active; 'I' for Inactive)
REMARK    1  A    between atoms: C1_2  and  C2_3 
ROOT
ATOM      1  C2  UNL d   1       0.005   0.006   1.022  0.00  0.00    -0.073 A 
ATOM      2  C3  UNL d   1       0.333  -0.185   2.370  0.00  0.00    -0.002 A 
ATOM      3  C4  UNL d   1      -0.672  -0.271   3.334  0.00  0.00     0.004 A 
ATOM      4  C5  UNL d   1      -2.013  -0.176   2.962  0.00  0.00    -0.004 A 
ATOM      5  C6  UNL d   1      -2.361   0.003   1.619  0.00  0.00    -0.075 A 
ATOM      6  C7  UNL d   1      -3.798   0.109   1.202  0.00  0.00     0.076 C 
ATOM      7  C8  UNL d   1      -1.346   0.091   0.656  0.00  0.00     0.001 A 
ENDROOT
BRANCH   1   8
ATOM      8  C1  UNL d   1       1.086   0.093  -0.023  0.00  0.00     0.053 C 
ATOM      9  C   UNL d   1       0.516   0.310  -1.416  0.00  0.00     0.018 C 
ENDBRANCH   1   8
TORSDOF 1
ENDMDL
