MODEL 1
REMARK minimizedAffinity -5.02023458
REMARK minimizedRMSD -1
REMARK  1 active torsions:
REMARK  status: ('A' for Active; 'I' for Inactive)
REMARK    1  A    between atoms: C1_2  and  C2_3 
ROOT
ATOM      1  C2  UNL d   1      -0.068  -0.037   0.885  0.00  0.00    -0.073 A 
ATOM      2  C3  UNL d   1       0.259  -0.217   2.234  0.00  0.00    -0.002 A 
ATOM      3  C4  UNL d   1      -0.738  -0.193   3.210  0.00  0.00     0.004 A 
ATOM      4  C5  UNL d   1      -2.071   0.003   2.847  0.00  0.00    -0.004 A 
ATOM      5  C6  UNL d   1      -2.419   0.173   1.503  0.00  0.00    -0.075 A 
ATOM      6  C7  UNL d   1      -3.847   0.387   1.097  0.00  0.00     0.076 C 
ATOM      7  C8  UNL d   1      -1.411   0.150   0.529  0.00  0.00     0.001 A 
ENDROOT
BRANCH   1   8
ATOM      8  C1  UNL d   1       1.004  -0.069  -0.173  0.00  0.00     0.053 C 
ATOM      9  C   UNL d   1       0.423  -0.218  -1.570  0.00  0.00     0.018 C 
ENDBRANCH   1   8
TORSDOF 1
ENDMDL
