MODEL 1
REMARK minimizedAffinity 21.633419
REMARK minimizedRMSD -1
REMARK  0 active torsions:
REMARK  status: ('A' for Active; 'I' for Inactive)
ROOT
ATOM      1  C   UNL d   1       1.248  -0.306  -2.680  0.00  0.00     0.077 C 
ATOM      2  C1  UNL d   1       2.446  -0.014  -1.826  0.00  0.00    -0.074 A 
ATOM      3  C2  UNL d   1       2.772   1.299  -1.469  0.00  0.00    -0.005 A 
ATOM      4  C3  UNL d   1       3.883   1.554  -0.666  0.00  0.00     0.006 A 
ATOM      5  C4  UNL d   1       4.680   0.501  -0.214  0.00  0.00    -0.005 A 
ATOM      6  C5  UNL d   1       4.369  -0.818  -0.560  0.00  0.00    -0.074 A 
ATOM      7  C6  UNL d   1       5.208  -1.962  -0.073  0.00  0.00     0.077 C 
ATOM      8  C7  UNL d   1       3.246  -1.067  -1.361  0.00  0.00    -0.001 A 
ENDROOT
TORSDOF 0
ENDMDL
