MODEL 1
REMARK minimizedAffinity -0.354079217
REMARK minimizedRMSD -1
REMARK  0 active torsions:
REMARK  status: ('A' for Active; 'I' for Inactive)
ROOT
ATOM      1  C   UNL d   1       2.998  -5.540  -4.052  0.00  0.00     0.077 C 
ATOM      2  C1  UNL d   1       3.046  -4.650  -2.845  0.00  0.00    -0.074 A 
ATOM      3  C2  UNL d   1       3.680  -5.067  -1.670  0.00  0.00    -0.005 A 
ATOM      4  C3  UNL d   1       3.725  -4.225  -0.559  0.00  0.00     0.006 A 
ATOM      5  C4  UNL d   1       3.137  -2.960  -0.612  0.00  0.00    -0.005 A 
ATOM      6  C5  UNL d   1       2.499  -2.526  -1.778  0.00  0.00    -0.074 A 
ATOM      7  C6  UNL d   1       1.871  -1.167  -1.855  0.00  0.00     0.077 C 
ATOM      8  C7  UNL d   1       2.465  -3.376  -2.893  0.00  0.00    -0.001 A 
ENDROOT
TORSDOF 0
ENDMDL
