MODEL 1
REMARK minimizedAffinity 2.2228775
REMARK minimizedRMSD -1
REMARK  0 active torsions:
REMARK  status: ('A' for Active; 'I' for Inactive)
ROOT
ATOM      1  C   UNL d   1       1.494  -1.994   0.321  0.00  0.00     0.077 C 
ATOM      2  C1  UNL d   1       1.667  -2.416  -1.108  0.00  0.00    -0.074 A 
ATOM      3  C2  UNL d   1       1.114  -1.666  -2.151  0.00  0.00    -0.005 A 
ATOM      4  C3  UNL d   1       1.292  -2.065  -3.475  0.00  0.00     0.006 A 
ATOM      5  C4  UNL d   1       2.023  -3.217  -3.770  0.00  0.00    -0.005 A 
ATOM      6  C5  UNL d   1       2.584  -3.979  -2.740  0.00  0.00    -0.074 A 
ATOM      7  C6  UNL d   1       3.381  -5.214  -3.040  0.00  0.00     0.077 C 
ATOM      8  C7  UNL d   1       2.407  -3.567  -1.412  0.00  0.00    -0.001 A 
ENDROOT
TORSDOF 0
ENDMDL
