MODEL 1
REMARK minimizedAffinity 2.80395913
REMARK minimizedRMSD -1
REMARK  0 active torsions:
REMARK  status: ('A' for Active; 'I' for Inactive)
ROOT
ATOM      1  C   UNL d   1      -5.999  -5.236   1.264  0.00  0.00     0.077 C 
ATOM      2  C1  UNL d   1      -5.279  -4.599   2.415  0.00  0.00    -0.074 A 
ATOM      3  C2  UNL d   1      -4.642  -5.379   3.385  0.00  0.00    -0.005 A 
ATOM      4  C3  UNL d   1      -3.968  -4.772   4.445  0.00  0.00     0.006 A 
ATOM      5  C4  UNL d   1      -3.923  -3.381   4.544  0.00  0.00    -0.005 A 
ATOM      6  C5  UNL d   1      -4.553  -2.585   3.583  0.00  0.00    -0.074 A 
ATOM      7  C6  UNL d   1      -4.506  -1.088   3.669  0.00  0.00     0.077 C 
ATOM      8  C7  UNL d   1      -5.222  -3.202   2.517  0.00  0.00    -0.001 A 
ENDROOT
TORSDOF 0
ENDMDL
