MODEL 1
REMARK minimizedAffinity 8.01632786
REMARK minimizedRMSD -1
REMARK  0 active torsions:
REMARK  status: ('A' for Active; 'I' for Inactive)
ROOT
ATOM      1  C   UNL d   1       2.757   1.473  -0.673  0.00  0.00     0.077 C 
ATOM      2  C1  UNL d   1       2.590   0.048  -1.112  0.00  0.00    -0.074 A 
ATOM      3  C2  UNL d   1       1.763  -0.279  -2.191  0.00  0.00    -0.005 A 
ATOM      4  C3  UNL d   1       1.624  -1.607  -2.594  0.00  0.00     0.006 A 
ATOM      5  C4  UNL d   1       2.311  -2.620  -1.923  0.00  0.00    -0.005 A 
ATOM      6  C5  UNL d   1       3.143  -2.312  -0.842  0.00  0.00    -0.074 A 
ATOM      7  C6  UNL d   1       3.896  -3.387  -0.116  0.00  0.00     0.077 C 
ATOM      8  C7  UNL d   1       3.282  -0.974  -0.448  0.00  0.00    -0.001 A 
ENDROOT
TORSDOF 0
ENDMDL
