MODEL 1
REMARK minimizedAffinity -0.761254668
REMARK minimizedRMSD -1
REMARK  0 active torsions:
REMARK  status: ('A' for Active; 'I' for Inactive)
ROOT
ATOM      1  C   UNL d   1       4.044  -4.590   0.246  0.00  0.00     0.077 C 
ATOM      2  C1  UNL d   1       3.341  -3.916  -0.894  0.00  0.00    -0.074 A 
ATOM      3  C2  UNL d   1       2.309  -3.001  -0.662  0.00  0.00    -0.005 A 
ATOM      4  C3  UNL d   1       1.670  -2.375  -1.732  0.00  0.00     0.006 A 
ATOM      5  C4  UNL d   1       2.056  -2.657  -3.043  0.00  0.00    -0.005 A 
ATOM      6  C5  UNL d   1       3.086  -3.569  -3.295  0.00  0.00    -0.074 A 
ATOM      7  C6  UNL d   1       3.519  -3.876  -4.697  0.00  0.00     0.077 C 
ATOM      8  C7  UNL d   1       3.728  -4.188  -2.214  0.00  0.00    -0.001 A 
ENDROOT
TORSDOF 0
ENDMDL
