MODEL 1
REMARK minimizedAffinity 1.27197099
REMARK minimizedRMSD -1
REMARK  0 active torsions:
REMARK  status: ('A' for Active; 'I' for Inactive)
ROOT
ATOM      1  C   UNL d   1      -4.576   3.074   6.000  0.00  0.00     0.077 C 
ATOM      2  C1  UNL d   1      -3.348   2.615   5.271  0.00  0.00    -0.074 A 
ATOM      3  C2  UNL d   1      -3.411   2.227   3.929  0.00  0.00    -0.005 A 
ATOM      4  C3  UNL d   1      -2.259   1.812   3.262  0.00  0.00     0.006 A 
ATOM      5  C4  UNL d   1      -1.034   1.781   3.929  0.00  0.00    -0.005 A 
ATOM      6  C5  UNL d   1      -0.951   2.166   5.271  0.00  0.00    -0.074 A 
ATOM      7  C6  UNL d   1       0.360   2.148   5.999  0.00  0.00     0.077 C 
ATOM      8  C7  UNL d   1      -2.112   2.589   5.932  0.00  0.00    -0.001 A 
ENDROOT
TORSDOF 0
ENDMDL
