MODEL 1
REMARK minimizedAffinity 1.66155815
REMARK minimizedRMSD -1
REMARK  0 active torsions:
REMARK  status: ('A' for Active; 'I' for Inactive)
ROOT
ATOM      1  C   UNL d   1       4.166  -4.521   0.398  0.00  0.00     0.077 C 
ATOM      2  C1  UNL d   1       3.494  -4.111  -0.878  0.00  0.00    -0.074 A 
ATOM      3  C2  UNL d   1       2.706  -2.957  -0.937  0.00  0.00    -0.005 A 
ATOM      4  C3  UNL d   1       2.095  -2.583  -2.134  0.00  0.00     0.006 A 
ATOM      5  C4  UNL d   1       2.265  -3.357  -3.282  0.00  0.00    -0.005 A 
ATOM      6  C5  UNL d   1       3.050  -4.514  -3.243  0.00  0.00    -0.074 A 
ATOM      7  C6  UNL d   1       3.252  -5.353  -4.470  0.00  0.00     0.077 C 
ATOM      8  C7  UNL d   1       3.666  -4.879  -2.038  0.00  0.00    -0.001 A 
ENDROOT
TORSDOF 0
ENDMDL
