MODEL 1
REMARK minimizedAffinity 9.92443848
REMARK minimizedRMSD -1
REMARK  0 active torsions:
REMARK  status: ('A' for Active; 'I' for Inactive)
ROOT
ATOM      1  C   UNL d   1       0.945  -3.694  -3.181  0.00  0.00     0.077 C 
ATOM      2  C1  UNL d   1       2.362  -4.157  -3.023  0.00  0.00    -0.074 A 
ATOM      3  C2  UNL d   1       3.145  -4.471  -4.139  0.00  0.00    -0.005 A 
ATOM      4  C3  UNL d   1       4.465  -4.891  -3.976  0.00  0.00     0.006 A 
ATOM      5  C4  UNL d   1       5.015  -5.000  -2.699  0.00  0.00    -0.005 A 
ATOM      6  C5  UNL d   1       4.249  -4.689  -1.571  0.00  0.00    -0.074 A 
ATOM      7  C6  UNL d   1       4.828  -4.792  -0.192  0.00  0.00     0.077 C 
ATOM      8  C7  UNL d   1       2.925  -4.262  -1.743  0.00  0.00    -0.001 A 
ENDROOT
TORSDOF 0
ENDMDL
