MODEL 1
REMARK minimizedAffinity 12.1699743
REMARK minimizedRMSD -1
REMARK  0 active torsions:
REMARK  status: ('A' for Active; 'I' for Inactive)
ROOT
ATOM      1  C   UNL d   1      -3.257   2.299   3.635  0.00  0.00     0.077 C 
ATOM      2  C1  UNL d   1      -1.817   1.907   3.788  0.00  0.00    -0.074 A 
ATOM      3  C2  UNL d   1      -1.159   2.049   5.014  0.00  0.00    -0.005 A 
ATOM      4  C3  UNL d   1       0.177   1.671   5.143  0.00  0.00     0.006 A 
ATOM      5  C4  UNL d   1       0.868   1.148   4.049  0.00  0.00    -0.005 A 
ATOM      6  C5  UNL d   1       0.227   0.997   2.816  0.00  0.00    -0.074 A 
ATOM      7  C6  UNL d   1       0.952   0.428   1.633  0.00  0.00     0.077 C 
ATOM      8  C7  UNL d   1      -1.118   1.373   2.696  0.00  0.00    -0.001 A 
ENDROOT
TORSDOF 0
ENDMDL
