MODEL 1
REMARK minimizedAffinity 13.0072966
REMARK minimizedRMSD -1
REMARK  0 active torsions:
REMARK  status: ('A' for Active; 'I' for Inactive)
ROOT
ATOM      1  C   UNL d   1      -6.000  -3.147   2.072  0.00  0.00     0.077 C 
ATOM      2  C1  UNL d   1      -5.079  -2.372   2.967  0.00  0.00    -0.074 A 
ATOM      3  C2  UNL d   1      -4.747  -2.845   4.240  0.00  0.00    -0.005 A 
ATOM      4  C3  UNL d   1      -3.881  -2.118   5.057  0.00  0.00     0.006 A 
ATOM      5  C4  UNL d   1      -3.339  -0.913   4.610  0.00  0.00    -0.005 A 
ATOM      6  C5  UNL d   1      -3.659  -0.424   3.339  0.00  0.00    -0.074 A 
ATOM      7  C6  UNL d   1      -3.078   0.865   2.839  0.00  0.00     0.077 C 
ATOM      8  C7  UNL d   1      -4.524  -1.164   2.522  0.00  0.00    -0.001 A 
ENDROOT
TORSDOF 0
ENDMDL
