MODEL 1
REMARK minimizedAffinity 19.0627098
REMARK minimizedRMSD -1
REMARK  0 active torsions:
REMARK  status: ('A' for Active; 'I' for Inactive)
ROOT
ATOM      1  C   UNL d   1       1.814  -0.771  -5.005  0.00  0.00     0.077 C 
ATOM      2  C1  UNL d   1       1.719  -0.594  -3.518  0.00  0.00    -0.074 A 
ATOM      3  C2  UNL d   1       0.599  -1.041  -2.811  0.00  0.00    -0.005 A 
ATOM      4  C3  UNL d   1       0.529  -0.878  -1.428  0.00  0.00     0.006 A 
ATOM      5  C4  UNL d   1       1.577  -0.268  -0.738  0.00  0.00    -0.005 A 
ATOM      6  C5  UNL d   1       2.706   0.185  -1.428  0.00  0.00    -0.074 A 
ATOM      7  C6  UNL d   1       3.846   0.834  -0.702  0.00  0.00     0.077 C 
ATOM      8  C7  UNL d   1       2.772   0.011  -2.818  0.00  0.00    -0.001 A 
ENDROOT
TORSDOF 0
ENDMDL
