MODEL 1
REMARK minimizedAffinity 15.3862915
REMARK minimizedRMSD -1
REMARK  0 active torsions:
REMARK  status: ('A' for Active; 'I' for Inactive)
ROOT
ATOM      1  C   UNL d   1       0.398   1.379   2.726  0.00  0.00     0.077 C 
ATOM      2  C1  UNL d   1       1.316   1.141   1.564  0.00  0.00    -0.074 A 
ATOM      3  C2  UNL d   1       2.592   1.713   1.526  0.00  0.00    -0.005 A 
ATOM      4  C3  UNL d   1       3.438   1.475   0.444  0.00  0.00     0.006 A 
ATOM      5  C4  UNL d   1       3.018   0.663  -0.611  0.00  0.00    -0.005 A 
ATOM      6  C5  UNL d   1       1.747   0.081  -0.590  0.00  0.00    -0.074 A 
ATOM      7  C6  UNL d   1       1.284  -0.802  -1.711  0.00  0.00     0.077 C 
ATOM      8  C7  UNL d   1       0.905   0.320   0.504  0.00  0.00    -0.001 A 
ENDROOT
TORSDOF 0
ENDMDL
