MODEL 1
REMARK minimizedAffinity 15.883584
REMARK minimizedRMSD -1
REMARK  0 active torsions:
REMARK  status: ('A' for Active; 'I' for Inactive)
ROOT
ATOM      1  C   UNL d   1      -1.640   1.500   3.000  0.00  0.00     0.077 C 
ATOM      2  C1  UNL d   1      -3.054   1.524   3.499  0.00  0.00    -0.074 A 
ATOM      3  C2  UNL d   1      -4.002   0.615   3.019  0.00  0.00    -0.005 A 
ATOM      4  C3  UNL d   1      -5.311   0.643   3.500  0.00  0.00     0.006 A 
ATOM      5  C4  UNL d   1      -5.685   1.581   4.464  0.00  0.00    -0.005 A 
ATOM      6  C5  UNL d   1      -4.751   2.498   4.956  0.00  0.00    -0.074 A 
ATOM      7  C6  UNL d   1      -5.134   3.505   5.999  0.00  0.00     0.077 C 
ATOM      8  C7  UNL d   1      -3.436   2.458   4.473  0.00  0.00    -0.001 A 
ENDROOT
TORSDOF 0
ENDMDL
