MODEL 1
REMARK minimizedAffinity 20.4999218
REMARK minimizedRMSD -1
REMARK  0 active torsions:
REMARK  status: ('A' for Active; 'I' for Inactive)
ROOT
ATOM      1  C   UNL d   1      -1.516   1.596   2.587  0.00  0.00     0.077 C 
ATOM      2  C1  UNL d   1      -2.755   1.254   3.360  0.00  0.00    -0.074 A 
ATOM      3  C2  UNL d   1      -3.310  -0.028   3.299  0.00  0.00    -0.005 A 
ATOM      4  C3  UNL d   1      -4.457  -0.334   4.031  0.00  0.00     0.006 A 
ATOM      5  C4  UNL d   1      -5.060   0.638   4.830  0.00  0.00    -0.005 A 
ATOM      6  C5  UNL d   1      -4.520   1.925   4.905  0.00  0.00    -0.074 A 
ATOM      7  C6  UNL d   1      -5.150   2.978   5.767  0.00  0.00     0.077 C 
ATOM      8  C7  UNL d   1      -3.363   2.223   4.172  0.00  0.00    -0.001 A 
ENDROOT
TORSDOF 0
ENDMDL
