MODEL 1
REMARK minimizedAffinity 18.6174965
REMARK minimizedRMSD -1
REMARK  0 active torsions:
REMARK  status: ('A' for Active; 'I' for Inactive)
ROOT
ATOM      1  C   UNL d   1      -4.795  -1.737   4.508  0.00  0.00     0.077 C 
ATOM      2  C1  UNL d   1      -4.273  -0.354   4.258  0.00  0.00    -0.074 A 
ATOM      3  C2  UNL d   1      -3.211  -0.135   3.375  0.00  0.00    -0.005 A 
ATOM      4  C3  UNL d   1      -2.743   1.159   3.145  0.00  0.00     0.006 A 
ATOM      5  C4  UNL d   1      -3.330   2.245   3.796  0.00  0.00    -0.005 A 
ATOM      6  C5  UNL d   1      -4.393   2.045   4.682  0.00  0.00    -0.074 A 
ATOM      7  C6  UNL d   1      -5.042   3.202   5.383  0.00  0.00     0.077 C 
ATOM      8  C7  UNL d   1      -4.863   0.743   4.902  0.00  0.00    -0.001 A 
ENDROOT
TORSDOF 0
ENDMDL
