MODEL 1
REMARK minimizedAffinity 12.7656927
REMARK minimizedRMSD -1
REMARK  0 active torsions:
REMARK  status: ('A' for Active; 'I' for Inactive)
ROOT
ATOM      1  C   UNL d   1       3.385  -3.352  -0.143  0.00  0.00     0.077 C 
ATOM      2  C1  UNL d   1       2.226  -2.787  -0.910  0.00  0.00    -0.074 A 
ATOM      3  C2  UNL d   1       2.027  -1.406  -0.998  0.00  0.00    -0.005 A 
ATOM      4  C3  UNL d   1       0.950  -0.895  -1.722  0.00  0.00     0.006 A 
ATOM      5  C4  UNL d   1       0.062  -1.759  -2.365  0.00  0.00    -0.005 A 
ATOM      6  C5  UNL d   1       0.246  -3.144  -2.288  0.00  0.00    -0.074 A 
ATOM      7  C6  UNL d   1      -0.693  -4.086  -2.981  0.00  0.00     0.077 C 
ATOM      8  C7  UNL d   1       1.335  -3.649  -1.564  0.00  0.00    -0.001 A 
ENDROOT
TORSDOF 0
ENDMDL
