MODEL 1
REMARK minimizedAffinity 18.9542084
REMARK minimizedRMSD -1
REMARK  0 active torsions:
REMARK  status: ('A' for Active; 'I' for Inactive)
ROOT
ATOM      1  C   UNL d   1      -4.513   3.522   5.999  0.00  0.00     0.077 C 
ATOM      2  C1  UNL d   1      -4.305   2.248   5.237  0.00  0.00    -0.074 A 
ATOM      3  C2  UNL d   1      -4.299   2.239   3.839  0.00  0.00    -0.005 A 
ATOM      4  C3  UNL d   1      -4.095   1.047   3.144  0.00  0.00     0.006 A 
ATOM      5  C4  UNL d   1      -3.894  -0.146   3.839  0.00  0.00    -0.005 A 
ATOM      6  C5  UNL d   1      -3.896  -0.157   5.237  0.00  0.00    -0.074 A 
ATOM      7  C6  UNL d   1      -3.672  -1.429   6.000  0.00  0.00     0.077 C 
ATOM      8  C7  UNL d   1      -4.095   1.046   5.928  0.00  0.00    -0.001 A 
ENDROOT
TORSDOF 0
ENDMDL
