MODEL 1
REMARK minimizedAffinity -4.09015656
REMARK minimizedRMSD -1
REMARK  1 active torsions:
REMARK  status: ('A' for Active; 'I' for Inactive)
REMARK    1  A    between atoms: C3_4  and  O_7 
ROOT
ATOM      1  C   UNL d   1      -2.950  -0.375   1.156  0.00  0.00    -0.033 A 
ATOM      2  C1  UNL d   1      -3.311   0.338   2.300  0.00  0.00     0.039 A 
ATOM      3  C2  UNL d   1      -2.325   0.881   3.126  0.00  0.00    -0.080 A 
ATOM      4  C3  UNL d   1      -0.984   0.705   2.797  0.00  0.00     0.150 A 
ATOM      5  C4  UNL d   1      -0.617  -0.002   1.656  0.00  0.00    -0.007 A 
ATOM      6  C5  UNL d   1      -1.603  -0.544   0.833  0.00  0.00     0.039 A 
ENDROOT
BRANCH   4   7
ATOM      7  O   UNL d   1       0.014   1.212   3.575  0.00  0.00    -0.526 OA
ATOM      8  H5  UNL d   1      -0.388   1.651   4.343  0.00  0.00     0.418 HD
ENDBRANCH   4   7
TORSDOF 1
ENDMDL
