MODEL 1
REMARK minimizedAffinity 5.53675032
REMARK minimizedRMSD -1
REMARK  1 active torsions:
REMARK  status: ('A' for Active; 'I' for Inactive)
REMARK    1  A    between atoms: C3_4  and  O_7 
ROOT
ATOM      1  C   UNL d   1      -4.052   0.328   1.887  0.00  0.00    -0.033 A 
ATOM      2  C1  UNL d   1      -3.756   0.195   3.245  0.00  0.00     0.039 A 
ATOM      3  C2  UNL d   1      -2.427   0.143   3.669  0.00  0.00    -0.080 A 
ATOM      4  C3  UNL d   1      -1.405   0.226   2.728  0.00  0.00     0.150 A 
ATOM      5  C4  UNL d   1      -1.693   0.362   1.374  0.00  0.00    -0.007 A 
ATOM      6  C5  UNL d   1      -3.020   0.413   0.951  0.00  0.00     0.039 A 
ENDROOT
BRANCH   4   7
ATOM      7  O   UNL d   1      -0.093   0.175   3.094  0.00  0.00    -0.526 OA
ATOM      8  H5  UNL d   1      -0.046   0.051   4.056  0.00  0.00     0.418 HD
ENDBRANCH   4   7
TORSDOF 1
ENDMDL
