MODEL 1
REMARK minimizedAffinity 4.17668295
REMARK minimizedRMSD -1
REMARK  1 active torsions:
REMARK  status: ('A' for Active; 'I' for Inactive)
REMARK    1  A    between atoms: C3_4  and  O_7 
ROOT
ATOM      1  C   UNL d   1      -1.711   2.282   1.923  0.00  0.00    -0.033 A 
ATOM      2  C1  UNL d   1      -3.002   2.657   1.546  0.00  0.00     0.039 A 
ATOM      3  C2  UNL d   1      -3.873   1.713   0.999  0.00  0.00    -0.080 A 
ATOM      4  C3  UNL d   1      -3.442   0.399   0.836  0.00  0.00     0.150 A 
ATOM      5  C4  UNL d   1      -2.159   0.018   1.213  0.00  0.00    -0.007 A 
ATOM      6  C5  UNL d   1      -1.290   0.962   1.758  0.00  0.00     0.039 A 
ENDROOT
BRANCH   4   7
ATOM      7  O   UNL d   1      -4.255  -0.556   0.302  0.00  0.00    -0.526 OA
ATOM      8  H5  UNL d   1      -5.101  -0.142   0.061  0.00  0.00     0.418 HD
ENDBRANCH   4   7
TORSDOF 1
ENDMDL
