MODEL 1
REMARK minimizedAffinity 7.03610992
REMARK minimizedRMSD -1
REMARK  1 active torsions:
REMARK  status: ('A' for Active; 'I' for Inactive)
REMARK    1  A    between atoms: C3_4  and  O_7 
ROOT
ATOM      1  C   UNL d   1      -4.637   0.528   1.885  0.00  0.00    -0.033 A 
ATOM      2  C1  UNL d   1      -3.773   0.402   0.795  0.00  0.00     0.039 A 
ATOM      3  C2  UNL d   1      -2.395   0.318   1.001  0.00  0.00    -0.080 A 
ATOM      4  C3  UNL d   1      -1.894   0.360   2.299  0.00  0.00     0.150 A 
ATOM      5  C4  UNL d   1      -2.749   0.482   3.389  0.00  0.00    -0.007 A 
ATOM      6  C5  UNL d   1      -4.125   0.567   3.182  0.00  0.00     0.039 A 
ENDROOT
BRANCH   4   7
ATOM      7  O   UNL d   1      -0.556   0.286   2.549  0.00  0.00    -0.526 OA
ATOM      8  H5  UNL d   1      -0.086   0.234   1.700  0.00  0.00     0.418 HD
ENDBRANCH   4   7
TORSDOF 1
ENDMDL
