MODEL 1
REMARK minimizedAffinity 0.699262202
REMARK minimizedRMSD -1
REMARK  1 active torsions:
REMARK  status: ('A' for Active; 'I' for Inactive)
REMARK    1  A    between atoms: C3_4  and  O_7 
ROOT
ATOM      1  C   UNL d   1      -2.516  -0.816  -5.994  0.00  0.00    -0.033 A 
ATOM      2  C1  UNL d   1      -3.867  -1.169  -5.986  0.00  0.00     0.039 A 
ATOM      3  C2  UNL d   1      -4.238  -2.515  -5.987  0.00  0.00    -0.080 A 
ATOM      4  C3  UNL d   1      -3.251  -3.496  -5.994  0.00  0.00     0.150 A 
ATOM      5  C4  UNL d   1      -1.903  -3.152  -5.998  0.00  0.00    -0.007 A 
ATOM      6  C5  UNL d   1      -1.534  -1.807  -5.999  0.00  0.00     0.039 A 
ENDROOT
BRANCH   4   7
ATOM      7  O   UNL d   1      -3.565  -4.823  -5.999  0.00  0.00    -0.526 OA
ATOM      8  H5  UNL d   1      -4.532  -4.910  -6.025  0.00  0.00     0.418 HD
ENDBRANCH   4   7
TORSDOF 1
ENDMDL
