MODEL 1
REMARK minimizedAffinity 5.60335016
REMARK minimizedRMSD -1
REMARK  1 active torsions:
REMARK  status: ('A' for Active; 'I' for Inactive)
REMARK    1  A    between atoms: C3_4  and  O_7 
ROOT
ATOM      1  C   UNL d   1      -4.891  -1.827  -5.988  0.00  0.00    -0.033 A 
ATOM      2  C1  UNL d   1      -3.674  -1.144  -5.993  0.00  0.00     0.039 A 
ATOM      3  C2  UNL d   1      -2.472  -1.854  -5.998  0.00  0.00    -0.080 A 
ATOM      4  C3  UNL d   1      -2.501  -3.246  -5.999  0.00  0.00     0.150 A 
ATOM      5  C4  UNL d   1      -3.711  -3.934  -5.998  0.00  0.00    -0.007 A 
ATOM      6  C5  UNL d   1      -4.910  -3.222  -5.992  0.00  0.00     0.039 A 
ENDROOT
BRANCH   4   7
ATOM      7  O   UNL d   1      -1.355  -3.983  -6.000  0.00  0.00    -0.526 OA
ATOM      8  H5  UNL d   1      -0.598  -3.375  -5.971  0.00  0.00     0.418 HD
ENDBRANCH   4   7
TORSDOF 1
ENDMDL
