MODEL 1
REMARK minimizedAffinity -1.69743323
REMARK minimizedRMSD -1
REMARK  1 active torsions:
REMARK  status: ('A' for Active; 'I' for Inactive)
REMARK    1  A    between atoms: C3_4  and  O_7 
ROOT
ATOM      1  C   UNL d   1      -2.063  -1.660  -5.921  0.00  0.00    -0.033 A 
ATOM      2  C1  UNL d   1      -2.296  -3.034  -6.000  0.00  0.00     0.039 A 
ATOM      3  C2  UNL d   1      -3.598  -3.530  -5.914  0.00  0.00    -0.080 A 
ATOM      4  C3  UNL d   1      -4.658  -2.642  -5.750  0.00  0.00     0.150 A 
ATOM      5  C4  UNL d   1      -4.434  -1.271  -5.674  0.00  0.00    -0.007 A 
ATOM      6  C5  UNL d   1      -3.132  -0.778  -5.759  0.00  0.00     0.039 A 
ENDROOT
BRANCH   4   7
ATOM      7  O   UNL d   1      -5.946  -3.079  -5.656  0.00  0.00    -0.526 OA
ATOM      8  H5  UNL d   1      -5.945  -4.050  -5.695  0.00  0.00     0.418 HD
ENDBRANCH   4   7
TORSDOF 1
ENDMDL
