MODEL 1
REMARK minimizedAffinity 0.112747326
REMARK minimizedRMSD -1
REMARK  1 active torsions:
REMARK  status: ('A' for Active; 'I' for Inactive)
REMARK    1  A    between atoms: C3_4  and  O_7 
ROOT
ATOM      1  C   UNL d   1       2.107  -4.881   1.125  0.00  0.00    -0.033 A 
ATOM      2  C1  UNL d   1       0.892  -4.494   1.693  0.00  0.00     0.039 A 
ATOM      3  C2  UNL d   1       0.584  -4.861   3.005  0.00  0.00    -0.080 A 
ATOM      4  C3  UNL d   1       1.499  -5.614   3.736  0.00  0.00     0.150 A 
ATOM      5  C4  UNL d   1       2.713  -6.000   3.177  0.00  0.00    -0.007 A 
ATOM      6  C5  UNL d   1       3.018  -5.633   1.867  0.00  0.00     0.039 A 
ENDROOT
BRANCH   4   7
ATOM      7  O   UNL d   1       1.240  -6.000   5.018  0.00  0.00    -0.526 OA
ATOM      8  H5  UNL d   1       0.354  -5.686   5.261  0.00  0.00     0.418 HD
ENDBRANCH   4   7
TORSDOF 1
ENDMDL
