MODEL 1
REMARK minimizedAffinity -2.59222412
REMARK minimizedRMSD -1
REMARK  1 active torsions:
REMARK  status: ('A' for Active; 'I' for Inactive)
REMARK    1  A    between atoms: C3_4  and  O_7 
ROOT
ATOM      1  C   UNL d   1      -4.876  -1.766  -5.993  0.00  0.00    -0.033 A 
ATOM      2  C1  UNL d   1      -3.491  -1.941  -5.997  0.00  0.00     0.039 A 
ATOM      3  C2  UNL d   1      -2.948  -3.227  -6.000  0.00  0.00    -0.080 A 
ATOM      4  C3  UNL d   1      -3.800  -4.328  -5.999  0.00  0.00     0.150 A 
ATOM      5  C4  UNL d   1      -5.181  -4.161  -5.999  0.00  0.00    -0.007 A 
ATOM      6  C5  UNL d   1      -5.721  -2.876  -5.995  0.00  0.00     0.039 A 
ENDROOT
BRANCH   4   7
ATOM      7  O   UNL d   1      -3.317  -5.603  -5.997  0.00  0.00    -0.526 OA
ATOM      8  H5  UNL d   1      -2.346  -5.564  -5.968  0.00  0.00     0.418 HD
ENDBRANCH   4   7
TORSDOF 1
ENDMDL
