MODEL 1
REMARK minimizedAffinity -1.08776879
REMARK minimizedRMSD -1
REMARK  1 active torsions:
REMARK  status: ('A' for Active; 'I' for Inactive)
REMARK    1  A    between atoms: C3_4  and  O_7 
ROOT
ATOM      1  C   UNL d   1      -2.226   0.831   1.461  0.00  0.00    -0.033 A 
ATOM      2  C1  UNL d   1      -3.576   0.828   1.106  0.00  0.00     0.039 A 
ATOM      3  C2  UNL d   1      -4.560   0.888   2.096  0.00  0.00    -0.080 A 
ATOM      4  C3  UNL d   1      -4.180   0.951   3.434  0.00  0.00     0.150 A 
ATOM      5  C4  UNL d   1      -2.837   0.957   3.794  0.00  0.00    -0.007 A 
ATOM      6  C5  UNL d   1      -1.856   0.897   2.805  0.00  0.00     0.039 A 
ENDROOT
BRANCH   4   7
ATOM      7  O   UNL d   1      -5.104   1.006   4.435  0.00  0.00    -0.526 OA
ATOM      8  H5  UNL d   1      -5.990   0.965   4.038  0.00  0.00     0.418 HD
ENDBRANCH   4   7
TORSDOF 1
ENDMDL
