MODEL 1
REMARK minimizedAffinity 5.18640232
REMARK minimizedRMSD -1
REMARK  1 active torsions:
REMARK  status: ('A' for Active; 'I' for Inactive)
REMARK    1  A    between atoms: C3_4  and  O_7 
ROOT
ATOM      1  C   UNL d   1      -4.153  -1.305  -5.912  0.00  0.00    -0.033 A 
ATOM      2  C1  UNL d   1      -3.063  -0.433  -5.877  0.00  0.00     0.039 A 
ATOM      3  C2  UNL d   1      -1.761  -0.938  -5.901  0.00  0.00    -0.080 A 
ATOM      4  C3  UNL d   1      -1.564  -2.315  -5.960  0.00  0.00     0.150 A 
ATOM      5  C4  UNL d   1      -2.645  -3.189  -5.998  0.00  0.00    -0.007 A 
ATOM      6  C5  UNL d   1      -3.944  -2.683  -5.974  0.00  0.00     0.039 A 
ENDROOT
BRANCH   4   7
ATOM      7  O   UNL d   1      -0.312  -2.855  -5.980  0.00  0.00    -0.526 OA
ATOM      8  H5  UNL d   1       0.336  -2.133  -5.919  0.00  0.00     0.418 HD
ENDBRANCH   4   7
TORSDOF 1
ENDMDL
