MODEL 1
REMARK minimizedAffinity 1.33641362
REMARK minimizedRMSD -1
REMARK  1 active torsions:
REMARK  status: ('A' for Active; 'I' for Inactive)
REMARK    1  A    between atoms: C3_4  and  O_7 
ROOT
ATOM      1  C   UNL d   1      -4.262  -3.428  -5.998  0.00  0.00    -0.033 A 
ATOM      2  C1  UNL d   1      -2.866  -3.455  -5.996  0.00  0.00     0.039 A 
ATOM      3  C2  UNL d   1      -2.143  -2.260  -5.994  0.00  0.00    -0.080 A 
ATOM      4  C3  UNL d   1      -2.827  -1.048  -5.992  0.00  0.00     0.150 A 
ATOM      5  C4  UNL d   1      -4.217  -1.013  -5.990  0.00  0.00    -0.007 A 
ATOM      6  C5  UNL d   1      -4.937  -2.207  -5.993  0.00  0.00     0.039 A 
ENDROOT
BRANCH   4   7
ATOM      7  O   UNL d   1      -2.164   0.144  -5.995  0.00  0.00    -0.526 OA
ATOM      8  H5  UNL d   1      -1.209  -0.035  -6.026  0.00  0.00     0.418 HD
ENDBRANCH   4   7
TORSDOF 1
ENDMDL
