MODEL 1
REMARK minimizedAffinity 6.88692284
REMARK minimizedRMSD -1
REMARK  1 active torsions:
REMARK  status: ('A' for Active; 'I' for Inactive)
REMARK    1  A    between atoms: C3_4  and  O_7 
ROOT
ATOM      1  C   UNL d   1      -4.221   1.289   2.591  0.00  0.00    -0.033 A 
ATOM      2  C1  UNL d   1      -3.462   0.123   2.715  0.00  0.00     0.039 A 
ATOM      3  C2  UNL d   1      -2.128   0.110   2.306  0.00  0.00    -0.080 A 
ATOM      4  C3  UNL d   1      -1.564   1.267   1.776  0.00  0.00     0.150 A 
ATOM      5  C4  UNL d   1      -2.313   2.433   1.653  0.00  0.00    -0.007 A 
ATOM      6  C5  UNL d   1      -3.646   2.444   2.061  0.00  0.00     0.039 A 
ENDROOT
BRANCH   4   7
ATOM      7  O   UNL d   1      -0.266   1.301   1.359  0.00  0.00    -0.526 OA
ATOM      8  H5  UNL d   1       0.118   0.417   1.477  0.00  0.00     0.418 HD
ENDBRANCH   4   7
TORSDOF 1
ENDMDL
