MODEL 1
REMARK minimizedAffinity -3.92439222
REMARK minimizedRMSD -1
REMARK  0 active torsions:
REMARK  status: ('A' for Active; 'I' for Inactive)
ROOT
ATOM      1  N1  IND d   1       2.207  -1.198   0.425  0.00  0.00    -0.196 N 
ATOM      2  C2  IND d   1       1.240  -2.145   0.620  0.00  0.00     0.054 A 
ATOM      3  C3  IND d   1       0.031  -1.559   0.765  0.00  0.00    -0.031 A 
ATOM      4  C4  IND d   1      -0.610   0.930   0.616  0.00  0.00     0.051 A 
ATOM      5  C5  IND d   1      -0.065   2.177   0.489  0.00  0.00    -0.031 A 
ATOM      6  C6  IND d   1       1.293   2.366   0.328  0.00  0.00     0.015 A 
ATOM      7  C7  IND d   1       2.158   1.310   0.277  0.00  0.00    -0.016 A 
ATOM      8  C8  IND d   1       1.609   0.043   0.412  0.00  0.00    -0.047 A 
ATOM      9  C9  IND d   1       0.237  -0.153   0.619  0.00  0.00    -0.096 A 
ATOM     10  HN1 IND d   1       3.047  -1.352   0.327  0.00  0.00     0.298 HD
ENDROOT
TORSDOF 0
ENDMDL
