MODEL 1
REMARK minimizedAffinity 8.90907097
REMARK minimizedRMSD -1
REMARK  0 active torsions:
REMARK  status: ('A' for Active; 'I' for Inactive)
ROOT
ATOM      1  N1  IND d   1       2.110   3.371  -5.999  0.00  0.00    -0.196 N 
ATOM      2  C2  IND d   1       2.741   2.369  -5.316  0.00  0.00     0.054 A 
ATOM      3  C3  IND d   1       1.877   1.756  -4.477  0.00  0.00    -0.031 A 
ATOM      4  C4  IND d   1      -0.641   2.165  -4.136  0.00  0.00     0.051 A 
ATOM      5  C5  IND d   1      -1.657   3.000  -4.509  0.00  0.00    -0.031 A 
ATOM      6  C6  IND d   1      -1.466   4.020  -5.419  0.00  0.00     0.015 A 
ATOM      7  C7  IND d   1      -0.248   4.237  -6.000  0.00  0.00    -0.016 A 
ATOM      8  C8  IND d   1       0.787   3.396  -5.618  0.00  0.00    -0.047 A 
ATOM      9  C9  IND d   1       0.609   2.386  -4.663  0.00  0.00    -0.096 A 
ATOM     10  HN1 IND d   1       2.478   3.897  -6.571  0.00  0.00     0.298 HD
ENDROOT
TORSDOF 0
ENDMDL
