MODEL 1
REMARK minimizedAffinity 6.40907192
REMARK minimizedRMSD -1
REMARK  0 active torsions:
REMARK  status: ('A' for Active; 'I' for Inactive)
ROOT
ATOM      1  N1  IND d   1       2.285  -1.834  -1.468  0.00  0.00    -0.196 N 
ATOM      2  C2  IND d   1       2.922  -0.956  -0.636  0.00  0.00     0.054 A 
ATOM      3  C3  IND d   1       2.429  -1.056   0.619  0.00  0.00    -0.031 A 
ATOM      4  C4  IND d   1       0.647  -2.661   1.554  0.00  0.00     0.051 A 
ATOM      5  C5  IND d   1      -0.247  -3.620   1.168  0.00  0.00    -0.031 A 
ATOM      6  C6  IND d   1      -0.342  -4.044  -0.141  0.00  0.00     0.015 A 
ATOM      7  C7  IND d   1       0.464  -3.530  -1.117  0.00  0.00    -0.016 A 
ATOM      8  C8  IND d   1       1.368  -2.550  -0.731  0.00  0.00    -0.047 A 
ATOM      9  C9  IND d   1       1.440  -2.085   0.589  0.00  0.00    -0.096 A 
ATOM     10  HN1 IND d   1       2.432  -1.923  -2.311  0.00  0.00     0.298 HD
ENDROOT
TORSDOF 0
ENDMDL
