MODEL 1
REMARK minimizedAffinity 4.50338125
REMARK minimizedRMSD -1
REMARK  0 active torsions:
REMARK  status: ('A' for Active; 'I' for Inactive)
ROOT
ATOM      1  N1  IND d   1      -2.269  -5.619  -0.451  0.00  0.00    -0.196 N 
ATOM      2  C2  IND d   1      -2.415  -4.675  -1.428  0.00  0.00     0.054 A 
ATOM      3  C3  IND d   1      -1.742  -3.549  -1.100  0.00  0.00    -0.031 A 
ATOM      4  C4  IND d   1      -0.250  -3.074   0.943  0.00  0.00     0.051 A 
ATOM      5  C5  IND d   1       0.161  -3.618   2.128  0.00  0.00    -0.031 A 
ATOM      6  C6  IND d   1      -0.223  -4.884   2.520  0.00  0.00     0.015 A 
ATOM      7  C7  IND d   1      -1.027  -5.661   1.733  0.00  0.00    -0.016 A 
ATOM      8  C8  IND d   1      -1.451  -5.108   0.533  0.00  0.00    -0.047 A 
ATOM      9  C9  IND d   1      -1.099  -3.808   0.149  0.00  0.00    -0.096 A 
ATOM     10  HN1 IND d   1      -2.627  -6.401  -0.451  0.00  0.00     0.298 HD
ENDROOT
TORSDOF 0
ENDMDL
