MODEL 1
REMARK minimizedAffinity -0.0908077136
REMARK minimizedRMSD -1
REMARK  0 active torsions:
REMARK  status: ('A' for Active; 'I' for Inactive)
ROOT
ATOM      1  N1  IND d   1      -0.233  -3.315   2.966  0.00  0.00    -0.196 N 
ATOM      2  C2  IND d   1      -0.415  -4.587   3.433  0.00  0.00     0.054 A 
ATOM      3  C3  IND d   1      -0.989  -5.359   2.483  0.00  0.00    -0.031 A 
ATOM      4  C4  IND d   1      -1.623  -4.771   0.059  0.00  0.00     0.051 A 
ATOM      5  C5  IND d   1      -1.681  -3.721  -0.815  0.00  0.00    -0.031 A 
ATOM      6  C6  IND d   1      -1.248  -2.458  -0.467  0.00  0.00     0.015 A 
ATOM      7  C7  IND d   1      -0.728  -2.199   0.770  0.00  0.00    -0.016 A 
ATOM      8  C8  IND d   1      -0.674  -3.260   1.662  0.00  0.00    -0.047 A 
ATOM      9  C9  IND d   1      -1.151  -4.534   1.328  0.00  0.00    -0.096 A 
ATOM     10  HN1 IND d   1       0.100  -2.660   3.411  0.00  0.00     0.298 HD
ENDROOT
TORSDOF 0
ENDMDL
