MODEL 1
REMARK minimizedAffinity 5.17183018
REMARK minimizedRMSD -1
REMARK  0 active torsions:
REMARK  status: ('A' for Active; 'I' for Inactive)
ROOT
ATOM      1  N1  IND d   1      -3.432  -4.886  -1.594  0.00  0.00    -0.196 N 
ATOM      2  C2  IND d   1      -2.858  -3.790  -2.175  0.00  0.00     0.054 A 
ATOM      3  C3  IND d   1      -2.045  -3.163  -1.295  0.00  0.00    -0.031 A 
ATOM      4  C4  IND d   1      -1.432  -3.817   1.118  0.00  0.00     0.051 A 
ATOM      5  C5  IND d   1      -1.733  -4.719   2.100  0.00  0.00    -0.031 A 
ATOM      6  C6  IND d   1      -2.633  -5.746   1.895  0.00  0.00     0.015 A 
ATOM      7  C7  IND d   1      -3.258  -5.916   0.692  0.00  0.00    -0.016 A 
ATOM      8  C8  IND d   1      -2.960  -4.997  -0.304  0.00  0.00    -0.047 A 
ATOM      9  C9  IND d   1      -2.080  -3.928  -0.089  0.00  0.00    -0.096 A 
ATOM     10  HN1 IND d   1      -3.994  -5.417  -1.970  0.00  0.00     0.298 HD
ENDROOT
TORSDOF 0
ENDMDL
