MODEL 1
REMARK minimizedAffinity 3.42536926
REMARK minimizedRMSD -1
REMARK  0 active torsions:
REMARK  status: ('A' for Active; 'I' for Inactive)
ROOT
ATOM      1  N1  IND d   1      -0.212   1.223   3.188  0.00  0.00    -0.196 N 
ATOM      2  C2  IND d   1      -1.301   2.049   3.204  0.00  0.00     0.054 A 
ATOM      3  C3  IND d   1      -1.148   3.047   2.305  0.00  0.00    -0.031 A 
ATOM      4  C4  IND d   1       0.764   3.461   0.631  0.00  0.00     0.051 A 
ATOM      5  C5  IND d   1       1.997   2.997   0.267  0.00  0.00    -0.031 A 
ATOM      6  C6  IND d   1       2.566   1.893   0.869  0.00  0.00     0.015 A 
ATOM      7  C7  IND d   1       1.917   1.203   1.853  0.00  0.00    -0.016 A 
ATOM      8  C8  IND d   1       0.668   1.676   2.230  0.00  0.00    -0.047 A 
ATOM      9  C9  IND d   1       0.103   2.821   1.653  0.00  0.00    -0.096 A 
ATOM     10  HN1 IND d   1      -0.095   0.536   3.692  0.00  0.00     0.298 HD
ENDROOT
TORSDOF 0
ENDMDL
