MODEL 1
REMARK minimizedAffinity 11.2873125
REMARK minimizedRMSD -1
REMARK  0 active torsions:
REMARK  status: ('A' for Active; 'I' for Inactive)
ROOT
ATOM      1  N1  IND d   1      -0.289  -4.302  -1.974  0.00  0.00    -0.196 N 
ATOM      2  C2  IND d   1      -1.543  -4.207  -1.436  0.00  0.00     0.054 A 
ATOM      3  C3  IND d   1      -1.515  -3.466  -0.305  0.00  0.00    -0.031 A 
ATOM      4  C4  IND d   1       0.459  -2.228   0.790  0.00  0.00     0.051 A 
ATOM      5  C5  IND d   1       1.809  -2.049   0.685  0.00  0.00    -0.031 A 
ATOM      6  C6  IND d   1       2.544  -2.620  -0.333  0.00  0.00     0.015 A 
ATOM      7  C7  IND d   1       1.951  -3.387  -1.296  0.00  0.00    -0.016 A 
ATOM      8  C8  IND d   1       0.580  -3.577  -1.189  0.00  0.00    -0.047 A 
ATOM      9  C9  IND d   1      -0.164  -3.035  -0.133  0.00  0.00    -0.096 A 
ATOM     10  HN1 IND d   1      -0.080  -4.741  -2.683  0.00  0.00     0.298 HD
ENDROOT
TORSDOF 0
ENDMDL
