MODEL 1
REMARK minimizedAffinity 6.22529745
REMARK minimizedRMSD -1
REMARK  0 active torsions:
REMARK  status: ('A' for Active; 'I' for Inactive)
ROOT
ATOM      1  N1  IND d   1      -0.243   2.525  -4.719  0.00  0.00    -0.196 N 
ATOM      2  C2  IND d   1       0.164   3.655  -5.372  0.00  0.00     0.054 A 
ATOM      3  C3  IND d   1      -0.882   4.241  -5.997  0.00  0.00    -0.031 A 
ATOM      4  C4  IND d   1      -3.368   3.573  -5.997  0.00  0.00     0.051 A 
ATOM      5  C5  IND d   1      -4.221   2.593  -5.572  0.00  0.00    -0.031 A 
ATOM      6  C6  IND d   1      -3.782   1.520  -4.823  0.00  0.00     0.015 A 
ATOM      7  C7  IND d   1      -2.471   1.392  -4.461  0.00  0.00    -0.016 A 
ATOM      8  C8  IND d   1      -1.602   2.382  -4.897  0.00  0.00    -0.047 A 
ATOM      9  C9  IND d   1      -2.033   3.451  -5.693  0.00  0.00    -0.096 A 
ATOM     10  HN1 IND d   1       0.264   1.993  -4.273  0.00  0.00     0.298 HD
ENDROOT
TORSDOF 0
ENDMDL
