MODEL 1
REMARK minimizedAffinity 4.27554893
REMARK minimizedRMSD -1
REMARK  0 active torsions:
REMARK  status: ('A' for Active; 'I' for Inactive)
ROOT
ATOM      1  N1  IND d   1       1.319   1.680  -5.618  0.00  0.00    -0.196 N 
ATOM      2  C2  IND d   1       2.082   1.534  -4.493  0.00  0.00     0.054 A 
ATOM      3  C3  IND d   1       1.337   1.760  -3.387  0.00  0.00    -0.031 A 
ATOM      4  C4  IND d   1      -1.176   2.281  -3.186  0.00  0.00     0.051 A 
ATOM      5  C5  IND d   1      -2.284   2.549  -3.939  0.00  0.00    -0.031 A 
ATOM      6  C6  IND d   1      -2.248   2.538  -5.319  0.00  0.00     0.015 A 
ATOM      7  C7  IND d   1      -1.100   2.246  -5.999  0.00  0.00    -0.016 A 
ATOM      8  C8  IND d   1       0.029   1.980  -5.237  0.00  0.00    -0.047 A 
ATOM      9  C9  IND d   1       0.009   2.032  -3.837  0.00  0.00    -0.096 A 
ATOM     10  HN1 IND d   1       1.597   1.598  -6.427  0.00  0.00     0.298 HD
ENDROOT
TORSDOF 0
ENDMDL
