MODEL 1
REMARK minimizedAffinity 10.5595274
REMARK minimizedRMSD -1
REMARK  0 active torsions:
REMARK  status: ('A' for Active; 'I' for Inactive)
ROOT
ATOM      1  N1  IND d   1      -1.931   1.540   1.241  0.00  0.00    -0.196 N 
ATOM      2  C2  IND d   1      -1.279   0.703   2.104  0.00  0.00     0.054 A 
ATOM      3  C3  IND d   1      -2.116  -0.264   2.543  0.00  0.00    -0.031 A 
ATOM      4  C4  IND d   1      -4.565  -0.724   1.899  0.00  0.00     0.051 A 
ATOM      5  C5  IND d   1      -5.603  -0.210   1.173  0.00  0.00    -0.031 A 
ATOM      6  C6  IND d   1      -5.466   0.936   0.416  0.00  0.00     0.015 A 
ATOM      7  C7  IND d   1      -4.278   1.606   0.347  0.00  0.00    -0.016 A 
ATOM      8  C8  IND d   1      -3.224   1.091   1.088  0.00  0.00    -0.047 A 
ATOM      9  C9  IND d   1      -3.368  -0.047   1.892  0.00  0.00    -0.096 A 
ATOM     10  HN1 IND d   1      -1.590   2.231   0.859  0.00  0.00     0.298 HD
ENDROOT
TORSDOF 0
ENDMDL
