MODEL 1
REMARK minimizedAffinity -3.03985834
REMARK minimizedRMSD -1
REMARK  0 active torsions:
REMARK  status: ('A' for Active; 'I' for Inactive)
ROOT
ATOM      1  N1  IND d   1       1.588  -3.189  -0.921  0.00  0.00    -0.196 N 
ATOM      2  C2  IND d   1       2.203  -2.842   0.250  0.00  0.00     0.054 A 
ATOM      3  C3  IND d   1       1.292  -2.711   1.240  0.00  0.00    -0.031 A 
ATOM      4  C4  IND d   1      -1.250  -3.117   1.186  0.00  0.00     0.051 A 
ATOM      5  C5  IND d   1      -2.276  -3.413   0.333  0.00  0.00    -0.031 A 
ATOM      6  C6  IND d   1      -2.062  -3.657  -1.008  0.00  0.00     0.015 A 
ATOM      7  C7  IND d   1      -0.806  -3.625  -1.546  0.00  0.00    -0.016 A 
ATOM      8  C8  IND d   1       0.237  -3.318  -0.684  0.00  0.00    -0.047 A 
ATOM      9  C9  IND d   1       0.021  -3.028   0.669  0.00  0.00    -0.096 A 
ATOM     10  HN1 IND d   1       1.979  -3.307  -1.677  0.00  0.00     0.298 HD
ENDROOT
TORSDOF 0
ENDMDL
