MODEL 1
REMARK minimizedAffinity 10.1987047
REMARK minimizedRMSD -1
REMARK  0 active torsions:
REMARK  status: ('A' for Active; 'I' for Inactive)
ROOT
ATOM      1  N1  IND d   1       5.936   3.377  -0.188  0.00  0.00    -0.196 N 
ATOM      2  C2  IND d   1       5.943   4.440  -1.049  0.00  0.00     0.054 A 
ATOM      3  C3  IND d   1       5.916   5.603  -0.360  0.00  0.00    -0.031 A 
ATOM      4  C4  IND d   1       5.960   6.000   2.183  0.00  0.00     0.051 A 
ATOM      5  C5  IND d   1       5.920   5.337   3.377  0.00  0.00    -0.031 A 
ATOM      6  C6  IND d   1       5.885   3.959   3.446  0.00  0.00     0.015 A 
ATOM      7  C7  IND d   1       5.901   3.189   2.317  0.00  0.00    -0.016 A 
ATOM      8  C8  IND d   1       5.934   3.859   1.103  0.00  0.00    -0.047 A 
ATOM      9  C9  IND d   1       5.927   5.258   1.026  0.00  0.00    -0.096 A 
ATOM     10  HN1 IND d   1       5.933   2.548  -0.415  0.00  0.00     0.298 HD
ENDROOT
TORSDOF 0
ENDMDL
