MODEL 1
REMARK minimizedAffinity -0.366567045
REMARK minimizedRMSD -1
REMARK  0 active torsions:
REMARK  status: ('A' for Active; 'I' for Inactive)
ROOT
ATOM      1  N1  IND d   1       0.158   1.507   3.033  0.00  0.00    -0.196 N 
ATOM      2  C2  IND d   1      -0.790   2.442   3.341  0.00  0.00     0.054 A 
ATOM      3  C3  IND d   1      -0.713   3.489   2.489  0.00  0.00    -0.031 A 
ATOM      4  C4  IND d   1       0.826   3.830   0.454  0.00  0.00     0.051 A 
ATOM      5  C5  IND d   1       1.882   3.266  -0.205  0.00  0.00    -0.031 A 
ATOM      6  C6  IND d   1       2.427   2.061   0.188  0.00  0.00     0.015 A 
ATOM      7  C7  IND d   1       1.926   1.366   1.253  0.00  0.00    -0.016 A 
ATOM      8  C8  IND d   1       0.858   1.940   1.929  0.00  0.00    -0.047 A 
ATOM      9  C9  IND d   1       0.328   3.183   1.560  0.00  0.00    -0.096 A 
ATOM     10  HN1 IND d   1       0.294   0.772   3.458  0.00  0.00     0.298 HD
ENDROOT
TORSDOF 0
ENDMDL
