MODEL 1
REMARK minimizedAffinity 4.13898373
REMARK minimizedRMSD -1
REMARK  0 active torsions:
REMARK  status: ('A' for Active; 'I' for Inactive)
ROOT
ATOM      1  N1  IND d   1      -1.467  -3.920  -1.953  0.00  0.00    -0.196 N 
ATOM      2  C2  IND d   1      -2.637  -4.534  -1.602  0.00  0.00     0.054 A 
ATOM      3  C3  IND d   1      -2.881  -4.362  -0.283  0.00  0.00    -0.031 A 
ATOM      4  C4  IND d   1      -1.548  -3.024   1.466  0.00  0.00     0.051 A 
ATOM      5  C5  IND d   1      -0.388  -2.319   1.628  0.00  0.00    -0.031 A 
ATOM      6  C6  IND d   1       0.488  -2.106   0.583  0.00  0.00     0.015 A 
ATOM      7  C7  IND d   1       0.230  -2.582  -0.671  0.00  0.00    -0.016 A 
ATOM      8  C8  IND d   1      -0.944  -3.303  -0.838  0.00  0.00    -0.047 A 
ATOM      9  C9  IND d   1      -1.815  -3.559   0.228  0.00  0.00    -0.096 A 
ATOM     10  HN1 IND d   1      -1.117  -3.920  -2.738  0.00  0.00     0.298 HD
ENDROOT
TORSDOF 0
ENDMDL
