MODEL 1
REMARK minimizedAffinity 8.12517357
REMARK minimizedRMSD -1
REMARK  0 active torsions:
REMARK  status: ('A' for Active; 'I' for Inactive)
ROOT
ATOM      1  N1  IND d   1      -0.609   5.030  -5.993  0.00  0.00    -0.196 N 
ATOM      2  C2  IND d   1      -1.818   4.529  -5.595  0.00  0.00     0.054 A 
ATOM      3  C3  IND d   1      -1.672   3.270  -5.124  0.00  0.00    -0.031 A 
ATOM      4  C4  IND d   1       0.469   1.875  -4.819  0.00  0.00     0.051 A 
ATOM      5  C5  IND d   1       1.812   1.893  -5.073  0.00  0.00    -0.031 A 
ATOM      6  C6  IND d   1       2.429   2.981  -5.656  0.00  0.00     0.015 A 
ATOM      7  C7  IND d   1       1.725   4.100  -5.998  0.00  0.00    -0.016 A 
ATOM      8  C8  IND d   1       0.360   4.083  -5.748  0.00  0.00    -0.047 A 
ATOM      9  C9  IND d   1      -0.279   2.965  -5.195  0.00  0.00    -0.096 A 
ATOM     10  HN1 IND d   1      -0.478   5.806  -6.338  0.00  0.00     0.298 HD
ENDROOT
TORSDOF 0
ENDMDL
