MODEL 1
REMARK minimizedAffinity 5.20419884
REMARK minimizedRMSD -1
REMARK  0 active torsions:
REMARK  status: ('A' for Active; 'I' for Inactive)
ROOT
ATOM      1  N1  IND d   1      -0.092   2.793  -4.447  0.00  0.00    -0.196 N 
ATOM      2  C2  IND d   1      -0.332   2.363  -5.722  0.00  0.00     0.054 A 
ATOM      3  C3  IND d   1      -1.556   1.796  -5.805  0.00  0.00    -0.031 A 
ATOM      4  C4  IND d   1      -3.374   1.557  -3.999  0.00  0.00     0.051 A 
ATOM      5  C5  IND d   1      -3.605   1.767  -2.668  0.00  0.00    -0.031 A 
ATOM      6  C6  IND d   1      -2.658   2.343  -1.846  0.00  0.00     0.015 A 
ATOM      7  C7  IND d   1      -1.444   2.744  -2.329  0.00  0.00    -0.016 A 
ATOM      8  C8  IND d   1      -1.204   2.526  -3.678  0.00  0.00    -0.047 A 
ATOM      9  C9  IND d   1      -2.145   1.903  -4.508  0.00  0.00    -0.096 A 
ATOM     10  HN1 IND d   1       0.631   3.167  -4.171  0.00  0.00     0.298 HD
ENDROOT
TORSDOF 0
ENDMDL
