MODEL 1
REMARK minimizedAffinity -5.54241133
REMARK minimizedRMSD -1
REMARK  1 active torsions:
REMARK  status: ('A' for Active; 'I' for Inactive)
REMARK    1  A    between atoms: C1_2  and  C2_3 
ROOT
ATOM      1  C2  UNL d   1      -0.085   0.382   0.310  0.00  0.00    -0.077 A 
ATOM      2  C3  UNL d   1       0.984   0.759   1.134  0.00  0.00     0.002 A 
ATOM      3  C4  UNL d   1       0.993   0.408   2.486  0.00  0.00     0.002 A 
ATOM      4  C5  UNL d   1      -0.063  -0.325   3.024  0.00  0.00    -0.004 A 
ATOM      5  C6  UNL d   1      -1.132  -0.703   2.213  0.00  0.00     0.002 A 
ATOM      6  C7  UNL d   1      -1.143  -0.352   0.862  0.00  0.00     0.002 A 
ENDROOT
BRANCH   1   7
ATOM      7  C1  UNL d   1      -0.073   0.717  -1.158  0.00  0.00     0.055 C 
ATOM      8  C   UNL d   1       0.350  -0.481  -1.996  0.00  0.00     0.019 C 
ENDBRANCH   1   7
TORSDOF 1
ENDMDL
