MODEL 1
REMARK minimizedAffinity -5.86294508
REMARK minimizedRMSD -1
REMARK  1 active torsions:
REMARK  status: ('A' for Active; 'I' for Inactive)
REMARK    1  A    between atoms: C1_2  and  C2_3 
ROOT
ATOM      1  C2  UNL d   1      -0.338   0.065   0.462  0.00  0.00    -0.077 A 
ATOM      2  C3  UNL d   1       0.634   0.065   1.473  0.00  0.00     0.002 A 
ATOM      3  C4  UNL d   1       0.301  -0.323   2.772  0.00  0.00     0.002 A 
ATOM      4  C5  UNL d   1      -1.001  -0.718   3.071  0.00  0.00    -0.004 A 
ATOM      5  C6  UNL d   1      -1.975  -0.720   2.073  0.00  0.00     0.002 A 
ATOM      6  C7  UNL d   1      -1.644  -0.331   0.774  0.00  0.00     0.002 A 
ENDROOT
BRANCH   1   7
ATOM      7  C1  UNL d   1       0.030   0.437  -0.951  0.00  0.00     0.055 C 
ATOM      8  C   UNL d   1       0.433  -0.788  -1.758  0.00  0.00     0.019 C 
ENDBRANCH   1   7
TORSDOF 1
ENDMDL
