MODEL 1
REMARK minimizedAffinity -5.67333317
REMARK minimizedRMSD -1
REMARK  1 active torsions:
REMARK  status: ('A' for Active; 'I' for Inactive)
REMARK    1  A    between atoms: C1_2  and  C2_3 
ROOT
ATOM      1  C2  UNL d   1      -0.369   0.075   0.813  0.00  0.00    -0.077 A 
ATOM      2  C3  UNL d   1      -1.735   0.186   0.515  0.00  0.00     0.002 A 
ATOM      3  C4  UNL d   1      -2.694  -0.051   1.502  0.00  0.00     0.002 A 
ATOM      4  C5  UNL d   1      -2.298  -0.396   2.792  0.00  0.00    -0.004 A 
ATOM      5  C6  UNL d   1      -0.943  -0.511   3.098  0.00  0.00     0.002 A 
ATOM      6  C7  UNL d   1       0.018  -0.276   2.112  0.00  0.00     0.002 A 
ENDROOT
BRANCH   1   7
ATOM      7  C1  UNL d   1       0.668   0.377  -0.237  0.00  0.00     0.055 C 
ATOM      8  C   UNL d   1       0.065   0.351  -1.634  0.00  0.00     0.019 C 
ENDBRANCH   1   7
TORSDOF 1
ENDMDL
