MODEL 1
REMARK minimizedAffinity -4.89907169
REMARK minimizedRMSD -1
REMARK  1 active torsions:
REMARK  status: ('A' for Active; 'I' for Inactive)
REMARK    1  A    between atoms: C1_2  and  C2_3 
ROOT
ATOM      1  C2  UNL d   1      -0.052   0.485   0.281  0.00  0.00    -0.077 A 
ATOM      2  C3  UNL d   1      -1.377   0.051   0.429  0.00  0.00     0.002 A 
ATOM      3  C4  UNL d   1      -1.857  -0.338   1.681  0.00  0.00     0.002 A 
ATOM      4  C5  UNL d   1      -1.021  -0.291   2.795  0.00  0.00    -0.004 A 
ATOM      5  C6  UNL d   1       0.298   0.138   2.658  0.00  0.00     0.002 A 
ATOM      6  C7  UNL d   1       0.780   0.525   1.407  0.00  0.00     0.002 A 
ENDROOT
BRANCH   1   7
ATOM      7  C1  UNL d   1       0.453   0.951  -1.059  0.00  0.00     0.055 C 
ATOM      8  C   UNL d   1      -0.693   1.366  -1.970  0.00  0.00     0.019 C 
ENDBRANCH   1   7
TORSDOF 1
ENDMDL
