MODEL 1
REMARK minimizedAffinity -3.26253676
REMARK minimizedRMSD -1
REMARK  1 active torsions:
REMARK  status: ('A' for Active; 'I' for Inactive)
REMARK    1  A    between atoms: C1_2  and  C2_3 
ROOT
ATOM      1  C2  UNL d   1      -0.903  -0.212   0.579  0.00  0.00    -0.077 A 
ATOM      2  C3  UNL d   1      -1.702  -1.124   1.283  0.00  0.00     0.002 A 
ATOM      3  C4  UNL d   1      -1.467  -1.369   2.638  0.00  0.00     0.002 A 
ATOM      4  C5  UNL d   1      -0.437  -0.704   3.299  0.00  0.00    -0.004 A 
ATOM      5  C6  UNL d   1       0.364   0.203   2.607  0.00  0.00     0.002 A 
ATOM      6  C7  UNL d   1       0.131   0.449   1.253  0.00  0.00     0.002 A 
ENDROOT
BRANCH   1   7
ATOM      7  C1  UNL d   1      -1.187   0.091  -0.869  0.00  0.00     0.055 C 
ATOM      8  C   UNL d   1       0.101   0.304  -1.652  0.00  0.00     0.019 C 
ENDBRANCH   1   7
TORSDOF 1
ENDMDL
