MODEL 1
REMARK minimizedAffinity 1.36846471
REMARK minimizedRMSD -1
REMARK  1 active torsions:
REMARK  status: ('A' for Active; 'I' for Inactive)
REMARK    1  A    between atoms: C1_2  and  C2_3 
ROOT
ATOM      1  C2  UNL d   1       0.544   0.218   0.608  0.00  0.00    -0.077 A 
ATOM      2  C3  UNL d   1      -0.059  -0.263   1.779  0.00  0.00     0.002 A 
ATOM      3  C4  UNL d   1       0.385   0.168   3.031  0.00  0.00     0.002 A 
ATOM      4  C5  UNL d   1       1.430   1.085   3.123  0.00  0.00    -0.004 A 
ATOM      5  C6  UNL d   1       2.038   1.567   1.965  0.00  0.00     0.002 A 
ATOM      6  C7  UNL d   1       1.596   1.137   0.713  0.00  0.00     0.002 A 
ENDROOT
BRANCH   1   7
ATOM      7  C1  UNL d   1       0.034  -0.209  -0.744  0.00  0.00     0.055 C 
ATOM      8  C   UNL d   1       0.106   0.933  -1.747  0.00  0.00     0.019 C 
ENDBRANCH   1   7
TORSDOF 1
ENDMDL
