MODEL 1
REMARK minimizedAffinity -4.78944397
REMARK minimizedRMSD -1
REMARK  1 active torsions:
REMARK  status: ('A' for Active; 'I' for Inactive)
REMARK    1  A    between atoms: C1_2  and  C2_3 
ROOT
ATOM      1  C2  UNL d   1       0.140   0.262   0.701  0.00  0.00    -0.077 A 
ATOM      2  C3  UNL d   1      -1.178  -0.202   0.585  0.00  0.00     0.002 A 
ATOM      3  C4  UNL d   1      -1.959  -0.403   1.724  0.00  0.00     0.002 A 
ATOM      4  C5  UNL d   1      -1.433  -0.139   2.987  0.00  0.00    -0.004 A 
ATOM      5  C6  UNL d   1      -0.123   0.320   3.114  0.00  0.00     0.002 A 
ATOM      6  C7  UNL d   1       0.660   0.521   1.976  0.00  0.00     0.002 A 
ENDROOT
BRANCH   1   7
ATOM      7  C1  UNL d   1       0.968   0.527  -0.529  0.00  0.00     0.055 C 
ATOM      8  C   UNL d   1       0.110   0.516  -1.786  0.00  0.00     0.019 C 
ENDBRANCH   1   7
TORSDOF 1
ENDMDL
