MODEL 1
REMARK minimizedAffinity -5.61663151
REMARK minimizedRMSD -1
REMARK  1 active torsions:
REMARK  status: ('A' for Active; 'I' for Inactive)
REMARK    1  A    between atoms: C1_2  and  C2_3 
ROOT
ATOM      1  C2  UNL d   1      -0.875  -0.007   0.942  0.00  0.00    -0.077 A 
ATOM      2  C3  UNL d   1       0.129   0.353   0.032  0.00  0.00     0.002 A 
ATOM      3  C4  UNL d   1      -0.204   0.811  -1.244  0.00  0.00     0.002 A 
ATOM      4  C5  UNL d   1      -1.541   0.918  -1.620  0.00  0.00    -0.004 A 
ATOM      5  C6  UNL d   1      -2.548   0.561  -0.723  0.00  0.00     0.002 A 
ATOM      6  C7  UNL d   1      -2.216   0.102   0.552  0.00  0.00     0.002 A 
ENDROOT
BRANCH   1   7
ATOM      7  C1  UNL d   1      -0.519  -0.454   2.335  0.00  0.00     0.055 C 
ATOM      8  C   UNL d   1       0.541   0.447   2.952  0.00  0.00     0.019 C 
ENDBRANCH   1   7
TORSDOF 1
ENDMDL
