MODEL 1
REMARK minimizedAffinity -4.09396076
REMARK minimizedRMSD -1
REMARK  1 active torsions:
REMARK  status: ('A' for Active; 'I' for Inactive)
REMARK    1  A    between atoms: C1_2  and  C2_3 
ROOT
ATOM      1  C2  UNL d   1      -1.242   0.424   0.576  0.00  0.00    -0.077 A 
ATOM      2  C3  UNL d   1      -1.332   0.230   1.961  0.00  0.00     0.002 A 
ATOM      3  C4  UNL d   1      -0.191   0.319   2.762  0.00  0.00     0.002 A 
ATOM      4  C5  UNL d   1       1.045   0.605   2.187  0.00  0.00    -0.004 A 
ATOM      5  C6  UNL d   1       1.145   0.798   0.810  0.00  0.00     0.002 A 
ATOM      6  C7  UNL d   1       0.006   0.708   0.008  0.00  0.00     0.002 A 
ENDROOT
BRANCH   1   7
ATOM      7  C1  UNL d   1      -2.479   0.378  -0.283  0.00  0.00     0.055 C 
ATOM      8  C   UNL d   1      -3.736   0.244   0.564  0.00  0.00     0.019 C 
ENDBRANCH   1   7
TORSDOF 1
ENDMDL
