MODEL 1
REMARK minimizedAffinity -4.84922552
REMARK minimizedRMSD -1
REMARK  1 active torsions:
REMARK  status: ('A' for Active; 'I' for Inactive)
REMARK    1  A    between atoms: C1_2  and  C2_3 
ROOT
ATOM      1  C2  UNL d   1       0.292   0.306   1.714  0.00  0.00    -0.077 A 
ATOM      2  C3  UNL d   1       1.495   0.859   1.253  0.00  0.00     0.002 A 
ATOM      3  C4  UNL d   1       1.658   1.170  -0.098  0.00  0.00     0.002 A 
ATOM      4  C5  UNL d   1       0.621   0.935  -0.999  0.00  0.00    -0.004 A 
ATOM      5  C6  UNL d   1      -0.578   0.382  -0.551  0.00  0.00     0.002 A 
ATOM      6  C7  UNL d   1      -0.742   0.070   0.799  0.00  0.00     0.002 A 
ENDROOT
BRANCH   1   7
ATOM      7  C1  UNL d   1       0.097   0.016   3.179  0.00  0.00     0.055 C 
ATOM      8  C   UNL d   1      -1.223  -0.697   3.431  0.00  0.00     0.019 C 
ENDBRANCH   1   7
TORSDOF 1
ENDMDL
