MODEL 1
REMARK minimizedAffinity 0.867603779
REMARK minimizedRMSD -1
REMARK  0 active torsions:
REMARK  status: ('A' for Active; 'I' for Inactive)
ROOT
ATOM      1  C1  BNZ d   1       0.220  -4.054   1.105  0.00  0.00     0.000 A 
ATOM      2  C2  BNZ d   1       1.498  -3.566   1.058  0.00  0.00     0.000 A 
ATOM      3  C3  BNZ d   1       1.788  -2.431   0.353  0.00  0.00     0.000 A 
ATOM      4  C4  BNZ d   1       0.809  -1.809  -0.335  0.00  0.00     0.000 A 
ATOM      5  C5  BNZ d   1      -0.483  -2.295  -0.305  0.00  0.00     0.000 A 
ATOM      6  C6  BNZ d   1      -0.779  -3.415   0.438  0.00  0.00     0.000 A 
ENDROOT
TORSDOF 0
ENDMDL
