MODEL 1
REMARK minimizedAffinity 1.88076484
REMARK minimizedRMSD -1
REMARK  0 active torsions:
REMARK  status: ('A' for Active; 'I' for Inactive)
ROOT
ATOM      1  C1  BNZ d   1       6.000  -1.265  -3.680  0.00  0.00     0.000 A 
ATOM      2  C2  BNZ d   1       5.987  -2.033  -4.814  0.00  0.00     0.000 A 
ATOM      3  C3  BNZ d   1       5.460  -1.552  -5.979  0.00  0.00     0.000 A 
ATOM      4  C4  BNZ d   1       4.909  -0.321  -6.000  0.00  0.00     0.000 A 
ATOM      5  C5  BNZ d   1       4.906   0.462  -4.863  0.00  0.00     0.000 A 
ATOM      6  C6  BNZ d   1       5.473  -0.010  -3.702  0.00  0.00     0.000 A 
ENDROOT
TORSDOF 0
ENDMDL
