MODEL 1
REMARK minimizedAffinity 2.63928723
REMARK minimizedRMSD -1
REMARK  0 active torsions:
REMARK  status: ('A' for Active; 'I' for Inactive)
ROOT
ATOM      1  C1  BNZ d   1       1.568  -2.000  -3.017  0.00  0.00     0.000 A 
ATOM      2  C2  BNZ d   1       1.204  -1.883  -1.702  0.00  0.00     0.000 A 
ATOM      3  C3  BNZ d   1       0.806  -0.679  -1.191  0.00  0.00     0.000 A 
ATOM      4  C4  BNZ d   1       0.811   0.412  -1.983  0.00  0.00     0.000 A 
ATOM      5  C5  BNZ d   1       1.185   0.312  -3.309  0.00  0.00     0.000 A 
ATOM      6  C6  BNZ d   1       1.547  -0.909  -3.830  0.00  0.00     0.000 A 
ENDROOT
TORSDOF 0
ENDMDL
