MODEL 1
REMARK minimizedAffinity 2.43886352
REMARK minimizedRMSD -1
REMARK  0 active torsions:
REMARK  status: ('A' for Active; 'I' for Inactive)
ROOT
ATOM      1  C1  BNZ d   1      -2.488  -1.142   3.816  0.00  0.00     0.000 A 
ATOM      2  C2  BNZ d   1      -2.132   0.048   4.393  0.00  0.00     0.000 A 
ATOM      3  C3  BNZ d   1      -3.037   1.064   4.517  0.00  0.00     0.000 A 
ATOM      4  C4  BNZ d   1      -4.284   0.905   4.029  0.00  0.00     0.000 A 
ATOM      5  C5  BNZ d   1      -4.656  -0.285   3.436  0.00  0.00     0.000 A 
ATOM      6  C6  BNZ d   1      -3.754  -1.320   3.348  0.00  0.00     0.000 A 
ENDROOT
TORSDOF 0
ENDMDL
