MODEL 1
REMARK minimizedAffinity -0.19189021
REMARK minimizedRMSD -1
REMARK  0 active torsions:
REMARK  status: ('A' for Active; 'I' for Inactive)
ROOT
ATOM      1  C1  BNZ d   1       6.000   2.297  -3.719  0.00  0.00     0.000 A 
ATOM      2  C2  BNZ d   1       5.997   0.932  -3.820  0.00  0.00     0.000 A 
ATOM      3  C3  BNZ d   1       5.586   0.316  -4.970  0.00  0.00     0.000 A 
ATOM      4  C4  BNZ d   1       5.142   1.064  -6.000  0.00  0.00     0.000 A 
ATOM      5  C5  BNZ d   1       5.130   2.442  -5.909  0.00  0.00     0.000 A 
ATOM      6  C6  BNZ d   1       5.580   3.059  -4.765  0.00  0.00     0.000 A 
ENDROOT
TORSDOF 0
ENDMDL
