MODEL 1
REMARK minimizedAffinity 0.499592721
REMARK minimizedRMSD -1
REMARK  0 active torsions:
REMARK  status: ('A' for Active; 'I' for Inactive)
ROOT
ATOM      1  C1  BNZ d   1      -4.606  -0.021   6.000  0.00  0.00     0.000 A 
ATOM      2  C2  BNZ d   1      -4.234  -1.117   5.268  0.00  0.00     0.000 A 
ATOM      3  C3  BNZ d   1      -3.079  -1.113   4.538  0.00  0.00     0.000 A 
ATOM      4  C4  BNZ d   1      -2.318   0.000   4.509  0.00  0.00     0.000 A 
ATOM      5  C5  BNZ d   1      -2.684   1.117   5.234  0.00  0.00     0.000 A 
ATOM      6  C6  BNZ d   1      -3.828   1.095   5.998  0.00  0.00     0.000 A 
ENDROOT
TORSDOF 0
ENDMDL
