MODEL 1
REMARK minimizedAffinity -1.62487161
REMARK minimizedRMSD -1
REMARK  0 active torsions:
REMARK  status: ('A' for Active; 'I' for Inactive)
ROOT
ATOM      1  C1  BNZ d   1       1.319  -2.569  -2.981  0.00  0.00     0.000 A 
ATOM      2  C2  BNZ d   1       1.511  -1.850  -4.131  0.00  0.00     0.000 A 
ATOM      3  C3  BNZ d   1       1.496  -0.483  -4.113  0.00  0.00     0.000 A 
ATOM      4  C4  BNZ d   1       1.248   0.162  -2.955  0.00  0.00     0.000 A 
ATOM      5  C5  BNZ d   1       1.043  -0.549  -1.789  0.00  0.00     0.000 A 
ATOM      6  C6  BNZ d   1       1.098  -1.924  -1.803  0.00  0.00     0.000 A 
ENDROOT
TORSDOF 0
ENDMDL
