MODEL 1
REMARK minimizedAffinity 1.14411342
REMARK minimizedRMSD -1
REMARK  0 active torsions:
REMARK  status: ('A' for Active; 'I' for Inactive)
ROOT
ATOM      1  C1  BNZ d   1       1.024   0.974  -2.435  0.00  0.00     0.000 A 
ATOM      2  C2  BNZ d   1       1.601  -0.043  -3.149  0.00  0.00     0.000 A 
ATOM      3  C3  BNZ d   1       1.542  -1.333  -2.703  0.00  0.00     0.000 A 
ATOM      4  C4  BNZ d   1       0.941  -1.601  -1.525  0.00  0.00     0.000 A 
ATOM      5  C5  BNZ d   1       0.363  -0.586  -0.789  0.00  0.00     0.000 A 
ATOM      6  C6  BNZ d   1       0.391   0.707  -1.261  0.00  0.00     0.000 A 
ENDROOT
TORSDOF 0
ENDMDL
