MODEL 1
REMARK minimizedAffinity 0.284532934
REMARK minimizedRMSD -1
REMARK  0 active torsions:
REMARK  status: ('A' for Active; 'I' for Inactive)
ROOT
ATOM      1  C1  BNZ d   1      -4.126  -1.016   4.979  0.00  0.00     0.000 A 
ATOM      2  C2  BNZ d   1      -4.509  -0.184   5.997  0.00  0.00     0.000 A 
ATOM      3  C3  BNZ d   1      -4.144   1.133   6.000  0.00  0.00     0.000 A 
ATOM      4  C4  BNZ d   1      -3.364   1.607   5.007  0.00  0.00     0.000 A 
ATOM      5  C5  BNZ d   1      -2.962   0.779   3.978  0.00  0.00     0.000 A 
ATOM      6  C6  BNZ d   1      -3.364  -0.537   3.958  0.00  0.00     0.000 A 
ENDROOT
TORSDOF 0
ENDMDL
