MODEL 1
REMARK minimizedAffinity -2.24675488
REMARK minimizedRMSD -1
REMARK  0 active torsions:
REMARK  status: ('A' for Active; 'I' for Inactive)
ROOT
ATOM      1  C1  BNZ d   1       1.120  -1.017  -1.550  0.00  0.00     0.000 A 
ATOM      2  C2  BNZ d   1       1.484  -1.044  -2.870  0.00  0.00     0.000 A 
ATOM      3  C3  BNZ d   1       1.514   0.104  -3.612  0.00  0.00     0.000 A 
ATOM      4  C4  BNZ d   1       1.141   1.269  -3.045  0.00  0.00     0.000 A 
ATOM      5  C5  BNZ d   1       0.762   1.312  -1.718  0.00  0.00     0.000 A 
ATOM      6  C6  BNZ d   1       0.771   0.161  -0.964  0.00  0.00     0.000 A 
ENDROOT
TORSDOF 0
ENDMDL
