MODEL 1
REMARK minimizedAffinity 1.88060641
REMARK minimizedRMSD -1
REMARK  0 active torsions:
REMARK  status: ('A' for Active; 'I' for Inactive)
ROOT
ATOM      1  C1  BNZ d   1       0.619   0.568  -1.510  0.00  0.00     0.000 A 
ATOM      2  C2  BNZ d   1       0.813   0.535  -2.865  0.00  0.00     0.000 A 
ATOM      3  C3  BNZ d   1       1.130  -0.634  -3.499  0.00  0.00     0.000 A 
ATOM      4  C4  BNZ d   1       1.292  -1.758  -2.773  0.00  0.00     0.000 A 
ATOM      5  C5  BNZ d   1       1.109  -1.740  -1.405  0.00  0.00     0.000 A 
ATOM      6  C6  BNZ d   1       0.751  -0.569  -0.775  0.00  0.00     0.000 A 
ENDROOT
TORSDOF 0
ENDMDL
