MODEL 1
REMARK minimizedAffinity 9.59106636
REMARK minimizedRMSD -1
REMARK  0 active torsions:
REMARK  status: ('A' for Active; 'I' for Inactive)
ROOT
ATOM      1  C4' PXY d   1       5.993   1.520   3.075  0.00  0.00     0.077 C 
ATOM      2  C1' PXY d   1       3.785   5.994   5.995  0.00  0.00     0.077 C 
ATOM      3  C1  PXY d   1       4.370   4.829   5.220  0.00  0.00    -0.082 A 
ATOM      4  C2  PXY d   1       3.814   3.632   5.321  0.00  0.00     0.003 A 
ATOM      5  C3  PXY d   1       4.349   2.561   4.653  0.00  0.00     0.003 A 
ATOM      6  C4  PXY d   1       5.432   2.727   3.831  0.00  0.00    -0.082 A 
ATOM      7  C5  PXY d   1       5.997   3.947   3.715  0.00  0.00     0.003 A 
ATOM      8  C6  PXY d   1       5.464   5.013   4.434  0.00  0.00     0.003 A 
ENDROOT
TORSDOF 0
ENDMDL
