MODEL 1
REMARK minimizedAffinity 12.9584723
REMARK minimizedRMSD -1
REMARK  0 active torsions:
REMARK  status: ('A' for Active; 'I' for Inactive)
ROOT
ATOM      1  C4' PXY d   1      -1.505  -1.139  -2.356  0.00  0.00     0.077 C 
ATOM      2  C1' PXY d   1      -0.975   3.318  -5.999  0.00  0.00     0.077 C 
ATOM      3  C1  PXY d   1      -1.102   2.144  -5.048  0.00  0.00    -0.082 A 
ATOM      4  C2  PXY d   1      -2.301   1.764  -4.635  0.00  0.00     0.003 A 
ATOM      5  C3  PXY d   1      -2.432   0.725  -3.750  0.00  0.00     0.003 A 
ATOM      6  C4  PXY d   1      -1.329   0.034  -3.324  0.00  0.00    -0.082 A 
ATOM      7  C5  PXY d   1      -0.104   0.409  -3.749  0.00  0.00     0.003 A 
ATOM      8  C6  PXY d   1       0.011   1.493  -4.615  0.00  0.00     0.003 A 
ENDROOT
TORSDOF 0
ENDMDL
