MODEL 1
REMARK minimizedAffinity 19.2069798
REMARK minimizedRMSD -1
REMARK  0 active torsions:
REMARK  status: ('A' for Active; 'I' for Inactive)
ROOT
ATOM      1  C4' PXY d   1      -6.000   5.995   0.389  0.00  0.00     0.077 C 
ATOM      2  C1' PXY d   1      -2.053   2.011   1.790  0.00  0.00     0.077 C 
ATOM      3  C1  PXY d   1      -3.078   3.065   1.421  0.00  0.00    -0.082 A 
ATOM      4  C2  PXY d   1      -4.317   2.959   1.873  0.00  0.00     0.003 A 
ATOM      5  C3  PXY d   1      -5.265   3.885   1.522  0.00  0.00     0.003 A 
ATOM      6  C4  PXY d   1      -4.929   4.960   0.744  0.00  0.00    -0.082 A 
ATOM      7  C5  PXY d   1      -3.664   5.081   0.288  0.00  0.00     0.003 A 
ATOM      8  C6  PXY d   1      -2.727   4.108   0.621  0.00  0.00     0.003 A 
ENDROOT
TORSDOF 0
ENDMDL
