MODEL 1
REMARK minimizedAffinity 26.4575577
REMARK minimizedRMSD -1
REMARK  0 active torsions:
REMARK  status: ('A' for Active; 'I' for Inactive)
ROOT
ATOM      1  C4' PXY d   1       2.965   0.065  -1.125  0.00  0.00     0.077 C 
ATOM      2  C1' PXY d   1      -1.125   2.448  -4.443  0.00  0.00     0.077 C 
ATOM      3  C1  PXY d   1      -0.045   1.834  -3.576  0.00  0.00    -0.082 A 
ATOM      4  C2  PXY d   1      -0.032   0.526  -3.375  0.00  0.00     0.003 A 
ATOM      5  C3  PXY d   1       0.919  -0.043  -2.567  0.00  0.00     0.003 A 
ATOM      6  C4  PXY d   1       1.899   0.728  -2.002  0.00  0.00    -0.082 A 
ATOM      7  C5  PXY d   1       1.899   2.062  -2.210  0.00  0.00     0.003 A 
ATOM      8  C6  PXY d   1       0.901   2.625  -3.000  0.00  0.00     0.003 A 
ENDROOT
TORSDOF 0
ENDMDL
