MODEL 1
REMARK minimizedAffinity 9.32203579
REMARK minimizedRMSD -1
REMARK  0 active torsions:
REMARK  status: ('A' for Active; 'I' for Inactive)
ROOT
ATOM      1  C4' PXY d   1       5.986   5.988   5.909  0.00  0.00     0.077 C 
ATOM      2  C1' PXY d   1       3.009   1.034   5.995  0.00  0.00     0.077 C 
ATOM      3  C1  PXY d   1       3.800   2.327   5.978  0.00  0.00    -0.082 A 
ATOM      4  C2  PXY d   1       3.160   3.485   5.959  0.00  0.00     0.003 A 
ATOM      5  C3  PXY d   1       3.859   4.664   5.911  0.00  0.00     0.003 A 
ATOM      6  C4  PXY d   1       5.228   4.658   5.936  0.00  0.00    -0.082 A 
ATOM      7  C5  PXY d   1       5.889   3.481   5.966  0.00  0.00     0.003 A 
ATOM      8  C6  PXY d   1       5.160   2.295   5.973  0.00  0.00     0.003 A 
ENDROOT
TORSDOF 0
ENDMDL
