MODEL 1
REMARK minimizedAffinity 13.7398577
REMARK minimizedRMSD -1
REMARK  0 active torsions:
REMARK  status: ('A' for Active; 'I' for Inactive)
ROOT
ATOM      1  C4' PXY d   1      -2.626   0.145  -2.797  0.00  0.00     0.077 C 
ATOM      2  C1' PXY d   1      -1.167  -5.071  -0.779  0.00  0.00     0.077 C 
ATOM      3  C1  PXY d   1      -1.559  -3.702  -1.299  0.00  0.00    -0.082 A 
ATOM      4  C2  PXY d   1      -1.242  -3.357  -2.537  0.00  0.00     0.003 A 
ATOM      5  C3  PXY d   1      -1.561  -2.112  -3.013  0.00  0.00     0.003 A 
ATOM      6  C4  PXY d   1      -2.259  -1.230  -2.233  0.00  0.00    -0.082 A 
ATOM      7  C5  PXY d   1      -2.596  -1.578  -0.973  0.00  0.00     0.003 A 
ATOM      8  C6  PXY d   1      -2.227  -2.832  -0.494  0.00  0.00     0.003 A 
ENDROOT
TORSDOF 0
ENDMDL
