MODEL 1
REMARK minimizedAffinity 5.77149391
REMARK minimizedRMSD -1
REMARK  0 active torsions:
REMARK  status: ('A' for Active; 'I' for Inactive)
ROOT
ATOM      1  C4' PXY d   1      -0.947  -2.970  -0.921  0.00  0.00     0.077 C 
ATOM      2  C1' PXY d   1      -0.218  -6.000   3.948  0.00  0.00     0.077 C 
ATOM      3  C1  PXY d   1      -0.410  -5.216   2.664  0.00  0.00    -0.082 A 
ATOM      4  C2  PXY d   1      -0.026  -3.951   2.607  0.00  0.00     0.003 A 
ATOM      5  C3  PXY d   1      -0.221  -3.219   1.464  0.00  0.00     0.003 A 
ATOM      6  C4  PXY d   1      -0.765  -3.802   0.351  0.00  0.00    -0.082 A 
ATOM      7  C5  PXY d   1      -1.149  -5.095   0.399  0.00  0.00     0.003 A 
ATOM      8  C6  PXY d   1      -0.981  -5.810   1.581  0.00  0.00     0.003 A 
ENDROOT
TORSDOF 0
ENDMDL
