MODEL 1
REMARK minimizedAffinity 15.4493732
REMARK minimizedRMSD -1
REMARK  0 active torsions:
REMARK  status: ('A' for Active; 'I' for Inactive)
ROOT
ATOM      1  C4' PXY d   1       4.143   0.578   4.455  0.00  0.00     0.077 C 
ATOM      2  C1' PXY d   1       5.661   5.998   5.772  0.00  0.00     0.077 C 
ATOM      3  C1  PXY d   1       5.256   4.575   5.438  0.00  0.00    -0.082 A 
ATOM      4  C2  PXY d   1       5.988   3.868   4.592  0.00  0.00     0.003 A 
ATOM      5  C3  PXY d   1       5.619   2.592   4.254  0.00  0.00     0.003 A 
ATOM      6  C4  PXY d   1       4.519   2.014   4.828  0.00  0.00    -0.082 A 
ATOM      7  C5  PXY d   1       3.772   2.725   5.700  0.00  0.00     0.003 A 
ATOM      8  C6  PXY d   1       4.141   4.034   5.998  0.00  0.00     0.003 A 
ENDROOT
TORSDOF 0
ENDMDL
