MODEL 1
REMARK minimizedAffinity 21.6407585
REMARK minimizedRMSD -1
REMARK  0 active torsions:
REMARK  status: ('A' for Active; 'I' for Inactive)
ROOT
ATOM      1  C4' PXY d   1      -1.277  -1.507  -2.436  0.00  0.00     0.077 C 
ATOM      2  C1' PXY d   1      -0.350  -5.252   1.868  0.00  0.00     0.077 C 
ATOM      3  C1  PXY d   1      -0.597  -4.261   0.748  0.00  0.00    -0.082 A 
ATOM      4  C2  PXY d   1      -0.871  -4.703  -0.468  0.00  0.00     0.003 A 
ATOM      5  C3  PXY d   1      -1.065  -3.821  -1.500  0.00  0.00     0.003 A 
ATOM      6  C4  PXY d   1      -1.030  -2.471  -1.273  0.00  0.00    -0.082 A 
ATOM      7  C5  PXY d   1      -0.762  -2.012  -0.032  0.00  0.00     0.003 A 
ATOM      8  C6  PXY d   1      -0.528  -2.924   0.992  0.00  0.00     0.003 A 
ENDROOT
TORSDOF 0
ENDMDL
