MODEL 1
REMARK minimizedAffinity 23.8530293
REMARK minimizedRMSD -1
REMARK  0 active torsions:
REMARK  status: ('A' for Active; 'I' for Inactive)
ROOT
ATOM      1  C4' PXY d   1       2.674   0.189  -1.236  0.00  0.00     0.077 C 
ATOM      2  C1' PXY d   1       5.299   5.273  -0.416  0.00  0.00     0.077 C 
ATOM      3  C1  PXY d   1       4.615   3.940  -0.643  0.00  0.00    -0.082 A 
ATOM      4  C2  PXY d   1       3.583   3.597   0.110  0.00  0.00     0.003 A 
ATOM      5  C3  PXY d   1       2.973   2.381  -0.061  0.00  0.00     0.003 A 
ATOM      6  C4  PXY d   1       3.390   1.530  -1.048  0.00  0.00    -0.082 A 
ATOM      7  C5  PXY d   1       4.435   1.876  -1.828  0.00  0.00     0.003 A 
ATOM      8  C6  PXY d   1       5.067   3.098  -1.612  0.00  0.00     0.003 A 
ENDROOT
TORSDOF 0
ENDMDL
