MODEL 1
REMARK minimizedAffinity 10.8555546
REMARK minimizedRMSD -1
REMARK  0 active torsions:
REMARK  status: ('A' for Active; 'I' for Inactive)
ROOT
ATOM      1  C4' PXY d   1       1.012   5.972   5.976  0.00  0.00     0.077 C 
ATOM      2  C1' PXY d   1       5.977   3.015   5.840  0.00  0.00     0.077 C 
ATOM      3  C1  PXY d   1       4.681   3.801   5.880  0.00  0.00    -0.082 A 
ATOM      4  C2  PXY d   1       3.528   3.157   5.958  0.00  0.00     0.003 A 
ATOM      5  C3  PXY d   1       2.345   3.851   5.963  0.00  0.00     0.003 A 
ATOM      6  C4  PXY d   1       2.345   5.220   5.943  0.00  0.00    -0.082 A 
ATOM      7  C5  PXY d   1       3.518   5.884   5.874  0.00  0.00     0.003 A 
ATOM      8  C6  PXY d   1       4.706   5.160   5.828  0.00  0.00     0.003 A 
ENDROOT
TORSDOF 0
ENDMDL
