MODEL 1
REMARK minimizedAffinity 19.066721
REMARK minimizedRMSD -1
REMARK  0 active torsions:
REMARK  status: ('A' for Active; 'I' for Inactive)
ROOT
ATOM      1  C4' PXY d   1       3.936   2.856   1.111  0.00  0.00     0.077 C 
ATOM      2  C1' PXY d   1       2.231  -0.911  -2.928  0.00  0.00     0.077 C 
ATOM      3  C1  PXY d   1       2.676   0.087  -1.877  0.00  0.00    -0.082 A 
ATOM      4  C2  PXY d   1       3.507  -0.296  -0.921  0.00  0.00     0.003 A 
ATOM      5  C3  PXY d   1       3.894   0.585   0.055  0.00  0.00     0.003 A 
ATOM      6  C4  PXY d   1       3.468   1.885   0.023  0.00  0.00    -0.082 A 
ATOM      7  C5  PXY d   1       2.628   2.287  -0.954  0.00  0.00     0.003 A 
ATOM      8  C6  PXY d   1       2.214   1.366  -1.913  0.00  0.00     0.003 A 
ENDROOT
TORSDOF 0
ENDMDL
