MODEL 1
REMARK minimizedAffinity 12.9693193
REMARK minimizedRMSD -1
REMARK  0 active torsions:
REMARK  status: ('A' for Active; 'I' for Inactive)
ROOT
ATOM      1  C4' PXY d   1       5.901   5.998   5.968  0.00  0.00     0.077 C 
ATOM      2  C1' PXY d   1       2.761   1.145   5.996  0.00  0.00     0.077 C 
ATOM      3  C1  PXY d   1       3.574   2.424   5.984  0.00  0.00    -0.082 A 
ATOM      4  C2  PXY d   1       4.896   2.359   5.968  0.00  0.00     0.003 A 
ATOM      5  C3  PXY d   1       5.647   3.506   5.988  0.00  0.00     0.003 A 
ATOM      6  C4  PXY d   1       5.039   4.733   5.972  0.00  0.00    -0.082 A 
ATOM      7  C5  PXY d   1       3.692   4.808   5.977  0.00  0.00     0.003 A 
ATOM      8  C6  PXY d   1       2.947   3.632   5.998  0.00  0.00     0.003 A 
ENDROOT
TORSDOF 0
ENDMDL
