MODEL 1
REMARK minimizedAffinity 18.2729893
REMARK minimizedRMSD -1
REMARK  0 active torsions:
REMARK  status: ('A' for Active; 'I' for Inactive)
ROOT
ATOM      1  C4' PXY d   1      -3.213  -1.651   6.000  0.00  0.00     0.077 C 
ATOM      2  C1' PXY d   1      -0.382  -5.994   3.443  0.00  0.00     0.077 C 
ATOM      3  C1  PXY d   1      -1.132  -4.864   4.120  0.00  0.00    -0.082 A 
ATOM      4  C2  PXY d   1      -1.145  -3.663   3.565  0.00  0.00     0.003 A 
ATOM      5  C3  PXY d   1      -1.791  -2.622   4.179  0.00  0.00     0.003 A 
ATOM      6  C4  PXY d   1      -2.477  -2.824   5.347  0.00  0.00    -0.082 A 
ATOM      7  C5  PXY d   1      -2.477  -4.049   5.914  0.00  0.00     0.003 A 
ATOM      8  C6  PXY d   1      -1.780  -5.083   5.296  0.00  0.00     0.003 A 
ENDROOT
TORSDOF 0
ENDMDL
