MODEL 1
REMARK minimizedAffinity 8.31717968
REMARK minimizedRMSD -1
REMARK  0 active torsions:
REMARK  status: ('A' for Active; 'I' for Inactive)
ROOT
ATOM      1  C4' PXY d   1       5.986   5.959   6.000  0.00  0.00     0.077 C 
ATOM      2  C1' PXY d   1       3.023   0.997   5.913  0.00  0.00     0.077 C 
ATOM      3  C1  PXY d   1       3.810   2.292   5.941  0.00  0.00    -0.082 A 
ATOM      4  C2  PXY d   1       3.167   3.448   5.938  0.00  0.00     0.003 A 
ATOM      5  C3  PXY d   1       3.864   4.629   5.931  0.00  0.00     0.003 A 
ATOM      6  C4  PXY d   1       5.232   4.626   5.982  0.00  0.00    -0.082 A 
ATOM      7  C5  PXY d   1       5.895   3.451   5.996  0.00  0.00     0.003 A 
ATOM      8  C6  PXY d   1       5.170   2.263   5.961  0.00  0.00     0.003 A 
ENDROOT
TORSDOF 0
ENDMDL
