MODEL 1
REMARK minimizedAffinity 7.93368769
REMARK minimizedRMSD -1
REMARK  0 active torsions:
REMARK  status: ('A' for Active; 'I' for Inactive)
ROOT
ATOM      1  C4' PXY d   1      -2.022  -2.443  -2.561  0.00  0.00     0.077 C 
ATOM      2  C1' PXY d   1      -1.363  -1.885   3.155  0.00  0.00     0.077 C 
ATOM      3  C1  PXY d   1      -1.525  -2.039   1.655  0.00  0.00    -0.082 A 
ATOM      4  C2  PXY d   1      -2.178  -1.115   0.970  0.00  0.00     0.003 A 
ATOM      5  C3  PXY d   1      -2.361  -1.254  -0.382  0.00  0.00     0.003 A 
ATOM      6  C4  PXY d   1      -1.826  -2.324  -1.047  0.00  0.00    -0.082 A 
ATOM      7  C5  PXY d   1      -1.149  -3.266  -0.357  0.00  0.00     0.003 A 
ATOM      8  C6  PXY d   1      -1.010  -3.127   1.021  0.00  0.00     0.003 A 
ENDROOT
TORSDOF 0
ENDMDL
