MODEL 1
REMARK minimizedAffinity 18.1003742
REMARK minimizedRMSD -1
REMARK  0 active torsions:
REMARK  status: ('A' for Active; 'I' for Inactive)
ROOT
ATOM      1  C4' PXY d   1       5.954   1.820   2.789  0.00  0.00     0.077 C 
ATOM      2  C1' PXY d   1       3.580   6.000   6.000  0.00  0.00     0.077 C 
ATOM      3  C1  PXY d   1       4.194   4.905   5.149  0.00  0.00    -0.082 A 
ATOM      4  C2  PXY d   1       4.951   3.981   5.717  0.00  0.00     0.003 A 
ATOM      5  C3  PXY d   1       5.539   3.003   4.958  0.00  0.00     0.003 A 
ATOM      6  C4  PXY d   1       5.307   2.939   3.610  0.00  0.00    -0.082 A 
ATOM      7  C5  PXY d   1       4.527   3.871   3.024  0.00  0.00     0.003 A 
ATOM      8  C6  PXY d   1       3.972   4.880   3.806  0.00  0.00     0.003 A 
ENDROOT
TORSDOF 0
ENDMDL
