MODEL 1
REMARK minimizedAffinity 13.598712
REMARK minimizedRMSD -1
REMARK  0 active torsions:
REMARK  status: ('A' for Active; 'I' for Inactive)
ROOT
ATOM      1  C4' PXY d   1      -1.921  -0.942  -2.062  0.00  0.00     0.077 C 
ATOM      2  C1' PXY d   1      -1.732  -2.065   3.605  0.00  0.00     0.077 C 
ATOM      3  C1  PXY d   1      -1.794  -1.773   2.119  0.00  0.00    -0.082 A 
ATOM      4  C2  PXY d   1      -0.694  -1.860   1.389  0.00  0.00     0.003 A 
ATOM      5  C3  PXY d   1      -0.726  -1.569   0.049  0.00  0.00     0.003 A 
ATOM      6  C4  PXY d   1      -1.907  -1.237  -0.559  0.00  0.00    -0.082 A 
ATOM      7  C5  PXY d   1      -3.036  -1.156   0.177  0.00  0.00     0.003 A 
ATOM      8  C6  PXY d   1      -2.974  -1.416   1.543  0.00  0.00     0.003 A 
ENDROOT
TORSDOF 0
ENDMDL
