MODEL 1
REMARK minimizedAffinity 18.6385593
REMARK minimizedRMSD -1
REMARK  0 active torsions:
REMARK  status: ('A' for Active; 'I' for Inactive)
ROOT
ATOM      1  C4' PXY d   1       6.000  -1.500  -3.283  0.00  0.00     0.077 C 
ATOM      2  C1' PXY d   1       2.441   2.281  -0.741  0.00  0.00     0.077 C 
ATOM      3  C1  PXY d   1       3.378   1.299  -1.416  0.00  0.00    -0.082 A 
ATOM      4  C2  PXY d   1       3.161  -0.001  -1.296  0.00  0.00     0.003 A 
ATOM      5  C3  PXY d   1       4.016  -0.904  -1.873  0.00  0.00     0.003 A 
ATOM      6  C4  PXY d   1       5.075  -0.471  -2.626  0.00  0.00    -0.082 A 
ATOM      7  C5  PXY d   1       5.297   0.853  -2.763  0.00  0.00     0.003 A 
ATOM      8  C6  PXY d   1       4.440   1.753  -2.135  0.00  0.00     0.003 A 
ENDROOT
TORSDOF 0
ENDMDL
