MODEL 1
REMARK minimizedAffinity 15.5721512
REMARK minimizedRMSD -1
REMARK  0 active torsions:
REMARK  status: ('A' for Active; 'I' for Inactive)
ROOT
ATOM      1  O1  BZF d   1       1.875  -3.891  -5.921  0.00  0.00    -0.204 OA
ATOM      2  C2  BZF d   1       2.912  -3.205  -5.320  0.00  0.00     0.174 A 
ATOM      3  C3  BZF d   1       2.442  -2.188  -4.570  0.00  0.00    -0.012 A 
ATOM      4  C3A BZF d   1       1.017  -2.299  -4.636  0.00  0.00    -0.107 A 
ATOM      5  C4  BZF d   1      -0.007  -1.585  -4.083  0.00  0.00     0.055 A 
ATOM      6  C5  BZF d   1      -1.288  -1.908  -4.405  0.00  0.00    -0.016 A 
ATOM      7  C6  BZF d   1      -1.579  -2.934  -5.280  0.00  0.00     0.022 A 
ATOM      8  C7  BZF d   1      -0.597  -3.674  -5.850  0.00  0.00     0.029 A 
ATOM      9  C7A BZF d   1       0.696  -3.371  -5.500  0.00  0.00     0.058 A 
ENDROOT
TORSDOF 0
ENDMDL
