MODEL 1
REMARK minimizedAffinity 11.0579901
REMARK minimizedRMSD -1
REMARK  0 active torsions:
REMARK  status: ('A' for Active; 'I' for Inactive)
ROOT
ATOM      1  O1  BZF d   1       2.008   0.093  -4.246  0.00  0.00    -0.204 OA
ATOM      2  C2  BZF d   1       3.097  -0.699  -4.555  0.00  0.00     0.174 A 
ATOM      3  C3  BZF d   1       2.697  -1.904  -5.012  0.00  0.00    -0.012 A 
ATOM      4  C3A BZF d   1       1.270  -1.828  -5.075  0.00  0.00    -0.107 A 
ATOM      5  C4  BZF d   1       0.299  -2.706  -5.466  0.00  0.00     0.055 A 
ATOM      6  C5  BZF d   1      -1.005  -2.349  -5.335  0.00  0.00    -0.016 A 
ATOM      7  C6  BZF d   1      -1.375  -1.127  -4.813  0.00  0.00     0.022 A 
ATOM      8  C7  BZF d   1      -0.448  -0.222  -4.416  0.00  0.00     0.029 A 
ATOM      9  C7A BZF d   1       0.872  -0.566  -4.577  0.00  0.00     0.058 A 
ENDROOT
TORSDOF 0
ENDMDL
