MODEL 1
REMARK minimizedAffinity 10.6695948
REMARK minimizedRMSD -1
REMARK  0 active torsions:
REMARK  status: ('A' for Active; 'I' for Inactive)
ROOT
ATOM      1  O1  BZF d   1      -1.288  -3.094  -3.761  0.00  0.00    -0.204 OA
ATOM      2  C2  BZF d   1      -1.586  -3.742  -4.944  0.00  0.00     0.174 A 
ATOM      3  C3  BZF d   1      -1.373  -2.930  -6.000  0.00  0.00    -0.012 A 
ATOM      4  C3A BZF d   1      -0.826  -1.729  -5.447  0.00  0.00    -0.107 A 
ATOM      5  C4  BZF d   1      -0.395  -0.555  -5.995  0.00  0.00     0.055 A 
ATOM      6  C5  BZF d   1       0.014   0.447  -5.173  0.00  0.00    -0.016 A 
ATOM      7  C6  BZF d   1       0.001   0.310  -3.800  0.00  0.00     0.022 A 
ATOM      8  C7  BZF d   1      -0.413  -0.837  -3.211  0.00  0.00     0.029 A 
ATOM      9  C7A BZF d   1      -0.797  -1.863  -4.040  0.00  0.00     0.058 A 
ENDROOT
TORSDOF 0
ENDMDL
