MODEL 1
REMARK minimizedAffinity 11.878665
REMARK minimizedRMSD -1
REMARK  0 active torsions:
REMARK  status: ('A' for Active; 'I' for Inactive)
ROOT
ATOM      1  O1  BZF d   1       5.170   2.589   3.351  0.00  0.00    -0.204 OA
ATOM      2  C2  BZF d   1       5.729   3.093   4.509  0.00  0.00     0.174 A 
ATOM      3  C3  BZF d   1       5.675   4.441   4.520  0.00  0.00    -0.012 A 
ATOM      4  C3A BZF d   1       4.959   4.798   3.334  0.00  0.00    -0.107 A 
ATOM      5  C4  BZF d   1       4.570   5.991   2.795  0.00  0.00     0.055 A 
ATOM      6  C5  BZF d   1       3.949   5.999   1.587  0.00  0.00    -0.016 A 
ATOM      7  C6  BZF d   1       3.705   4.835   0.888  0.00  0.00     0.022 A 
ATOM      8  C7  BZF d   1       4.068   3.627   1.384  0.00  0.00     0.029 A 
ATOM      9  C7A BZF d   1       4.666   3.613   2.620  0.00  0.00     0.058 A 
ENDROOT
TORSDOF 0
ENDMDL
