MODEL 1
REMARK minimizedAffinity 15.3774719
REMARK minimizedRMSD -1
REMARK  0 active torsions:
REMARK  status: ('A' for Active; 'I' for Inactive)
ROOT
ATOM      1  O1  BZF d   1       1.030  -1.837   2.819  0.00  0.00    -0.204 OA
ATOM      2  C2  BZF d   1       2.104  -1.119   3.309  0.00  0.00     0.174 A 
ATOM      3  C3  BZF d   1       1.848   0.205   3.280  0.00  0.00    -0.012 A 
ATOM      4  C3A BZF d   1       0.497   0.317   2.823  0.00  0.00    -0.107 A 
ATOM      5  C4  BZF d   1      -0.334   1.377   2.601  0.00  0.00     0.055 A 
ATOM      6  C5  BZF d   1      -1.571   1.151   2.084  0.00  0.00    -0.016 A 
ATOM      7  C6  BZF d   1      -2.006  -0.121   1.774  0.00  0.00     0.022 A 
ATOM      8  C7  BZF d   1      -1.219  -1.205   1.982  0.00  0.00     0.029 A 
ATOM      9  C7A BZF d   1       0.019  -0.982   2.534  0.00  0.00     0.058 A 
ENDROOT
TORSDOF 0
ENDMDL
