MODEL 1
REMARK minimizedAffinity 17.139082
REMARK minimizedRMSD -1
REMARK  0 active torsions:
REMARK  status: ('A' for Active; 'I' for Inactive)
ROOT
ATOM      1  O1  BZF d   1       5.267   2.009   0.333  0.00  0.00    -0.204 OA
ATOM      2  C2  BZF d   1       5.987   1.148   1.137  0.00  0.00     0.174 A 
ATOM      3  C3  BZF d   1       6.000   1.583   2.414  0.00  0.00    -0.012 A 
ATOM      4  C3A BZF d   1       5.162   2.743   2.424  0.00  0.00    -0.107 A 
ATOM      5  C4  BZF d   1       4.769   3.608   3.405  0.00  0.00     0.055 A 
ATOM      6  C5  BZF d   1       4.006   4.682   3.071  0.00  0.00    -0.016 A 
ATOM      7  C6  BZF d   1       3.623   4.924   1.768  0.00  0.00     0.022 A 
ATOM      8  C7  BZF d   1       3.985   4.091   0.761  0.00  0.00     0.029 A 
ATOM      9  C7A BZF d   1       4.728   2.987   1.101  0.00  0.00     0.058 A 
ENDROOT
TORSDOF 0
ENDMDL
