MODEL 1
REMARK minimizedAffinity 16.5372524
REMARK minimizedRMSD -1
REMARK  0 active torsions:
REMARK  status: ('A' for Active; 'I' for Inactive)
ROOT
ATOM      1  O1  BZF d   1       2.210  -4.308   4.367  0.00  0.00    -0.204 OA
ATOM      2  C2  BZF d   1       1.879  -2.993   4.106  0.00  0.00     0.174 A 
ATOM      3  C3  BZF d   1       2.895  -2.169   4.434  0.00  0.00    -0.012 A 
ATOM      4  C3A BZF d   1       3.961  -3.031   4.845  0.00  0.00    -0.107 A 
ATOM      5  C4  BZF d   1       5.238  -2.807   5.272  0.00  0.00     0.055 A 
ATOM      6  C5  BZF d   1       5.997  -3.863   5.667  0.00  0.00    -0.016 A 
ATOM      7  C6  BZF d   1       5.510  -5.153   5.652  0.00  0.00     0.022 A 
ATOM      8  C7  BZF d   1       4.251  -5.426   5.231  0.00  0.00     0.029 A 
ATOM      9  C7A BZF d   1       3.493  -4.365   4.800  0.00  0.00     0.058 A 
ENDROOT
TORSDOF 0
ENDMDL
