MODEL 1
REMARK minimizedAffinity 10.0448942
REMARK minimizedRMSD -1
REMARK  0 active torsions:
REMARK  status: ('A' for Active; 'I' for Inactive)
ROOT
ATOM      1  O1  BZF d   1      -1.370  -4.225   5.081  0.00  0.00    -0.204 OA
ATOM      2  C2  BZF d   1      -0.944  -5.168   5.997  0.00  0.00     0.174 A 
ATOM      3  C3  BZF d   1       0.381  -5.388   5.876  0.00  0.00    -0.012 A 
ATOM      4  C3A BZF d   1       0.827  -4.462   4.881  0.00  0.00    -0.107 A 
ATOM      5  C4  BZF d   1       2.048  -4.187   4.334  0.00  0.00     0.055 A 
ATOM      6  C5  BZF d   1       2.131  -3.275   3.330  0.00  0.00    -0.016 A 
ATOM      7  C6  BZF d   1       1.016  -2.624   2.846  0.00  0.00     0.022 A 
ATOM      8  C7  BZF d   1      -0.216  -2.860   3.360  0.00  0.00     0.029 A 
ATOM      9  C7A BZF d   1      -0.299  -3.757   4.397  0.00  0.00     0.058 A 
ENDROOT
TORSDOF 0
ENDMDL
