MODEL 1
REMARK minimizedAffinity 13.5010834
REMARK minimizedRMSD -1
REMARK  0 active torsions:
REMARK  status: ('A' for Active; 'I' for Inactive)
ROOT
ATOM      1  C   UNL d   1      -0.991  -0.290   2.501  0.00  0.00     0.124 A 
ATOM      2  C1  UNL d   1      -2.089  -0.009   1.699  0.00  0.00     0.062 A 
ATOM      3  C2  UNL d   1      -1.946   0.058   0.316  0.00  0.00     0.162 A 
ATOM      4  C3  UNL d   1      -0.701  -0.158  -0.274  0.00  0.00    -0.034 A 
ATOM      5  C4  UNL d   1       0.399  -0.439   0.539  0.00  0.00     0.162 A 
ATOM      6  C5  UNL d   1       0.251  -0.505   1.921  0.00  0.00     0.062 A 
ATOM      7  F   UNL d   1       1.312  -0.777   2.694  0.00  0.00    -0.097 F 
ATOM      8  F1  UNL d   1       1.610  -0.652   0.005  0.00  0.00    -0.096 F 
ATOM      9  I   UNL d   1      -0.483  -0.058  -2.342  0.00  0.00    -0.060 I 
ATOM     10  F2  UNL d   1      -3.023   0.332  -0.435  0.00  0.00    -0.096 F 
ATOM     11  F3  UNL d   1      -3.290   0.200   2.257  0.00  0.00    -0.097 F 
ATOM     12  F4  UNL d   1      -1.132  -0.353   3.832  0.00  0.00    -0.092 F 
ENDROOT
TORSDOF 0
ENDMDL
