MODEL 1
REMARK minimizedAffinity 23.5434303
REMARK minimizedRMSD -1
REMARK  0 active torsions:
REMARK  status: ('A' for Active; 'I' for Inactive)
ROOT
ATOM      1  C   UNL d   1      -2.152  -0.636   2.704  0.00  0.00     0.124 A 
ATOM      2  C1  UNL d   1      -2.182  -0.059   1.442  0.00  0.00     0.062 A 
ATOM      3  C2  UNL d   1      -0.997   0.176   0.750  0.00  0.00     0.162 A 
ATOM      4  C3  UNL d   1       0.229  -0.167   1.319  0.00  0.00    -0.034 A 
ATOM      5  C4  UNL d   1       0.252  -0.746   2.590  0.00  0.00     0.162 A 
ATOM      6  C5  UNL d   1      -0.935  -0.979   3.276  0.00  0.00     0.062 A 
ATOM      7  F   UNL d   1      -0.903  -1.536   4.496  0.00  0.00    -0.097 F 
ATOM      8  F1  UNL d   1       1.414  -1.089   3.166  0.00  0.00    -0.096 F 
ATOM      9  I   UNL d   1       2.004   0.182   0.289  0.00  0.00    -0.060 I 
ATOM     10  F2  UNL d   1      -1.057   0.735  -0.467  0.00  0.00    -0.096 F 
ATOM     11  F3  UNL d   1      -3.356   0.275   0.887  0.00  0.00    -0.097 F 
ATOM     12  F4  UNL d   1      -3.293  -0.859   3.367  0.00  0.00    -0.092 F 
ENDROOT
TORSDOF 0
ENDMDL
