MODEL 1
REMARK minimizedAffinity 12.4381523
REMARK minimizedRMSD -1
REMARK  0 active torsions:
REMARK  status: ('A' for Active; 'I' for Inactive)
ROOT
ATOM      1  C   UNL d   1      -2.072  -0.733   3.088  0.00  0.00     0.124 A 
ATOM      2  C1  UNL d   1      -0.829  -1.120   3.568  0.00  0.00     0.062 A 
ATOM      3  C2  UNL d   1       0.332  -0.681   2.938  0.00  0.00     0.162 A 
ATOM      4  C3  UNL d   1       0.255   0.152   1.822  0.00  0.00    -0.034 A 
ATOM      5  C4  UNL d   1      -0.999   0.537   1.345  0.00  0.00     0.162 A 
ATOM      6  C5  UNL d   1      -2.157   0.095   1.978  0.00  0.00     0.062 A 
ATOM      7  F   UNL d   1      -3.357   0.470   1.513  0.00  0.00    -0.097 F 
ATOM      8  F1  UNL d   1      -1.110   1.337   0.274  0.00  0.00    -0.096 F 
ATOM      9  I   UNL d   1       1.989   0.811   0.877  0.00  0.00    -0.060 I 
ATOM     10  F2  UNL d   1       1.520  -1.071   3.423  0.00  0.00    -0.096 F 
ATOM     11  F3  UNL d   1      -0.745  -1.920   4.640  0.00  0.00    -0.097 F 
ATOM     12  F4  UNL d   1      -3.188  -1.158   3.696  0.00  0.00    -0.092 F 
ENDROOT
TORSDOF 0
ENDMDL
