MODEL 1
REMARK minimizedAffinity 2.05708051
REMARK minimizedRMSD -1
REMARK  0 active torsions:
REMARK  status: ('A' for Active; 'I' for Inactive)
ROOT
ATOM      1  C   UNL d   1       0.425  -0.193  -4.210  0.00  0.00     0.124 A 
ATOM      2  C1  UNL d   1       1.475   0.593  -3.756  0.00  0.00     0.062 A 
ATOM      3  C2  UNL d   1       1.905   0.493  -2.436  0.00  0.00     0.162 A 
ATOM      4  C3  UNL d   1       1.284  -0.397  -1.559  0.00  0.00    -0.034 A 
ATOM      5  C4  UNL d   1       0.228  -1.183  -2.023  0.00  0.00     0.162 A 
ATOM      6  C5  UNL d   1      -0.198  -1.080  -3.343  0.00  0.00     0.062 A 
ATOM      7  F   UNL d   1      -1.213  -1.840  -3.779  0.00  0.00    -0.097 F 
ATOM      8  F1  UNL d   1      -0.391  -2.049  -1.207  0.00  0.00    -0.096 F 
ATOM      9  I   UNL d   1       1.923  -0.549   0.416  0.00  0.00    -0.060 I 
ATOM     10  F2  UNL d   1       2.922   1.264  -2.025  0.00  0.00    -0.096 F 
ATOM     11  F3  UNL d   1       2.078   1.451  -4.592  0.00  0.00    -0.097 F 
ATOM     12  F4  UNL d   1       0.013  -0.095  -5.480  0.00  0.00    -0.092 F 
ENDROOT
TORSDOF 0
ENDMDL
