MODEL 1
REMARK minimizedAffinity 5.43594646
REMARK minimizedRMSD -1
REMARK  0 active torsions:
REMARK  status: ('A' for Active; 'I' for Inactive)
ROOT
ATOM      1  C   UNL d   1      -1.710  -0.362   0.045  0.00  0.00     0.124 A 
ATOM      2  C1  UNL d   1      -1.821   0.745   0.874  0.00  0.00     0.062 A 
ATOM      3  C2  UNL d   1      -0.694   1.500   1.188  0.00  0.00     0.162 A 
ATOM      4  C3  UNL d   1       0.554   1.150   0.672  0.00  0.00    -0.034 A 
ATOM      5  C4  UNL d   1       0.657   0.034  -0.160  0.00  0.00     0.162 A 
ATOM      6  C5  UNL d   1      -0.471  -0.717  -0.471  0.00  0.00     0.062 A 
ATOM      7  F   UNL d   1      -0.362  -1.787  -1.272  0.00  0.00    -0.097 F 
ATOM      8  F1  UNL d   1       1.842  -0.330  -0.674  0.00  0.00    -0.096 F 
ATOM      9  I   UNL d   1       2.240   2.276   1.139  0.00  0.00    -0.060 I 
ATOM     10  F2  UNL d   1      -0.831   2.565   1.992  0.00  0.00    -0.096 F 
ATOM     11  F3  UNL d   1      -3.016   1.089   1.375  0.00  0.00    -0.097 F 
ATOM     12  F4  UNL d   1      -2.795  -1.087  -0.254  0.00  0.00    -0.092 F 
ENDROOT
TORSDOF 0
ENDMDL
