MODEL 1
REMARK minimizedAffinity 4.79340363
REMARK minimizedRMSD -1
REMARK  0 active torsions:
REMARK  status: ('A' for Active; 'I' for Inactive)
ROOT
ATOM      1  C   UNL d   1      -1.440   0.098   0.450  0.00  0.00     0.124 A 
ATOM      2  C1  UNL d   1      -0.089  -0.085   0.711  0.00  0.00     0.062 A 
ATOM      3  C2  UNL d   1       0.334  -0.467   1.981  0.00  0.00     0.162 A 
ATOM      4  C3  UNL d   1      -0.596  -0.670   3.000  0.00  0.00    -0.034 A 
ATOM      5  C4  UNL d   1      -1.953  -0.484   2.731  0.00  0.00     0.162 A 
ATOM      6  C5  UNL d   1      -2.371  -0.102   1.460  0.00  0.00     0.062 A 
ATOM      7  F   UNL d   1      -3.677   0.073   1.210  0.00  0.00    -0.097 F 
ATOM      8  F1  UNL d   1      -2.874  -0.671   3.688  0.00  0.00    -0.096 F 
ATOM      9  I   UNL d   1       0.031  -1.241   4.900  0.00  0.00    -0.060 I 
ATOM     10  F2  UNL d   1       1.645  -0.635   2.204  0.00  0.00    -0.096 F 
ATOM     11  F3  UNL d   1       0.812   0.109  -0.263  0.00  0.00    -0.097 F 
ATOM     12  F4  UNL d   1      -1.844   0.466  -0.773  0.00  0.00    -0.092 F 
ENDROOT
TORSDOF 0
ENDMDL
