MODEL 1
REMARK minimizedAffinity 3.82455182
REMARK minimizedRMSD -1
REMARK  0 active torsions:
REMARK  status: ('A' for Active; 'I' for Inactive)
ROOT
ATOM      1  C   UNL d   1       0.994  -0.913   2.337  0.00  0.00     0.124 A 
ATOM      2  C1  UNL d   1      -0.207  -0.900   3.031  0.00  0.00     0.062 A 
ATOM      3  C2  UNL d   1      -1.394  -0.594   2.371  0.00  0.00     0.162 A 
ATOM      4  C3  UNL d   1      -1.385  -0.300   1.008  0.00  0.00    -0.034 A 
ATOM      5  C4  UNL d   1      -0.173  -0.314   0.316  0.00  0.00     0.162 A 
ATOM      6  C5  UNL d   1       1.011  -0.620   0.980  0.00  0.00     0.062 A 
ATOM      7  F   UNL d   1       2.171  -0.632   0.308  0.00  0.00    -0.097 F 
ATOM      8  F1  UNL d   1      -0.128  -0.036  -0.995  0.00  0.00    -0.096 F 
ATOM      9  I   UNL d   1      -3.158   0.157   0.017  0.00  0.00    -0.060 I 
ATOM     10  F2  UNL d   1      -2.541  -0.589   3.067  0.00  0.00    -0.096 F 
ATOM     11  F3  UNL d   1      -0.226  -1.182   4.342  0.00  0.00    -0.097 F 
ATOM     12  F4  UNL d   1       2.135  -1.207   2.974  0.00  0.00    -0.092 F 
ENDROOT
TORSDOF 0
ENDMDL
