MODEL 1
REMARK minimizedAffinity 7.36152458
REMARK minimizedRMSD -1
REMARK  0 active torsions:
REMARK  status: ('A' for Active; 'I' for Inactive)
ROOT
ATOM      1  C   UNL d   1       4.421   2.393   4.233  0.00  0.00     0.124 A 
ATOM      2  C1  UNL d   1       4.786   3.708   4.489  0.00  0.00     0.062 A 
ATOM      3  C2  UNL d   1       4.289   4.739   3.696  0.00  0.00     0.162 A 
ATOM      4  C3  UNL d   1       3.422   4.459   2.641  0.00  0.00    -0.034 A 
ATOM      5  C4  UNL d   1       3.060   3.134   2.389  0.00  0.00     0.162 A 
ATOM      6  C5  UNL d   1       3.559   2.108   3.184  0.00  0.00     0.062 A 
ATOM      7  F   UNL d   1       3.206   0.838   2.935  0.00  0.00    -0.097 F 
ATOM      8  F1  UNL d   1       2.228   2.830   1.382  0.00  0.00    -0.096 F 
ATOM      9  I   UNL d   1       2.677   5.998   1.453  0.00  0.00    -0.060 I 
ATOM     10  F2  UNL d   1       4.658   6.000   3.966  0.00  0.00    -0.096 F 
ATOM     11  F3  UNL d   1       5.619   3.986   5.502  0.00  0.00    -0.097 F 
ATOM     12  F4  UNL d   1       4.901   1.403   4.997  0.00  0.00    -0.092 F 
ENDROOT
TORSDOF 0
ENDMDL
