MODEL 1
REMARK minimizedAffinity 11.6854582
REMARK minimizedRMSD -1
REMARK  0 active torsions:
REMARK  status: ('A' for Active; 'I' for Inactive)
ROOT
ATOM      1  C4' PXY d   1      -5.998   4.195   5.996  0.00  0.00     0.077 C 
ATOM      2  C1' PXY d   1      -4.888   5.101   0.395  0.00  0.00     0.077 C 
ATOM      3  C1  PXY d   1      -5.178   4.877   1.866  0.00  0.00    -0.082 A 
ATOM      4  C2  PXY d   1      -4.900   3.706   2.416  0.00  0.00     0.003 A 
ATOM      5  C3  PXY d   1      -5.186   3.475   3.737  0.00  0.00     0.003 A 
ATOM      6  C4  PXY d   1      -5.713   4.470   4.517  0.00  0.00    -0.082 A 
ATOM      7  C5  PXY d   1      -5.989   5.671   3.965  0.00  0.00     0.003 A 
ATOM      8  C6  PXY d   1      -5.730   5.872   2.612  0.00  0.00     0.003 A 
ENDROOT
TORSDOF 0
ENDMDL
