MODEL 1
REMARK minimizedAffinity 6.67998362
REMARK minimizedRMSD -1
REMARK  0 active torsions:
REMARK  status: ('A' for Active; 'I' for Inactive)
ROOT
ATOM      1  C4' PXY d   1      -2.924  -2.525   3.181  0.00  0.00     0.077 C 
ATOM      2  C1' PXY d   1      -0.622  -0.408  -1.680  0.00  0.00     0.077 C 
ATOM      3  C1  PXY d   1      -1.231  -0.952  -0.403  0.00  0.00    -0.082 A 
ATOM      4  C2  PXY d   1      -0.697  -2.016   0.175  0.00  0.00     0.003 A 
ATOM      5  C3  PXY d   1      -1.254  -2.540   1.313  0.00  0.00     0.003 A 
ATOM      6  C4  PXY d   1      -2.337  -1.936   1.896  0.00  0.00    -0.082 A 
ATOM      7  C5  PXY d   1      -2.880  -0.844   1.318  0.00  0.00     0.003 A 
ATOM      8  C6  PXY d   1      -2.325  -0.352   0.140  0.00  0.00     0.003 A 
ENDROOT
TORSDOF 0
ENDMDL
