MODEL 1
REMARK minimizedAffinity -0.53846854
REMARK minimizedRMSD -1
REMARK  0 active torsions:
REMARK  status: ('A' for Active; 'I' for Inactive)
ROOT
ATOM      1  C4' PXY d   1      -5.972   5.209   5.997  0.00  0.00     0.077 C 
ATOM      2  C1' PXY d   1      -2.513   0.624   5.340  0.00  0.00     0.077 C 
ATOM      3  C1  PXY d   1      -3.430   1.819   5.507  0.00  0.00    -0.082 A 
ATOM      4  C2  PXY d   1      -2.914   3.037   5.560  0.00  0.00     0.003 A 
ATOM      5  C3  PXY d   1      -3.726   4.127   5.743  0.00  0.00     0.003 A 
ATOM      6  C4  PXY d   1      -5.085   3.973   5.819  0.00  0.00    -0.082 A 
ATOM      7  C5  PXY d   1      -5.619   2.735   5.756  0.00  0.00     0.003 A 
ATOM      8  C6  PXY d   1      -4.774   1.639   5.611  0.00  0.00     0.003 A 
ENDROOT
TORSDOF 0
ENDMDL
