MODEL 1
REMARK minimizedAffinity 5.90769339
REMARK minimizedRMSD -1
REMARK  0 active torsions:
REMARK  status: ('A' for Active; 'I' for Inactive)
ROOT
ATOM      1  C4' PXY d   1       0.014   2.785  -5.210  0.00  0.00     0.077 C 
ATOM      2  C1' PXY d   1      -0.933  -1.280  -1.210  0.00  0.00     0.077 C 
ATOM      3  C1  PXY d   1      -0.676  -0.208  -2.251  0.00  0.00    -0.082 A 
ATOM      4  C2  PXY d   1      -1.595   0.047  -3.168  0.00  0.00     0.003 A 
ATOM      5  C3  PXY d   1      -1.366   0.991  -4.136  0.00  0.00     0.003 A 
ATOM      6  C4  PXY d   1      -0.206   1.718  -4.134  0.00  0.00    -0.082 A 
ATOM      7  C5  PXY d   1       0.732   1.471  -3.195  0.00  0.00     0.003 A 
ATOM      8  C6  PXY d   1       0.497   0.480  -2.246  0.00  0.00     0.003 A 
ENDROOT
TORSDOF 0
ENDMDL
