MODEL 1
REMARK minimizedAffinity -0.164853379
REMARK minimizedRMSD -1
REMARK  0 active torsions:
REMARK  status: ('A' for Active; 'I' for Inactive)
ROOT
ATOM      1  C4' PXY d   1      -0.688   2.625  -4.183  0.00  0.00     0.077 C 
ATOM      2  C1' PXY d   1      -5.265   6.000  -5.216  0.00  0.00     0.077 C 
ATOM      3  C1  PXY d   1      -4.067   5.109  -4.957  0.00  0.00    -0.082 A 
ATOM      4  C2  PXY d   1      -3.692   4.862  -3.712  0.00  0.00     0.003 A 
ATOM      5  C3  PXY d   1      -2.591   4.084  -3.460  0.00  0.00     0.003 A 
ATOM      6  C4  PXY d   1      -1.898   3.511  -4.492  0.00  0.00    -0.082 A 
ATOM      7  C5  PXY d   1      -2.279   3.749  -5.764  0.00  0.00     0.003 A 
ATOM      8  C6  PXY d   1      -3.375   4.575  -6.000  0.00  0.00     0.003 A 
ENDROOT
TORSDOF 0
ENDMDL
