MODEL 1
REMARK minimizedAffinity 9.9522934
REMARK minimizedRMSD -1
REMARK  0 active torsions:
REMARK  status: ('A' for Active; 'I' for Inactive)
ROOT
ATOM      1  C4' PXY d   1       5.175   3.831   6.000  0.00  0.00     0.077 C 
ATOM      2  C1' PXY d   1       5.237   5.614   0.501  0.00  0.00     0.077 C 
ATOM      3  C1  PXY d   1       5.233   5.152   1.945  0.00  0.00    -0.082 A 
ATOM      4  C2  PXY d   1       4.477   4.125   2.301  0.00  0.00     0.003 A 
ATOM      5  C3  PXY d   1       4.437   3.714   3.608  0.00  0.00     0.003 A 
ATOM      6  C4  PXY d   1       5.218   4.326   4.551  0.00  0.00    -0.082 A 
ATOM      7  C5  PXY d   1       6.000   5.367   4.194  0.00  0.00     0.003 A 
ATOM      8  C6  PXY d   1       5.995   5.796   2.870  0.00  0.00     0.003 A 
ENDROOT
TORSDOF 0
ENDMDL
