MODEL 1
REMARK minimizedAffinity 10.4785414
REMARK minimizedRMSD -1
REMARK  0 active torsions:
REMARK  status: ('A' for Active; 'I' for Inactive)
ROOT
ATOM      1  C4' PXY d   1      -0.766   0.347  -2.250  0.00  0.00     0.077 C 
ATOM      2  C1' PXY d   1      -1.153  -2.194   2.927  0.00  0.00     0.077 C 
ATOM      3  C1  PXY d   1      -1.064  -1.524   1.570  0.00  0.00    -0.082 A 
ATOM      4  C2  PXY d   1      -0.149  -1.924   0.702  0.00  0.00     0.003 A 
ATOM      5  C3  PXY d   1      -0.034  -1.307  -0.517  0.00  0.00     0.003 A 
ATOM      6  C4  PXY d   1      -0.899  -0.307  -0.872  0.00  0.00    -0.082 A 
ATOM      7  C5  PXY d   1      -1.842   0.100   0.004  0.00  0.00     0.003 A 
ATOM      8  C6  PXY d   1      -1.916  -0.511   1.252  0.00  0.00     0.003 A 
ENDROOT
TORSDOF 0
ENDMDL
