MODEL 1
REMARK minimizedAffinity -4.30328894
REMARK minimizedRMSD -1
REMARK  0 active torsions:
REMARK  status: ('A' for Active; 'I' for Inactive)
ROOT
ATOM      1  C4' PXY d   1      -2.291  -0.393   0.745  0.00  0.00     0.077 C 
ATOM      2  C1' PXY d   1       3.180   0.791   2.190  0.00  0.00     0.077 C 
ATOM      3  C1  PXY d   1       1.749   0.479   1.799  0.00  0.00    -0.082 A 
ATOM      4  C2  PXY d   1       0.753   0.947   2.533  0.00  0.00     0.003 A 
ATOM      5  C3  PXY d   1      -0.546   0.648   2.212  0.00  0.00     0.003 A 
ATOM      6  C4  PXY d   1      -0.831  -0.095   1.097  0.00  0.00    -0.082 A 
ATOM      7  C5  PXY d   1       0.180  -0.567   0.337  0.00  0.00     0.003 A 
ATOM      8  C6  PXY d   1       1.493  -0.287   0.704  0.00  0.00     0.003 A 
ENDROOT
TORSDOF 0
ENDMDL
