MODEL 1
REMARK minimizedAffinity 8.99288082
REMARK minimizedRMSD -1
REMARK  0 active torsions:
REMARK  status: ('A' for Active; 'I' for Inactive)
ROOT
ATOM      1  C4' PXY d   1       6.000   1.876  -1.901  0.00  0.00     0.077 C 
ATOM      2  C1' PXY d   1       0.935   4.260  -0.460  0.00  0.00     0.077 C 
ATOM      3  C1  PXY d   1       2.257   3.626  -0.844  0.00  0.00    -0.082 A 
ATOM      4  C2  PXY d   1       3.327   3.839  -0.096  0.00  0.00     0.003 A 
ATOM      5  C3  PXY d   1       4.537   3.299  -0.447  0.00  0.00     0.003 A 
ATOM      6  C4  PXY d   1       4.642   2.489  -1.546  0.00  0.00    -0.082 A 
ATOM      7  C5  PXY d   1       3.553   2.257  -2.308  0.00  0.00     0.003 A 
ATOM      8  C6  PXY d   1       2.342   2.848  -1.958  0.00  0.00     0.003 A 
ENDROOT
TORSDOF 0
ENDMDL
