MODEL 1
REMARK minimizedAffinity 0.794970572
REMARK minimizedRMSD -1
REMARK  0 active torsions:
REMARK  status: ('A' for Active; 'I' for Inactive)
ROOT
ATOM      1  C4' PXY d   1      -1.093   2.913  -4.809  0.00  0.00     0.077 C 
ATOM      2  C1' PXY d   1      -5.980   6.000  -4.901  0.00  0.00     0.077 C 
ATOM      3  C1  PXY d   1      -4.695   5.195  -4.865  0.00  0.00    -0.082 A 
ATOM      4  C2  PXY d   1      -4.120   4.830  -5.999  0.00  0.00     0.003 A 
ATOM      5  C3  PXY d   1      -2.976   4.075  -5.985  0.00  0.00     0.003 A 
ATOM      6  C4  PXY d   1      -2.385   3.734  -4.797  0.00  0.00    -0.082 A 
ATOM      7  C5  PXY d   1      -2.960   4.112  -3.636  0.00  0.00     0.003 A 
ATOM      8  C6  PXY d   1      -4.144   4.843  -3.672  0.00  0.00     0.003 A 
ENDROOT
TORSDOF 0
ENDMDL
