MODEL 1
REMARK minimizedAffinity 1.85733962
REMARK minimizedRMSD -1
REMARK  0 active torsions:
REMARK  status: ('A' for Active; 'I' for Inactive)
ROOT
ATOM      1  C4' PXY d   1      -5.966   3.959   5.909  0.00  0.00     0.077 C 
ATOM      2  C1' PXY d   1      -1.940   3.719   1.769  0.00  0.00     0.077 C 
ATOM      3  C1  PXY d   1      -3.005   3.782   2.845  0.00  0.00    -0.082 A 
ATOM      4  C2  PXY d   1      -2.717   4.317   4.020  0.00  0.00     0.003 A 
ATOM      5  C3  PXY d   1      -3.659   4.353   5.016  0.00  0.00     0.003 A 
ATOM      6  C4  PXY d   1      -4.925   3.884   4.789  0.00  0.00    -0.082 A 
ATOM      7  C5  PXY d   1      -5.230   3.346   3.589  0.00  0.00     0.003 A 
ATOM      8  C6  PXY d   1      -4.247   3.281   2.606  0.00  0.00     0.003 A 
ENDROOT
TORSDOF 0
ENDMDL
