MODEL 1
REMARK minimizedAffinity 6.80626631
REMARK minimizedRMSD -1
REMARK  0 active torsions:
REMARK  status: ('A' for Active; 'I' for Inactive)
ROOT
ATOM      1  C4' PXY d   1      -6.000   6.000   4.986  0.00  0.00     0.077 C 
ATOM      2  C1' PXY d   1      -3.087   1.966   2.043  0.00  0.00     0.077 C 
ATOM      3  C1  PXY d   1      -3.856   3.015   2.823  0.00  0.00    -0.082 A 
ATOM      4  C2  PXY d   1      -4.177   4.158   2.240  0.00  0.00     0.003 A 
ATOM      5  C3  PXY d   1      -4.844   5.130   2.940  0.00  0.00     0.003 A 
ATOM      6  C4  PXY d   1      -5.233   4.909   4.234  0.00  0.00    -0.082 A 
ATOM      7  C5  PXY d   1      -4.918   3.740   4.832  0.00  0.00     0.003 A 
ATOM      8  C6  PXY d   1      -4.205   2.783   4.117  0.00  0.00     0.003 A 
ENDROOT
TORSDOF 0
ENDMDL
