MODEL 1
REMARK minimizedAffinity -2.14404488
REMARK minimizedRMSD -1
REMARK  0 active torsions:
REMARK  status: ('A' for Active; 'I' for Inactive)
ROOT
ATOM      1  C4' PXY d   1      -5.999   5.999  -1.704  0.00  0.00     0.077 C 
ATOM      2  C1' PXY d   1      -2.644   4.071  -5.999  0.00  0.00     0.077 C 
ATOM      3  C1  PXY d   1      -3.533   4.580  -4.881  0.00  0.00    -0.082 A 
ATOM      4  C2  PXY d   1      -2.990   4.968  -3.738  0.00  0.00     0.003 A 
ATOM      5  C3  PXY d   1      -3.782   5.401  -2.706  0.00  0.00     0.003 A 
ATOM      6  C4  PXY d   1      -5.140   5.487  -2.863  0.00  0.00    -0.082 A 
ATOM      7  C5  PXY d   1      -5.700   5.103  -4.030  0.00  0.00     0.003 A 
ATOM      8  C6  PXY d   1      -4.882   4.628  -5.051  0.00  0.00     0.003 A 
ENDROOT
TORSDOF 0
ENDMDL
