MODEL 1
REMARK minimizedAffinity 1.08372378
REMARK minimizedRMSD -1
REMARK  0 active torsions:
REMARK  status: ('A' for Active; 'I' for Inactive)
ROOT
ATOM      1  C4' PXY d   1      -5.313   5.734   6.000  0.00  0.00     0.077 C 
ATOM      2  C1' PXY d   1      -1.794   1.169   5.557  0.00  0.00     0.077 C 
ATOM      3  C1  PXY d   1      -2.727   2.359   5.670  0.00  0.00    -0.082 A 
ATOM      4  C2  PXY d   1      -2.242   3.584   5.550  0.00  0.00     0.003 A 
ATOM      5  C3  PXY d   1      -3.066   4.672   5.681  0.00  0.00     0.003 A 
ATOM      6  C4  PXY d   1      -4.410   4.503   5.884  0.00  0.00    -0.082 A 
ATOM      7  C5  PXY d   1      -4.914   3.256   5.996  0.00  0.00     0.003 A 
ATOM      8  C6  PXY d   1      -4.054   2.166   5.901  0.00  0.00     0.003 A 
ENDROOT
TORSDOF 0
ENDMDL
