MODEL 1
REMARK minimizedAffinity 11.7434292
REMARK minimizedRMSD -1
REMARK  0 active torsions:
REMARK  status: ('A' for Active; 'I' for Inactive)
ROOT
ATOM      1  C4' PXY d   1       6.000   3.396  -3.889  0.00  0.00     0.077 C 
ATOM      2  C1' PXY d   1       3.612   3.447   1.375  0.00  0.00     0.077 C 
ATOM      3  C1  PXY d   1       4.249   3.430  -0.000  0.00  0.00    -0.082 A 
ATOM      4  C2  PXY d   1       3.730   4.164  -0.971  0.00  0.00     0.003 A 
ATOM      5  C3  PXY d   1       4.275   4.136  -2.229  0.00  0.00     0.003 A 
ATOM      6  C4  PXY d   1       5.395   3.390  -2.482  0.00  0.00    -0.082 A 
ATOM      7  C5  PXY d   1       5.937   2.647  -1.494  0.00  0.00     0.003 A 
ATOM      8  C6  PXY d   1       5.344   2.657  -0.235  0.00  0.00     0.003 A 
ENDROOT
TORSDOF 0
ENDMDL
