MODEL 1
REMARK minimizedAffinity 22.2351131
REMARK minimizedRMSD -1
REMARK  0 active torsions:
REMARK  status: ('A' for Active; 'I' for Inactive)
ROOT
ATOM      1  C4' PXY d   1      -1.044   1.125   5.201  0.00  0.00     0.077 C 
ATOM      2  C1' PXY d   1      -3.237  -0.476   0.098  0.00  0.00     0.077 C 
ATOM      3  C1  PXY d   1      -2.659  -0.044   1.432  0.00  0.00    -0.082 A 
ATOM      4  C2  PXY d   1      -2.168  -0.954   2.257  0.00  0.00     0.003 A 
ATOM      5  C3  PXY d   1      -1.671  -0.584   3.480  0.00  0.00     0.003 A 
ATOM      6  C4  PXY d   1      -1.629   0.736   3.841  0.00  0.00    -0.082 A 
ATOM      7  C5  PXY d   1      -2.119   1.671   3.000  0.00  0.00     0.003 A 
ATOM      8  C6  PXY d   1      -2.656   1.271   1.780  0.00  0.00     0.003 A 
ENDROOT
TORSDOF 0
ENDMDL
