MODEL 1
REMARK minimizedAffinity 5.16804457
REMARK minimizedRMSD -1
REMARK  0 active torsions:
REMARK  status: ('A' for Active; 'I' for Inactive)
ROOT
ATOM      1  C4' PXY d   1       5.999   4.346   6.000  0.00  0.00     0.077 C 
ATOM      2  C1' PXY d   1       3.263   3.762   0.942  0.00  0.00     0.077 C 
ATOM      3  C1  PXY d   1       3.988   3.925   2.263  0.00  0.00    -0.082 A 
ATOM      4  C2  PXY d   1       4.074   2.898   3.093  0.00  0.00     0.003 A 
ATOM      5  C3  PXY d   1       4.697   3.037   4.306  0.00  0.00     0.003 A 
ATOM      6  C4  PXY d   1       5.286   4.224   4.651  0.00  0.00    -0.082 A 
ATOM      7  C5  PXY d   1       5.211   5.274   3.805  0.00  0.00     0.003 A 
ATOM      8  C6  PXY d   1       4.538   5.124   2.596  0.00  0.00     0.003 A 
ENDROOT
TORSDOF 0
ENDMDL
