MODEL 1
REMARK minimizedAffinity 13.9525757
REMARK minimizedRMSD -1
REMARK  0 active torsions:
REMARK  status: ('A' for Active; 'I' for Inactive)
ROOT
ATOM      1  C4' PXY d   1      -0.721   0.024  -1.355  0.00  0.00     0.077 C 
ATOM      2  C1' PXY d   1      -1.332  -4.237   2.503  0.00  0.00     0.077 C 
ATOM      3  C1  PXY d   1      -1.173  -3.111   1.501  0.00  0.00    -0.082 A 
ATOM      4  C2  PXY d   1      -1.425  -3.334   0.221  0.00  0.00     0.003 A 
ATOM      5  C3  PXY d   1      -1.256  -2.335  -0.703  0.00  0.00     0.003 A 
ATOM      6  C4  PXY d   1      -0.877  -1.081  -0.306  0.00  0.00    -0.082 A 
ATOM      7  C5  PXY d   1      -0.628  -0.843   0.999  0.00  0.00     0.003 A 
ATOM      8  C6  PXY d   1      -0.766  -1.881   1.916  0.00  0.00     0.003 A 
ENDROOT
TORSDOF 0
ENDMDL
