MODEL 1
REMARK minimizedAffinity 3.99202204
REMARK minimizedRMSD -1
REMARK  0 active torsions:
REMARK  status: ('A' for Active; 'I' for Inactive)
ROOT
ATOM      1  C4' PXY d   1      -0.510  -2.123   1.150  0.00  0.00     0.077 C 
ATOM      2  C1' PXY d   1      -3.376  -3.423   5.999  0.00  0.00     0.077 C 
ATOM      3  C1  PXY d   1      -2.626  -3.070   4.730  0.00  0.00    -0.082 A 
ATOM      4  C2  PXY d   1      -2.558  -3.949   3.744  0.00  0.00     0.003 A 
ATOM      5  C3  PXY d   1      -1.856  -3.658   2.602  0.00  0.00     0.003 A 
ATOM      6  C4  PXY d   1      -1.264  -2.434   2.446  0.00  0.00    -0.082 A 
ATOM      7  C5  PXY d   1      -1.339  -1.527   3.443  0.00  0.00     0.003 A 
ATOM      8  C6  PXY d   1      -2.020  -1.857   4.611  0.00  0.00     0.003 A 
ENDROOT
TORSDOF 0
ENDMDL
