MODEL 1
REMARK minimizedAffinity -1.27385902
REMARK minimizedRMSD -1
REMARK  0 active torsions:
REMARK  status: ('A' for Active; 'I' for Inactive)
ROOT
ATOM      1  C4' PXY d   1      -1.355  -3.711  -0.502  0.00  0.00     0.077 C 
ATOM      2  C1' PXY d   1       0.186   1.853  -0.212  0.00  0.00     0.077 C 
ATOM      3  C1  PXY d   1      -0.229   0.397  -0.295  0.00  0.00    -0.082 A 
ATOM      4  C2  PXY d   1       0.191  -0.456   0.625  0.00  0.00     0.003 A 
ATOM      5  C3  PXY d   1      -0.148  -1.783   0.547  0.00  0.00     0.003 A 
ATOM      6  C4  PXY d   1      -0.969  -2.230  -0.453  0.00  0.00    -0.082 A 
ATOM      7  C5  PXY d   1      -1.411  -1.364  -1.389  0.00  0.00     0.003 A 
ATOM      8  C6  PXY d   1      -1.021  -0.030  -1.316  0.00  0.00     0.003 A 
ENDROOT
TORSDOF 0
ENDMDL
