MODEL 1
REMARK minimizedAffinity -0.509311795
REMARK minimizedRMSD -1
REMARK  0 active torsions:
REMARK  status: ('A' for Active; 'I' for Inactive)
ROOT
ATOM      1  C   UNL d   1       1.408  -5.624  -4.127  0.00  0.00     0.172 C 
ATOM      2  N   UNL d   1       0.010  -5.584  -4.485  0.00  0.00    -0.070 N 
ATOM      3  C1  UNL d   1      -0.521  -5.998  -5.678  0.00  0.00    -0.004 A 
ATOM      4  C2  UNL d   1      -1.883  -5.797  -5.626  0.00  0.00    -0.047 A 
ATOM      5  C3  UNL d   1      -2.182  -5.243  -4.359  0.00  0.00    -0.047 A 
ATOM      6  C4  UNL d   1      -0.992  -5.122  -3.673  0.00  0.00    -0.004 A 
ENDROOT
TORSDOF 0
ENDMDL
