MODEL 1
REMARK minimizedAffinity 10.6803102
REMARK minimizedRMSD -1
REMARK  0 active torsions:
REMARK  status: ('A' for Active; 'I' for Inactive)
ROOT
ATOM      1  C   UNL d   1      -1.249  -0.976   0.800  0.00  0.00     0.172 C 
ATOM      2  N   UNL d   1      -2.344  -0.788  -0.122  0.00  0.00    -0.070 N 
ATOM      3  C1  UNL d   1      -3.444  -0.000   0.094  0.00  0.00    -0.004 A 
ATOM      4  C2  UNL d   1      -4.251  -0.088  -1.019  0.00  0.00    -0.047 A 
ATOM      5  C3  UNL d   1      -3.615  -0.959  -1.936  0.00  0.00    -0.047 A 
ATOM      6  C4  UNL d   1      -2.437  -1.377  -1.355  0.00  0.00    -0.004 A 
ENDROOT
TORSDOF 0
ENDMDL
