MODEL 1
REMARK minimizedAffinity 9.09838009
REMARK minimizedRMSD -1
REMARK  0 active torsions:
REMARK  status: ('A' for Active; 'I' for Inactive)
ROOT
ATOM      1  C   UNL d   1      -4.376   0.278   1.036  0.00  0.00     0.172 C 
ATOM      2  N   UNL d   1      -3.104  -0.036   1.642  0.00  0.00    -0.070 N 
ATOM      3  C1  UNL d   1      -2.511   0.660   2.662  0.00  0.00    -0.004 A 
ATOM      4  C2  UNL d   1      -1.313   0.044   2.953  0.00  0.00    -0.047 A 
ATOM      5  C3  UNL d   1      -1.181  -1.060   2.077  0.00  0.00    -0.047 A 
ATOM      6  C4  UNL d   1      -2.303  -1.086   1.277  0.00  0.00    -0.004 A 
ENDROOT
TORSDOF 0
ENDMDL
