MODEL 1
REMARK minimizedAffinity 5.19243479
REMARK minimizedRMSD -1
REMARK  0 active torsions:
REMARK  status: ('A' for Active; 'I' for Inactive)
ROOT
ATOM      1  C   UNL d   1       2.576   3.743  -3.658  0.00  0.00     0.172 C 
ATOM      2  N   UNL d   1       1.504   4.541  -3.113  0.00  0.00    -0.070 N 
ATOM      3  C1  UNL d   1       1.623   5.452  -2.097  0.00  0.00    -0.004 A 
ATOM      4  C2  UNL d   1       0.379   6.000  -1.873  0.00  0.00    -0.047 A 
ATOM      5  C3  UNL d   1      -0.520   5.396  -2.784  0.00  0.00    -0.047 A 
ATOM      6  C4  UNL d   1       0.203   4.498  -3.540  0.00  0.00    -0.004 A 
ENDROOT
TORSDOF 0
ENDMDL
