MODEL 1
REMARK minimizedAffinity 4.01633453
REMARK minimizedRMSD -1
REMARK  0 active torsions:
REMARK  status: ('A' for Active; 'I' for Inactive)
ROOT
ATOM      1  C   UNL d   1       5.952   3.964   1.090  0.00  0.00     0.172 C 
ATOM      2  N   UNL d   1       5.012   2.868   1.108  0.00  0.00    -0.070 N 
ATOM      3  C1  UNL d   1       5.160   1.701   1.809  0.00  0.00    -0.004 A 
ATOM      4  C2  UNL d   1       4.053   0.918   1.564  0.00  0.00    -0.047 A 
ATOM      5  C3  UNL d   1       3.210   1.639   0.685  0.00  0.00    -0.047 A 
ATOM      6  C4  UNL d   1       3.828   2.843   0.419  0.00  0.00    -0.004 A 
ENDROOT
TORSDOF 0
ENDMDL
