MODEL 1
REMARK minimizedAffinity 7.23731899
REMARK minimizedRMSD -1
REMARK  0 active torsions:
REMARK  status: ('A' for Active; 'I' for Inactive)
ROOT
ATOM      1  C   UNL d   1       3.006   1.919   0.537  0.00  0.00     0.172 C 
ATOM      2  N   UNL d   1       4.143   2.793   0.708  0.00  0.00    -0.070 N 
ATOM      3  C1  UNL d   1       4.475   3.455   1.860  0.00  0.00    -0.004 A 
ATOM      4  C2  UNL d   1       5.620   4.182   1.614  0.00  0.00    -0.047 A 
ATOM      5  C3  UNL d   1       5.988   3.948   0.267  0.00  0.00    -0.047 A 
ATOM      6  C4  UNL d   1       5.057   3.085  -0.270  0.00  0.00    -0.004 A 
ENDROOT
TORSDOF 0
ENDMDL
