MODEL 1
REMARK minimizedAffinity 9.66023254
REMARK minimizedRMSD -1
REMARK  0 active torsions:
REMARK  status: ('A' for Active; 'I' for Inactive)
ROOT
ATOM      1  C   UNL d   1       5.339   4.882  -1.790  0.00  0.00     0.172 C 
ATOM      2  N   UNL d   1       4.605   4.200  -2.829  0.00  0.00    -0.070 N 
ATOM      3  C1  UNL d   1       3.348   3.670  -2.702  0.00  0.00    -0.004 A 
ATOM      4  C2  UNL d   1       3.003   3.108  -3.912  0.00  0.00    -0.047 A 
ATOM      5  C3  UNL d   1       4.090   3.305  -4.796  0.00  0.00    -0.047 A 
ATOM      6  C4  UNL d   1       5.068   3.984  -4.100  0.00  0.00    -0.004 A 
ENDROOT
TORSDOF 0
ENDMDL
