MODEL 1
REMARK minimizedAffinity 7.33755064
REMARK minimizedRMSD -1
REMARK  0 active torsions:
REMARK  status: ('A' for Active; 'I' for Inactive)
ROOT
ATOM      1  C   UNL d   1      -1.991  -3.529  -3.267  0.00  0.00     0.172 C 
ATOM      2  N   UNL d   1      -1.970  -4.497  -4.339  0.00  0.00    -0.070 N 
ATOM      3  C1  UNL d   1      -3.051  -4.890  -5.082  0.00  0.00    -0.004 A 
ATOM      4  C2  UNL d   1      -2.617  -5.823  -5.998  0.00  0.00    -0.047 A 
ATOM      5  C3  UNL d   1      -1.227  -5.998  -5.798  0.00  0.00    -0.047 A 
ATOM      6  C4  UNL d   1      -0.852  -5.166  -4.765  0.00  0.00    -0.004 A 
ENDROOT
TORSDOF 0
ENDMDL
