MODEL 1
REMARK minimizedAffinity 12.845644
REMARK minimizedRMSD -1
REMARK  0 active torsions:
REMARK  status: ('A' for Active; 'I' for Inactive)
ROOT
ATOM      1  C   UNL d   1       5.559   5.489  -2.403  0.00  0.00     0.172 C 
ATOM      2  N   UNL d   1       4.847   4.675  -3.360  0.00  0.00    -0.070 N 
ATOM      3  C1  UNL d   1       3.587   4.165  -3.192  0.00  0.00    -0.004 A 
ATOM      4  C2  UNL d   1       3.267   3.449  -4.325  0.00  0.00    -0.047 A 
ATOM      5  C3  UNL d   1       4.374   3.530  -5.204  0.00  0.00    -0.047 A 
ATOM      6  C4  UNL d   1       5.337   4.295  -4.581  0.00  0.00    -0.004 A 
ENDROOT
TORSDOF 0
ENDMDL
