MODEL 1
REMARK minimizedAffinity 6.37560511
REMARK minimizedRMSD -1
REMARK  0 active torsions:
REMARK  status: ('A' for Active; 'I' for Inactive)
ROOT
ATOM      1  C   UNL d   1       6.000   2.646  -0.626  0.00  0.00     0.172 C 
ATOM      2  N   UNL d   1       4.788   2.183   0.008  0.00  0.00    -0.070 N 
ATOM      3  C1  UNL d   1       4.369   2.516   1.269  0.00  0.00    -0.004 A 
ATOM      4  C2  UNL d   1       3.172   1.873   1.499  0.00  0.00    -0.047 A 
ATOM      5  C3  UNL d   1       2.861   1.127   0.338  0.00  0.00    -0.047 A 
ATOM      6  C4  UNL d   1       3.878   1.337  -0.569  0.00  0.00    -0.004 A 
ENDROOT
TORSDOF 0
ENDMDL
