MODEL 1
REMARK minimizedAffinity 11.3549261
REMARK minimizedRMSD -1
REMARK  0 active torsions:
REMARK  status: ('A' for Active; 'I' for Inactive)
ROOT
ATOM      1  C   UNL d   1       0.372   5.999  -1.831  0.00  0.00     0.172 C 
ATOM      2  N   UNL d   1       0.900   4.803  -2.444  0.00  0.00    -0.070 N 
ATOM      3  C1  UNL d   1       0.260   4.037  -3.381  0.00  0.00    -0.004 A 
ATOM      4  C2  UNL d   1       1.094   2.991  -3.712  0.00  0.00    -0.047 A 
ATOM      5  C3  UNL d   1       2.275   3.132  -2.946  0.00  0.00    -0.047 A 
ATOM      6  C4  UNL d   1       2.128   4.262  -2.170  0.00  0.00    -0.004 A 
ENDROOT
TORSDOF 0
ENDMDL
