MODEL 1
REMARK minimizedAffinity 12.4647751
REMARK minimizedRMSD -1
REMARK  0 active torsions:
REMARK  status: ('A' for Active; 'I' for Inactive)
ROOT
ATOM      1  C   UNL d   1       5.443   3.793   1.752  0.00  0.00     0.172 C 
ATOM      2  N   UNL d   1       4.429   3.066   1.025  0.00  0.00    -0.070 N 
ATOM      3  C1  UNL d   1       3.151   2.831   1.457  0.00  0.00    -0.004 A 
ATOM      4  C2  UNL d   1       2.501   2.109   0.480  0.00  0.00    -0.047 A 
ATOM      5  C3  UNL d   1       3.420   1.902  -0.575  0.00  0.00    -0.047 A 
ATOM      6  C4  UNL d   1       4.605   2.505  -0.212  0.00  0.00    -0.004 A 
ENDROOT
TORSDOF 0
ENDMDL
