MODEL 1
REMARK minimizedAffinity -0.201288238
REMARK minimizedRMSD -1
REMARK  0 active torsions:
REMARK  status: ('A' for Active; 'I' for Inactive)
ROOT
ATOM      1  C   UNL d   1      -4.754  -0.394   0.716  0.00  0.00     0.172 C 
ATOM      2  N   UNL d   1      -3.660  -0.154   1.627  0.00  0.00    -0.070 N 
ATOM      3  C1  UNL d   1      -2.578  -0.974   1.810  0.00  0.00    -0.004 A 
ATOM      4  C2  UNL d   1      -1.764  -0.394   2.759  0.00  0.00    -0.047 A 
ATOM      5  C3  UNL d   1      -2.379   0.815   3.161  0.00  0.00    -0.047 A 
ATOM      6  C4  UNL d   1      -3.550   0.939   2.445  0.00  0.00    -0.004 A 
ENDROOT
TORSDOF 0
ENDMDL
