MODEL 1
REMARK minimizedAffinity 4.81294489
REMARK minimizedRMSD -1
REMARK  0 active torsions:
REMARK  status: ('A' for Active; 'I' for Inactive)
ROOT
ATOM      1  C   UNL d   1       4.031   3.395  -5.892  0.00  0.00     0.172 C 
ATOM      2  N   UNL d   1       3.911   3.902  -4.546  0.00  0.00    -0.070 N 
ATOM      3  C1  UNL d   1       2.815   3.768  -3.737  0.00  0.00    -0.004 A 
ATOM      4  C2  UNL d   1       3.097   4.386  -2.537  0.00  0.00    -0.047 A 
ATOM      5  C3  UNL d   1       4.408   4.911  -2.629  0.00  0.00    -0.047 A 
ATOM      6  C4  UNL d   1       4.889   4.597  -3.883  0.00  0.00    -0.004 A 
ENDROOT
TORSDOF 0
ENDMDL
