MODEL 1
REMARK minimizedAffinity 13.6224909
REMARK minimizedRMSD -1
REMARK  0 active torsions:
REMARK  status: ('A' for Active; 'I' for Inactive)
ROOT
ATOM      1  C   UNL d   1      -4.104  -0.198   0.916  0.00  0.00     0.172 C 
ATOM      2  N   UNL d   1      -2.842  -0.574   1.509  0.00  0.00    -0.070 N 
ATOM      3  C1  UNL d   1      -2.136   0.165   2.420  0.00  0.00    -0.004 A 
ATOM      4  C2  UNL d   1      -0.993  -0.536   2.738  0.00  0.00    -0.047 A 
ATOM      5  C3  UNL d   1      -1.012  -1.738   1.991  0.00  0.00    -0.047 A 
ATOM      6  C4  UNL d   1      -2.168  -1.735   1.238  0.00  0.00    -0.004 A 
ENDROOT
TORSDOF 0
ENDMDL
