MODEL 1
REMARK minimizedAffinity 3.21492314
REMARK minimizedRMSD -1
REMARK  0 active torsions:
REMARK  status: ('A' for Active; 'I' for Inactive)
ROOT
ATOM      1  C4' PXY d   1       0.317   3.941  -0.456  0.00  0.00     0.077 C 
ATOM      2  C1' PXY d   1       1.412  -1.701   0.159  0.00  0.00     0.077 C 
ATOM      3  C1  PXY d   1       1.123  -0.220   0.011  0.00  0.00    -0.082 A 
ATOM      4  C2  PXY d   1       0.660   0.244  -1.138  0.00  0.00     0.003 A 
ATOM      5  C3  PXY d   1       0.424   1.585  -1.300  0.00  0.00     0.003 A 
ATOM      6  C4  PXY d   1       0.613   2.452  -0.258  0.00  0.00    -0.082 A 
ATOM      7  C5  PXY d   1       1.075   1.985   0.922  0.00  0.00     0.003 A 
ATOM      8  C6  PXY d   1       1.348   0.626   1.052  0.00  0.00     0.003 A 
ENDROOT
TORSDOF 0
ENDMDL
