MODEL 1
REMARK minimizedAffinity 5.28529453
REMARK minimizedRMSD -1
REMARK  0 active torsions:
REMARK  status: ('A' for Active; 'I' for Inactive)
ROOT
ATOM      1  C4' PXY d   1       0.331   3.275  -0.336  0.00  0.00     0.077 C 
ATOM      2  C1' PXY d   1       2.012  -2.152   0.733  0.00  0.00     0.077 C 
ATOM      3  C1  PXY d   1       1.573  -0.730   0.440  0.00  0.00    -0.082 A 
ATOM      4  C2  PXY d   1       1.623   0.180   1.398  0.00  0.00     0.003 A 
ATOM      5  C3  PXY d   1       1.200   1.463   1.159  0.00  0.00     0.003 A 
ATOM      6  C4  PXY d   1       0.772   1.830  -0.088  0.00  0.00    -0.082 A 
ATOM      7  C5  PXY d   1       0.728   0.909  -1.074  0.00  0.00     0.003 A 
ATOM      8  C6  PXY d   1       1.123  -0.397  -0.800  0.00  0.00     0.003 A 
ENDROOT
TORSDOF 0
ENDMDL
