MODEL 1
REMARK minimizedAffinity 12.1096363
REMARK minimizedRMSD -1
REMARK  0 active torsions:
REMARK  status: ('A' for Active; 'I' for Inactive)
ROOT
ATOM      1  C4' PXY d   1       2.272  -0.621   1.715  0.00  0.00     0.077 C 
ATOM      2  C1' PXY d   1       5.589  -2.633   6.000  0.00  0.00     0.077 C 
ATOM      3  C1  PXY d   1       4.722  -2.093   4.880  0.00  0.00    -0.082 A 
ATOM      4  C2  PXY d   1       3.772  -2.855   4.363  0.00  0.00     0.003 A 
ATOM      5  C3  PXY d   1       2.999  -2.395   3.328  0.00  0.00     0.003 A 
ATOM      6  C4  PXY d   1       3.165  -1.121   2.853  0.00  0.00    -0.082 A 
ATOM      7  C5  PXY d   1       4.125  -0.334   3.382  0.00  0.00     0.003 A 
ATOM      8  C6  PXY d   1       4.926  -0.835   4.404  0.00  0.00     0.003 A 
ENDROOT
TORSDOF 0
ENDMDL
