MODEL 1
REMARK minimizedAffinity 0.644917607
REMARK minimizedRMSD -1
REMARK  0 active torsions:
REMARK  status: ('A' for Active; 'I' for Inactive)
ROOT
ATOM      1  C4' PXY d   1      -5.999   0.989  -3.413  0.00  0.00     0.077 C 
ATOM      2  C1' PXY d   1      -2.531   4.823  -5.998  0.00  0.00     0.077 C 
ATOM      3  C1  PXY d   1      -3.451   3.822  -5.327  0.00  0.00    -0.082 A 
ATOM      4  C2  PXY d   1      -3.117   3.313  -4.152  0.00  0.00     0.003 A 
ATOM      5  C3  PXY d   1      -3.922   2.383  -3.546  0.00  0.00     0.003 A 
ATOM      6  C4  PXY d   1      -5.106   2.009  -4.124  0.00  0.00    -0.082 A 
ATOM      7  C5  PXY d   1      -5.458   2.532  -5.317  0.00  0.00     0.003 A 
ATOM      8  C6  PXY d   1      -4.608   3.444  -5.935  0.00  0.00     0.003 A 
ENDROOT
TORSDOF 0
ENDMDL
