MODEL 1
REMARK minimizedAffinity 6.73082542
REMARK minimizedRMSD -1
REMARK  0 active torsions:
REMARK  status: ('A' for Active; 'I' for Inactive)
ROOT
ATOM      1  C4' PXY d   1       1.502  -1.487   0.774  0.00  0.00     0.077 C 
ATOM      2  C1' PXY d   1       0.070   3.791  -1.100  0.00  0.00     0.077 C 
ATOM      3  C1  PXY d   1       0.441   2.402  -0.620  0.00  0.00    -0.082 A 
ATOM      4  C2  PXY d   1       0.510   2.155   0.678  0.00  0.00     0.003 A 
ATOM      5  C3  PXY d   1       0.876   0.913   1.130  0.00  0.00     0.003 A 
ATOM      6  C4  PXY d   1       1.121  -0.101   0.244  0.00  0.00    -0.082 A 
ATOM      7  C5  PXY d   1       1.042   0.139  -1.082  0.00  0.00     0.003 A 
ATOM      8  C6  PXY d   1       0.710   1.418  -1.520  0.00  0.00     0.003 A 
ENDROOT
TORSDOF 0
ENDMDL
