MODEL 1
REMARK minimizedAffinity 7.89038086
REMARK minimizedRMSD -1
REMARK  0 active torsions:
REMARK  status: ('A' for Active; 'I' for Inactive)
ROOT
ATOM      1  C4' PXY d   1       4.866   5.471   1.533  0.00  0.00     0.077 C 
ATOM      2  C1' PXY d   1       0.251   2.397  -0.100  0.00  0.00     0.077 C 
ATOM      3  C1  PXY d   1       1.461   3.197   0.340  0.00  0.00    -0.082 A 
ATOM      4  C2  PXY d   1       1.731   4.351  -0.248  0.00  0.00     0.003 A 
ATOM      5  C3  PXY d   1       2.839   5.073   0.116  0.00  0.00     0.003 A 
ATOM      6  C4  PXY d   1       3.650   4.633   1.128  0.00  0.00    -0.082 A 
ATOM      7  C5  PXY d   1       3.376   3.462   1.739  0.00  0.00     0.003 A 
ATOM      8  C6  PXY d   1       2.269   2.725   1.327  0.00  0.00     0.003 A 
ENDROOT
TORSDOF 0
ENDMDL
