MODEL 1
REMARK minimizedAffinity 12.1409473
REMARK minimizedRMSD -1
REMARK  0 active torsions:
REMARK  status: ('A' for Active; 'I' for Inactive)
ROOT
ATOM      1  C4' PXY d   1      -0.745   6.000  -1.470  0.00  0.00     0.077 C 
ATOM      2  C1' PXY d   1       1.357   1.214   0.999  0.00  0.00     0.077 C 
ATOM      3  C1  PXY d   1       0.795   2.463   0.349  0.00  0.00    -0.082 A 
ATOM      4  C2  PXY d   1       1.620   3.389  -0.111  0.00  0.00     0.003 A 
ATOM      5  C3  PXY d   1       1.129   4.539  -0.673  0.00  0.00     0.003 A 
ATOM      6  C4  PXY d   1      -0.221   4.719  -0.814  0.00  0.00    -0.082 A 
ATOM      7  C5  PXY d   1      -1.070   3.774  -0.357  0.00  0.00     0.003 A 
ATOM      8  C6  PXY d   1      -0.551   2.632   0.248  0.00  0.00     0.003 A 
ENDROOT
TORSDOF 0
ENDMDL
