MODEL 1
REMARK minimizedAffinity 5.5182476
REMARK minimizedRMSD -1
REMARK  0 active torsions:
REMARK  status: ('A' for Active; 'I' for Inactive)
ROOT
ATOM      1  C4' PXY d   1      -4.655   4.517  -5.977  0.00  0.00     0.077 C 
ATOM      2  C1' PXY d   1      -1.457   0.348  -3.566  0.00  0.00     0.077 C 
ATOM      3  C1  PXY d   1      -2.306   1.438  -4.190  0.00  0.00    -0.082 A 
ATOM      4  C2  PXY d   1      -2.059   1.830  -5.430  0.00  0.00     0.003 A 
ATOM      5  C3  PXY d   1      -2.796   2.837  -5.998  0.00  0.00     0.003 A 
ATOM      6  C4  PXY d   1      -3.830   3.412  -5.310  0.00  0.00    -0.082 A 
ATOM      7  C5  PXY d   1      -4.095   3.011  -4.049  0.00  0.00     0.003 A 
ATOM      8  C6  PXY d   1      -3.309   2.015  -3.475  0.00  0.00     0.003 A 
ENDROOT
TORSDOF 0
ENDMDL
