MODEL 1
REMARK minimizedAffinity 3.65003157
REMARK minimizedRMSD -1
REMARK  0 active torsions:
REMARK  status: ('A' for Active; 'I' for Inactive)
ROOT
ATOM      1  C   UNL d   1       2.179  -0.589  -1.572  0.00  0.00     0.124 A 
ATOM      2  C1  UNL d   1       1.776  -1.701  -0.846  0.00  0.00     0.062 A 
ATOM      3  C2  UNL d   1       1.235  -1.547   0.428  0.00  0.00     0.162 A 
ATOM      4  C3  UNL d   1       1.094  -0.276   0.983  0.00  0.00    -0.034 A 
ATOM      5  C4  UNL d   1       1.503   0.838   0.247  0.00  0.00     0.162 A 
ATOM      6  C5  UNL d   1       2.042   0.679  -1.025  0.00  0.00     0.062 A 
ATOM      7  F   UNL d   1       2.432   1.754  -1.725  0.00  0.00    -0.097 F 
ATOM      8  F1  UNL d   1       1.381   2.075   0.751  0.00  0.00    -0.096 F 
ATOM      9  I   UNL d   1       0.286  -0.041   2.887  0.00  0.00    -0.060 I 
ATOM     10  F2  UNL d   1       0.854  -2.639   1.107  0.00  0.00    -0.096 F 
ATOM     11  F3  UNL d   1       1.908  -2.927  -1.372  0.00  0.00    -0.097 F 
ATOM     12  F4  UNL d   1       2.700  -0.740  -2.796  0.00  0.00    -0.092 F 
ENDROOT
TORSDOF 0
ENDMDL
