MODEL 1
REMARK minimizedAffinity 5.97337151
REMARK minimizedRMSD -1
REMARK  0 active torsions:
REMARK  status: ('A' for Active; 'I' for Inactive)
ROOT
ATOM      1  C   UNL d   1      -2.889   3.759  -4.793  0.00  0.00     0.124 A 
ATOM      2  C1  UNL d   1      -2.161   4.043  -3.646  0.00  0.00     0.062 A 
ATOM      3  C2  UNL d   1      -2.725   3.835  -2.390  0.00  0.00     0.162 A 
ATOM      4  C3  UNL d   1      -4.023   3.339  -2.275  0.00  0.00    -0.034 A 
ATOM      5  C4  UNL d   1      -4.749   3.056  -3.433  0.00  0.00     0.162 A 
ATOM      6  C5  UNL d   1      -4.182   3.265  -4.686  0.00  0.00     0.062 A 
ATOM      7  F   UNL d   1      -4.886   2.990  -5.793  0.00  0.00    -0.097 F 
ATOM      8  F1  UNL d   1      -6.000   2.577  -3.358  0.00  0.00    -0.096 F 
ATOM      9  I   UNL d   1      -4.869   3.026  -0.399  0.00  0.00    -0.060 I 
ATOM     10  F2  UNL d   1      -1.998   4.119  -1.299  0.00  0.00    -0.096 F 
ATOM     11  F3  UNL d   1      -0.913   4.521  -3.747  0.00  0.00    -0.097 F 
ATOM     12  F4  UNL d   1      -2.345   3.961  -6.000  0.00  0.00    -0.092 F 
ENDROOT
TORSDOF 0
ENDMDL
