MODEL 1
REMARK minimizedAffinity 6.59685564
REMARK minimizedRMSD -1
REMARK  0 active torsions:
REMARK  status: ('A' for Active; 'I' for Inactive)
ROOT
ATOM      1  C   UNL d   1       0.831  -0.221   0.701  0.00  0.00     0.124 A 
ATOM      2  C1  UNL d   1       1.426   0.918   0.176  0.00  0.00     0.062 A 
ATOM      3  C2  UNL d   1       2.457   0.804  -0.753  0.00  0.00     0.162 A 
ATOM      4  C3  UNL d   1       2.899  -0.454  -1.163  0.00  0.00    -0.034 A 
ATOM      5  C4  UNL d   1       2.296  -1.594  -0.630  0.00  0.00     0.162 A 
ATOM      6  C5  UNL d   1       1.266  -1.476   0.297  0.00  0.00     0.062 A 
ATOM      7  F   UNL d   1       0.692  -2.577   0.804  0.00  0.00    -0.097 F 
ATOM      8  F1  UNL d   1       2.696  -2.819  -1.003  0.00  0.00    -0.096 F 
ATOM      9  I   UNL d   1       4.439  -0.628  -2.552  0.00  0.00    -0.060 I 
ATOM     10  F2  UNL d   1       3.014   1.921  -1.243  0.00  0.00    -0.096 F 
ATOM     11  F3  UNL d   1       1.009   2.131   0.565  0.00  0.00    -0.097 F 
ATOM     12  F4  UNL d   1      -0.160  -0.109   1.595  0.00  0.00    -0.092 F 
ENDROOT
TORSDOF 0
ENDMDL
