MODEL 1
REMARK minimizedAffinity 11.8598356
REMARK minimizedRMSD -1
REMARK  0 active torsions:
REMARK  status: ('A' for Active; 'I' for Inactive)
ROOT
ATOM      1  C   UNL d   1       1.149  -0.021   0.682  0.00  0.00     0.124 A 
ATOM      2  C1  UNL d   1       1.466  -1.266   0.156  0.00  0.00     0.062 A 
ATOM      3  C2  UNL d   1       2.533  -1.402  -0.727  0.00  0.00     0.162 A 
ATOM      4  C3  UNL d   1       3.291  -0.290  -1.092  0.00  0.00    -0.034 A 
ATOM      5  C4  UNL d   1       2.966   0.959  -0.560  0.00  0.00     0.162 A 
ATOM      6  C5  UNL d   1       1.899   1.090   0.323  0.00  0.00     0.062 A 
ATOM      7  F   UNL d   1       1.595   2.294   0.829  0.00  0.00    -0.097 F 
ATOM      8  F1  UNL d   1       3.675   2.049  -0.889  0.00  0.00    -0.096 F 
ATOM      9  I   UNL d   1       4.887  -0.490  -2.413  0.00  0.00    -0.060 I 
ATOM     10  F2  UNL d   1       2.816  -2.618  -1.219  0.00  0.00    -0.096 F 
ATOM     11  F3  UNL d   1       0.742  -2.341   0.501  0.00  0.00    -0.097 F 
ATOM     12  F4  UNL d   1       0.122   0.107   1.531  0.00  0.00    -0.092 F 
ENDROOT
TORSDOF 0
ENDMDL
