MODEL 1
REMARK minimizedAffinity 14.310586
REMARK minimizedRMSD -1
REMARK  0 active torsions:
REMARK  status: ('A' for Active; 'I' for Inactive)
ROOT
ATOM      1  C   UNL d   1       1.003  -0.062   0.772  0.00  0.00     0.124 A 
ATOM      2  C1  UNL d   1       1.331   1.034  -0.014  0.00  0.00     0.062 A 
ATOM      3  C2  UNL d   1       2.307   0.923  -0.999  0.00  0.00     0.162 A 
ATOM      4  C3  UNL d   1       2.963  -0.291  -1.206  0.00  0.00    -0.034 A 
ATOM      5  C4  UNL d   1       2.629  -1.389  -0.411  0.00  0.00     0.162 A 
ATOM      6  C5  UNL d   1       1.653  -1.272   0.572  0.00  0.00     0.062 A 
ATOM      7  F   UNL d   1       1.338  -2.333   1.331  0.00  0.00    -0.097 F 
ATOM      8  F1  UNL d   1       3.241  -2.570  -0.583  0.00  0.00    -0.096 F 
ATOM      9  I   UNL d   1       4.424  -0.462  -2.678  0.00  0.00    -0.060 I 
ATOM     10  F2  UNL d   1       2.603   1.999  -1.744  0.00  0.00    -0.096 F 
ATOM     11  F3  UNL d   1       0.705   2.205   0.177  0.00  0.00    -0.097 F 
ATOM     12  F4  UNL d   1       0.064   0.048   1.720  0.00  0.00    -0.092 F 
ENDROOT
TORSDOF 0
ENDMDL
