MODEL 1
REMARK minimizedAffinity 10.6040926
REMARK minimizedRMSD -1
REMARK  0 active torsions:
REMARK  status: ('A' for Active; 'I' for Inactive)
ROOT
ATOM      1  C   UNL d   1       1.280  -1.395   0.912  0.00  0.00     0.124 A 
ATOM      2  C1  UNL d   1       1.153  -0.062   1.277  0.00  0.00     0.062 A 
ATOM      3  C2  UNL d   1       1.894   0.917   0.621  0.00  0.00     0.162 A 
ATOM      4  C3  UNL d   1       2.768   0.567  -0.407  0.00  0.00    -0.034 A 
ATOM      5  C4  UNL d   1       2.891  -0.777  -0.768  0.00  0.00     0.162 A 
ATOM      6  C5  UNL d   1       2.149  -1.751  -0.109  0.00  0.00     0.062 A 
ATOM      7  F   UNL d   1       2.273  -3.039  -0.463  0.00  0.00    -0.097 F 
ATOM      8  F1  UNL d   1       3.723  -1.148  -1.752  0.00  0.00    -0.096 F 
ATOM      9  I   UNL d   1       3.878   2.027  -1.391  0.00  0.00    -0.060 I 
ATOM     10  F2  UNL d   1       1.751   2.197   0.994  0.00  0.00    -0.096 F 
ATOM     11  F3  UNL d   1       0.314   0.285   2.264  0.00  0.00    -0.097 F 
ATOM     12  F4  UNL d   1       0.566  -2.335   1.546  0.00  0.00    -0.092 F 
ENDROOT
TORSDOF 0
ENDMDL
