MODEL 1
REMARK minimizedAffinity 14.6410131
REMARK minimizedRMSD -1
REMARK  0 active torsions:
REMARK  status: ('A' for Active; 'I' for Inactive)
ROOT
ATOM      1  C   UNL d   1      -1.680   0.152   2.323  0.00  0.00     0.124 A 
ATOM      2  C1  UNL d   1      -0.748  -0.866   2.471  0.00  0.00     0.062 A 
ATOM      3  C2  UNL d   1      -1.163  -2.194   2.515  0.00  0.00     0.162 A 
ATOM      4  C3  UNL d   1      -2.517  -2.512   2.409  0.00  0.00    -0.034 A 
ATOM      5  C4  UNL d   1      -3.448  -1.482   2.261  0.00  0.00     0.162 A 
ATOM      6  C5  UNL d   1      -3.029  -0.157   2.218  0.00  0.00     0.062 A 
ATOM      7  F   UNL d   1      -3.930   0.825   2.074  0.00  0.00    -0.097 F 
ATOM      8  F1  UNL d   1      -4.758  -1.753   2.156  0.00  0.00    -0.096 F 
ATOM      9  I   UNL d   1      -3.141  -4.496   2.474  0.00  0.00    -0.060 I 
ATOM     10  F2  UNL d   1      -0.241  -3.157   2.659  0.00  0.00    -0.096 F 
ATOM     11  F3  UNL d   1       0.556  -0.570   2.574  0.00  0.00    -0.097 F 
ATOM     12  F4  UNL d   1      -1.278   1.429   2.282  0.00  0.00    -0.092 F 
ENDROOT
TORSDOF 0
ENDMDL
