MODEL 1
REMARK minimizedAffinity 11.9423513
REMARK minimizedRMSD -1
REMARK  0 active torsions:
REMARK  status: ('A' for Active; 'I' for Inactive)
ROOT
ATOM      1  C   UNL d   1      -0.124  -0.049   1.570  0.00  0.00     0.124 A 
ATOM      2  C1  UNL d   1       0.120  -1.408   1.431  0.00  0.00     0.062 A 
ATOM      3  C2  UNL d   1       1.123  -1.856   0.576  0.00  0.00     0.162 A 
ATOM      4  C3  UNL d   1       1.891  -0.943  -0.147  0.00  0.00    -0.034 A 
ATOM      5  C4  UNL d   1       1.639   0.422  -0.003  0.00  0.00     0.162 A 
ATOM      6  C5  UNL d   1       0.636   0.865   0.853  0.00  0.00     0.062 A 
ATOM      7  F   UNL d   1       0.402   2.179   0.985  0.00  0.00    -0.097 F 
ATOM      8  F1  UNL d   1       2.358   1.327  -0.683  0.00  0.00    -0.096 F 
ATOM      9  I   UNL d   1       3.391  -1.609  -1.427  0.00  0.00    -0.060 I 
ATOM     10  F2  UNL d   1       1.336  -3.175   0.462  0.00  0.00    -0.096 F 
ATOM     11  F3  UNL d   1      -0.613  -2.293   2.122  0.00  0.00    -0.097 F 
ATOM     12  F4  UNL d   1      -1.090   0.379   2.393  0.00  0.00    -0.092 F 
ENDROOT
TORSDOF 0
ENDMDL
