MODEL 1
REMARK minimizedAffinity 8.56876564
REMARK minimizedRMSD -1
REMARK  0 active torsions:
REMARK  status: ('A' for Active; 'I' for Inactive)
ROOT
ATOM      1  C   UNL d   1       0.556  -0.156   0.799  0.00  0.00     0.124 A 
ATOM      2  C1  UNL d   1       1.279   0.838   0.155  0.00  0.00     0.062 A 
ATOM      3  C2  UNL d   1       2.285   0.500  -0.746  0.00  0.00     0.162 A 
ATOM      4  C3  UNL d   1       2.574  -0.839  -1.008  0.00  0.00    -0.034 A 
ATOM      5  C4  UNL d   1       1.843  -1.833  -0.356  0.00  0.00     0.162 A 
ATOM      6  C5  UNL d   1       0.839  -1.490   0.543  0.00  0.00     0.062 A 
ATOM      7  F   UNL d   1       0.142  -2.452   1.165  0.00  0.00    -0.097 F 
ATOM      8  F1  UNL d   1       2.095  -3.131  -0.585  0.00  0.00    -0.096 F 
ATOM      9  I   UNL d   1       4.078  -1.348  -2.354  0.00  0.00    -0.060 I 
ATOM     10  F2  UNL d   1       2.967   1.482  -1.354  0.00  0.00    -0.096 F 
ATOM     11  F3  UNL d   1       1.008   2.128   0.401  0.00  0.00    -0.097 F 
ATOM     12  F4  UNL d   1      -0.411   0.172   1.666  0.00  0.00    -0.092 F 
ENDROOT
TORSDOF 0
ENDMDL
