MODEL 1
REMARK minimizedAffinity 11.0857372
REMARK minimizedRMSD -1
REMARK  0 active torsions:
REMARK  status: ('A' for Active; 'I' for Inactive)
ROOT
ATOM      1  C   UNL d   1       2.385  -0.485  -1.144  0.00  0.00     0.124 A 
ATOM      2  C1  UNL d   1       1.771  -1.576  -0.544  0.00  0.00     0.062 A 
ATOM      3  C2  UNL d   1       1.002  -1.403   0.603  0.00  0.00     0.162 A 
ATOM      4  C3  UNL d   1       0.841  -0.133   1.158  0.00  0.00    -0.034 A 
ATOM      5  C4  UNL d   1       1.462   0.959   0.549  0.00  0.00     0.162 A 
ATOM      6  C5  UNL d   1       2.230   0.781  -0.597  0.00  0.00     0.062 A 
ATOM      7  F   UNL d   1       2.823   1.836  -1.175  0.00  0.00    -0.097 F 
ATOM      8  F1  UNL d   1       1.329   2.193   1.056  0.00  0.00    -0.096 F 
ATOM      9  I   UNL d   1      -0.309   0.129   2.872  0.00  0.00    -0.060 I 
ATOM     10  F2  UNL d   1       0.420  -2.475   1.161  0.00  0.00    -0.096 F 
ATOM     11  F3  UNL d   1       1.920  -2.800  -1.070  0.00  0.00    -0.097 F 
ATOM     12  F4  UNL d   1       3.126  -0.655  -2.247  0.00  0.00    -0.092 F 
ENDROOT
TORSDOF 0
ENDMDL
