MODEL 1
REMARK minimizedAffinity 4.15578747
REMARK minimizedRMSD -1
REMARK  0 active torsions:
REMARK  status: ('A' for Active; 'I' for Inactive)
ROOT
ATOM      1  C   UNL d   1       2.351  -1.016  -1.033  0.00  0.00     0.124 A 
ATOM      2  C1  UNL d   1       1.926   0.255  -0.673  0.00  0.00     0.062 A 
ATOM      3  C2  UNL d   1       1.017   0.420   0.368  0.00  0.00     0.162 A 
ATOM      4  C3  UNL d   1       0.527  -0.689   1.057  0.00  0.00    -0.034 A 
ATOM      5  C4  UNL d   1       0.958  -1.965   0.688  0.00  0.00     0.162 A 
ATOM      6  C5  UNL d   1       1.867  -2.124  -0.353  0.00  0.00     0.062 A 
ATOM      7  F   UNL d   1       2.276  -3.353  -0.700  0.00  0.00    -0.097 F 
ATOM      8  F1  UNL d   1       0.507  -3.053   1.330  0.00  0.00    -0.096 F 
ATOM      9  I   UNL d   1      -0.833  -0.446   2.614  0.00  0.00    -0.060 I 
ATOM     10  F2  UNL d   1       0.624   1.660   0.695  0.00  0.00    -0.096 F 
ATOM     11  F3  UNL d   1       2.392   1.327  -1.330  0.00  0.00    -0.097 F 
ATOM     12  F4  UNL d   1       3.225  -1.172  -2.036  0.00  0.00    -0.092 F 
ENDROOT
TORSDOF 0
ENDMDL
