MODEL 1
REMARK minimizedAffinity 14.2553682
REMARK minimizedRMSD -1
REMARK  0 active torsions:
REMARK  status: ('A' for Active; 'I' for Inactive)
ROOT
ATOM      1  C   UNL d   1       2.280   1.354   1.158  0.00  0.00     0.124 A 
ATOM      2  C1  UNL d   1       1.767   1.112   2.425  0.00  0.00     0.062 A 
ATOM      3  C2  UNL d   1       0.831   0.100   2.618  0.00  0.00     0.162 A 
ATOM      4  C3  UNL d   1       0.402  -0.678   1.543  0.00  0.00    -0.034 A 
ATOM      5  C4  UNL d   1       0.922  -0.427   0.272  0.00  0.00     0.162 A 
ATOM      6  C5  UNL d   1       1.858   0.585   0.083  0.00  0.00     0.062 A 
ATOM      7  F   UNL d   1       2.353   0.818  -1.141  0.00  0.00    -0.097 F 
ATOM      8  F1  UNL d   1       0.532  -1.156  -0.785  0.00  0.00    -0.096 F 
ATOM      9  I   UNL d   1      -0.997  -2.191   1.828  0.00  0.00    -0.060 I 
ATOM     10  F2  UNL d   1       0.352  -0.112   3.853  0.00  0.00    -0.096 F 
ATOM     11  F3  UNL d   1       2.173   1.854   3.465  0.00  0.00    -0.097 F 
ATOM     12  F4  UNL d   1       3.180   2.329   0.975  0.00  0.00    -0.092 F 
ENDROOT
TORSDOF 0
ENDMDL
