MODEL 1
REMARK minimizedAffinity 0.0657636598
REMARK minimizedRMSD -1
REMARK  0 active torsions:
REMARK  status: ('A' for Active; 'I' for Inactive)
ROOT
ATOM      1  C   UNL d   1       2.633  -0.728  -1.181  0.00  0.00     0.124 A 
ATOM      2  C1  UNL d   1       2.291   0.533  -0.714  0.00  0.00     0.062 A 
ATOM      3  C2  UNL d   1       1.311   0.676   0.264  0.00  0.00     0.162 A 
ATOM      4  C3  UNL d   1       0.665  -0.446   0.782  0.00  0.00    -0.034 A 
ATOM      5  C4  UNL d   1       1.013  -1.712   0.307  0.00  0.00     0.162 A 
ATOM      6  C5  UNL d   1       1.993  -1.849  -0.670  0.00  0.00     0.062 A 
ATOM      7  F   UNL d   1       2.322  -3.069  -1.121  0.00  0.00    -0.097 F 
ATOM      8  F1  UNL d   1       0.412  -2.812   0.784  0.00  0.00    -0.096 F 
ATOM      9  I   UNL d   1      -0.801  -0.237   2.244  0.00  0.00    -0.060 I 
ATOM     10  F2  UNL d   1       1.001   1.908   0.697  0.00  0.00    -0.096 F 
ATOM     11  F3  UNL d   1       2.907   1.618  -1.206  0.00  0.00    -0.097 F 
ATOM     12  F4  UNL d   1       3.575  -0.863  -2.123  0.00  0.00    -0.092 F 
ENDROOT
TORSDOF 0
ENDMDL
