MODEL 1
REMARK minimizedAffinity 16.9741211
REMARK minimizedRMSD -1
REMARK  0 active torsions:
REMARK  status: ('A' for Active; 'I' for Inactive)
ROOT
ATOM      1  C   UNL d   1      -2.159   2.528  -3.442  0.00  0.00     0.124 A 
ATOM      2  C1  UNL d   1      -1.616   3.779  -3.182  0.00  0.00     0.062 A 
ATOM      3  C2  UNL d   1      -0.300   4.059  -3.541  0.00  0.00     0.162 A 
ATOM      4  C3  UNL d   1       0.481   3.087  -4.165  0.00  0.00    -0.034 A 
ATOM      5  C4  UNL d   1      -0.072   1.831  -4.422  0.00  0.00     0.162 A 
ATOM      6  C5  UNL d   1      -1.387   1.556  -4.062  0.00  0.00     0.062 A 
ATOM      7  F   UNL d   1      -1.910   0.347  -4.314  0.00  0.00    -0.097 F 
ATOM      8  F1  UNL d   1       0.652   0.873  -5.021  0.00  0.00    -0.096 F 
ATOM      9  I   UNL d   1       2.448   3.502  -4.703  0.00  0.00    -0.060 I 
ATOM     10  F2  UNL d   1       0.199   5.276  -3.277  0.00  0.00    -0.096 F 
ATOM     11  F3  UNL d   1      -2.359   4.720  -2.582  0.00  0.00    -0.097 F 
ATOM     12  F4  UNL d   1      -3.424   2.261  -3.094  0.00  0.00    -0.092 F 
ENDROOT
TORSDOF 0
ENDMDL
