MODEL 1
REMARK minimizedAffinity 8.49923229
REMARK minimizedRMSD -1
REMARK  0 active torsions:
REMARK  status: ('A' for Active; 'I' for Inactive)
ROOT
ATOM      1  C   UNL d   1      -1.850   2.575  -3.774  0.00  0.00     0.124 A 
ATOM      2  C1  UNL d   1      -1.153   3.763  -3.600  0.00  0.00     0.062 A 
ATOM      3  C2  UNL d   1       0.081   3.947  -4.217  0.00  0.00     0.162 A 
ATOM      4  C3  UNL d   1       0.626   2.942  -5.015  0.00  0.00    -0.034 A 
ATOM      5  C4  UNL d   1      -0.081   1.750  -5.185  0.00  0.00     0.162 A 
ATOM      6  C5  UNL d   1      -1.313   1.570  -4.566  0.00  0.00     0.062 A 
ATOM      7  F   UNL d   1      -1.985   0.422  -4.736  0.00  0.00    -0.097 F 
ATOM      8  F1  UNL d   1       0.414   0.762  -5.946  0.00  0.00    -0.096 F 
ATOM      9  I   UNL d   1       2.470   3.214  -5.940  0.00  0.00    -0.060 I 
ATOM     10  F2  UNL d   1       0.732   5.105  -4.031  0.00  0.00    -0.096 F 
ATOM     11  F3  UNL d   1      -1.669   4.735  -2.834  0.00  0.00    -0.097 F 
ATOM     12  F4  UNL d   1      -3.037   2.399  -3.178  0.00  0.00    -0.092 F 
ENDROOT
TORSDOF 0
ENDMDL
