MODEL 1
REMARK minimizedAffinity 13.0413485
REMARK minimizedRMSD -1
REMARK  0 active torsions:
REMARK  status: ('A' for Active; 'I' for Inactive)
ROOT
ATOM      1  C   UNL d   1       3.056   0.402  -0.344  0.00  0.00     0.124 A 
ATOM      2  C1  UNL d   1       1.993   0.690   0.501  0.00  0.00     0.062 A 
ATOM      3  C2  UNL d   1       1.101  -0.313   0.870  0.00  0.00     0.162 A 
ATOM      4  C3  UNL d   1       1.268  -1.614   0.395  0.00  0.00    -0.034 A 
ATOM      5  C4  UNL d   1       2.339  -1.895  -0.455  0.00  0.00     0.162 A 
ATOM      6  C5  UNL d   1       3.228  -0.890  -0.821  0.00  0.00     0.062 A 
ATOM      7  F   UNL d   1       4.255  -1.170  -1.637  0.00  0.00    -0.097 F 
ATOM      8  F1  UNL d   1       2.530  -3.135  -0.930  0.00  0.00    -0.096 F 
ATOM      9  I   UNL d   1      -0.064  -3.115   0.945  0.00  0.00    -0.060 I 
ATOM     10  F2  UNL d   1       0.083  -0.006   1.688  0.00  0.00    -0.096 F 
ATOM     11  F3  UNL d   1       1.825   1.937   0.963  0.00  0.00    -0.097 F 
ATOM     12  F4  UNL d   1       3.913   1.368  -0.698  0.00  0.00    -0.092 F 
ENDROOT
TORSDOF 0
ENDMDL
