MODEL 1
REMARK minimizedAffinity 17.1827106
REMARK minimizedRMSD -1
REMARK  0 active torsions:
REMARK  status: ('A' for Active; 'I' for Inactive)
ROOT
ATOM      1  C   UNL d   1      -0.049   1.639  -4.484  0.00  0.00     0.124 A 
ATOM      2  C1  UNL d   1       0.747   2.776  -4.486  0.00  0.00     0.062 A 
ATOM      3  C2  UNL d   1       0.302   3.943  -3.872  0.00  0.00     0.162 A 
ATOM      4  C3  UNL d   1      -0.946   3.979  -3.250  0.00  0.00    -0.034 A 
ATOM      5  C4  UNL d   1      -1.741   2.831  -3.253  0.00  0.00     0.162 A 
ATOM      6  C5  UNL d   1      -1.292   1.667  -3.868  0.00  0.00     0.062 A 
ATOM      7  F   UNL d   1      -2.062   0.570  -3.865  0.00  0.00    -0.097 F 
ATOM      8  F1  UNL d   1      -2.947   2.831  -2.664  0.00  0.00    -0.096 F 
ATOM      9  I   UNL d   1      -1.616   5.722  -2.331  0.00  0.00    -0.060 I 
ATOM     10  F2  UNL d   1       1.092   5.027  -3.889  0.00  0.00    -0.096 F 
ATOM     11  F3  UNL d   1       1.948   2.751  -5.081  0.00  0.00    -0.097 F 
ATOM     12  F4  UNL d   1       0.382   0.517  -5.076  0.00  0.00    -0.092 F 
ENDROOT
TORSDOF 0
ENDMDL
