MODEL 1
REMARK minimizedAffinity 3.7603302
REMARK minimizedRMSD -1
REMARK  0 active torsions:
REMARK  status: ('A' for Active; 'I' for Inactive)
ROOT
ATOM      1  C   UNL d   1       1.349  -0.068   0.586  0.00  0.00     0.124 A 
ATOM      2  C1  UNL d   1       1.694  -1.336   0.139  0.00  0.00     0.062 A 
ATOM      3  C2  UNL d   1       2.641  -1.490  -0.869  0.00  0.00     0.162 A 
ATOM      4  C3  UNL d   1       3.252  -0.372  -1.437  0.00  0.00    -0.034 A 
ATOM      5  C4  UNL d   1       2.900   0.900  -0.983  0.00  0.00     0.162 A 
ATOM      6  C5  UNL d   1       1.952   1.049   0.025  0.00  0.00     0.062 A 
ATOM      7  F   UNL d   1       1.620   2.275   0.455  0.00  0.00    -0.097 F 
ATOM      8  F1  UNL d   1       3.468   1.997  -1.507  0.00  0.00    -0.096 F 
ATOM      9  I   UNL d   1       4.670  -0.597  -2.944  0.00  0.00    -0.060 I 
ATOM     10  F2  UNL d   1       2.955  -2.727  -1.281  0.00  0.00    -0.096 F 
ATOM     11  F3  UNL d   1       1.112  -2.417   0.679  0.00  0.00    -0.097 F 
ATOM     12  F4  UNL d   1       0.436   0.077   1.555  0.00  0.00    -0.092 F 
ENDROOT
TORSDOF 0
ENDMDL
