MODEL 1
REMARK minimizedAffinity -0.0318494216
REMARK minimizedRMSD -1
REMARK  3 active torsions:
REMARK  status: ('A' for Active; 'I' for Inactive)
REMARK    1  A    between atoms: C3'_2  and  C2'_3 
REMARK    2  A    between atoms: C2'_3  and  C1'_4 
REMARK    3  A    between atoms: C1'_4  and  C1_5 
ROOT
ATOM      1  C1  N4B d   1       1.701  -2.508   3.010  0.00  0.00    -0.075 A 
ATOM      2  C2  N4B d   1       2.256  -3.739   2.597  0.00  0.00     0.002 A 
ATOM      3  C3  N4B d   1       2.678  -4.651   3.533  0.00  0.00     0.002 A 
ATOM      4  C4  N4B d   1       2.572  -4.348   4.883  0.00  0.00    -0.004 A 
ATOM      5  C5  N4B d   1       2.012  -3.167   5.274  0.00  0.00     0.002 A 
ATOM      6  C6  N4B d   1       1.580  -2.243   4.344  0.00  0.00     0.002 A 
ENDROOT
BRANCH   1   7
ATOM      7  C1' N4B d   1       1.306  -1.444   2.023  0.00  0.00     0.057 C 
BRANCH   7   8
ATOM      8  C2' N4B d   1       1.918  -0.113   2.450  0.00  0.00     0.009 C 
BRANCH   8   9
ATOM      9  C3' N4B d   1       2.920   0.404   1.431  0.00  0.00     0.004 C 
ATOM     10  C4' N4B d   1       2.868   1.894   1.269  0.00  0.00     0.003 C 
ENDBRANCH   8   9
ENDBRANCH   7   8
ENDBRANCH   1   7
TORSDOF 3
ENDMDL
