MODEL 1
REMARK minimizedAffinity -0.924901783
REMARK minimizedRMSD -1
REMARK  3 active torsions:
REMARK  status: ('A' for Active; 'I' for Inactive)
REMARK    1  A    between atoms: C3'_2  and  C2'_3 
REMARK    2  A    between atoms: C2'_3  and  C1'_4 
REMARK    3  A    between atoms: C1'_4  and  C1_5 
ROOT
ATOM      1  C1  N4B d   1       1.861  -3.774   2.239  0.00  0.00    -0.075 A 
ATOM      2  C2  N4B d   1       2.181  -3.631   3.607  0.00  0.00     0.002 A 
ATOM      3  C3  N4B d   1       2.176  -2.385   4.186  0.00  0.00     0.002 A 
ATOM      4  C4  N4B d   1       1.875  -1.272   3.417  0.00  0.00    -0.004 A 
ATOM      5  C5  N4B d   1       1.542  -1.421   2.102  0.00  0.00     0.002 A 
ATOM      6  C6  N4B d   1       1.539  -2.667   1.508  0.00  0.00     0.002 A 
ENDROOT
BRANCH   1   7
ATOM      7  C1' N4B d   1       1.936  -5.104   1.541  0.00  0.00     0.057 C 
BRANCH   7   8
ATOM      8  C2' N4B d   1       2.344  -4.885   0.087  0.00  0.00     0.009 C 
BRANCH   8   9
ATOM      9  C3' N4B d   1       1.847  -5.999  -0.817  0.00  0.00     0.004 C 
ATOM     10  C4' N4B d   1       2.515  -5.999  -2.160  0.00  0.00     0.003 C 
ENDBRANCH   8   9
ENDBRANCH   7   8
ENDBRANCH   1   7
TORSDOF 3
ENDMDL
