MODEL 1
REMARK minimizedAffinity 2.01072931
REMARK minimizedRMSD -1
REMARK  3 active torsions:
REMARK  status: ('A' for Active; 'I' for Inactive)
REMARK    1  A    between atoms: C3'_2  and  C2'_3 
REMARK    2  A    between atoms: C2'_3  and  C1'_4 
REMARK    3  A    between atoms: C1'_4  and  C1_5 
ROOT
ATOM      1  C1  N4B d   1      -3.485   3.102  -0.713  0.00  0.00    -0.075 A 
ATOM      2  C2  N4B d   1      -2.840   2.650   0.459  0.00  0.00     0.002 A 
ATOM      3  C3  N4B d   1      -3.492   2.708   1.667  0.00  0.00     0.002 A 
ATOM      4  C4  N4B d   1      -4.777   3.228   1.729  0.00  0.00    -0.004 A 
ATOM      5  C5  N4B d   1      -5.402   3.638   0.587  0.00  0.00     0.002 A 
ATOM      6  C6  N4B d   1      -4.760   3.583  -0.633  0.00  0.00     0.002 A 
ENDROOT
BRANCH   1   7
ATOM      7  C1' N4B d   1      -2.781   3.138  -2.042  0.00  0.00     0.057 C 
BRANCH   7   8
ATOM      8  C2' N4B d   1      -3.391   2.083  -2.961  0.00  0.00     0.009 C 
BRANCH   8   9
ATOM      9  C3' N4B d   1      -2.892   0.687  -2.632  0.00  0.00     0.004 C 
ATOM     10  C4' N4B d   1      -3.167  -0.301  -3.727  0.00  0.00     0.003 C 
ENDBRANCH   8   9
ENDBRANCH   7   8
ENDBRANCH   1   7
TORSDOF 3
ENDMDL
