MODEL 1
REMARK minimizedAffinity 9.90758419
REMARK minimizedRMSD -1
REMARK  3 active torsions:
REMARK  status: ('A' for Active; 'I' for Inactive)
REMARK    1  A    between atoms: C3'_2  and  C2'_3 
REMARK    2  A    between atoms: C2'_3  and  C1'_4 
REMARK    3  A    between atoms: C1'_4  and  C1_5 
ROOT
ATOM      1  C1  N4B d   1       3.036  -5.849  -2.864  0.00  0.00    -0.075 A 
ATOM      2  C2  N4B d   1       2.292  -5.913  -4.063  0.00  0.00     0.002 A 
ATOM      3  C3  N4B d   1       2.942  -5.997  -5.270  0.00  0.00     0.002 A 
ATOM      4  C4  N4B d   1       4.328  -6.000  -5.304  0.00  0.00    -0.004 A 
ATOM      5  C5  N4B d   1       5.039  -5.964  -4.141  0.00  0.00     0.002 A 
ATOM      6  C6  N4B d   1       4.400  -5.883  -2.920  0.00  0.00     0.002 A 
ENDROOT
BRANCH   1   7
ATOM      7  C1' N4B d   1       2.373  -5.670  -1.526  0.00  0.00     0.057 C 
BRANCH   7   8
ATOM      8  C2' N4B d   1       2.789  -4.326  -0.936  0.00  0.00     0.009 C 
BRANCH   8   9
ATOM      9  C3' N4B d   1       3.257  -3.356  -2.008  0.00  0.00     0.004 C 
ATOM     10  C4' N4B d   1       2.570  -2.025  -1.926  0.00  0.00     0.003 C 
ENDBRANCH   8   9
ENDBRANCH   7   8
ENDBRANCH   1   7
TORSDOF 3
ENDMDL
