MODEL 1
REMARK minimizedAffinity 3.45191932
REMARK minimizedRMSD -1
REMARK  0 active torsions:
REMARK  status: ('A' for Active; 'I' for Inactive)
ROOT
ATOM      1  C2' OXE d   1      -2.643   5.901  -3.108  0.00  0.00     0.078 C 
ATOM      2  C1' OXE d   1      -0.210   5.827  -1.709  0.00  0.00     0.078 C 
ATOM      3  C1  OXE d   1      -0.154   5.892  -3.215  0.00  0.00    -0.078 A 
ATOM      4  C2  OXE d   1      -1.349   5.881  -3.893  0.00  0.00    -0.078 A 
ATOM      5  C3  OXE d   1      -1.355   5.994  -5.281  0.00  0.00     0.003 A 
ATOM      6  C4  OXE d   1      -0.154   5.965  -6.000  0.00  0.00    -0.002 A 
ATOM      7  C5  OXE d   1       1.074   5.936  -5.330  0.00  0.00    -0.002 A 
ATOM      8  C6  OXE d   1       1.092   5.943  -3.940  0.00  0.00     0.003 A 
ENDROOT
TORSDOF 0
ENDMDL
