MODEL 1
REMARK minimizedAffinity 9.21923256
REMARK minimizedRMSD -1
REMARK  0 active torsions:
REMARK  status: ('A' for Active; 'I' for Inactive)
ROOT
ATOM      1  C2' OXE d   1       2.534   2.547  -3.439  0.00  0.00     0.078 C 
ATOM      2  C1' OXE d   1       4.763   3.853  -4.538  0.00  0.00     0.078 C 
ATOM      3  C1  OXE d   1       3.396   4.403  -4.859  0.00  0.00    -0.078 A 
ATOM      4  C2  OXE d   1       2.309   3.730  -4.356  0.00  0.00    -0.078 A 
ATOM      5  C3  OXE d   1       1.027   4.227  -4.577  0.00  0.00     0.003 A 
ATOM      6  C4  OXE d   1       0.827   5.316  -5.434  0.00  0.00    -0.002 A 
ATOM      7  C5  OXE d   1       1.919   5.992  -5.990  0.00  0.00    -0.002 A 
ATOM      8  C6  OXE d   1       3.208   5.575  -5.679  0.00  0.00     0.003 A 
ENDROOT
TORSDOF 0
ENDMDL
