MODEL 1
REMARK minimizedAffinity 6.83486986
REMARK minimizedRMSD -1
REMARK  0 active torsions:
REMARK  status: ('A' for Active; 'I' for Inactive)
ROOT
ATOM      1  C2' OXE d   1       2.364   2.470   0.301  0.00  0.00     0.078 C 
ATOM      2  C1' OXE d   1       1.200   1.479  -2.053  0.00  0.00     0.078 C 
ATOM      3  C1  OXE d   1       0.981   0.702  -0.779  0.00  0.00    -0.078 A 
ATOM      4  C2  OXE d   1       1.593   1.169   0.359  0.00  0.00    -0.078 A 
ATOM      5  C3  OXE d   1       1.378   0.521   1.572  0.00  0.00     0.003 A 
ATOM      6  C4  OXE d   1       0.671  -0.687   1.615  0.00  0.00    -0.002 A 
ATOM      7  C5  OXE d   1       0.073  -1.201   0.460  0.00  0.00    -0.002 A 
ATOM      8  C6  OXE d   1       0.182  -0.498  -0.735  0.00  0.00     0.003 A 
ENDROOT
TORSDOF 0
ENDMDL
