MODEL 1
REMARK minimizedAffinity 5.40856314
REMARK minimizedRMSD -1
REMARK  0 active torsions:
REMARK  status: ('A' for Active; 'I' for Inactive)
ROOT
ATOM      1  C2' OXE d   1       1.289   1.256  -1.678  0.00  0.00     0.078 C 
ATOM      2  C1' OXE d   1       2.817   2.024   0.548  0.00  0.00     0.078 C 
ATOM      3  C1  OXE d   1       1.570   1.213   0.797  0.00  0.00    -0.078 A 
ATOM      4  C2  OXE d   1       0.803   0.882  -0.294  0.00  0.00    -0.078 A 
ATOM      5  C3  OXE d   1      -0.328   0.088  -0.127  0.00  0.00     0.003 A 
ATOM      6  C4  OXE d   1      -0.776  -0.245   1.157  0.00  0.00    -0.002 A 
ATOM      7  C5  OXE d   1      -0.031   0.116   2.285  0.00  0.00    -0.002 A 
ATOM      8  C6  OXE d   1       1.164   0.807   2.120  0.00  0.00     0.003 A 
ENDROOT
TORSDOF 0
ENDMDL
