MODEL 1
REMARK minimizedAffinity 0.257764757
REMARK minimizedRMSD -1
REMARK  0 active torsions:
REMARK  status: ('A' for Active; 'I' for Inactive)
ROOT
ATOM      1  C2' OXE d   1      -2.783   5.948  -1.649  0.00  0.00     0.078 C 
ATOM      2  C1' OXE d   1      -4.209   6.000  -4.067  0.00  0.00     0.078 C 
ATOM      3  C1  OXE d   1      -2.702   5.977  -4.139  0.00  0.00    -0.078 A 
ATOM      4  C2  OXE d   1      -2.012   5.999  -2.951  0.00  0.00    -0.078 A 
ATOM      5  C3  OXE d   1      -0.622   5.924  -2.960  0.00  0.00     0.003 A 
ATOM      6  C4  OXE d   1       0.083   5.981  -4.168  0.00  0.00    -0.002 A 
ATOM      7  C5  OXE d   1      -0.600   5.999  -5.389  0.00  0.00    -0.002 A 
ATOM      8  C6  OXE d   1      -1.990   5.955  -5.392  0.00  0.00     0.003 A 
ENDROOT
TORSDOF 0
ENDMDL
