MODEL 1
REMARK minimizedAffinity 5.73019028
REMARK minimizedRMSD -1
REMARK  0 active torsions:
REMARK  status: ('A' for Active; 'I' for Inactive)
ROOT
ATOM      1  C2' OXE d   1       0.290   0.287   2.697  0.00  0.00     0.078 C 
ATOM      2  C1' OXE d   1       0.229  -1.682   0.696  0.00  0.00     0.078 C 
ATOM      3  C1  OXE d   1       0.611  -0.280   0.292  0.00  0.00    -0.078 A 
ATOM      4  C2  OXE d   1       0.593   0.687   1.269  0.00  0.00    -0.078 A 
ATOM      5  C3  OXE d   1       0.990   1.985   0.961  0.00  0.00     0.003 A 
ATOM      6  C4  OXE d   1       1.259   2.349  -0.364  0.00  0.00    -0.002 A 
ATOM      7  C5  OXE d   1       1.244   1.389  -1.381  0.00  0.00    -0.002 A 
ATOM      8  C6  OXE d   1       0.964   0.064  -1.063  0.00  0.00     0.003 A 
ENDROOT
TORSDOF 0
ENDMDL
