MODEL 1
REMARK minimizedAffinity 0.446468383
REMARK minimizedRMSD -1
REMARK  0 active torsions:
REMARK  status: ('A' for Active; 'I' for Inactive)
ROOT
ATOM      1  C2' OXE d   1      -0.146   5.903  -2.112  0.00  0.00     0.078 C 
ATOM      2  C1' OXE d   1      -1.745   6.000  -4.418  0.00  0.00     0.078 C 
ATOM      3  C1  OXE d   1      -0.248   5.970  -4.600  0.00  0.00    -0.078 A 
ATOM      4  C2  OXE d   1       0.527   5.969  -3.466  0.00  0.00    -0.078 A 
ATOM      5  C3  OXE d   1       1.912   5.887  -3.577  0.00  0.00     0.003 A 
ATOM      6  C4  OXE d   1       2.528   5.959  -4.833  0.00  0.00    -0.002 A 
ATOM      7  C5  OXE d   1       1.758   6.000  -6.000  0.00  0.00    -0.002 A 
ATOM      8  C6  OXE d   1       0.371   5.963  -5.903  0.00  0.00     0.003 A 
ENDROOT
TORSDOF 0
ENDMDL
