MODEL 1
REMARK minimizedAffinity -2.54616237
REMARK minimizedRMSD -1
REMARK  0 active torsions:
REMARK  status: ('A' for Active; 'I' for Inactive)
ROOT
ATOM      1  C2' OXE d   1       0.530   2.664  -0.202  0.00  0.00     0.078 C 
ATOM      2  C1' OXE d   1      -0.407   1.200   2.002  0.00  0.00     0.078 C 
ATOM      3  C1  OXE d   1       1.081   1.416   1.883  0.00  0.00    -0.078 A 
ATOM      4  C2  OXE d   1       1.534   2.093   0.777  0.00  0.00    -0.078 A 
ATOM      5  C3  OXE d   1       2.893   2.368   0.646  0.00  0.00     0.003 A 
ATOM      6  C4  OXE d   1       3.815   1.829   1.550  0.00  0.00    -0.002 A 
ATOM      7  C5  OXE d   1       3.377   1.102   2.663  0.00  0.00    -0.002 A 
ATOM      8  C6  OXE d   1       2.014   0.924   2.866  0.00  0.00     0.003 A 
ENDROOT
TORSDOF 0
ENDMDL
