MODEL 1
REMARK minimizedAffinity -2.81275988
REMARK minimizedRMSD -1
REMARK  0 active torsions:
REMARK  status: ('A' for Active; 'I' for Inactive)
ROOT
ATOM      1  C2' OXE d   1      -2.765   5.950  -1.433  0.00  0.00     0.078 C 
ATOM      2  C1' OXE d   1      -3.642   5.999  -4.099  0.00  0.00     0.078 C 
ATOM      3  C1  OXE d   1      -2.155   5.973  -3.848  0.00  0.00    -0.078 A 
ATOM      4  C2  OXE d   1      -1.734   5.996  -2.540  0.00  0.00    -0.078 A 
ATOM      5  C3  OXE d   1      -0.375   5.918  -2.252  0.00  0.00     0.003 A 
ATOM      6  C4  OXE d   1       0.573   5.972  -3.281  0.00  0.00    -0.002 A 
ATOM      7  C5  OXE d   1       0.166   5.988  -4.620  0.00  0.00    -0.002 A 
ATOM      8  C6  OXE d   1      -1.191   5.947  -4.920  0.00  0.00     0.003 A 
ENDROOT
TORSDOF 0
ENDMDL
