MODEL 1
REMARK minimizedAffinity 0.904069424
REMARK minimizedRMSD -1
REMARK  0 active torsions:
REMARK  status: ('A' for Active; 'I' for Inactive)
ROOT
ATOM      1  C2' OXE d   1      -3.752   5.998  -3.718  0.00  0.00     0.078 C 
ATOM      2  C1' OXE d   1      -3.262   5.981  -0.954  0.00  0.00     0.078 C 
ATOM      3  C1  OXE d   1      -2.071   5.981  -1.879  0.00  0.00    -0.078 A 
ATOM      4  C2  OXE d   1      -2.320   5.943  -3.230  0.00  0.00    -0.078 A 
ATOM      5  C3  OXE d   1      -1.259   5.997  -4.129  0.00  0.00     0.003 A 
ATOM      6  C4  OXE d   1       0.062   5.935  -3.670  0.00  0.00    -0.002 A 
ATOM      7  C5  OXE d   1       0.338   5.934  -2.298  0.00  0.00    -0.002 A 
ATOM      8  C6  OXE d   1      -0.714   5.999  -1.392  0.00  0.00     0.003 A 
ENDROOT
TORSDOF 0
ENDMDL
