MODEL 1
REMARK minimizedAffinity 2.18999314
REMARK minimizedRMSD -1
REMARK  0 active torsions:
REMARK  status: ('A' for Active; 'I' for Inactive)
ROOT
ATOM      1  C2' OXE d   1      -4.864  -5.802  -0.879  0.00  0.00     0.078 C 
ATOM      2  C1' OXE d   1      -5.478  -3.978   1.165  0.00  0.00     0.078 C 
ATOM      3  C1  OXE d   1      -4.798  -3.446  -0.072  0.00  0.00    -0.078 A 
ATOM      4  C2  OXE d   1      -4.459  -4.353  -1.047  0.00  0.00    -0.078 A 
ATOM      5  C3  OXE d   1      -3.879  -3.908  -2.231  0.00  0.00     0.003 A 
ATOM      6  C4  OXE d   1      -3.498  -2.568  -2.374  0.00  0.00    -0.002 A 
ATOM      7  C5  OXE d   1      -3.798  -1.635  -1.376  0.00  0.00    -0.002 A 
ATOM      8  C6  OXE d   1      -4.484  -2.049  -0.240  0.00  0.00     0.003 A 
ENDROOT
TORSDOF 0
ENDMDL
