MODEL 1
REMARK minimizedAffinity 2.68034863
REMARK minimizedRMSD -1
REMARK  0 active torsions:
REMARK  status: ('A' for Active; 'I' for Inactive)
ROOT
ATOM      1  C2' OXE d   1       0.723   0.350   2.056  0.00  0.00     0.078 C 
ATOM      2  C1' OXE d   1       1.681   2.758   0.979  0.00  0.00     0.078 C 
ATOM      3  C1  OXE d   1       1.500   1.591   0.041  0.00  0.00    -0.078 A 
ATOM      4  C2  OXE d   1       1.075   0.403   0.585  0.00  0.00    -0.078 A 
ATOM      5  C3  OXE d   1       0.839  -0.690  -0.244  0.00  0.00     0.003 A 
ATOM      6  C4  OXE d   1       1.176  -0.635  -1.602  0.00  0.00    -0.002 A 
ATOM      7  C5  OXE d   1       1.648   0.553  -2.169  0.00  0.00    -0.002 A 
ATOM      8  C6  OXE d   1       1.775   1.685  -1.371  0.00  0.00     0.003 A 
ENDROOT
TORSDOF 0
ENDMDL
