MODEL 1
REMARK minimizedAffinity -3.63624287
REMARK minimizedRMSD -1
REMARK  0 active torsions:
REMARK  status: ('A' for Active; 'I' for Inactive)
ROOT
ATOM      1  C2' OXE d   1      -3.693   5.999  -4.862  0.00  0.00     0.078 C 
ATOM      2  C1' OXE d   1      -3.009   6.000  -2.139  0.00  0.00     0.078 C 
ATOM      3  C1  OXE d   1      -1.907   5.764  -3.141  0.00  0.00    -0.078 A 
ATOM      4  C2  OXE d   1      -2.259   5.719  -4.469  0.00  0.00    -0.078 A 
ATOM      5  C3  OXE d   1      -1.273   5.559  -5.438  0.00  0.00     0.003 A 
ATOM      6  C4  OXE d   1       0.050   5.290  -5.066  0.00  0.00    -0.002 A 
ATOM      7  C5  OXE d   1       0.423   5.292  -3.718  0.00  0.00    -0.002 A 
ATOM      8  C6  OXE d   1      -0.534   5.569  -2.747  0.00  0.00     0.003 A 
ENDROOT
TORSDOF 0
ENDMDL
