MODEL 1
REMARK minimizedAffinity -2.18265152
REMARK minimizedRMSD -1
REMARK  0 active torsions:
REMARK  status: ('A' for Active; 'I' for Inactive)
ROOT
ATOM      1  C2' OXE d   1      -2.227   5.988  -4.658  0.00  0.00     0.078 C 
ATOM      2  C1' OXE d   1      -0.765   5.990  -2.261  0.00  0.00     0.078 C 
ATOM      3  C1  OXE d   1       0.008   5.981  -3.557  0.00  0.00    -0.078 A 
ATOM      4  C2  OXE d   1      -0.716   5.933  -4.724  0.00  0.00    -0.078 A 
ATOM      5  C3  OXE d   1      -0.054   5.978  -5.948  0.00  0.00     0.003 A 
ATOM      6  C4  OXE d   1       1.344   5.917  -6.000  0.00  0.00    -0.002 A 
ATOM      7  C5  OXE d   1       2.100   5.925  -4.823  0.00  0.00    -0.002 A 
ATOM      8  C6  OXE d   1       1.449   6.000  -3.596  0.00  0.00     0.003 A 
ENDROOT
TORSDOF 0
ENDMDL
