MODEL 1
REMARK minimizedAffinity 2.66553354
REMARK minimizedRMSD -1
REMARK  0 active torsions:
REMARK  status: ('A' for Active; 'I' for Inactive)
ROOT
ATOM      1  C2' OXE d   1       0.325   0.124  -1.930  0.00  0.00     0.078 C 
ATOM      2  C1' OXE d   1      -0.112  -1.179   0.517  0.00  0.00     0.078 C 
ATOM      3  C1  OXE d   1       0.572   0.165   0.548  0.00  0.00    -0.078 A 
ATOM      4  C2  OXE d   1       0.823   0.774  -0.657  0.00  0.00    -0.078 A 
ATOM      5  C3  OXE d   1       1.402   2.040  -0.683  0.00  0.00     0.003 A 
ATOM      6  C4  OXE d   1       1.869   2.629   0.498  0.00  0.00    -0.002 A 
ATOM      7  C5  OXE d   1       1.659   2.008   1.734  0.00  0.00    -0.002 A 
ATOM      8  C6  OXE d   1       0.975   0.798   1.780  0.00  0.00     0.003 A 
ENDROOT
TORSDOF 0
ENDMDL
