MODEL 1
REMARK minimizedAffinity 0.60172534
REMARK minimizedRMSD -1
REMARK  0 active torsions:
REMARK  status: ('A' for Active; 'I' for Inactive)
ROOT
ATOM      1  C2' OXE d   1       0.680   0.343  -0.640  0.00  0.00     0.078 C 
ATOM      2  C1' OXE d   1       1.508   1.823   1.597  0.00  0.00     0.078 C 
ATOM      3  C1  OXE d   1       0.293   0.943   1.747  0.00  0.00    -0.078 A 
ATOM      4  C2  OXE d   1      -0.133   0.258   0.634  0.00  0.00    -0.078 A 
ATOM      5  C3  OXE d   1      -1.217  -0.610   0.731  0.00  0.00     0.003 A 
ATOM      6  C4  OXE d   1      -1.970  -0.674   1.910  0.00  0.00    -0.002 A 
ATOM      7  C5  OXE d   1      -1.577   0.045   3.044  0.00  0.00    -0.002 A 
ATOM      8  C6  OXE d   1      -0.426   0.824   2.991  0.00  0.00     0.003 A 
ENDROOT
TORSDOF 0
ENDMDL
