MODEL 1
REMARK minimizedAffinity 2.85450912
REMARK minimizedRMSD -1
REMARK  0 active torsions:
REMARK  status: ('A' for Active; 'I' for Inactive)
ROOT
ATOM      1  C2' OXE d   1      -1.080   5.845  -2.214  0.00  0.00     0.078 C 
ATOM      2  C1' OXE d   1      -2.087   5.828  -4.834  0.00  0.00     0.078 C 
ATOM      3  C1  OXE d   1      -3.078   5.905  -3.700  0.00  0.00    -0.078 A 
ATOM      4  C2  OXE d   1      -2.579   5.866  -2.420  0.00  0.00    -0.078 A 
ATOM      5  C3  OXE d   1      -3.446   5.990  -1.338  0.00  0.00     0.003 A 
ATOM      6  C4  OXE d   1      -4.831   5.999  -1.537  0.00  0.00    -0.002 A 
ATOM      7  C5  OXE d   1      -5.363   6.000  -2.831  0.00  0.00    -0.002 A 
ATOM      8  C6  OXE d   1      -4.500   5.996  -3.922  0.00  0.00     0.003 A 
ENDROOT
TORSDOF 0
ENDMDL
