MODEL 1
REMARK minimizedAffinity -5.08557177
REMARK minimizedRMSD -1
REMARK  1 active torsions:
REMARK  status: ('A' for Active; 'I' for Inactive)
REMARK    1  A    between atoms: C1_2  and  C2_3 
ROOT
ATOM      1  C2  UNL d   1       0.926   1.327  -0.067  0.00  0.00    -0.076 A 
ATOM      2  C3  UNL d   1       1.228   0.085  -0.651  0.00  0.00     0.004 A 
ATOM      3  C4  UNL d   1       0.399  -1.019  -0.458  0.00  0.00    -0.003 A 
ATOM      4  C5  UNL d   1      -0.746  -0.898   0.322  0.00  0.00     0.000 A 
ATOM      5  C6  UNL d   1      -1.070   0.331   0.895  0.00  0.00     0.000 A 
ATOM      6  C7  UNL d   1      -0.253   1.458   0.697  0.00  0.00    -0.073 A 
ATOM      7  C8  UNL d   1      -0.647   2.758   1.344  0.00  0.00     0.078 C 
ENDROOT
BRANCH   1   8
ATOM      8  C1  UNL d   1       1.877   2.482  -0.288  0.00  0.00     0.053 C 
ATOM      9  C   UNL d   1       3.329   2.093  -0.058  0.00  0.00     0.018 C 
ENDBRANCH   1   8
TORSDOF 1
ENDMDL
