MODEL 1
REMARK minimizedAffinity -4.80796146
REMARK minimizedRMSD -1
REMARK  1 active torsions:
REMARK  status: ('A' for Active; 'I' for Inactive)
REMARK    1  A    between atoms: C1_2  and  C2_3 
ROOT
ATOM      1  C2  UNL d   1       0.484   0.734   0.294  0.00  0.00    -0.076 A 
ATOM      2  C3  UNL d   1      -0.848   1.185   0.312  0.00  0.00     0.004 A 
ATOM      3  C4  UNL d   1      -1.144   2.546   0.355  0.00  0.00    -0.003 A 
ATOM      4  C5  UNL d   1      -0.113   3.479   0.379  0.00  0.00     0.000 A 
ATOM      5  C6  UNL d   1       1.213   3.051   0.343  0.00  0.00     0.000 A 
ATOM      6  C7  UNL d   1       1.529   1.683   0.284  0.00  0.00    -0.073 A 
ATOM      7  C8  UNL d   1       2.977   1.276   0.254  0.00  0.00     0.078 C 
ENDROOT
BRANCH   1   8
ATOM      8  C1  UNL d   1       0.744  -0.755   0.276  0.00  0.00     0.053 C 
ATOM      9  C   UNL d   1      -0.537  -1.570   0.191  0.00  0.00     0.018 C 
ENDBRANCH   1   8
TORSDOF 1
ENDMDL
