MODEL 1
REMARK minimizedAffinity -4.49199533
REMARK minimizedRMSD -1
REMARK  1 active torsions:
REMARK  status: ('A' for Active; 'I' for Inactive)
REMARK    1  A    between atoms: C1_2  and  C2_3 
ROOT
ATOM      1  C2  UNL d   1       0.334   1.113   0.103  0.00  0.00    -0.076 A 
ATOM      2  C3  UNL d   1      -0.904   0.473  -0.082  0.00  0.00     0.004 A 
ATOM      3  C4  UNL d   1      -0.988  -0.916  -0.167  0.00  0.00    -0.003 A 
ATOM      4  C5  UNL d   1       0.165  -1.687  -0.067  0.00  0.00     0.000 A 
ATOM      5  C6  UNL d   1       1.399  -1.071   0.135  0.00  0.00     0.000 A 
ATOM      6  C7  UNL d   1       1.499   0.327   0.239  0.00  0.00    -0.073 A 
ATOM      7  C8  UNL d   1       2.857   0.940   0.450  0.00  0.00     0.078 C 
ENDROOT
BRANCH   1   8
ATOM      8  C1  UNL d   1       0.367   2.623   0.161  0.00  0.00     0.053 C 
ATOM      9  C   UNL d   1       0.002   3.162   1.535  0.00  0.00     0.018 C 
ENDBRANCH   1   8
TORSDOF 1
ENDMDL
