MODEL 1
REMARK minimizedAffinity -4.03254461
REMARK minimizedRMSD -1
REMARK  1 active torsions:
REMARK  status: ('A' for Active; 'I' for Inactive)
REMARK    1  A    between atoms: C1_2  and  C2_3 
ROOT
ATOM      1  C2  UNL d   1      -0.132  -0.041   0.341  0.00  0.00    -0.076 A 
ATOM      2  C3  UNL d   1      -1.494   0.163   0.619  0.00  0.00     0.004 A 
ATOM      3  C4  UNL d   1      -2.001   1.446   0.821  0.00  0.00    -0.003 A 
ATOM      4  C5  UNL d   1      -1.152   2.545   0.749  0.00  0.00     0.000 A 
ATOM      5  C6  UNL d   1       0.199   2.363   0.457  0.00  0.00     0.000 A 
ATOM      6  C7  UNL d   1       0.722   1.078   0.233  0.00  0.00    -0.073 A 
ATOM      7  C8  UNL d   1       2.188   0.938  -0.072  0.00  0.00     0.078 C 
ENDROOT
BRANCH   1   8
ATOM      8  C1  UNL d   1       0.365  -1.457   0.157  0.00  0.00     0.053 C 
ATOM      9  C   UNL d   1      -0.615  -2.323  -0.619  0.00  0.00     0.018 C 
ENDBRANCH   1   8
TORSDOF 1
ENDMDL
