MODEL 1
REMARK minimizedAffinity -4.09824085
REMARK minimizedRMSD -1
REMARK  1 active torsions:
REMARK  status: ('A' for Active; 'I' for Inactive)
REMARK    1  A    between atoms: C1_2  and  C2_3 
ROOT
ATOM      1  C2  UNL d   1      -0.438   1.014   0.405  0.00  0.00    -0.076 A 
ATOM      2  C3  UNL d   1       0.797   0.601  -0.125  0.00  0.00     0.004 A 
ATOM      3  C4  UNL d   1       1.040  -0.739  -0.420  0.00  0.00    -0.003 A 
ATOM      4  C5  UNL d   1       0.051  -1.689  -0.190  0.00  0.00     0.000 A 
ATOM      5  C6  UNL d   1      -1.186  -1.296   0.319  0.00  0.00     0.000 A 
ATOM      6  C7  UNL d   1      -1.453   0.054   0.607  0.00  0.00    -0.073 A 
ATOM      7  C8  UNL d   1      -2.802   0.421   1.160  0.00  0.00     0.078 C 
ENDROOT
BRANCH   1   8
ATOM      8  C1  UNL d   1      -0.634   2.477   0.731  0.00  0.00     0.053 C 
ATOM      9  C   UNL d   1       0.310   3.379  -0.049  0.00  0.00     0.018 C 
ENDBRANCH   1   8
TORSDOF 1
ENDMDL
