MODEL 1
REMARK minimizedAffinity -3.51378465
REMARK minimizedRMSD -1
REMARK  1 active torsions:
REMARK  status: ('A' for Active; 'I' for Inactive)
REMARK    1  A    between atoms: C1_2  and  C2_3 
ROOT
ATOM      1  C2  UNL d   1       0.094  -0.046   0.495  0.00  0.00    -0.076 A 
ATOM      2  C3  UNL d   1      -1.246   0.375   0.553  0.00  0.00     0.004 A 
ATOM      3  C4  UNL d   1      -1.570   1.728   0.625  0.00  0.00    -0.003 A 
ATOM      4  C5  UNL d   1      -0.559   2.684   0.639  0.00  0.00     0.000 A 
ATOM      5  C6  UNL d   1       0.775   2.285   0.564  0.00  0.00     0.000 A 
ATOM      6  C7  UNL d   1       1.118   0.925   0.475  0.00  0.00    -0.073 A 
ATOM      7  C8  UNL d   1       2.573   0.551   0.403  0.00  0.00     0.078 C 
ENDROOT
BRANCH   1   8
ATOM      8  C1  UNL d   1       0.386  -1.529   0.446  0.00  0.00     0.053 C 
ATOM      9  C   UNL d   1      -0.156  -2.188  -0.813  0.00  0.00     0.018 C 
ENDBRANCH   1   8
TORSDOF 1
ENDMDL
