MODEL 1
REMARK minimizedAffinity -5.09310341
REMARK minimizedRMSD -1
REMARK  1 active torsions:
REMARK  status: ('A' for Active; 'I' for Inactive)
REMARK    1  A    between atoms: C1_2  and  C2_3 
ROOT
ATOM      1  C2  UNL d   1       0.933   1.294  -0.480  0.00  0.00    -0.076 A 
ATOM      2  C3  UNL d   1      -0.045   2.176  -0.971  0.00  0.00     0.004 A 
ATOM      3  C4  UNL d   1       0.169   3.553  -0.978  0.00  0.00    -0.003 A 
ATOM      4  C5  UNL d   1       1.366   4.071  -0.495  0.00  0.00     0.000 A 
ATOM      5  C6  UNL d   1       2.355   3.209  -0.021  0.00  0.00     0.000 A 
ATOM      6  C7  UNL d   1       2.161   1.817  -0.022  0.00  0.00    -0.073 A 
ATOM      7  C8  UNL d   1       3.259   0.935   0.506  0.00  0.00     0.078 C 
ENDROOT
BRANCH   1   8
ATOM      8  C1  UNL d   1       0.634  -0.188  -0.473  0.00  0.00     0.053 C 
ATOM      9  C   UNL d   1      -0.751  -0.500   0.075  0.00  0.00     0.018 C 
ENDBRANCH   1   8
TORSDOF 1
ENDMDL
