MODEL 1
REMARK minimizedAffinity -5.72709894
REMARK minimizedRMSD -1
REMARK  1 active torsions:
REMARK  status: ('A' for Active; 'I' for Inactive)
REMARK    1  A    between atoms: C1_2  and  C2_3 
ROOT
ATOM      1  C2  UNL d   1       0.131   0.905   0.211  0.00  0.00    -0.076 A 
ATOM      2  C3  UNL d   1       1.390   1.507   0.384  0.00  0.00     0.004 A 
ATOM      3  C4  UNL d   1       1.535   2.892   0.342  0.00  0.00    -0.003 A 
ATOM      4  C5  UNL d   1       0.423   3.699   0.128  0.00  0.00     0.000 A 
ATOM      5  C6  UNL d   1      -0.836   3.121  -0.028  0.00  0.00     0.000 A 
ATOM      6  C7  UNL d   1      -1.002   1.726   0.028  0.00  0.00    -0.073 A 
ATOM      7  C8  UNL d   1      -2.382   1.156  -0.152  0.00  0.00     0.078 C 
ENDROOT
BRANCH   1   8
ATOM      8  C1  UNL d   1       0.039  -0.604   0.239  0.00  0.00     0.053 C 
ATOM      9  C   UNL d   1       0.335  -1.230  -1.114  0.00  0.00     0.018 C 
ENDBRANCH   1   8
TORSDOF 1
ENDMDL
