MODEL 1
REMARK minimizedAffinity -2.28731155
REMARK minimizedRMSD -1
REMARK  1 active torsions:
REMARK  status: ('A' for Active; 'I' for Inactive)
REMARK    1  A    between atoms: C1_2  and  C2_3 
ROOT
ATOM      1  C2  UNL d   1      -0.294  -1.369  -0.863  0.00  0.00    -0.076 A 
ATOM      2  C3  UNL d   1      -1.283  -1.502  -1.853  0.00  0.00     0.004 A 
ATOM      3  C4  UNL d   1      -1.439  -2.695  -2.556  0.00  0.00    -0.003 A 
ATOM      4  C5  UNL d   1      -0.609  -3.776  -2.281  0.00  0.00     0.000 A 
ATOM      5  C6  UNL d   1       0.367  -3.668  -1.290  0.00  0.00     0.000 A 
ATOM      6  C7  UNL d   1       0.527  -2.477  -0.561  0.00  0.00    -0.073 A 
ATOM      7  C8  UNL d   1       1.599  -2.414   0.492  0.00  0.00     0.078 C 
ENDROOT
BRANCH   1   8
ATOM      8  C1  UNL d   1      -0.154  -0.042  -0.153  0.00  0.00     0.053 C 
ATOM      9  C   UNL d   1      -1.416   0.353   0.598  0.00  0.00     0.018 C 
ENDBRANCH   1   8
TORSDOF 1
ENDMDL
