MODEL 1
REMARK minimizedAffinity 9.2521553
REMARK minimizedRMSD -1
REMARK  2 active torsions:
REMARK  status: ('A' for Active; 'I' for Inactive)
REMARK    1  A    between atoms: C2'_3  and  C1'_4 
REMARK    2  A    between atoms: C1'_4  and  C1_5 
ROOT
ATOM      1  C1  I4B d   1       2.903   1.642   0.062  0.00  0.00    -0.075 A 
ATOM      2  C2  I4B d   1       2.307   2.735  -0.516  0.00  0.00     0.003 A 
ATOM      3  C3  I4B d   1       1.365   3.501   0.213  0.00  0.00     0.002 A 
ATOM      4  C4  I4B d   1       1.015   3.113   1.490  0.00  0.00    -0.004 A 
ATOM      5  C5  I4B d   1       1.638   2.018   2.082  0.00  0.00     0.002 A 
ATOM      6  C6  I4B d   1       2.598   1.285   1.369  0.00  0.00     0.003 A 
ENDROOT
BRANCH   1   7
ATOM      7  C1' I4B d   1       3.868   0.836  -0.748  0.00  0.00     0.060 C 
BRANCH   7   8
ATOM      8  C2' I4B d   1       3.206   0.505  -2.070  0.00  0.00    -0.013 C 
ATOM      9  C4' I4B d   1       4.228   0.325  -3.162  0.00  0.00     0.013 C 
ATOM     10  C3' I4B d   1       2.391  -0.739  -1.881  0.00  0.00     0.013 C 
ENDBRANCH   7   8
ENDBRANCH   1   7
TORSDOF 2
ENDMDL
