MODEL 1
REMARK minimizedAffinity 5.12650967
REMARK minimizedRMSD -1
REMARK  2 active torsions:
REMARK  status: ('A' for Active; 'I' for Inactive)
REMARK    1  A    between atoms: C2'_3  and  C1'_4 
REMARK    2  A    between atoms: C1'_4  and  C1_5 
ROOT
ATOM      1  C1  I4B d   1       1.515  -2.941   4.141  0.00  0.00    -0.075 A 
ATOM      2  C2  I4B d   1       1.356  -1.589   3.963  0.00  0.00     0.003 A 
ATOM      3  C3  I4B d   1       1.553  -1.011   2.686  0.00  0.00     0.002 A 
ATOM      4  C4  I4B d   1       1.955  -1.807   1.633  0.00  0.00    -0.004 A 
ATOM      5  C5  I4B d   1       2.094  -3.181   1.811  0.00  0.00     0.002 A 
ATOM      6  C6  I4B d   1       1.860  -3.754   3.069  0.00  0.00     0.003 A 
ENDROOT
BRANCH   1   7
ATOM      7  C1' I4B d   1       1.331  -3.514   5.510  0.00  0.00     0.060 C 
BRANCH   7   8
ATOM      8  C2' I4B d   1       1.104  -5.005   5.366  0.00  0.00    -0.013 C 
ATOM      9  C4' I4B d   1       2.223  -5.791   5.997  0.00  0.00     0.013 C 
ATOM     10  C3' I4B d   1      -0.215  -5.336   6.000  0.00  0.00     0.013 C 
ENDBRANCH   7   8
ENDBRANCH   1   7
TORSDOF 2
ENDMDL
