MODEL 1
REMARK minimizedAffinity 8.06376934
REMARK minimizedRMSD -1
REMARK  2 active torsions:
REMARK  status: ('A' for Active; 'I' for Inactive)
REMARK    1  A    between atoms: C2'_3  and  C1'_4 
REMARK    2  A    between atoms: C1'_4  and  C1_5 
ROOT
ATOM      1  C1  I4B d   1       2.825  -2.706   3.091  0.00  0.00    -0.075 A 
ATOM      2  C2  I4B d   1       1.511  -3.010   3.347  0.00  0.00     0.003 A 
ATOM      3  C3  I4B d   1       0.475  -2.219   2.796  0.00  0.00     0.002 A 
ATOM      4  C4  I4B d   1       0.796  -1.109   2.040  0.00  0.00    -0.004 A 
ATOM      5  C5  I4B d   1       2.127  -0.815   1.762  0.00  0.00     0.002 A 
ATOM      6  C6  I4B d   1       3.148  -1.625   2.280  0.00  0.00     0.003 A 
ENDROOT
BRANCH   1   7
ATOM      7  C1' I4B d   1       3.894  -3.544   3.716  0.00  0.00     0.060 C 
BRANCH   7   8
ATOM      8  C2' I4B d   1       5.234  -2.935   3.356  0.00  0.00    -0.013 C 
ATOM      9  C4' I4B d   1       6.000  -2.534   4.590  0.00  0.00     0.013 C 
ATOM     10  C3' I4B d   1       5.998  -3.941   2.548  0.00  0.00     0.013 C 
ENDBRANCH   7   8
ENDBRANCH   1   7
TORSDOF 2
ENDMDL
