MODEL 1
REMARK minimizedAffinity 9.34611607
REMARK minimizedRMSD -1
REMARK  2 active torsions:
REMARK  status: ('A' for Active; 'I' for Inactive)
REMARK    1  A    between atoms: C2'_3  and  C1'_4 
REMARK    2  A    between atoms: C1'_4  and  C1_5 
ROOT
ATOM      1  C1  I4B d   1       1.754  -1.666   2.759  0.00  0.00    -0.075 A 
ATOM      2  C2  I4B d   1       1.747  -1.462   4.116  0.00  0.00     0.003 A 
ATOM      3  C3  I4B d   1       1.926  -2.553   5.001  0.00  0.00     0.002 A 
ATOM      4  C4  I4B d   1       2.057  -3.828   4.491  0.00  0.00    -0.004 A 
ATOM      5  C5  I4B d   1       2.087  -4.029   3.114  0.00  0.00     0.002 A 
ATOM      6  C6  I4B d   1       1.947  -2.940   2.242  0.00  0.00     0.003 A 
ENDROOT
BRANCH   1   7
ATOM      7  C1' I4B d   1       1.530  -0.496   1.853  0.00  0.00     0.060 C 
BRANCH   7   8
ATOM      8  C2' I4B d   1       2.546   0.570   2.208  0.00  0.00    -0.013 C 
ATOM      9  C4' I4B d   1       3.367   0.961   1.007  0.00  0.00     0.013 C 
ATOM     10  C3' I4B d   1       1.805   1.749   2.764  0.00  0.00     0.013 C 
ENDBRANCH   7   8
ENDBRANCH   1   7
TORSDOF 2
ENDMDL
