MODEL 1
REMARK minimizedAffinity 3.01624918
REMARK minimizedRMSD -1
REMARK  0 active torsions:
REMARK  status: ('A' for Active; 'I' for Inactive)
ROOT
ATOM      1  C1  DEN d   1      -0.219  -4.042   0.194  0.00  0.00     0.130 A 
ATOM      2  C2  DEN d   1      -1.660  -4.058  -0.045  0.00  0.00    -0.031 A 
ATOM      3  C3  DEN d   1      -2.204  -2.746   0.360  0.00  0.00     0.027 A 
ATOM      4  C4  DEN d   1      -0.962  -0.701   1.323  0.00  0.00     0.027 A 
ATOM      5  C5  DEN d   1       0.266  -0.216   1.715  0.00  0.00    -0.003 A 
ATOM      6  C6  DEN d   1       1.404  -0.978   1.660  0.00  0.00     0.001 A 
ATOM      7  C7  DEN d   1       1.344  -2.252   1.160  0.00  0.00     0.017 A 
ATOM      8  C8  DEN d   1       0.108  -2.750   0.770  0.00  0.00    -0.094 A 
ATOM      9  C9  DEN d   1      -1.028  -1.961   0.821  0.00  0.00    -0.072 A 
ENDROOT
TORSDOF 0
ENDMDL
