MODEL 1
REMARK minimizedAffinity 5.43046618
REMARK minimizedRMSD -1
REMARK  0 active torsions:
REMARK  status: ('A' for Active; 'I' for Inactive)
ROOT
ATOM      1  C1  DEN d   1      -0.007  -3.378  -2.610  0.00  0.00     0.130 A 
ATOM      2  C2  DEN d   1       0.868  -4.536  -2.774  0.00  0.00    -0.031 A 
ATOM      3  C3  DEN d   1       0.329  -5.636  -1.949  0.00  0.00     0.027 A 
ATOM      4  C4  DEN d   1      -1.766  -5.659  -0.444  0.00  0.00     0.027 A 
ATOM      5  C5  DEN d   1      -2.819  -4.906   0.025  0.00  0.00    -0.003 A 
ATOM      6  C6  DEN d   1      -2.989  -3.592  -0.322  0.00  0.00     0.001 A 
ATOM      7  C7  DEN d   1      -2.116  -3.003  -1.198  0.00  0.00     0.017 A 
ATOM      8  C8  DEN d   1      -1.047  -3.754  -1.669  0.00  0.00    -0.094 A 
ATOM      9  C9  DEN d   1      -0.900  -5.084  -1.316  0.00  0.00    -0.072 A 
ENDROOT
TORSDOF 0
ENDMDL
