MODEL 1
REMARK minimizedAffinity 14.1538267
REMARK minimizedRMSD -1
REMARK  0 active torsions:
REMARK  status: ('A' for Active; 'I' for Inactive)
ROOT
ATOM      1  C1  DEN d   1      -1.845   2.736   0.171  0.00  0.00     0.130 A 
ATOM      2  C2  DEN d   1      -0.844   3.767   0.427  0.00  0.00    -0.031 A 
ATOM      3  C3  DEN d   1       0.276   3.144   1.161  0.00  0.00     0.027 A 
ATOM      4  C4  DEN d   1       0.556   0.695   1.918  0.00  0.00     0.027 A 
ATOM      5  C5  DEN d   1      -0.036  -0.549   1.939  0.00  0.00    -0.003 A 
ATOM      6  C6  DEN d   1      -1.278  -0.775   1.406  0.00  0.00     0.001 A 
ATOM      7  C7  DEN d   1      -1.948   0.248   0.790  0.00  0.00     0.017 A 
ATOM      8  C8  DEN d   1      -1.361   1.506   0.771  0.00  0.00    -0.094 A 
ATOM      9  C9  DEN d   1      -0.100   1.712   1.304  0.00  0.00    -0.072 A 
ENDROOT
TORSDOF 0
ENDMDL
