MODEL 1
REMARK minimizedAffinity 1.54883051
REMARK minimizedRMSD -1
REMARK  0 active torsions:
REMARK  status: ('A' for Active; 'I' for Inactive)
ROOT
ATOM      1  C1  DEN d   1      -0.118  -0.871   1.878  0.00  0.00     0.130 A 
ATOM      2  C2  DEN d   1      -1.515  -1.151   1.555  0.00  0.00    -0.031 A 
ATOM      3  C3  DEN d   1      -1.541  -2.077   0.405  0.00  0.00     0.027 A 
ATOM      4  C4  DEN d   1       0.435  -3.102  -0.898  0.00  0.00     0.027 A 
ATOM      5  C5  DEN d   1       1.808  -3.149  -1.001  0.00  0.00    -0.003 A 
ATOM      6  C6  DEN d   1       2.627  -2.421  -0.180  0.00  0.00     0.001 A 
ATOM      7  C7  DEN d   1       2.082  -1.647   0.810  0.00  0.00     0.017 A 
ATOM      8  C8  DEN d   1       0.699  -1.588   0.915  0.00  0.00    -0.094 A 
ATOM      9  C9  DEN d   1      -0.112  -2.342   0.084  0.00  0.00    -0.072 A 
ENDROOT
TORSDOF 0
ENDMDL
