MODEL 1
REMARK minimizedAffinity 9.17985535
REMARK minimizedRMSD -1
REMARK  0 active torsions:
REMARK  status: ('A' for Active; 'I' for Inactive)
ROOT
ATOM      1  C1  DEN d   1      -4.309   2.231  -2.665  0.00  0.00     0.130 A 
ATOM      2  C2  DEN d   1      -4.126   1.883  -4.071  0.00  0.00    -0.031 A 
ATOM      3  C3  DEN d   1      -4.616   3.011  -4.888  0.00  0.00     0.027 A 
ATOM      4  C4  DEN d   1      -5.632   5.253  -4.116  0.00  0.00     0.027 A 
ATOM      5  C5  DEN d   1      -6.000   6.000  -3.019  0.00  0.00    -0.003 A 
ATOM      6  C6  DEN d   1      -5.863   5.533  -1.739  0.00  0.00     0.001 A 
ATOM      7  C7  DEN d   1      -5.303   4.302  -1.521  0.00  0.00     0.017 A 
ATOM      8  C8  DEN d   1      -4.936   3.540  -2.623  0.00  0.00    -0.094 A 
ATOM      9  C9  DEN d   1      -5.071   4.035  -3.909  0.00  0.00    -0.072 A 
ENDROOT
TORSDOF 0
ENDMDL
