MODEL 1
REMARK minimizedAffinity 4.842628
REMARK minimizedRMSD -1
REMARK  0 active torsions:
REMARK  status: ('A' for Active; 'I' for Inactive)
ROOT
ATOM      1  C1  DEN d   1       0.007   1.569   0.576  0.00  0.00     0.130 A 
ATOM      2  C2  DEN d   1      -1.346   2.054   0.319  0.00  0.00    -0.031 A 
ATOM      3  C3  DEN d   1      -2.253   0.889   0.303  0.00  0.00     0.027 A 
ATOM      4  C4  DEN d   1      -1.697  -1.606   0.652  0.00  0.00     0.027 A 
ATOM      5  C5  DEN d   1      -0.683  -2.507   0.888  0.00  0.00    -0.003 A 
ATOM      6  C6  DEN d   1       0.626  -2.120   1.003  0.00  0.00     0.001 A 
ATOM      7  C7  DEN d   1       0.950  -0.792   0.925  0.00  0.00     0.017 A 
ATOM      8  C8  DEN d   1      -0.066   0.123   0.679  0.00  0.00    -0.094 A 
ATOM      9  C9  DEN d   1      -1.384  -0.287   0.579  0.00  0.00    -0.072 A 
ENDROOT
TORSDOF 0
ENDMDL
