MODEL 1
REMARK minimizedAffinity 3.14793324
REMARK minimizedRMSD -1
REMARK  0 active torsions:
REMARK  status: ('A' for Active; 'I' for Inactive)
ROOT
ATOM      1  C1  DEN d   1       5.999   4.746  -1.226  0.00  0.00     0.130 A 
ATOM      2  C2  DEN d   1       4.992   4.734  -0.169  0.00  0.00    -0.031 A 
ATOM      3  C3  DEN d   1       3.810   4.007  -0.673  0.00  0.00     0.027 A 
ATOM      4  C4  DEN d   1       3.445   2.900  -2.974  0.00  0.00     0.027 A 
ATOM      5  C5  DEN d   1       4.012   2.659  -4.206  0.00  0.00    -0.003 A 
ATOM      6  C6  DEN d   1       5.257   3.122  -4.541  0.00  0.00     0.001 A 
ATOM      7  C7  DEN d   1       5.995   3.813  -3.616  0.00  0.00     0.017 A 
ATOM      8  C8  DEN d   1       5.428   4.066  -2.374  0.00  0.00    -0.094 A 
ATOM      9  C9  DEN d   1       4.173   3.578  -2.051  0.00  0.00    -0.072 A 
ENDROOT
TORSDOF 0
ENDMDL
