MODEL 1
REMARK minimizedAffinity -0.22537522
REMARK minimizedRMSD -1
REMARK  0 active torsions:
REMARK  status: ('A' for Active; 'I' for Inactive)
ROOT
ATOM      1  C1  DEN d   1       5.999   5.996  -1.777  0.00  0.00     0.130 A 
ATOM      2  C2  DEN d   1       5.965   5.361  -0.462  0.00  0.00    -0.031 A 
ATOM      3  C3  DEN d   1       5.951   3.898  -0.662  0.00  0.00     0.027 A 
ATOM      4  C4  DEN d   1       5.982   2.561  -2.868  0.00  0.00     0.027 A 
ATOM      5  C5  DEN d   1       6.000   2.662  -4.241  0.00  0.00    -0.003 A 
ATOM      6  C6  DEN d   1       5.984   3.871  -4.885  0.00  0.00     0.001 A 
ATOM      7  C7  DEN d   1       5.996   5.030  -4.153  0.00  0.00     0.017 A 
ATOM      8  C8  DEN d   1       5.971   4.936  -2.768  0.00  0.00    -0.094 A 
ATOM      9  C9  DEN d   1       5.999   3.704  -2.136  0.00  0.00    -0.072 A 
ENDROOT
TORSDOF 0
ENDMDL
