MODEL 1
REMARK minimizedAffinity -1.60189033
REMARK minimizedRMSD -1
REMARK  0 active torsions:
REMARK  status: ('A' for Active; 'I' for Inactive)
ROOT
ATOM      1  C1  DEN d   1       3.608  -0.249  -5.973  0.00  0.00     0.130 A 
ATOM      2  C2  DEN d   1       4.846   0.525  -5.957  0.00  0.00    -0.031 A 
ATOM      3  C3  DEN d   1       5.978  -0.423  -5.960  0.00  0.00     0.027 A 
ATOM      4  C4  DEN d   1       5.934  -3.002  -5.993  0.00  0.00     0.027 A 
ATOM      5  C5  DEN d   1       5.117  -4.110  -5.999  0.00  0.00    -0.003 A 
ATOM      6  C6  DEN d   1       3.751  -4.011  -5.963  0.00  0.00     0.001 A 
ATOM      7  C7  DEN d   1       3.160  -2.776  -5.965  0.00  0.00     0.017 A 
ATOM      8  C8  DEN d   1       3.978  -1.653  -5.951  0.00  0.00    -0.094 A 
ATOM      9  C9  DEN d   1       5.356  -1.774  -6.000  0.00  0.00    -0.072 A 
ENDROOT
TORSDOF 0
ENDMDL
