MODEL 1
REMARK minimizedAffinity 3.77899265
REMARK minimizedRMSD -1
REMARK  0 active torsions:
REMARK  status: ('A' for Active; 'I' for Inactive)
ROOT
ATOM      1  C   UNL d   1       5.937   1.079   4.861  0.00  0.00     0.020 A 
ATOM      2  C1  UNL d   1       5.166   0.079   4.271  0.00  0.00     0.020 A 
ATOM      3  C2  UNL d   1       4.440   0.351   3.109  0.00  0.00     0.034 A 
ATOM      4  C3  UNL d   1       4.485   1.627   2.534  0.00  0.00     0.017 A 
ATOM      5  C4  UNL d   1       5.260   2.630   3.128  0.00  0.00     0.017 A 
ATOM      6  C5  UNL d   1       5.984   2.352   4.291  0.00  0.00     0.034 A 
ATOM      7 Cl   UNL d   1       5.364   4.227   2.477  0.00  0.00    -0.070 Cl
ATOM      8 Cl1  UNL d   1       3.563   1.893   1.097  0.00  0.00    -0.070 Cl
ENDROOT
TORSDOF 0
ENDMDL
