MODEL 1
REMARK minimizedAffinity -2.16819382
REMARK minimizedRMSD -1
REMARK  0 active torsions:
REMARK  status: ('A' for Active; 'I' for Inactive)
ROOT
ATOM      1  C   UNL d   1       5.995   2.777   3.138  0.00  0.00     0.020 A 
ATOM      2  C1  UNL d   1       5.999   2.806   4.532  0.00  0.00     0.020 A 
ATOM      3  C2  UNL d   1       6.000   1.611   5.254  0.00  0.00     0.034 A 
ATOM      4  C3  UNL d   1       5.996   0.383   4.583  0.00  0.00     0.017 A 
ATOM      5  C4  UNL d   1       5.992   0.355   3.184  0.00  0.00     0.017 A 
ATOM      6  C5  UNL d   1       5.992   1.555   2.465  0.00  0.00     0.034 A 
ATOM      7 Cl   UNL d   1       5.988  -1.122   2.286  0.00  0.00    -0.070 Cl
ATOM      8 Cl1  UNL d   1       5.998  -1.056   5.541  0.00  0.00    -0.070 Cl
ENDROOT
TORSDOF 0
ENDMDL
