MODEL 1
REMARK minimizedAffinity 1.82914019
REMARK minimizedRMSD -1
REMARK  0 active torsions:
REMARK  status: ('A' for Active; 'I' for Inactive)
ROOT
ATOM      1  C   UNL d   1       5.988   3.352   2.047  0.00  0.00     0.020 A 
ATOM      2  C1  UNL d   1       5.991   1.958   2.080  0.00  0.00     0.020 A 
ATOM      3  C2  UNL d   1       5.977   1.289   3.306  0.00  0.00     0.034 A 
ATOM      4  C3  UNL d   1       5.959   2.013   4.503  0.00  0.00     0.017 A 
ATOM      5  C4  UNL d   1       5.956   3.412   4.469  0.00  0.00     0.017 A 
ATOM      6  C5  UNL d   1       5.970   4.077   3.239  0.00  0.00     0.034 A 
ATOM      7 Cl   UNL d   1       5.935   4.375   5.904  0.00  0.00    -0.070 Cl
ATOM      8 Cl1  UNL d   1       5.942   1.120   5.982  0.00  0.00    -0.070 Cl
ENDROOT
TORSDOF 0
ENDMDL
