MODEL 1
REMARK minimizedAffinity -2.66546893
REMARK minimizedRMSD -1
REMARK  0 active torsions:
REMARK  status: ('A' for Active; 'I' for Inactive)
ROOT
ATOM      1  C   UNL d   1       5.982   2.483   5.619  0.00  0.00     0.020 A 
ATOM      2  C1  UNL d   1       5.667   2.866   4.315  0.00  0.00     0.020 A 
ATOM      3  C2  UNL d   1       5.367   1.896   3.356  0.00  0.00     0.034 A 
ATOM      4  C3  UNL d   1       5.381   0.539   3.698  0.00  0.00     0.017 A 
ATOM      5  C4  UNL d   1       5.697   0.156   5.007  0.00  0.00     0.017 A 
ATOM      6  C5  UNL d   1       5.997   1.131   5.963  0.00  0.00     0.034 A 
ATOM      7 Cl   UNL d   1       5.734  -1.499   5.504  0.00  0.00    -0.070 Cl
ATOM      8 Cl1  UNL d   1       4.999  -0.605   2.461  0.00  0.00    -0.070 Cl
ENDROOT
TORSDOF 0
ENDMDL
