MODEL 1
REMARK minimizedAffinity -1.6307416
REMARK minimizedRMSD -1
REMARK  0 active torsions:
REMARK  status: ('A' for Active; 'I' for Inactive)
ROOT
ATOM      1  C   UNL d   1       5.988   1.438   4.648  0.00  0.00     0.020 A 
ATOM      2  C1  UNL d   1       5.997   0.960   3.338  0.00  0.00     0.020 A 
ATOM      3  C2  UNL d   1       6.000   1.857   2.268  0.00  0.00     0.034 A 
ATOM      4  C3  UNL d   1       5.995   3.236   2.505  0.00  0.00     0.017 A 
ATOM      5  C4  UNL d   1       5.986   3.715   3.821  0.00  0.00     0.017 A 
ATOM      6  C5  UNL d   1       5.983   2.812   4.888  0.00  0.00     0.034 A 
ATOM      7 Cl   UNL d   1       5.979   5.403   4.193  0.00  0.00    -0.070 Cl
ATOM      8 Cl1  UNL d   1       5.999   4.288   1.134  0.00  0.00    -0.070 Cl
ENDROOT
TORSDOF 0
ENDMDL
