MODEL 1
REMARK minimizedAffinity 0.0840314552
REMARK minimizedRMSD -1
REMARK  0 active torsions:
REMARK  status: ('A' for Active; 'I' for Inactive)
ROOT
ATOM      1  C   UNL d   1       5.991  -0.500   5.998  0.00  0.00     0.020 A 
ATOM      2  C1  UNL d   1       5.997  -1.509   5.035  0.00  0.00     0.020 A 
ATOM      3  C2  UNL d   1       6.000  -1.180   3.678  0.00  0.00     0.034 A 
ATOM      4  C3  UNL d   1       5.995   0.162   3.280  0.00  0.00     0.017 A 
ATOM      5  C4  UNL d   1       5.989   1.174   4.246  0.00  0.00     0.017 A 
ATOM      6  C5  UNL d   1       5.987   0.838   5.604  0.00  0.00     0.034 A 
ATOM      7 Cl   UNL d   1       5.984   2.852   3.832  0.00  0.00    -0.070 Cl
ATOM      8 Cl1  UNL d   1       5.999   0.496   1.584  0.00  0.00    -0.070 Cl
ENDROOT
TORSDOF 0
ENDMDL
