MODEL 1
REMARK minimizedAffinity 7.33080101
REMARK minimizedRMSD -1
REMARK  0 active torsions:
REMARK  status: ('A' for Active; 'I' for Inactive)
ROOT
ATOM      1  C   UNL d   1       5.989   4.491   4.956  0.00  0.00     0.020 A 
ATOM      2  C1  UNL d   1       5.992   5.692   4.248  0.00  0.00     0.020 A 
ATOM      3  C2  UNL d   1       5.995   5.679   2.851  0.00  0.00     0.034 A 
ATOM      4  C3  UNL d   1       5.994   4.462   2.159  0.00  0.00     0.017 A 
ATOM      5  C4  UNL d   1       5.990   3.257   2.871  0.00  0.00     0.017 A 
ATOM      6  C5  UNL d   1       5.987   3.277   4.270  0.00  0.00     0.034 A 
ATOM      7 Cl   UNL d   1       5.988   1.717   2.087  0.00  0.00    -0.070 Cl
ATOM      8 Cl1  UNL d   1       5.997   4.520   0.432  0.00  0.00    -0.070 Cl
ENDROOT
TORSDOF 0
ENDMDL
