MODEL 1
REMARK minimizedAffinity 13.0484619
REMARK minimizedRMSD -1
REMARK  0 active torsions:
REMARK  status: ('A' for Active; 'I' for Inactive)
ROOT
ATOM      1  C   UNL d   1       5.159   1.411   4.241  0.00  0.00     0.020 A 
ATOM      2  C1  UNL d   1       5.159   1.049   2.895  0.00  0.00     0.020 A 
ATOM      3  C2  UNL d   1       5.421   2.008   1.914  0.00  0.00     0.034 A 
ATOM      4  C3  UNL d   1       5.684   3.334   2.278  0.00  0.00     0.017 A 
ATOM      5  C4  UNL d   1       5.684   3.696   3.630  0.00  0.00     0.017 A 
ATOM      6  C5  UNL d   1       5.421   2.732   4.608  0.00  0.00     0.034 A 
ATOM      7 Cl   UNL d   1       6.000   5.312   4.156  0.00  0.00    -0.070 Cl
ATOM      8 Cl1  UNL d   1       5.999   4.467   1.012  0.00  0.00    -0.070 Cl
ENDROOT
TORSDOF 0
ENDMDL
