MODEL 1
REMARK minimizedAffinity 1.16867793
REMARK minimizedRMSD -1
REMARK  0 active torsions:
REMARK  status: ('A' for Active; 'I' for Inactive)
ROOT
ATOM      1  C   UNL d   1       5.999   0.226   5.999  0.00  0.00     0.020 A 
ATOM      2  C1  UNL d   1       5.993  -0.897   5.172  0.00  0.00     0.020 A 
ATOM      3  C2  UNL d   1       5.988  -0.741   3.784  0.00  0.00     0.034 A 
ATOM      4  C3  UNL d   1       5.989   0.540   3.220  0.00  0.00     0.017 A 
ATOM      5  C4  UNL d   1       5.994   1.666   4.051  0.00  0.00     0.017 A 
ATOM      6  C5  UNL d   1       6.000   1.504   5.440  0.00  0.00     0.034 A 
ATOM      7 Cl   UNL d   1       5.995   3.278   3.428  0.00  0.00    -0.070 Cl
ATOM      8 Cl1  UNL d   1       5.983   0.658   1.496  0.00  0.00    -0.070 Cl
ENDROOT
TORSDOF 0
ENDMDL
