MODEL 1
REMARK minimizedAffinity -0.816209495
REMARK minimizedRMSD -1
REMARK  0 active torsions:
REMARK  status: ('A' for Active; 'I' for Inactive)
ROOT
ATOM      1  C   UNL d   1       5.989   0.574   3.458  0.00  0.00     0.020 A 
ATOM      2  C1  UNL d   1       5.989   0.880   4.818  0.00  0.00     0.020 A 
ATOM      3  C2  UNL d   1       5.993   2.213   5.234  0.00  0.00     0.034 A 
ATOM      4  C3  UNL d   1       5.996   3.245   4.288  0.00  0.00     0.017 A 
ATOM      5  C4  UNL d   1       5.996   2.937   2.923  0.00  0.00     0.017 A 
ATOM      6  C5  UNL d   1       5.992   1.600   2.512  0.00  0.00     0.034 A 
ATOM      7 Cl   UNL d   1       6.000   4.156   1.698  0.00  0.00    -0.070 Cl
ATOM      8 Cl1  UNL d   1       6.000   4.871   4.874  0.00  0.00    -0.070 Cl
ENDROOT
TORSDOF 0
ENDMDL
