MODEL 1
REMARK minimizedAffinity -3.13687515
REMARK minimizedRMSD -1
REMARK  0 active torsions:
REMARK  status: ('A' for Active; 'I' for Inactive)
ROOT
ATOM      1  C   UNL d   1       6.000   0.097   5.602  0.00  0.00     0.020 A 
ATOM      2  C1  UNL d   1       5.523  -0.842   4.688  0.00  0.00     0.020 A 
ATOM      3  C2  UNL d   1       5.039  -0.425   3.446  0.00  0.00     0.034 A 
ATOM      4  C3  UNL d   1       5.030   0.935   3.115  0.00  0.00     0.017 A 
ATOM      5  C4  UNL d   1       5.509   1.877   4.033  0.00  0.00     0.017 A 
ATOM      6  C5  UNL d   1       5.992   1.454   5.274  0.00  0.00     0.034 A 
ATOM      7 Cl   UNL d   1       5.530   3.572   3.695  0.00  0.00    -0.070 Cl
ATOM      8 Cl1  UNL d   1       4.417   1.379   1.561  0.00  0.00    -0.070 Cl
ENDROOT
TORSDOF 0
ENDMDL
