MODEL 1
REMARK minimizedAffinity 2.82868743
REMARK minimizedRMSD -1
REMARK  0 active torsions:
REMARK  status: ('A' for Active; 'I' for Inactive)
ROOT
ATOM      1  C   UNL d   1       5.955  -0.661   5.957  0.00  0.00     0.020 A 
ATOM      2  C1  UNL d   1       5.987  -1.593   4.920  0.00  0.00     0.020 A 
ATOM      3  C2  UNL d   1       6.000  -1.160   3.592  0.00  0.00     0.034 A 
ATOM      4  C3  UNL d   1       5.979   0.209   3.298  0.00  0.00     0.017 A 
ATOM      5  C4  UNL d   1       5.947   1.143   4.340  0.00  0.00     0.017 A 
ATOM      6  C5  UNL d   1       5.934   0.704   5.667  0.00  0.00     0.034 A 
ATOM      7 Cl   UNL d   1       5.920   2.848   4.055  0.00  0.00    -0.070 Cl
ATOM      8 Cl1  UNL d   1       5.996   0.673   1.634  0.00  0.00    -0.070 Cl
ENDROOT
TORSDOF 0
ENDMDL
