MODEL 1
REMARK minimizedAffinity 0.579462349
REMARK minimizedRMSD -1
REMARK  0 active torsions:
REMARK  status: ('A' for Active; 'I' for Inactive)
ROOT
ATOM      1  C   UNL d   1       6.000  -0.968   5.175  0.00  0.00     0.020 A 
ATOM      2  C1  UNL d   1       5.999   0.157   6.000  0.00  0.00     0.020 A 
ATOM      3  C2  UNL d   1       5.993   1.435   5.437  0.00  0.00     0.034 A 
ATOM      4  C3  UNL d   1       5.988   1.592   4.047  0.00  0.00     0.017 A 
ATOM      5  C4  UNL d   1       5.988   0.463   3.220  0.00  0.00     0.017 A 
ATOM      6  C5  UNL d   1       5.995  -0.815   3.788  0.00  0.00     0.034 A 
ATOM      7 Cl   UNL d   1       5.982   0.577   1.495  0.00  0.00    -0.070 Cl
ATOM      8 Cl1  UNL d   1       5.980   3.202   3.420  0.00  0.00    -0.070 Cl
ENDROOT
TORSDOF 0
ENDMDL
