MODEL 1
REMARK minimizedAffinity -3.50153041
REMARK minimizedRMSD -1
REMARK  0 active torsions:
REMARK  status: ('A' for Active; 'I' for Inactive)
ROOT
ATOM      1  C   UNL d   1       5.893   2.612   4.622  0.00  0.00     0.020 A 
ATOM      2  C1  UNL d   1       5.701   2.033   5.876  0.00  0.00     0.020 A 
ATOM      3  C2  UNL d   1       5.598   0.645   5.996  0.00  0.00     0.034 A 
ATOM      4  C3  UNL d   1       5.687  -0.168   4.860  0.00  0.00     0.017 A 
ATOM      5  C4  UNL d   1       5.880   0.414   3.602  0.00  0.00     0.017 A 
ATOM      6  C5  UNL d   1       5.982   1.804   3.488  0.00  0.00     0.034 A 
ATOM      7 Cl   UNL d   1       6.000  -0.523   2.155  0.00  0.00    -0.070 Cl
ATOM      8 Cl1  UNL d   1       5.552  -1.876   5.082  0.00  0.00    -0.070 Cl
ENDROOT
TORSDOF 0
ENDMDL
