MODEL 1
REMARK minimizedAffinity 4.0391674
REMARK minimizedRMSD -1
REMARK  0 active torsions:
REMARK  status: ('A' for Active; 'I' for Inactive)
ROOT
ATOM      1  C   UNL d   1       5.952   5.641   3.797  0.00  0.00     0.020 A 
ATOM      2  C1  UNL d   1       5.951   5.483   2.412  0.00  0.00     0.020 A 
ATOM      3  C2  UNL d   1       5.966   4.203   1.855  0.00  0.00     0.034 A 
ATOM      4  C3  UNL d   1       5.981   3.075   2.683  0.00  0.00     0.017 A 
ATOM      5  C4  UNL d   1       5.981   3.234   4.074  0.00  0.00     0.017 A 
ATOM      6  C5  UNL d   1       5.966   4.518   4.626  0.00  0.00     0.034 A 
ATOM      7 Cl   UNL d   1       5.999   1.890   5.160  0.00  0.00    -0.070 Cl
ATOM      8 Cl1  UNL d   1       5.999   1.522   1.926  0.00  0.00    -0.070 Cl
ENDROOT
TORSDOF 0
ENDMDL
