MODEL 1
REMARK minimizedAffinity 0.396195501
REMARK minimizedRMSD -1
REMARK  0 active torsions:
REMARK  status: ('A' for Active; 'I' for Inactive)
ROOT
ATOM      1  C   UNL d   1       5.986   2.501   5.896  0.00  0.00     0.020 A 
ATOM      2  C1  UNL d   1       5.993   3.133   4.653  0.00  0.00     0.020 A 
ATOM      3  C2  UNL d   1       5.997   2.371   3.483  0.00  0.00     0.034 A 
ATOM      4  C3  UNL d   1       5.994   0.973   3.552  0.00  0.00     0.017 A 
ATOM      5  C4  UNL d   1       5.987   0.340   4.801  0.00  0.00     0.017 A 
ATOM      6  C5  UNL d   1       5.983   1.107   5.969  0.00  0.00     0.034 A 
ATOM      7 Cl   UNL d   1       5.983  -1.381   4.967  0.00  0.00    -0.070 Cl
ATOM      8 Cl1  UNL d   1       5.999   0.094   2.065  0.00  0.00    -0.070 Cl
ENDROOT
TORSDOF 0
ENDMDL
