MODEL 1
REMARK minimizedAffinity -1.02785897
REMARK minimizedRMSD -1
REMARK  0 active torsions:
REMARK  status: ('A' for Active; 'I' for Inactive)
ROOT
ATOM      1  C   UNL d   1       5.991  -0.107   5.996  0.00  0.00     0.020 A 
ATOM      2  C1  UNL d   1       5.991  -0.947   4.883  0.00  0.00     0.020 A 
ATOM      3  C2  UNL d   1       5.993  -0.403   3.597  0.00  0.00     0.034 A 
ATOM      4  C3  UNL d   1       5.996   0.985   3.420  0.00  0.00     0.017 A 
ATOM      5  C4  UNL d   1       5.996   1.828   4.537  0.00  0.00     0.017 A 
ATOM      6  C5  UNL d   1       5.994   1.278   5.823  0.00  0.00     0.034 A 
ATOM      7 Cl   UNL d   1       5.999   3.551   4.399  0.00  0.00    -0.070 Cl
ATOM      8 Cl1  UNL d   1       5.999   1.589   1.801  0.00  0.00    -0.070 Cl
ENDROOT
TORSDOF 0
ENDMDL
