MODEL 1
REMARK minimizedAffinity -3.71858931
REMARK minimizedRMSD -1
REMARK  0 active torsions:
REMARK  status: ('A' for Active; 'I' for Inactive)
ROOT
ATOM      1  C   UNL d   1       0.335   1.923   0.370  0.00  0.00     0.077 C 
ATOM      2  C1  UNL d   1       0.016   0.459   0.435  0.00  0.00    -0.074 A 
ATOM      3  C2  UNL d   1      -0.361  -0.142   1.640  0.00  0.00    -0.005 A 
ATOM      4  C3  UNL d   1      -0.664  -1.503   1.682  0.00  0.00     0.006 A 
ATOM      5  C4  UNL d   1      -0.594  -2.275   0.522  0.00  0.00    -0.005 A 
ATOM      6  C5  UNL d   1      -0.220  -1.691  -0.692  0.00  0.00    -0.074 A 
ATOM      7  C6  UNL d   1      -0.149  -2.504  -1.951  0.00  0.00     0.077 C 
ATOM      8  C7  UNL d   1       0.076  -0.321  -0.728  0.00  0.00    -0.001 A 
ENDROOT
TORSDOF 0
ENDMDL
