MODEL 1
REMARK minimizedAffinity -2.00943208
REMARK minimizedRMSD -1
REMARK  0 active torsions:
REMARK  status: ('A' for Active; 'I' for Inactive)
ROOT
ATOM      1  C   UNL d   1       0.274   1.869   0.079  0.00  0.00     0.077 C 
ATOM      2  C1  UNL d   1      -0.120   0.426   0.193  0.00  0.00    -0.074 A 
ATOM      3  C2  UNL d   1      -0.535  -0.111   1.416  0.00  0.00    -0.005 A 
ATOM      4  C3  UNL d   1      -0.907  -1.452   1.506  0.00  0.00     0.006 A 
ATOM      5  C4  UNL d   1      -0.869  -2.269   0.375  0.00  0.00    -0.005 A 
ATOM      6  C5  UNL d   1      -0.458  -1.749  -0.857  0.00  0.00    -0.074 A 
ATOM      7  C6  UNL d   1      -0.421  -2.610  -2.084  0.00  0.00     0.077 C 
ATOM      8  C7  UNL d   1      -0.092  -0.399  -0.940  0.00  0.00    -0.001 A 
ENDROOT
TORSDOF 0
ENDMDL
