MODEL 1
REMARK minimizedAffinity -1.93615544
REMARK minimizedRMSD -1
REMARK  0 active torsions:
REMARK  status: ('A' for Active; 'I' for Inactive)
ROOT
ATOM      1  C   UNL d   1       1.892   3.308   0.408  0.00  0.00     0.077 C 
ATOM      2  C1  UNL d   1       0.957   2.186   0.065  0.00  0.00    -0.074 A 
ATOM      3  C2  UNL d   1       0.292   2.155  -1.165  0.00  0.00    -0.005 A 
ATOM      4  C3  UNL d   1      -0.567   1.101  -1.473  0.00  0.00     0.006 A 
ATOM      5  C4  UNL d   1      -0.771   0.069  -0.556  0.00  0.00    -0.005 A 
ATOM      6  C5  UNL d   1      -0.115   0.083   0.679  0.00  0.00    -0.074 A 
ATOM      7  C6  UNL d   1      -0.315  -1.023   1.672  0.00  0.00     0.077 C 
ATOM      8  C7  UNL d   1       0.753   1.142   0.978  0.00  0.00    -0.001 A 
ENDROOT
TORSDOF 0
ENDMDL
