MODEL 1
REMARK minimizedAffinity -3.19361305
REMARK minimizedRMSD -1
REMARK  0 active torsions:
REMARK  status: ('A' for Active; 'I' for Inactive)
ROOT
ATOM      1  C   UNL d   1       0.442   1.516   0.150  0.00  0.00     0.077 C 
ATOM      2  C1  UNL d   1       0.020   0.078   0.100  0.00  0.00    -0.074 A 
ATOM      3  C2  UNL d   1      -0.295  -0.620   1.271  0.00  0.00    -0.005 A 
ATOM      4  C3  UNL d   1      -0.695  -1.954   1.207  0.00  0.00     0.006 A 
ATOM      5  C4  UNL d   1      -0.785  -2.603  -0.025  0.00  0.00    -0.005 A 
ATOM      6  C5  UNL d   1      -0.475  -1.922  -1.206  0.00  0.00    -0.074 A 
ATOM      7  C6  UNL d   1      -0.575  -2.601  -2.539  0.00  0.00     0.077 C 
ATOM      8  C7  UNL d   1      -0.080  -0.579  -1.134  0.00  0.00    -0.001 A 
ENDROOT
TORSDOF 0
ENDMDL
