MODEL 1
REMARK minimizedAffinity -2.35720944
REMARK minimizedRMSD -1
REMARK  0 active torsions:
REMARK  status: ('A' for Active; 'I' for Inactive)
ROOT
ATOM      1  C   UNL d   1      -1.156   1.961  -1.640  0.00  0.00     0.077 C 
ATOM      2  C1  UNL d   1      -0.574   1.203  -0.484  0.00  0.00    -0.074 A 
ATOM      3  C2  UNL d   1       0.463   1.746   0.282  0.00  0.00    -0.005 A 
ATOM      4  C3  UNL d   1       0.987   1.033   1.361  0.00  0.00     0.006 A 
ATOM      5  C4  UNL d   1       0.482  -0.227   1.683  0.00  0.00    -0.005 A 
ATOM      6  C5  UNL d   1      -0.555  -0.785   0.928  0.00  0.00    -0.074 A 
ATOM      7  C6  UNL d   1      -1.116  -2.134   1.267  0.00  0.00     0.077 C 
ATOM      8  C7  UNL d   1      -1.081  -0.060  -0.149  0.00  0.00    -0.001 A 
ENDROOT
TORSDOF 0
ENDMDL
