MODEL 1
REMARK minimizedAffinity -4.67617607
REMARK minimizedRMSD -1
REMARK  0 active torsions:
REMARK  status: ('A' for Active; 'I' for Inactive)
ROOT
ATOM      1  C   UNL d   1       0.009  -4.562  -0.688  0.00  0.00     0.077 C 
ATOM      2  C1  UNL d   1       0.261  -3.094  -0.513  0.00  0.00    -0.074 A 
ATOM      3  C2  UNL d   1       0.777  -2.591   0.686  0.00  0.00    -0.005 A 
ATOM      4  C3  UNL d   1       1.016  -1.224   0.830  0.00  0.00     0.006 A 
ATOM      5  C4  UNL d   1       0.742  -0.348  -0.221  0.00  0.00    -0.005 A 
ATOM      6  C5  UNL d   1       0.227  -0.833  -1.427  0.00  0.00    -0.074 A 
ATOM      7  C6  UNL d   1      -0.064   0.094  -2.570  0.00  0.00     0.077 C 
ATOM      8  C7  UNL d   1      -0.004  -2.208  -1.567  0.00  0.00    -0.001 A 
ENDROOT
TORSDOF 0
ENDMDL
