MODEL 1
REMARK minimizedAffinity 4.91175222
REMARK minimizedRMSD -1
REMARK  0 active torsions:
REMARK  status: ('A' for Active; 'I' for Inactive)
ROOT
ATOM      1  C   UNL d   1      -1.605  -2.737   0.650  0.00  0.00     0.077 C 
ATOM      2  C1  UNL d   1      -1.542  -1.282   1.006  0.00  0.00    -0.074 A 
ATOM      3  C2  UNL d   1      -0.588  -0.440   0.424  0.00  0.00    -0.005 A 
ATOM      4  C3  UNL d   1      -0.548   0.914   0.758  0.00  0.00     0.006 A 
ATOM      5  C4  UNL d   1      -1.459   1.439   1.676  0.00  0.00    -0.005 A 
ATOM      6  C5  UNL d   1      -2.419   0.612   2.268  0.00  0.00    -0.074 A 
ATOM      7  C6  UNL d   1      -3.412   1.162   3.249  0.00  0.00     0.077 C 
ATOM      8  C7  UNL d   1      -2.458  -0.745   1.922  0.00  0.00    -0.001 A 
ENDROOT
TORSDOF 0
ENDMDL
