MODEL 1
REMARK minimizedAffinity 2.24927545
REMARK minimizedRMSD -1
REMARK  0 active torsions:
REMARK  status: ('A' for Active; 'I' for Inactive)
ROOT
ATOM      1  C   UNL d   1      -3.769  -4.253  -2.032  0.00  0.00     0.077 C 
ATOM      2  C1  UNL d   1      -2.612  -4.529  -1.119  0.00  0.00    -0.074 A 
ATOM      3  C2  UNL d   1      -1.828  -5.677  -1.278  0.00  0.00    -0.005 A 
ATOM      4  C3  UNL d   1      -0.749  -5.915  -0.426  0.00  0.00     0.006 A 
ATOM      5  C4  UNL d   1      -0.444  -5.011   0.591  0.00  0.00    -0.005 A 
ATOM      6  C5  UNL d   1      -1.216  -3.858   0.765  0.00  0.00    -0.074 A 
ATOM      7  C6  UNL d   1      -0.895  -2.870   1.847  0.00  0.00     0.077 C 
ATOM      8  C7  UNL d   1      -2.294  -3.621  -0.099  0.00  0.00    -0.001 A 
ENDROOT
TORSDOF 0
ENDMDL
