MODEL 1
REMARK minimizedAffinity 0.544051588
REMARK minimizedRMSD -1
REMARK  0 active torsions:
REMARK  status: ('A' for Active; 'I' for Inactive)
ROOT
ATOM      1  C   UNL d   1      -1.479  -0.952   1.612  0.00  0.00     0.077 C 
ATOM      2  C1  UNL d   1      -0.880  -0.863   0.240  0.00  0.00    -0.074 A 
ATOM      3  C2  UNL d   1      -0.133   0.254  -0.147  0.00  0.00    -0.005 A 
ATOM      4  C3  UNL d   1       0.426   0.319  -1.424  0.00  0.00     0.006 A 
ATOM      5  C4  UNL d   1       0.242  -0.731  -2.325  0.00  0.00    -0.005 A 
ATOM      6  C5  UNL d   1      -0.502  -1.856  -1.955  0.00  0.00    -0.074 A 
ATOM      7  C6  UNL d   1      -0.700  -2.997  -2.908  0.00  0.00     0.077 C 
ATOM      8  C7  UNL d   1      -1.054  -1.917  -0.668  0.00  0.00    -0.001 A 
ENDROOT
TORSDOF 0
ENDMDL
