MODEL 1
REMARK minimizedAffinity -1.4660238
REMARK minimizedRMSD -1
REMARK  0 active torsions:
REMARK  status: ('A' for Active; 'I' for Inactive)
ROOT
ATOM      1  C   UNL d   1      -1.611  -1.067   0.938  0.00  0.00     0.077 C 
ATOM      2  C1  UNL d   1      -0.590  -0.200   0.262  0.00  0.00    -0.074 A 
ATOM      3  C2  UNL d   1       0.111   0.776   0.978  0.00  0.00    -0.005 A 
ATOM      4  C3  UNL d   1       1.064   1.569   0.339  0.00  0.00     0.006 A 
ATOM      5  C4  UNL d   1       1.324   1.394  -1.021  0.00  0.00    -0.005 A 
ATOM      6  C5  UNL d   1       0.633   0.424  -1.753  0.00  0.00    -0.074 A 
ATOM      7  C6  UNL d   1       0.908   0.217  -3.213  0.00  0.00     0.077 C 
ATOM      8  C7  UNL d   1      -0.317  -0.374  -1.102  0.00  0.00    -0.001 A 
ENDROOT
TORSDOF 0
ENDMDL
