MODEL 1
REMARK minimizedAffinity -2.09531045
REMARK minimizedRMSD -1
REMARK  0 active torsions:
REMARK  status: ('A' for Active; 'I' for Inactive)
ROOT
ATOM      1  C   UNL d   1      -0.370  -2.477  -2.307  0.00  0.00     0.077 C 
ATOM      2  C1  UNL d   1      -0.371  -1.737  -1.003  0.00  0.00    -0.074 A 
ATOM      3  C2  UNL d   1      -0.825  -2.349   0.170  0.00  0.00    -0.005 A 
ATOM      4  C3  UNL d   1      -0.811  -1.652   1.378  0.00  0.00     0.006 A 
ATOM      5  C4  UNL d   1      -0.344  -0.337   1.425  0.00  0.00    -0.005 A 
ATOM      6  C5  UNL d   1       0.114   0.291   0.262  0.00  0.00    -0.074 A 
ATOM      7  C6  UNL d   1       0.628   1.699   0.297  0.00  0.00     0.077 C 
ATOM      8  C7  UNL d   1       0.103  -0.419  -0.946  0.00  0.00    -0.001 A 
ENDROOT
TORSDOF 0
ENDMDL
