MODEL 1
REMARK minimizedAffinity -2.69735599
REMARK minimizedRMSD -1
REMARK  0 active torsions:
REMARK  status: ('A' for Active; 'I' for Inactive)
ROOT
ATOM      1  C   UNL d   1       2.159   3.526   0.321  0.00  0.00     0.077 C 
ATOM      2  C1  UNL d   1       1.289   2.304   0.357  0.00  0.00    -0.074 A 
ATOM      3  C2  UNL d   1       0.274   2.116  -0.586  0.00  0.00    -0.005 A 
ATOM      4  C3  UNL d   1      -0.521   0.970  -0.545  0.00  0.00     0.006 A 
ATOM      5  C4  UNL d   1      -0.308   0.002   0.437  0.00  0.00    -0.005 A 
ATOM      6  C5  UNL d   1       0.704   0.172   1.388  0.00  0.00    -0.074 A 
ATOM      7  C6  UNL d   1       0.952  -0.863   2.445  0.00  0.00     0.077 C 
ATOM      8  C7  UNL d   1       1.502   1.323   1.336  0.00  0.00    -0.001 A 
ENDROOT
TORSDOF 0
ENDMDL
