MODEL 1
REMARK minimizedAffinity -2.84093356
REMARK minimizedRMSD -1
REMARK  0 active torsions:
REMARK  status: ('A' for Active; 'I' for Inactive)
ROOT
ATOM      1  C   UNL d   1      -0.517  -2.431  -2.573  0.00  0.00     0.077 C 
ATOM      2  C1  UNL d   1      -0.495  -1.714  -1.255  0.00  0.00    -0.074 A 
ATOM      3  C2  UNL d   1      -0.906  -2.355  -0.082  0.00  0.00    -0.005 A 
ATOM      4  C3  UNL d   1      -0.871  -1.679   1.138  0.00  0.00     0.006 A 
ATOM      5  C4  UNL d   1      -0.424  -0.358   1.196  0.00  0.00    -0.005 A 
ATOM      6  C5  UNL d   1      -0.008   0.298   0.034  0.00  0.00    -0.074 A 
ATOM      7  C6  UNL d   1       0.484   1.714   0.081  0.00  0.00     0.077 C 
ATOM      8  C7  UNL d   1      -0.040  -0.390  -1.187  0.00  0.00    -0.001 A 
ENDROOT
TORSDOF 0
ENDMDL
