MODEL 1
REMARK minimizedAffinity -4.45258904
REMARK minimizedRMSD -1
REMARK  0 active torsions:
REMARK  status: ('A' for Active; 'I' for Inactive)
ROOT
ATOM      1  C   UNL d   1       0.609   1.906  -0.211  0.00  0.00     0.077 C 
ATOM      2  C1  UNL d   1       0.140   0.483  -0.148  0.00  0.00    -0.074 A 
ATOM      3  C2  UNL d   1      -0.307  -0.074   1.054  0.00  0.00    -0.005 A 
ATOM      4  C3  UNL d   1      -0.749  -1.396   1.096  0.00  0.00     0.006 A 
ATOM      5  C4  UNL d   1      -0.749  -2.173  -0.063  0.00  0.00    -0.005 A 
ATOM      6  C5  UNL d   1      -0.306  -1.634  -1.274  0.00  0.00    -0.074 A 
ATOM      7  C6  UNL d   1      -0.308  -2.453  -2.531  0.00  0.00     0.077 C 
ATOM      8  C7  UNL d   1       0.130  -0.302  -1.309  0.00  0.00    -0.001 A 
ENDROOT
TORSDOF 0
ENDMDL
