MODEL 1
REMARK minimizedAffinity -3.19598532
REMARK minimizedRMSD -1
REMARK  0 active torsions:
REMARK  status: ('A' for Active; 'I' for Inactive)
ROOT
ATOM      1  C   UNL d   1      -0.723  -1.010   1.104  0.00  0.00     0.077 C 
ATOM      2  C1  UNL d   1      -0.096   0.144   0.380  0.00  0.00    -0.074 A 
ATOM      3  C2  UNL d   1      -0.375   0.384  -0.969  0.00  0.00    -0.005 A 
ATOM      4  C3  UNL d   1       0.209   1.467  -1.627  0.00  0.00     0.006 A 
ATOM      5  C4  UNL d   1       1.076   2.320  -0.943  0.00  0.00    -0.005 A 
ATOM      6  C5  UNL d   1       1.367   2.096   0.407  0.00  0.00    -0.074 A 
ATOM      7  C6  UNL d   1       2.289   3.008   1.160  0.00  0.00     0.077 C 
ATOM      8  C7  UNL d   1       0.771   1.010   1.062  0.00  0.00    -0.001 A 
ENDROOT
TORSDOF 0
ENDMDL
