MODEL 1
REMARK minimizedAffinity -3.4855051
REMARK minimizedRMSD -1
REMARK  0 active torsions:
REMARK  status: ('A' for Active; 'I' for Inactive)
ROOT
ATOM      1  C   UNL d   1       0.564   1.430   0.177  0.00  0.00     0.077 C 
ATOM      2  C1  UNL d   1       0.028   0.036   0.043  0.00  0.00    -0.074 A 
ATOM      3  C2  UNL d   1      -0.531  -0.627   1.141  0.00  0.00    -0.005 A 
ATOM      4  C3  UNL d   1      -1.034  -1.921   0.999  0.00  0.00     0.006 A 
ATOM      5  C4  UNL d   1      -0.984  -2.563  -0.239  0.00  0.00    -0.005 A 
ATOM      6  C5  UNL d   1      -0.429  -1.915  -1.347  0.00  0.00    -0.074 A 
ATOM      7  C6  UNL d   1      -0.375  -2.587  -2.687  0.00  0.00     0.077 C 
ATOM      8  C7  UNL d   1       0.068  -0.613  -1.199  0.00  0.00    -0.001 A 
ENDROOT
TORSDOF 0
ENDMDL
