MODEL 1
REMARK minimizedAffinity -3.40131116
REMARK minimizedRMSD -1
REMARK  0 active torsions:
REMARK  status: ('A' for Active; 'I' for Inactive)
ROOT
ATOM      1  C   UNL d   1       0.242   1.985  -0.049  0.00  0.00     0.077 C 
ATOM      2  C1  UNL d   1      -0.073   0.519  -0.074  0.00  0.00    -0.074 A 
ATOM      3  C2  UNL d   1      -0.553  -0.133   1.067  0.00  0.00    -0.005 A 
ATOM      4  C3  UNL d   1      -0.851  -1.495   1.026  0.00  0.00     0.006 A 
ATOM      5  C4  UNL d   1      -0.672  -2.218  -0.154  0.00  0.00    -0.005 A 
ATOM      6  C5  UNL d   1      -0.194  -1.583  -1.305  0.00  0.00    -0.074 A 
ATOM      7  C6  UNL d   1      -0.005  -2.344  -2.584  0.00  0.00     0.077 C 
ATOM      8  C7  UNL d   1       0.097  -0.213  -1.258  0.00  0.00    -0.001 A 
ENDROOT
TORSDOF 0
ENDMDL
