MODEL 1
REMARK minimizedAffinity -3.39528561
REMARK minimizedRMSD -1
REMARK  0 active torsions:
REMARK  status: ('A' for Active; 'I' for Inactive)
ROOT
ATOM      1  C   UNL d   1      -0.971   0.039   0.584  0.00  0.00     0.078 C 
ATOM      2  C1  UNL d   1      -1.637   0.522   1.838  0.00  0.00    -0.077 A 
ATOM      3  C2  UNL d   1      -1.880  -0.349   2.907  0.00  0.00    -0.001 A 
ATOM      4  C3  UNL d   1      -2.509   0.112   4.065  0.00  0.00     0.003 A 
ATOM      5  C4  UNL d   1      -2.902   1.445   4.164  0.00  0.00    -0.005 A 
ATOM      6  C5  UNL d   1      -2.666   2.319   3.104  0.00  0.00     0.003 A 
ATOM      7  C6  UNL d   1      -2.037   1.860   1.946  0.00  0.00    -0.001 A 
ENDROOT
TORSDOF 0
ENDMDL
