MODEL 1
REMARK minimizedAffinity 0.866851687
REMARK minimizedRMSD -1
REMARK  0 active torsions:
REMARK  status: ('A' for Active; 'I' for Inactive)
ROOT
ATOM      1  C   UNL d   1       1.252  -1.259  -4.158  0.00  0.00     0.078 C 
ATOM      2  C1  UNL d   1       0.823  -0.849  -2.780  0.00  0.00    -0.077 A 
ATOM      3  C2  UNL d   1       0.838   0.496  -2.391  0.00  0.00    -0.001 A 
ATOM      4  C3  UNL d   1       0.445   0.862  -1.103  0.00  0.00     0.003 A 
ATOM      5  C4  UNL d   1       0.036  -0.110  -0.193  0.00  0.00    -0.005 A 
ATOM      6  C5  UNL d   1       0.019  -1.451  -0.571  0.00  0.00     0.003 A 
ATOM      7  C6  UNL d   1       0.412  -1.820  -1.858  0.00  0.00    -0.001 A 
ENDROOT
TORSDOF 0
ENDMDL
