MODEL 1
REMARK minimizedAffinity 2.91254473
REMARK minimizedRMSD -1
REMARK  0 active torsions:
REMARK  status: ('A' for Active; 'I' for Inactive)
ROOT
ATOM      1  C   UNL d   1       0.831   2.218  -4.765  0.00  0.00     0.078 C 
ATOM      2  C1  UNL d   1       0.776   1.134  -3.730  0.00  0.00    -0.077 A 
ATOM      3  C2  UNL d   1       1.034  -0.200  -4.067  0.00  0.00    -0.001 A 
ATOM      4  C3  UNL d   1       0.969  -1.199  -3.095  0.00  0.00     0.003 A 
ATOM      5  C4  UNL d   1       0.645  -0.875  -1.779  0.00  0.00    -0.005 A 
ATOM      6  C5  UNL d   1       0.384   0.449  -1.434  0.00  0.00     0.003 A 
ATOM      7  C6  UNL d   1       0.449   1.450  -2.405  0.00  0.00    -0.001 A 
ENDROOT
TORSDOF 0
ENDMDL
