MODEL 1
REMARK minimizedAffinity -4.96036291
REMARK minimizedRMSD -1
REMARK  0 active torsions:
REMARK  status: ('A' for Active; 'I' for Inactive)
ROOT
ATOM      1  C   UNL d   1      -3.128   1.500   4.500  0.00  0.00     0.078 C 
ATOM      2  C1  UNL d   1      -3.361   2.977   4.616  0.00  0.00    -0.077 A 
ATOM      3  C2  UNL d   1      -3.536   3.771   3.476  0.00  0.00    -0.001 A 
ATOM      4  C3  UNL d   1      -3.742   5.146   3.599  0.00  0.00     0.003 A 
ATOM      5  C4  UNL d   1      -3.773   5.739   4.860  0.00  0.00    -0.005 A 
ATOM      6  C5  UNL d   1      -3.597   4.957   5.999  0.00  0.00     0.003 A 
ATOM      7  C6  UNL d   1      -3.391   3.582   5.879  0.00  0.00    -0.001 A 
ENDROOT
TORSDOF 0
ENDMDL
