MODEL 1
REMARK minimizedAffinity 8.82305717
REMARK minimizedRMSD -1
REMARK  0 active torsions:
REMARK  status: ('A' for Active; 'I' for Inactive)
ROOT
ATOM      1  C   UNL d   1       0.969  -2.843  -2.980  0.00  0.00     0.078 C 
ATOM      2  C1  UNL d   1       0.852  -1.377  -2.685  0.00  0.00    -0.077 A 
ATOM      3  C2  UNL d   1       0.323  -0.927  -1.469  0.00  0.00    -0.001 A 
ATOM      4  C3  UNL d   1       0.211   0.440  -1.212  0.00  0.00     0.003 A 
ATOM      5  C4  UNL d   1       0.625   1.368  -2.165  0.00  0.00    -0.005 A 
ATOM      6  C5  UNL d   1       1.151   0.929  -3.379  0.00  0.00     0.003 A 
ATOM      7  C6  UNL d   1       1.263  -0.437  -3.638  0.00  0.00    -0.001 A 
ENDROOT
TORSDOF 0
ENDMDL
