MODEL 1
REMARK minimizedAffinity -0.160655662
REMARK minimizedRMSD -1
REMARK  0 active torsions:
REMARK  status: ('A' for Active; 'I' for Inactive)
ROOT
ATOM      1  C   UNL d   1      -3.755   1.702   5.287  0.00  0.00     0.078 C 
ATOM      2  C1  UNL d   1      -3.652   3.198   5.273  0.00  0.00    -0.077 A 
ATOM      3  C2  UNL d   1      -2.638   3.844   4.555  0.00  0.00    -0.001 A 
ATOM      4  C3  UNL d   1      -2.548   5.237   4.559  0.00  0.00     0.003 A 
ATOM      5  C4  UNL d   1      -3.469   5.995   5.280  0.00  0.00    -0.005 A 
ATOM      6  C5  UNL d   1      -4.480   5.361   5.999  0.00  0.00     0.003 A 
ATOM      7  C6  UNL d   1      -4.571   3.968   5.996  0.00  0.00    -0.001 A 
ENDROOT
TORSDOF 0
ENDMDL
