MODEL 1
REMARK minimizedAffinity 1.97653544
REMARK minimizedRMSD -1
REMARK  0 active torsions:
REMARK  status: ('A' for Active; 'I' for Inactive)
ROOT
ATOM      1  C   UNL d   1       3.414   1.810   1.741  0.00  0.00     0.078 C 
ATOM      2  C1  UNL d   1       4.261   1.025   2.698  0.00  0.00    -0.077 A 
ATOM      3  C2  UNL d   1       4.113  -0.361   2.822  0.00  0.00    -0.001 A 
ATOM      4  C3  UNL d   1       4.901  -1.077   3.724  0.00  0.00     0.003 A 
ATOM      5  C4  UNL d   1       5.842  -0.415   4.510  0.00  0.00    -0.005 A 
ATOM      6  C5  UNL d   1       5.995   0.965   4.395  0.00  0.00     0.003 A 
ATOM      7  C6  UNL d   1       5.208   1.683   3.493  0.00  0.00    -0.001 A 
ENDROOT
TORSDOF 0
ENDMDL
