MODEL 1
REMARK minimizedAffinity 5.21729231
REMARK minimizedRMSD -1
REMARK  0 active torsions:
REMARK  status: ('A' for Active; 'I' for Inactive)
ROOT
ATOM      1  C   UNL d   1       1.333  -1.621  -4.296  0.00  0.00     0.078 C 
ATOM      2  C1  UNL d   1       0.877  -0.919  -3.052  0.00  0.00    -0.077 A 
ATOM      3  C2  UNL d   1       0.559   0.444  -3.069  0.00  0.00    -0.001 A 
ATOM      4  C3  UNL d   1       0.145   1.087  -1.901  0.00  0.00     0.003 A 
ATOM      5  C4  UNL d   1       0.047   0.375  -0.708  0.00  0.00    -0.005 A 
ATOM      6  C5  UNL d   1       0.363  -0.982  -0.680  0.00  0.00     0.003 A 
ATOM      7  C6  UNL d   1       0.777  -1.626  -1.847  0.00  0.00    -0.001 A 
ENDROOT
TORSDOF 0
ENDMDL
