MODEL 1
REMARK minimizedAffinity -0.13253589
REMARK minimizedRMSD -1
REMARK  0 active torsions:
REMARK  status: ('A' for Active; 'I' for Inactive)
ROOT
ATOM      1  C   UNL d   1       5.114   4.460  -4.784  0.00  0.00     0.078 C 
ATOM      2  C1  UNL d   1       5.139   2.966  -4.913  0.00  0.00    -0.077 A 
ATOM      3  C2  UNL d   1       5.974   2.186  -4.104  0.00  0.00    -0.001 A 
ATOM      4  C3  UNL d   1       5.994   0.798  -4.242  0.00  0.00     0.003 A 
ATOM      5  C4  UNL d   1       5.182   0.176  -5.188  0.00  0.00    -0.005 A 
ATOM      6  C5  UNL d   1       4.348   0.944  -5.999  0.00  0.00     0.003 A 
ATOM      7  C6  UNL d   1       4.327   2.333  -5.862  0.00  0.00    -0.001 A 
ENDROOT
TORSDOF 0
ENDMDL
