MODEL 1
REMARK minimizedAffinity 2.28084254
REMARK minimizedRMSD -1
REMARK  0 active torsions:
REMARK  status: ('A' for Active; 'I' for Inactive)
ROOT
ATOM      1  C   UNL d   1      -5.999  -0.709   2.739  0.00  0.00     0.078 C 
ATOM      2  C1  UNL d   1      -4.759  -0.636   3.578  0.00  0.00    -0.077 A 
ATOM      3  C2  UNL d   1      -3.747  -1.596   3.454  0.00  0.00    -0.001 A 
ATOM      4  C3  UNL d   1      -2.601  -1.521   4.248  0.00  0.00     0.003 A 
ATOM      5  C4  UNL d   1      -2.458  -0.489   5.174  0.00  0.00    -0.005 A 
ATOM      6  C5  UNL d   1      -3.461   0.470   5.306  0.00  0.00     0.003 A 
ATOM      7  C6  UNL d   1      -4.607   0.396   4.512  0.00  0.00    -0.001 A 
ENDROOT
TORSDOF 0
ENDMDL
