MODEL 1
REMARK minimizedAffinity 6.37977505
REMARK minimizedRMSD -1
REMARK  0 active torsions:
REMARK  status: ('A' for Active; 'I' for Inactive)
ROOT
ATOM      1  C   UNL d   1       3.989   5.559  -3.160  0.00  0.00     0.078 C 
ATOM      2  C1  UNL d   1       4.380   4.470  -4.113  0.00  0.00    -0.077 A 
ATOM      3  C2  UNL d   1       5.644   3.871  -4.044  0.00  0.00    -0.001 A 
ATOM      4  C3  UNL d   1       5.999   2.865  -4.943  0.00  0.00     0.003 A 
ATOM      5  C4  UNL d   1       5.096   2.449  -5.920  0.00  0.00    -0.005 A 
ATOM      6  C5  UNL d   1       3.837   3.041  -5.999  0.00  0.00     0.003 A 
ATOM      7  C6  UNL d   1       3.481   4.047  -5.100  0.00  0.00    -0.001 A 
ENDROOT
TORSDOF 0
ENDMDL
