MODEL 1
REMARK minimizedAffinity 9.78820992
REMARK minimizedRMSD -1
REMARK  0 active torsions:
REMARK  status: ('A' for Active; 'I' for Inactive)
ROOT
ATOM      1  C   UNL d   1      -1.377  -2.361   0.594  0.00  0.00     0.078 C 
ATOM      2  C1  UNL d   1      -0.535  -1.642  -0.416  0.00  0.00    -0.077 A 
ATOM      3  C2  UNL d   1      -0.567  -0.246  -0.520  0.00  0.00    -0.001 A 
ATOM      4  C3  UNL d   1       0.216   0.409  -1.472  0.00  0.00     0.003 A 
ATOM      5  C4  UNL d   1       1.035  -0.323  -2.329  0.00  0.00    -0.005 A 
ATOM      6  C5  UNL d   1       1.072  -1.713  -2.235  0.00  0.00     0.003 A 
ATOM      7  C6  UNL d   1       0.290  -2.370  -1.283  0.00  0.00    -0.001 A 
ENDROOT
TORSDOF 0
ENDMDL
