MODEL 1
REMARK minimizedAffinity 4.78245306
REMARK minimizedRMSD -1
REMARK  0 active torsions:
REMARK  status: ('A' for Active; 'I' for Inactive)
ROOT
ATOM      1  C   UNL d   1       2.063   4.030  -5.927  0.00  0.00     0.078 C 
ATOM      2  C1  UNL d   1       3.427   3.673  -5.419  0.00  0.00    -0.077 A 
ATOM      3  C2  UNL d   1       4.019   4.393  -4.374  0.00  0.00    -0.001 A 
ATOM      4  C3  UNL d   1       5.294   4.055  -3.917  0.00  0.00     0.003 A 
ATOM      5  C4  UNL d   1       5.989   2.996  -4.500  0.00  0.00    -0.005 A 
ATOM      6  C5  UNL d   1       5.408   2.275  -5.542  0.00  0.00     0.003 A 
ATOM      7  C6  UNL d   1       4.134   2.612  -6.000  0.00  0.00    -0.001 A 
ENDROOT
TORSDOF 0
ENDMDL
