MODEL 1
REMARK minimizedAffinity 2.40588498
REMARK minimizedRMSD -1
REMARK  0 active torsions:
REMARK  status: ('A' for Active; 'I' for Inactive)
ROOT
ATOM      1  C   UNL d   1      -2.240   5.905   2.354  0.00  0.00     0.078 C 
ATOM      2  C1  UNL d   1      -3.108   5.931   3.577  0.00  0.00    -0.077 A 
ATOM      3  C2  UNL d   1      -4.504   5.940   3.470  0.00  0.00    -0.001 A 
ATOM      4  C3  UNL d   1      -5.300   5.974   4.617  0.00  0.00     0.003 A 
ATOM      5  C4  UNL d   1      -4.708   6.000   5.878  0.00  0.00    -0.005 A 
ATOM      6  C5  UNL d   1      -3.320   5.993   5.994  0.00  0.00     0.003 A 
ATOM      7  C6  UNL d   1      -2.523   5.959   4.849  0.00  0.00    -0.001 A 
ENDROOT
TORSDOF 0
ENDMDL
