MODEL 1
REMARK minimizedAffinity -2.28120685
REMARK minimizedRMSD -1
REMARK  0 active torsions:
REMARK  status: ('A' for Active; 'I' for Inactive)
ROOT
ATOM      1  C   UNL d   1       0.891  -1.642  -0.108  0.00  0.00     0.078 C 
ATOM      2  C1  UNL d   1       1.104  -0.202  -0.464  0.00  0.00    -0.077 A 
ATOM      3  C2  UNL d   1       2.138   0.541   0.120  0.00  0.00    -0.001 A 
ATOM      4  C3  UNL d   1       2.319   1.884  -0.214  0.00  0.00     0.003 A 
ATOM      5  C4  UNL d   1       1.469   2.496  -1.133  0.00  0.00    -0.005 A 
ATOM      6  C5  UNL d   1       0.437   1.767  -1.719  0.00  0.00     0.003 A 
ATOM      7  C6  UNL d   1       0.254   0.423  -1.386  0.00  0.00    -0.001 A 
ENDROOT
TORSDOF 0
ENDMDL
