MODEL 1
REMARK minimizedAffinity -2.38337827
REMARK minimizedRMSD -1
REMARK  0 active torsions:
REMARK  status: ('A' for Active; 'I' for Inactive)
ROOT
ATOM      1  C   UNL d   1       0.595  -0.967   1.125  0.00  0.00     0.124 A 
ATOM      2  C1  UNL d   1       1.003  -0.924  -0.201  0.00  0.00     0.062 A 
ATOM      3  C2  UNL d   1       0.271  -0.198  -1.136  0.00  0.00     0.162 A 
ATOM      4  C3  UNL d   1      -0.878   0.492  -0.748  0.00  0.00    -0.034 A 
ATOM      5  C4  UNL d   1      -1.283   0.443   0.587  0.00  0.00     0.162 A 
ATOM      6  C5  UNL d   1      -0.547  -0.283   1.518  0.00  0.00     0.062 A 
ATOM      7  F   UNL d   1      -0.943  -0.324   2.798  0.00  0.00    -0.097 F 
ATOM      8  F1  UNL d   1      -2.382   1.095   0.994  0.00  0.00    -0.096 F 
ATOM      9  I   UNL d   1      -1.976   1.578  -2.143  0.00  0.00    -0.060 I 
ATOM     10  F2  UNL d   1       0.688  -0.174  -2.410  0.00  0.00    -0.096 F 
ATOM     11  F3  UNL d   1       2.106  -1.584  -0.584  0.00  0.00    -0.097 F 
ATOM     12  F4  UNL d   1       1.301  -1.666   2.022  0.00  0.00    -0.092 F 
ENDROOT
TORSDOF 0
ENDMDL
