MODEL 1
REMARK minimizedAffinity 0.0259819943
REMARK minimizedRMSD -1
REMARK  0 active torsions:
REMARK  status: ('A' for Active; 'I' for Inactive)
ROOT
ATOM      1  C   UNL d   1       0.902  -1.098   1.303  0.00  0.00     0.124 A 
ATOM      2  C1  UNL d   1       1.329  -1.216  -0.013  0.00  0.00     0.062 A 
ATOM      3  C2  UNL d   1       0.775  -0.410  -1.003  0.00  0.00     0.162 A 
ATOM      4  C3  UNL d   1      -0.211   0.523  -0.682  0.00  0.00    -0.034 A 
ATOM      5  C4  UNL d   1      -0.636   0.635   0.643  0.00  0.00     0.162 A 
ATOM      6  C5  UNL d   1      -0.080  -0.173   1.630  0.00  0.00     0.062 A 
ATOM      7  F   UNL d   1      -0.493  -0.057   2.900  0.00  0.00    -0.097 F 
ATOM      8  F1  UNL d   1      -1.582   1.521   0.987  0.00  0.00    -0.096 F 
ATOM      9  I   UNL d   1      -1.042   1.730  -2.160  0.00  0.00    -0.060 I 
ATOM     10  F2  UNL d   1       1.206  -0.546  -2.266  0.00  0.00    -0.096 F 
ATOM     11  F3  UNL d   1       2.276  -2.110  -0.331  0.00  0.00    -0.097 F 
ATOM     12  F4  UNL d   1       1.436  -1.875   2.254  0.00  0.00    -0.092 F 
ENDROOT
TORSDOF 0
ENDMDL
