MODEL 1
REMARK minimizedAffinity -1.61314297
REMARK minimizedRMSD -1
REMARK  0 active torsions:
REMARK  status: ('A' for Active; 'I' for Inactive)
ROOT
ATOM      1  C   UNL d   1       0.204  -0.414   2.465  0.00  0.00     0.124 A 
ATOM      2  C1  UNL d   1       1.408  -0.790   1.885  0.00  0.00     0.062 A 
ATOM      3  C2  UNL d   1       1.553  -0.774   0.501  0.00  0.00     0.162 A 
ATOM      4  C3  UNL d   1       0.492  -0.380  -0.314  0.00  0.00    -0.034 A 
ATOM      5  C4  UNL d   1      -0.716  -0.004   0.276  0.00  0.00     0.162 A 
ATOM      6  C5  UNL d   1      -0.856  -0.021   1.660  0.00  0.00     0.062 A 
ATOM      7  F   UNL d   1      -2.020   0.342   2.218  0.00  0.00    -0.097 F 
ATOM      8  F1  UNL d   1      -1.757   0.381  -0.478  0.00  0.00    -0.096 F 
ATOM      9  I   UNL d   1       0.706  -0.355  -2.384  0.00  0.00    -0.060 I 
ATOM     10  F2  UNL d   1       2.728  -1.143  -0.032  0.00  0.00    -0.096 F 
ATOM     11  F3  UNL d   1       2.433  -1.171   2.660  0.00  0.00    -0.097 F 
ATOM     12  F4  UNL d   1       0.066  -0.431   3.797  0.00  0.00    -0.092 F 
ENDROOT
TORSDOF 0
ENDMDL
