MODEL 1
REMARK minimizedAffinity -2.83291125
REMARK minimizedRMSD -1
REMARK  0 active torsions:
REMARK  status: ('A' for Active; 'I' for Inactive)
ROOT
ATOM      1  C   UNL d   1       1.510  -1.276   1.668  0.00  0.00     0.124 A 
ATOM      2  C1  UNL d   1       0.457  -0.463   2.064  0.00  0.00     0.062 A 
ATOM      3  C2  UNL d   1      -0.265   0.258   1.118  0.00  0.00     0.162 A 
ATOM      4  C3  UNL d   1       0.061   0.169  -0.235  0.00  0.00    -0.034 A 
ATOM      5  C4  UNL d   1       1.122  -0.650  -0.626  0.00  0.00     0.162 A 
ATOM      6  C5  UNL d   1       1.841  -1.369   0.323  0.00  0.00     0.062 A 
ATOM      7  F   UNL d   1       2.858  -2.154  -0.062  0.00  0.00    -0.097 F 
ATOM      8  F1  UNL d   1       1.463  -0.759  -1.919  0.00  0.00    -0.096 F 
ATOM      9  I   UNL d   1      -1.016   1.246  -1.652  0.00  0.00    -0.060 I 
ATOM     10  F2  UNL d   1      -1.278   1.036   1.530  0.00  0.00    -0.096 F 
ATOM     11  F3  UNL d   1       0.135  -0.371   3.363  0.00  0.00    -0.097 F 
ATOM     12  F4  UNL d   1       2.204  -1.968   2.580  0.00  0.00    -0.092 F 
ENDROOT
TORSDOF 0
ENDMDL
