MODEL 1
REMARK minimizedAffinity 0.585344136
REMARK minimizedRMSD -1
REMARK  0 active torsions:
REMARK  status: ('A' for Active; 'I' for Inactive)
ROOT
ATOM      1  C   UNL d   1       1.514  -1.153   2.079  0.00  0.00     0.124 A 
ATOM      2  C1  UNL d   1       0.860  -0.610   3.176  0.00  0.00     0.062 A 
ATOM      3  C2  UNL d   1      -0.468  -0.206   3.071  0.00  0.00     0.162 A 
ATOM      4  C3  UNL d   1      -1.151  -0.343   1.863  0.00  0.00    -0.034 A 
ATOM      5  C4  UNL d   1      -0.487  -0.889   0.763  0.00  0.00     0.162 A 
ATOM      6  C5  UNL d   1       0.840  -1.292   0.873  0.00  0.00     0.062 A 
ATOM      7  F   UNL d   1       1.470  -1.817  -0.188  0.00  0.00    -0.097 F 
ATOM      8  F1  UNL d   1      -1.114  -1.036  -0.414  0.00  0.00    -0.096 F 
ATOM      9  I   UNL d   1      -3.136   0.261   1.701  0.00  0.00    -0.060 I 
ATOM     10  F2  UNL d   1      -1.074   0.316   4.147  0.00  0.00    -0.096 F 
ATOM     11  F3  UNL d   1       1.509  -0.474   4.341  0.00  0.00    -0.097 F 
ATOM     12  F4  UNL d   1       2.791  -1.541   2.183  0.00  0.00    -0.092 F 
ENDROOT
TORSDOF 0
ENDMDL
