MODEL 1
REMARK minimizedAffinity -1.97828567
REMARK minimizedRMSD -1
REMARK  1 active torsions:
REMARK  status: ('A' for Active; 'I' for Inactive)
REMARK    1  A    between atoms: N_2  and  C1_3 
ROOT
ATOM      1  C1  UNL d   1       3.911   3.964   4.806  0.00  0.00     0.143 A 
ATOM      2  C2  UNL d   1       5.054   4.044   5.609  0.00  0.00    -0.057 A 
ATOM      3  C3  UNL d   1       6.000   5.060   5.426  0.00  0.00     0.033 A 
ATOM      4  C4  UNL d   1       5.833   6.000   4.414  0.00  0.00    -0.042 A 
ATOM      5  C5  UNL d   1       4.718   5.924   3.587  0.00  0.00     0.033 A 
ATOM      6  C6  UNL d   1       3.773   4.911   3.779  0.00  0.00    -0.057 A 
ENDROOT
BRANCH   1   7
ATOM      7  N   UNL d   1       2.985   2.920   4.874  0.00  0.00    -0.732 N 
ATOM      8  C   UNL d   1       3.360   1.575   4.494  0.00  0.00     0.284 C 
ATOM      9  H3  UNL d   1       2.405   2.970   5.708  0.00  0.00     0.395 HD
ENDBRANCH   1   7
TORSDOF 1
ENDMDL
