MODEL 1
REMARK minimizedAffinity 7.48365307
REMARK minimizedRMSD -1
REMARK  1 active torsions:
REMARK  status: ('A' for Active; 'I' for Inactive)
REMARK    1  A    between atoms: N_2  and  C1_3 
ROOT
ATOM      1  C1  UNL d   1       1.704   0.521   0.804  0.00  0.00     0.143 A 
ATOM      2  C2  UNL d   1       2.694  -0.243   0.176  0.00  0.00    -0.057 A 
ATOM      3  C3  UNL d   1       2.460  -0.861  -1.059  0.00  0.00     0.033 A 
ATOM      4  C4  UNL d   1       1.218  -0.750  -1.674  0.00  0.00    -0.042 A 
ATOM      5  C5  UNL d   1       0.211  -0.017  -1.056  0.00  0.00     0.033 A 
ATOM      6  C6  UNL d   1       0.453   0.604   0.173  0.00  0.00    -0.057 A 
ENDROOT
BRANCH   1   7
ATOM      7  N   UNL d   1       1.843   1.078   2.078  0.00  0.00    -0.732 N 
ATOM      8  C   UNL d   1       2.065   2.499   2.240  0.00  0.00     0.284 C 
ATOM      9  H3  UNL d   1       1.190   0.680   2.749  0.00  0.00     0.395 HD
ENDBRANCH   1   7
TORSDOF 1
ENDMDL
