MODEL 1
REMARK minimizedAffinity 2.46869278
REMARK minimizedRMSD -1
REMARK  1 active torsions:
REMARK  status: ('A' for Active; 'I' for Inactive)
REMARK    1  A    between atoms: N_2  and  C1_3 
ROOT
ATOM      1  C1  UNL d   1      -5.738   4.784   4.300  0.00  0.00     0.143 A 
ATOM      2  C2  UNL d   1      -5.693   5.107   2.940  0.00  0.00    -0.057 A 
ATOM      3  C3  UNL d   1      -5.661   4.110   1.957  0.00  0.00     0.033 A 
ATOM      4  C4  UNL d   1      -5.644   2.767   2.321  0.00  0.00    -0.042 A 
ATOM      5  C5  UNL d   1      -5.663   2.423   3.667  0.00  0.00     0.033 A 
ATOM      6  C6  UNL d   1      -5.702   3.423   4.644  0.00  0.00    -0.057 A 
ENDROOT
BRANCH   1   7
ATOM      7  N   UNL d   1      -5.672   5.729   5.327  0.00  0.00    -0.732 N 
ATOM      8  C   UNL d   1      -4.420   6.000   6.000  0.00  0.00     0.284 C 
ATOM      9  H3  UNL d   1      -6.224   6.559   5.126  0.00  0.00     0.395 HD
ENDBRANCH   1   7
TORSDOF 1
ENDMDL
