MODEL 1
REMARK minimizedAffinity 11.0728264
REMARK minimizedRMSD -1
REMARK  1 active torsions:
REMARK  status: ('A' for Active; 'I' for Inactive)
REMARK    1  A    between atoms: N_2  and  C1_3 
ROOT
ATOM      1  C1  UNL d   1       4.094   3.286   4.490  0.00  0.00     0.143 A 
ATOM      2  C2  UNL d   1       3.061   2.558   5.088  0.00  0.00    -0.057 A 
ATOM      3  C3  UNL d   1       1.821   2.403   4.456  0.00  0.00     0.033 A 
ATOM      4  C4  UNL d   1       1.583   3.001   3.223  0.00  0.00    -0.042 A 
ATOM      5  C5  UNL d   1       2.588   3.750   2.621  0.00  0.00     0.033 A 
ATOM      6  C6  UNL d   1       3.826   3.895   3.254  0.00  0.00    -0.057 A 
ENDROOT
BRANCH   1   7
ATOM      7  N   UNL d   1       5.315   3.558   5.112  0.00  0.00    -0.732 N 
ATOM      8  C   UNL d   1       5.453   4.692   6.000  0.00  0.00     0.284 C 
ATOM      9  H3  UNL d   1       5.781   2.715   5.439  0.00  0.00     0.395 HD
ENDBRANCH   1   7
TORSDOF 1
ENDMDL
