MODEL 1
REMARK minimizedAffinity 2.84885025
REMARK minimizedRMSD -1
REMARK  1 active torsions:
REMARK  status: ('A' for Active; 'I' for Inactive)
REMARK    1  A    between atoms: N_2  and  C1_3 
ROOT
ATOM      1  C1  UNL d   1       2.530  -0.261   0.001  0.00  0.00     0.143 A 
ATOM      2  C2  UNL d   1       1.152  -0.499  -0.055  0.00  0.00    -0.057 A 
ATOM      3  C3  UNL d   1       0.645  -1.785  -0.278  0.00  0.00     0.033 A 
ATOM      4  C4  UNL d   1       1.511  -2.855  -0.477  0.00  0.00    -0.042 A 
ATOM      5  C5  UNL d   1       2.884  -2.638  -0.450  0.00  0.00     0.033 A 
ATOM      6  C6  UNL d   1       3.384  -1.352  -0.221  0.00  0.00    -0.057 A 
ENDROOT
BRANCH   1   7
ATOM      7  N   UNL d   1       3.095   1.011   0.120  0.00  0.00    -0.732 N 
ATOM      8  C   UNL d   1       4.316   1.343  -0.583  0.00  0.00     0.284 C 
ATOM      9  H3  UNL d   1       2.396   1.749   0.112  0.00  0.00     0.395 HD
ENDBRANCH   1   7
TORSDOF 1
ENDMDL
