MODEL 1
REMARK minimizedAffinity 3.45900846
REMARK minimizedRMSD -1
REMARK  1 active torsions:
REMARK  status: ('A' for Active; 'I' for Inactive)
REMARK    1  A    between atoms: N_2  and  C1_3 
ROOT
ATOM      1  C1  UNL d   1       2.037   0.002  -0.963  0.00  0.00     0.143 A 
ATOM      2  C2  UNL d   1       2.182  -1.389  -0.923  0.00  0.00    -0.057 A 
ATOM      3  C3  UNL d   1       1.076  -2.238  -1.049  0.00  0.00     0.033 A 
ATOM      4  C4  UNL d   1      -0.202  -1.709  -1.187  0.00  0.00    -0.042 A 
ATOM      5  C5  UNL d   1      -0.373  -0.329  -1.205  0.00  0.00     0.033 A 
ATOM      6  C6  UNL d   1       0.736   0.514  -1.086  0.00  0.00    -0.057 A 
ENDROOT
BRANCH   1   7
ATOM      7  N   UNL d   1       3.085   0.900  -0.746  0.00  0.00    -0.732 N 
ATOM      8  C   UNL d   1       3.869   1.401  -1.854  0.00  0.00     0.284 C 
ATOM      9  H3  UNL d   1       2.855   1.603  -0.048  0.00  0.00     0.395 HD
ENDBRANCH   1   7
TORSDOF 1
ENDMDL
