MODEL 1
REMARK minimizedAffinity -1.69961989
REMARK minimizedRMSD -1
REMARK  1 active torsions:
REMARK  status: ('A' for Active; 'I' for Inactive)
REMARK    1  A    between atoms: N_2  and  C1_3 
ROOT
ATOM      1  C1  UNL d   1      -3.892   5.906   2.933  0.00  0.00     0.143 A 
ATOM      2  C2  UNL d   1      -3.220   5.992   4.157  0.00  0.00    -0.057 A 
ATOM      3  C3  UNL d   1      -3.919   5.999   5.370  0.00  0.00     0.033 A 
ATOM      4  C4  UNL d   1      -5.309   5.947   5.379  0.00  0.00    -0.042 A 
ATOM      5  C5  UNL d   1      -5.999   5.885   4.174  0.00  0.00     0.033 A 
ATOM      6  C6  UNL d   1      -5.295   5.873   2.966  0.00  0.00    -0.057 A 
ENDROOT
BRANCH   1   7
ATOM      7  N   UNL d   1      -3.259   5.994   1.691  0.00  0.00    -0.732 N 
ATOM      8  C   UNL d   1      -4.033   5.995   0.468  0.00  0.00     0.284 C 
ATOM      9  H3  UNL d   1      -2.487   6.657   1.694  0.00  0.00     0.395 HD
ENDBRANCH   1   7
TORSDOF 1
ENDMDL
