MODEL 1
REMARK minimizedAffinity -2.23361874
REMARK minimizedRMSD -1
REMARK  1 active torsions:
REMARK  status: ('A' for Active; 'I' for Inactive)
REMARK    1  A    between atoms: N_2  and  C1_3 
ROOT
ATOM      1  C1  UNL d   1       1.692  -2.175  -1.221  0.00  0.00     0.143 A 
ATOM      2  C2  UNL d   1       0.335  -1.840  -1.159  0.00  0.00    -0.057 A 
ATOM      3  C3  UNL d   1      -0.090  -0.510  -1.255  0.00  0.00     0.033 A 
ATOM      4  C4  UNL d   1       0.840   0.516  -1.386  0.00  0.00    -0.042 A 
ATOM      5  C5  UNL d   1       2.195   0.210  -1.424  0.00  0.00     0.033 A 
ATOM      6  C6  UNL d   1       2.613  -1.122  -1.335  0.00  0.00    -0.057 A 
ENDROOT
BRANCH   1   7
ATOM      7  N   UNL d   1       2.183  -3.469  -1.034  0.00  0.00    -0.732 N 
ATOM      8  C   UNL d   1       1.422  -4.618  -1.474  0.00  0.00     0.284 C 
ATOM      9  H3  UNL d   1       3.182  -3.536  -1.219  0.00  0.00     0.395 HD
ENDBRANCH   1   7
TORSDOF 1
ENDMDL
