MODEL 1
REMARK minimizedAffinity -4.16438723
REMARK minimizedRMSD -1
REMARK  1 active torsions:
REMARK  status: ('A' for Active; 'I' for Inactive)
REMARK    1  A    between atoms: N_2  and  C1_3 
ROOT
ATOM      1  C1  UNL d   1       0.798  -0.742  -1.400  0.00  0.00     0.143 A 
ATOM      2  C2  UNL d   1       1.754   0.278  -1.375  0.00  0.00    -0.057 A 
ATOM      3  C3  UNL d   1       3.113  -0.005  -1.185  0.00  0.00     0.033 A 
ATOM      4  C4  UNL d   1       3.535  -1.315  -0.987  0.00  0.00    -0.042 A 
ATOM      5  C5  UNL d   1       2.599  -2.343  -0.984  0.00  0.00     0.033 A 
ATOM      6  C6  UNL d   1       1.245  -2.055  -1.181  0.00  0.00    -0.057 A 
ENDROOT
BRANCH   1   7
ATOM      7  N   UNL d   1      -0.578  -0.516  -1.487  0.00  0.00    -0.732 N 
ATOM      8  C   UNL d   1      -1.099   0.556  -2.307  0.00  0.00     0.284 C 
ATOM      9  H3  UNL d   1      -1.111  -1.381  -1.546  0.00  0.00     0.395 HD
ENDBRANCH   1   7
TORSDOF 1
ENDMDL
