MODEL 1
REMARK minimizedAffinity -1.65117967
REMARK minimizedRMSD -1
REMARK  0 active torsions:
REMARK  status: ('A' for Active; 'I' for Inactive)
ROOT
ATOM      1  C   UNL d   1       2.660  -1.835   0.468  0.00  0.00     0.023 A 
ATOM      2  C1  UNL d   1       1.789  -2.066  -0.597  0.00  0.00     0.003 A 
ATOM      3  C2  UNL d   1       0.650  -1.274  -0.753  0.00  0.00     0.048 A 
ATOM      4  C3  UNL d   1       0.389  -0.251   0.158  0.00  0.00     0.023 A 
ATOM      5  C4  UNL d   1       1.258  -0.016   1.225  0.00  0.00     0.048 A 
ATOM      6  C5  UNL d   1       2.395  -0.811   1.377  0.00  0.00     0.003 A 
ATOM      7  I   UNL d   1      -1.306   0.930  -0.072  0.00  0.00    -0.146 I 
ENDROOT
TORSDOF 0
ENDMDL
