MODEL 1
REMARK minimizedAffinity -2.8721621
REMARK minimizedRMSD -1
REMARK  0 active torsions:
REMARK  status: ('A' for Active; 'I' for Inactive)
ROOT
ATOM      1  C   UNL d   1      -1.146   1.033  -0.799  0.00  0.00     0.023 A 
ATOM      2  C1  UNL d   1      -0.117   1.723  -0.159  0.00  0.00     0.003 A 
ATOM      3  C2  UNL d   1       0.956   1.022   0.395  0.00  0.00     0.048 A 
ATOM      4  C3  UNL d   1       0.994  -0.369   0.305  0.00  0.00     0.023 A 
ATOM      5  C4  UNL d   1      -0.034  -1.064  -0.334  0.00  0.00     0.048 A 
ATOM      6  C5  UNL d   1      -1.105  -0.359  -0.886  0.00  0.00     0.003 A 
ATOM      7  I   UNL d   1       2.590  -1.414   1.129  0.00  0.00    -0.146 I 
ENDROOT
TORSDOF 0
ENDMDL
