MODEL 1
REMARK minimizedAffinity -2.48735714
REMARK minimizedRMSD -1
REMARK  0 active torsions:
REMARK  status: ('A' for Active; 'I' for Inactive)
ROOT
ATOM      1  C   UNL d   1       3.477  -0.005   0.846  0.00  0.00     0.023 A 
ATOM      2  C1  UNL d   1       2.939   1.279   0.761  0.00  0.00     0.003 A 
ATOM      3  C2  UNL d   1       1.587   1.452   0.457  0.00  0.00     0.048 A 
ATOM      4  C3  UNL d   1       0.779   0.336   0.238  0.00  0.00     0.023 A 
ATOM      5  C4  UNL d   1       1.314  -0.950   0.323  0.00  0.00     0.048 A 
ATOM      6  C5  UNL d   1       2.666  -1.118   0.627  0.00  0.00     0.003 A 
ATOM      7  I   UNL d   1      -1.233   0.591  -0.215  0.00  0.00    -0.146 I 
ENDROOT
TORSDOF 0
ENDMDL
