MODEL 1
REMARK minimizedAffinity -5.09141445
REMARK minimizedRMSD -1
REMARK  0 active torsions:
REMARK  status: ('A' for Active; 'I' for Inactive)
ROOT
ATOM      1  C   UNL d   1       3.553  -0.451   0.789  0.00  0.00     0.023 A 
ATOM      2  C1  UNL d   1       2.632  -1.497   0.839  0.00  0.00     0.003 A 
ATOM      3  C2  UNL d   1       1.280  -1.252   0.592  0.00  0.00     0.048 A 
ATOM      4  C3  UNL d   1       0.856   0.043   0.294  0.00  0.00     0.023 A 
ATOM      5  C4  UNL d   1       1.774   1.093   0.241  0.00  0.00     0.048 A 
ATOM      6  C5  UNL d   1       3.124   0.843   0.490  0.00  0.00     0.003 A 
ATOM      7  I   UNL d   1      -1.157   0.411  -0.074  0.00  0.00    -0.146 I 
ENDROOT
TORSDOF 0
ENDMDL
