MODEL 1
REMARK minimizedAffinity -4.15637875
REMARK minimizedRMSD -1
REMARK  0 active torsions:
REMARK  status: ('A' for Active; 'I' for Inactive)
ROOT
ATOM      1  C   UNL d   1       3.103  -0.144   0.380  0.00  0.00     0.023 A 
ATOM      2  C1  UNL d   1       2.315  -1.192   0.857  0.00  0.00     0.003 A 
ATOM      3  C2  UNL d   1       0.929  -1.043   0.940  0.00  0.00     0.048 A 
ATOM      4  C3  UNL d   1       0.337   0.155   0.544  0.00  0.00     0.023 A 
ATOM      5  C4  UNL d   1       1.121   1.207   0.066  0.00  0.00     0.048 A 
ATOM      6  C5  UNL d   1       2.507   1.054  -0.014  0.00  0.00     0.003 A 
ATOM      7  I   UNL d   1      -1.726   0.379   0.667  0.00  0.00    -0.146 I 
ENDROOT
TORSDOF 0
ENDMDL
