MODEL 1
REMARK minimizedAffinity -4.98982286
REMARK minimizedRMSD -1
REMARK  0 active torsions:
REMARK  status: ('A' for Active; 'I' for Inactive)
ROOT
ATOM      1  C   UNL d   1       3.095  -0.547   0.677  0.00  0.00     0.023 A 
ATOM      2  C1  UNL d   1       2.036  -1.425   0.442  0.00  0.00     0.003 A 
ATOM      3  C2  UNL d   1       0.737  -0.932   0.304  0.00  0.00     0.048 A 
ATOM      4  C3  UNL d   1       0.503   0.440   0.400  0.00  0.00     0.023 A 
ATOM      5  C4  UNL d   1       1.560   1.321   0.634  0.00  0.00     0.048 A 
ATOM      6  C5  UNL d   1       2.857   0.824   0.773  0.00  0.00     0.003 A 
ATOM      7  I   UNL d   1      -1.429   1.176   0.193  0.00  0.00    -0.146 I 
ENDROOT
TORSDOF 0
ENDMDL
