MODEL 1
REMARK minimizedAffinity -0.651414633
REMARK minimizedRMSD -1
REMARK  0 active torsions:
REMARK  status: ('A' for Active; 'I' for Inactive)
ROOT
ATOM      1  C   UNL d   1       2.091   0.833   0.739  0.00  0.00     0.023 A 
ATOM      2  C1  UNL d   1       1.508   1.951   0.142  0.00  0.00     0.003 A 
ATOM      3  C2  UNL d   1       0.154   1.937  -0.197  0.00  0.00     0.048 A 
ATOM      4  C3  UNL d   1      -0.613   0.802   0.064  0.00  0.00     0.023 A 
ATOM      5  C4  UNL d   1      -0.034  -0.319   0.662  0.00  0.00     0.048 A 
ATOM      6  C5  UNL d   1       1.321  -0.301   0.998  0.00  0.00     0.003 A 
ATOM      7  I   UNL d   1      -2.629   0.779  -0.439  0.00  0.00    -0.146 I 
ENDROOT
TORSDOF 0
ENDMDL
