MODEL 1
REMARK minimizedAffinity -2.49117565
REMARK minimizedRMSD -1
REMARK  0 active torsions:
REMARK  status: ('A' for Active; 'I' for Inactive)
ROOT
ATOM      1  C   UNL d   1       2.981  -1.180   0.511  0.00  0.00     0.023 A 
ATOM      2  C1  UNL d   1       1.956  -2.068   0.183  0.00  0.00     0.003 A 
ATOM      3  C2  UNL d   1       0.658  -1.595  -0.015  0.00  0.00     0.048 A 
ATOM      4  C3  UNL d   1       0.391  -0.233   0.115  0.00  0.00     0.023 A 
ATOM      5  C4  UNL d   1       1.413   0.659   0.443  0.00  0.00     0.048 A 
ATOM      6  C5  UNL d   1       2.710   0.182   0.641  0.00  0.00     0.003 A 
ATOM      7  I   UNL d   1      -1.542   0.474  -0.179  0.00  0.00    -0.146 I 
ENDROOT
TORSDOF 0
ENDMDL
