MODEL 1
REMARK minimizedAffinity -2.88692069
REMARK minimizedRMSD -1
REMARK  0 active torsions:
REMARK  status: ('A' for Active; 'I' for Inactive)
ROOT
ATOM      1  C   UNL d   1       2.611  -1.529   0.785  0.00  0.00     0.023 A 
ATOM      2  C1  UNL d   1       2.427  -0.246   1.299  0.00  0.00     0.003 A 
ATOM      3  C2  UNL d   1       1.242   0.447   1.042  0.00  0.00     0.048 A 
ATOM      4  C3  UNL d   1       0.245  -0.150   0.271  0.00  0.00     0.023 A 
ATOM      5  C4  UNL d   1       0.425  -1.434  -0.245  0.00  0.00     0.048 A 
ATOM      6  C5  UNL d   1       1.612  -2.123   0.013  0.00  0.00     0.003 A 
ATOM      7  I   UNL d   1      -1.519   0.880  -0.113  0.00  0.00    -0.146 I 
ENDROOT
TORSDOF 0
ENDMDL
