MODEL 1
REMARK minimizedAffinity -3.04691839
REMARK minimizedRMSD -1
REMARK  0 active torsions:
REMARK  status: ('A' for Active; 'I' for Inactive)
ROOT
ATOM      1  C   UNL d   1       2.241  -1.819  -0.056  0.00  0.00     0.023 A 
ATOM      2  C1  UNL d   1       1.067  -2.254  -0.671  0.00  0.00     0.003 A 
ATOM      3  C2  UNL d   1      -0.095  -1.484  -0.584  0.00  0.00     0.048 A 
ATOM      4  C3  UNL d   1      -0.076  -0.280   0.118  0.00  0.00     0.023 A 
ATOM      5  C4  UNL d   1       1.097   0.161   0.733  0.00  0.00     0.048 A 
ATOM      6  C5  UNL d   1       2.256  -0.613   0.645  0.00  0.00     0.003 A 
ATOM      7  I   UNL d   1      -1.804   0.868   0.248  0.00  0.00    -0.146 I 
ENDROOT
TORSDOF 0
ENDMDL
