MODEL 1
REMARK minimizedAffinity -5.67640495
REMARK minimizedRMSD -1
REMARK  3 active torsions:
REMARK  status: ('A' for Active; 'I' for Inactive)
REMARK    1  A    between atoms: C3'_2  and  C2'_3 
REMARK    2  A    between atoms: C2'_3  and  C1'_4 
REMARK    3  A    between atoms: C1'_4  and  C1_5 
ROOT
ATOM      1  C1  N4B d   1       0.132  -0.487  -0.254  0.00  0.00    -0.075 A 
ATOM      2  C2  N4B d   1       1.295  -1.265  -0.064  0.00  0.00     0.002 A 
ATOM      3  C3  N4B d   1       1.605  -1.744   1.185  0.00  0.00     0.002 A 
ATOM      4  C4  N4B d   1       0.781  -1.443   2.259  0.00  0.00    -0.004 A 
ATOM      5  C5  N4B d   1      -0.355  -0.712   2.062  0.00  0.00     0.002 A 
ATOM      6  C6  N4B d   1      -0.681  -0.228   0.811  0.00  0.00     0.002 A 
ENDROOT
BRANCH   1   7
ATOM      7  C1' N4B d   1      -0.202   0.129  -1.585  0.00  0.00     0.057 C 
BRANCH   7   8
ATOM      8  C2' N4B d   1      -1.412   1.045  -1.422  0.00  0.00     0.009 C 
BRANCH   8   9
ATOM      9  C3' N4B d   1      -1.426   2.157  -2.457  0.00  0.00     0.004 C 
ATOM     10  C4' N4B d   1      -2.451   3.211  -2.164  0.00  0.00     0.003 C 
ENDBRANCH   8   9
ENDBRANCH   7   8
ENDBRANCH   1   7
TORSDOF 3
ENDMDL
