MODEL 1
REMARK minimizedAffinity 2.0562396
REMARK minimizedRMSD -1
REMARK  3 active torsions:
REMARK  status: ('A' for Active; 'I' for Inactive)
REMARK    1  A    between atoms: C3'_2  and  C2'_3 
REMARK    2  A    between atoms: C2'_3  and  C1'_4 
REMARK    3  A    between atoms: C1'_4  and  C1_5 
ROOT
ATOM      1  C1  N4B d   1       1.627  -0.181   0.825  0.00  0.00    -0.075 A 
ATOM      2  C2  N4B d   1       2.656  -1.012   0.331  0.00  0.00     0.002 A 
ATOM      3  C3  N4B d   1       2.605  -1.474  -0.962  0.00  0.00     0.002 A 
ATOM      4  C4  N4B d   1       1.529  -1.135  -1.769  0.00  0.00    -0.004 A 
ATOM      5  C5  N4B d   1       0.552  -0.311  -1.292  0.00  0.00     0.002 A 
ATOM      6  C6  N4B d   1       0.593   0.164   0.004  0.00  0.00     0.002 A 
ENDROOT
BRANCH   1   7
ATOM      7  C1' N4B d   1       1.596   0.279   2.257  0.00  0.00     0.057 C 
BRANCH   7   8
ATOM      8  C2' N4B d   1       1.350  -0.924   3.164  0.00  0.00     0.009 C 
BRANCH   8   9
ATOM      9  C3' N4B d   1       0.205  -1.788   2.663  0.00  0.00     0.004 C 
ATOM     10  C4' N4B d   1      -1.102  -1.053   2.621  0.00  0.00     0.003 C 
ENDBRANCH   8   9
ENDBRANCH   7   8
ENDBRANCH   1   7
TORSDOF 3
ENDMDL
