MODEL 1
REMARK minimizedAffinity -1.43194926
REMARK minimizedRMSD -1
REMARK  3 active torsions:
REMARK  status: ('A' for Active; 'I' for Inactive)
REMARK    1  A    between atoms: C3'_2  and  C2'_3 
REMARK    2  A    between atoms: C2'_3  and  C1'_4 
REMARK    3  A    between atoms: C1'_4  and  C1_5 
ROOT
ATOM      1  C1  N4B d   1       0.338   0.147  -0.758  0.00  0.00    -0.075 A 
ATOM      2  C2  N4B d   1       1.159  -0.995  -0.882  0.00  0.00     0.002 A 
ATOM      3  C3  N4B d   1       1.248  -1.892   0.154  0.00  0.00     0.002 A 
ATOM      4  C4  N4B d   1       0.542  -1.660   1.325  0.00  0.00    -0.004 A 
ATOM      5  C5  N4B d   1      -0.269  -0.568   1.427  0.00  0.00     0.002 A 
ATOM      6  C6  N4B d   1      -0.371   0.340   0.392  0.00  0.00     0.002 A 
ENDROOT
BRANCH   1   7
ATOM      7  C1' N4B d   1       0.275   1.200  -1.830  0.00  0.00     0.057 C 
BRANCH   7   8
ATOM      8  C2' N4B d   1      -1.134   1.783  -1.878  0.00  0.00     0.009 C 
BRANCH   8   9
ATOM      9  C3' N4B d   1      -1.163   3.144  -2.553  0.00  0.00     0.004 C 
ATOM     10  C4' N4B d   1       0.207   3.663  -2.873  0.00  0.00     0.003 C 
ENDBRANCH   8   9
ENDBRANCH   7   8
ENDBRANCH   1   7
TORSDOF 3
ENDMDL
