MODEL 1
REMARK minimizedAffinity -1.10667694
REMARK minimizedRMSD -1
REMARK  1 active torsions:
REMARK  status: ('A' for Active; 'I' for Inactive)
REMARK    1  A    between atoms: C1_2  and  C2_3 
ROOT
ATOM      1  C2  UNL d   1       3.586  -5.966  -3.300  0.00  0.00    -0.077 A 
ATOM      2  C3  UNL d   1       2.230  -5.983  -3.656  0.00  0.00     0.002 A 
ATOM      3  C4  UNL d   1       1.852  -5.997  -5.000  0.00  0.00     0.002 A 
ATOM      4  C5  UNL d   1       2.824  -5.999  -5.998  0.00  0.00    -0.004 A 
ATOM      5  C6  UNL d   1       4.175  -5.979  -5.655  0.00  0.00     0.002 A 
ATOM      6  C7  UNL d   1       4.554  -5.964  -4.312  0.00  0.00     0.002 A 
ENDROOT
BRANCH   1   7
ATOM      7  C1  UNL d   1       3.996  -6.000  -1.851  0.00  0.00     0.055 C 
ATOM      8  C   UNL d   1       2.783  -5.999  -0.933  0.00  0.00     0.019 C 
ENDBRANCH   1   7
TORSDOF 1
ENDMDL
