MODEL 1
REMARK minimizedAffinity 7.40221024
REMARK minimizedRMSD -1
REMARK  1 active torsions:
REMARK  status: ('A' for Active; 'I' for Inactive)
REMARK    1  A    between atoms: C1_2  and  C2_3 
ROOT
ATOM      1  C2  UNL d   1      -3.232   2.798   0.185  0.00  0.00    -0.077 A 
ATOM      2  C3  UNL d   1      -4.621   2.872   0.007  0.00  0.00     0.002 A 
ATOM      3  C4  UNL d   1      -5.414   3.567   0.921  0.00  0.00     0.002 A 
ATOM      4  C5  UNL d   1      -4.828   4.198   2.016  0.00  0.00    -0.004 A 
ATOM      5  C6  UNL d   1      -3.448   4.129   2.203  0.00  0.00     0.002 A 
ATOM      6  C7  UNL d   1      -2.654   3.433   1.291  0.00  0.00     0.002 A 
ENDROOT
BRANCH   1   7
ATOM      7  C1  UNL d   1      -2.369   2.090  -0.826  0.00  0.00     0.055 C 
ATOM      8  C   UNL d   1      -2.178   0.625  -0.462  0.00  0.00     0.019 C 
ENDBRANCH   1   7
TORSDOF 1
ENDMDL
