MODEL 1
REMARK minimizedAffinity -2.24382687
REMARK minimizedRMSD -1
REMARK  1 active torsions:
REMARK  status: ('A' for Active; 'I' for Inactive)
REMARK    1  A    between atoms: C1_2  and  C2_3 
ROOT
ATOM      1  C2  UNL d   1       4.357  -5.667  -4.958  0.00  0.00    -0.077 A 
ATOM      2  C3  UNL d   1       3.294  -5.666  -5.872  0.00  0.00     0.002 A 
ATOM      3  C4  UNL d   1       1.980  -5.831  -5.429  0.00  0.00     0.002 A 
ATOM      4  C5  UNL d   1       1.717  -5.995  -4.070  0.00  0.00    -0.004 A 
ATOM      5  C6  UNL d   1       2.768  -5.999  -3.153  0.00  0.00     0.002 A 
ATOM      6  C7  UNL d   1       4.081  -5.835  -3.595  0.00  0.00     0.002 A 
ENDROOT
BRANCH   1   7
ATOM      7  C1  UNL d   1       5.769  -5.439  -5.429  0.00  0.00     0.055 C 
ATOM      8  C   UNL d   1       5.997  -3.984  -5.814  0.00  0.00     0.019 C 
ENDBRANCH   1   7
TORSDOF 1
ENDMDL
