MODEL 1
REMARK minimizedAffinity 3.52643514
REMARK minimizedRMSD -1
REMARK  1 active torsions:
REMARK  status: ('A' for Active; 'I' for Inactive)
REMARK    1  A    between atoms: C1_2  and  C2_3 
ROOT
ATOM      1  C2  UNL d   1      -3.396   2.095  -0.039  0.00  0.00    -0.077 A 
ATOM      2  C3  UNL d   1      -3.599   2.363  -1.400  0.00  0.00     0.002 A 
ATOM      3  C4  UNL d   1      -2.866   1.679  -2.371  0.00  0.00     0.002 A 
ATOM      4  C5  UNL d   1      -1.928   0.721  -1.993  0.00  0.00    -0.004 A 
ATOM      5  C6  UNL d   1      -1.717   0.449  -0.641  0.00  0.00     0.002 A 
ATOM      6  C7  UNL d   1      -2.448   1.132   0.331  0.00  0.00     0.002 A 
ENDROOT
BRANCH   1   7
ATOM      7  C1  UNL d   1      -4.221   2.796   1.009  0.00  0.00     0.055 C 
ATOM      8  C   UNL d   1      -5.575   3.218   0.457  0.00  0.00     0.019 C 
ENDBRANCH   1   7
TORSDOF 1
ENDMDL
