MODEL 1
REMARK minimizedAffinity 11.3016443
REMARK minimizedRMSD -1
REMARK  1 active torsions:
REMARK  status: ('A' for Active; 'I' for Inactive)
REMARK    1  A    between atoms: C1_2  and  C2_3 
ROOT
ATOM      1  C2  UNL d   1      -5.969   2.214  -0.955  0.00  0.00    -0.077 A 
ATOM      2  C3  UNL d   1      -5.998   3.600  -1.162  0.00  0.00     0.002 A 
ATOM      3  C4  UNL d   1      -5.986   4.476  -0.075  0.00  0.00     0.002 A 
ATOM      4  C5  UNL d   1      -5.940   3.977   1.225  0.00  0.00    -0.004 A 
ATOM      5  C6  UNL d   1      -5.912   2.599   1.440  0.00  0.00     0.002 A 
ATOM      6  C7  UNL d   1      -5.926   1.722   0.355  0.00  0.00     0.002 A 
ENDROOT
BRANCH   1   7
ATOM      7  C1  UNL d   1      -5.933   1.268  -2.127  0.00  0.00     0.055 C 
ATOM      8  C   UNL d   1      -4.666   1.454  -2.950  0.00  0.00     0.019 C 
ENDBRANCH   1   7
TORSDOF 1
ENDMDL
