MODEL 1
REMARK minimizedAffinity -1.221416
REMARK minimizedRMSD -1
REMARK  1 active torsions:
REMARK  status: ('A' for Active; 'I' for Inactive)
REMARK    1  A    between atoms: C1_2  and  C2_3 
ROOT
ATOM      1  C2  UNL d   1       4.615  -0.223  -3.026  0.00  0.00    -0.077 A 
ATOM      2  C3  UNL d   1       4.063   0.838  -3.758  0.00  0.00     0.002 A 
ATOM      3  C4  UNL d   1       4.475   1.081  -5.069  0.00  0.00     0.002 A 
ATOM      4  C5  UNL d   1       5.437   0.266  -5.662  0.00  0.00    -0.004 A 
ATOM      5  C6  UNL d   1       5.994  -0.790  -4.941  0.00  0.00     0.002 A 
ATOM      6  C7  UNL d   1       5.585  -1.034  -3.630  0.00  0.00     0.002 A 
ENDROOT
BRANCH   1   7
ATOM      7  C1  UNL d   1       4.137  -0.517  -1.628  0.00  0.00     0.055 C 
ATOM      8  C   UNL d   1       3.765  -1.984  -1.468  0.00  0.00     0.019 C 
ENDBRANCH   1   7
TORSDOF 1
ENDMDL
