MODEL 1
REMARK minimizedAffinity 16.7020359
REMARK minimizedRMSD -1
REMARK  0 active torsions:
REMARK  status: ('A' for Active; 'I' for Inactive)
ROOT
ATOM      1  C   UNL d   1      -2.864   4.213   2.682  0.00  0.00    -0.002 A 
ATOM      2  C1  UNL d   1      -2.812   5.250   1.762  0.00  0.00     0.010 A 
ATOM      3  C2  UNL d   1      -2.039   5.136   0.605  0.00  0.00     0.041 A 
ATOM      4  C3  UNL d   1      -1.313   3.948   0.385  0.00  0.00    -0.075 A 
ATOM      5  S   UNL d   1      -0.300   3.583  -0.961  0.00  0.00     0.015 SA
ATOM      6  C4  UNL d   1       0.086   2.041  -0.348  0.00  0.00     0.022 A 
ATOM      7  C5  UNL d   1      -0.534   1.794   0.854  0.00  0.00     0.026 A 
ATOM      8  C6  UNL d   1      -1.351   2.889   1.296  0.00  0.00    -0.082 A 
ATOM      9  C7  UNL d   1      -2.144   3.036   2.460  0.00  0.00     0.045 A 
ENDROOT
TORSDOF 0
ENDMDL
