MODEL 1
REMARK minimizedAffinity 17.5228138
REMARK minimizedRMSD -1
REMARK  0 active torsions:
REMARK  status: ('A' for Active; 'I' for Inactive)
ROOT
ATOM      1  C   UNL d   1      -1.515   2.624  -0.749  0.00  0.00    -0.002 A 
ATOM      2  C1  UNL d   1      -0.388   3.248  -1.266  0.00  0.00     0.010 A 
ATOM      3  C2  UNL d   1       0.811   3.253  -0.551  0.00  0.00     0.041 A 
ATOM      4  C3  UNL d   1       0.860   2.613   0.703  0.00  0.00    -0.075 A 
ATOM      5  S   UNL d   1       2.220   2.492   1.755  0.00  0.00     0.015 SA
ATOM      6  C4  UNL d   1       1.338   1.609   2.915  0.00  0.00     0.022 A 
ATOM      7  C5  UNL d   1       0.036   1.402   2.526  0.00  0.00     0.026 A 
ATOM      8  C6  UNL d   1      -0.261   1.978   1.244  0.00  0.00    -0.082 A 
ATOM      9  C7  UNL d   1      -1.462   1.990   0.495  0.00  0.00     0.045 A 
ENDROOT
TORSDOF 0
ENDMDL
