MODEL 1
REMARK minimizedAffinity 20.6558266
REMARK minimizedRMSD -1
REMARK  0 active torsions:
REMARK  status: ('A' for Active; 'I' for Inactive)
ROOT
ATOM      1  C   UNL d   1       0.214   2.836  -0.346  0.00  0.00    -0.002 A 
ATOM      2  C1  UNL d   1      -0.358   3.090  -1.584  0.00  0.00     0.010 A 
ATOM      3  C2  UNL d   1      -1.446   3.957  -1.699  0.00  0.00     0.041 A 
ATOM      4  C3  UNL d   1      -1.953   4.573  -0.538  0.00  0.00    -0.075 A 
ATOM      5  S   UNL d   1      -3.277   5.672  -0.437  0.00  0.00     0.015 SA
ATOM      6  C4  UNL d   1      -3.114   5.831   1.252  0.00  0.00     0.022 A 
ATOM      7  C5  UNL d   1      -2.080   5.071   1.744  0.00  0.00     0.026 A 
ATOM      8  C6  UNL d   1      -1.393   4.333   0.720  0.00  0.00    -0.082 A 
ATOM      9  C7  UNL d   1      -0.291   3.448   0.804  0.00  0.00     0.045 A 
ENDROOT
TORSDOF 0
ENDMDL
