MODEL 1
REMARK minimizedAffinity 27.1916885
REMARK minimizedRMSD -1
REMARK  0 active torsions:
REMARK  status: ('A' for Active; 'I' for Inactive)
ROOT
ATOM      1  C   UNL d   1       2.948  -1.333   0.434  0.00  0.00    -0.002 A 
ATOM      2  C1  UNL d   1       4.086  -2.128   0.431  0.00  0.00     0.010 A 
ATOM      3  C2  UNL d   1       4.056  -3.408  -0.125  0.00  0.00     0.041 A 
ATOM      4  C3  UNL d   1       2.853  -3.881  -0.685  0.00  0.00    -0.075 A 
ATOM      5  S   UNL d   1       2.581  -5.415  -1.422  0.00  0.00     0.015 SA
ATOM      6  C4  UNL d   1       0.949  -5.052  -1.751  0.00  0.00     0.022 A 
ATOM      7  C5  UNL d   1       0.603  -3.795  -1.316  0.00  0.00     0.026 A 
ATOM      8  C6  UNL d   1       1.694  -3.099  -0.695  0.00  0.00    -0.082 A 
ATOM      9  C7  UNL d   1       1.756  -1.805  -0.123  0.00  0.00     0.045 A 
ENDROOT
TORSDOF 0
ENDMDL
