MODEL 1
REMARK minimizedAffinity 9.35207176
REMARK minimizedRMSD -1
REMARK  0 active torsions:
REMARK  status: ('A' for Active; 'I' for Inactive)
ROOT
ATOM      1  C   UNL d   1       0.596   1.951  -1.109  0.00  0.00    -0.002 A 
ATOM      2  C1  UNL d   1      -0.450   1.199  -0.593  0.00  0.00     0.010 A 
ATOM      3  C2  UNL d   1      -1.751   1.369  -1.072  0.00  0.00     0.041 A 
ATOM      4  C3  UNL d   1      -1.984   2.314  -2.090  0.00  0.00    -0.075 A 
ATOM      5  S   UNL d   1      -3.493   2.692  -2.832  0.00  0.00     0.015 SA
ATOM      6  C4  UNL d   1      -2.785   3.859  -3.852  0.00  0.00     0.022 A 
ATOM      7  C5  UNL d   1      -1.431   3.972  -3.645  0.00  0.00     0.026 A 
ATOM      8  C6  UNL d   1      -0.946   3.083  -2.626  0.00  0.00    -0.082 A 
ATOM      9  C7  UNL d   1       0.361   2.888  -2.118  0.00  0.00     0.045 A 
ENDROOT
TORSDOF 0
ENDMDL
