MODEL 1
REMARK minimizedAffinity 8.57949162
REMARK minimizedRMSD -1
REMARK  0 active torsions:
REMARK  status: ('A' for Active; 'I' for Inactive)
ROOT
ATOM      1  C   UNL d   1      -0.090   2.439   2.979  0.00  0.00    -0.002 A 
ATOM      2  C1  UNL d   1      -1.414   2.252   2.606  0.00  0.00     0.010 A 
ATOM      3  C2  UNL d   1      -1.808   2.425   1.278  0.00  0.00     0.041 A 
ATOM      4  C3  UNL d   1      -0.841   2.790   0.322  0.00  0.00    -0.075 A 
ATOM      5  S   UNL d   1      -1.093   3.056  -1.363  0.00  0.00     0.015 SA
ATOM      6  C4  UNL d   1       0.550   3.424  -1.627  0.00  0.00     0.022 A 
ATOM      7  C5  UNL d   1       1.287   3.350  -0.469  0.00  0.00     0.026 A 
ATOM      8  C6  UNL d   1       0.498   2.984   0.673  0.00  0.00    -0.082 A 
ATOM      9  C7  UNL d   1       0.867   2.802   2.028  0.00  0.00     0.045 A 
ENDROOT
TORSDOF 0
ENDMDL
