MODEL 1
REMARK minimizedAffinity -4.95119953
REMARK minimizedRMSD -1
REMARK  0 active torsions:
REMARK  status: ('A' for Active; 'I' for Inactive)
ROOT
ATOM      1  C1  DEN d   1      -0.850  -0.617  -0.616  0.00  0.00     0.130 A 
ATOM      2  C2  DEN d   1       0.408  -1.203  -1.069  0.00  0.00    -0.031 A 
ATOM      3  C3  DEN d   1       1.393  -1.070   0.024  0.00  0.00     0.027 A 
ATOM      4  C4  DEN d   1       1.091  -0.026   2.363  0.00  0.00     0.027 A 
ATOM      5  C5  DEN d   1       0.203   0.611   3.202  0.00  0.00    -0.003 A 
ATOM      6  C6  DEN d   1      -1.077   0.911   2.818  0.00  0.00     0.001 A 
ATOM      7  C7  DEN d   1      -1.520   0.534   1.578  0.00  0.00     0.017 A 
ATOM      8  C8  DEN d   1      -0.629  -0.102   0.724  0.00  0.00    -0.094 A 
ATOM      9  C9  DEN d   1       0.658  -0.408   1.135  0.00  0.00    -0.072 A 
ENDROOT
TORSDOF 0
ENDMDL
