MODEL 1
REMARK minimizedAffinity -6.53999186
REMARK minimizedRMSD -1
REMARK  0 active torsions:
REMARK  status: ('A' for Active; 'I' for Inactive)
ROOT
ATOM      1  C1  DEN d   1       1.095   0.409   3.453  0.00  0.00     0.130 A 
ATOM      2  C2  DEN d   1      -0.141   1.033   3.918  0.00  0.00    -0.031 A 
ATOM      3  C3  DEN d   1      -1.074   1.103   2.775  0.00  0.00     0.027 A 
ATOM      4  C4  DEN d   1      -0.729   0.306   0.347  0.00  0.00     0.027 A 
ATOM      5  C5  DEN d   1       0.162  -0.276  -0.528  0.00  0.00    -0.003 A 
ATOM      6  C6  DEN d   1       1.428  -0.637  -0.148  0.00  0.00     0.001 A 
ATOM      7  C7  DEN d   1       1.823  -0.460   1.152  0.00  0.00     0.017 A 
ATOM      8  C8  DEN d   1       0.933   0.133   2.037  0.00  0.00    -0.094 A 
ATOM      9  C9  DEN d   1      -0.346   0.480   1.637  0.00  0.00    -0.072 A 
ENDROOT
TORSDOF 0
ENDMDL
