MODEL 1
REMARK minimizedAffinity -6.06338358
REMARK minimizedRMSD -1
REMARK  0 active torsions:
REMARK  status: ('A' for Active; 'I' for Inactive)
ROOT
ATOM      1  C1  DEN d   1      -0.248   1.329   3.315  0.00  0.00     0.130 A 
ATOM      2  C2  DEN d   1       1.201   1.188   3.431  0.00  0.00    -0.031 A 
ATOM      3  C3  DEN d   1       1.683   0.442   2.251  0.00  0.00     0.027 A 
ATOM      4  C4  DEN d   1       0.334  -0.498   0.264  0.00  0.00     0.027 A 
ATOM      5  C5  DEN d   1      -0.928  -0.637  -0.271  0.00  0.00    -0.003 A 
ATOM      6  C6  DEN d   1      -2.046  -0.164   0.363  0.00  0.00     0.001 A 
ATOM      7  C7  DEN d   1      -1.919   0.511   1.549  0.00  0.00     0.017 A 
ATOM      8  C8  DEN d   1      -0.651   0.648   2.098  0.00  0.00    -0.094 A 
ATOM      9  C9  DEN d   1       0.468   0.173   1.435  0.00  0.00    -0.072 A 
ENDROOT
TORSDOF 0
ENDMDL
