MODEL 1
REMARK minimizedAffinity -5.32625961
REMARK minimizedRMSD -1
REMARK  0 active torsions:
REMARK  status: ('A' for Active; 'I' for Inactive)
ROOT
ATOM      1  C1  DEN d   1      -0.764   0.011  -0.419  0.00  0.00     0.130 A 
ATOM      2  C2  DEN d   1       0.341  -0.744  -1.002  0.00  0.00    -0.031 A 
ATOM      3  C3  DEN d   1       1.371  -0.925   0.041  0.00  0.00     0.027 A 
ATOM      4  C4  DEN d   1       1.358  -0.119   2.491  0.00  0.00     0.027 A 
ATOM      5  C5  DEN d   1       0.640   0.572   3.441  0.00  0.00    -0.003 A 
ATOM      6  C6  DEN d   1      -0.572   1.149   3.165  0.00  0.00     0.001 A 
ATOM      7  C7  DEN d   1      -1.122   1.007   1.919  0.00  0.00     0.017 A 
ATOM      8  C8  DEN d   1      -0.401   0.318   0.953  0.00  0.00    -0.094 A 
ATOM      9  C9  DEN d   1       0.817  -0.268   1.256  0.00  0.00    -0.072 A 
ENDROOT
TORSDOF 0
ENDMDL
