MODEL 1
REMARK minimizedAffinity -3.98762059
REMARK minimizedRMSD -1
REMARK  3 active torsions:
REMARK  status: ('A' for Active; 'I' for Inactive)
REMARK    1  A    between atoms: C3'_2  and  C2'_3 
REMARK    2  A    between atoms: C2'_3  and  C1'_4 
REMARK    3  A    between atoms: C1'_4  and  C1_5 
ROOT
ATOM      1  C1  N4B d   1      -0.746  -5.201  -3.756  0.00  0.00    -0.075 A 
ATOM      2  C2  N4B d   1      -1.299  -6.000  -4.782  0.00  0.00     0.002 A 
ATOM      3  C3  N4B d   1      -1.892  -5.406  -5.870  0.00  0.00     0.002 A 
ATOM      4  C4  N4B d   1      -1.960  -4.023  -5.944  0.00  0.00    -0.004 A 
ATOM      5  C5  N4B d   1      -1.402  -3.259  -4.962  0.00  0.00     0.002 A 
ATOM      6  C6  N4B d   1      -0.799  -3.842  -3.865  0.00  0.00     0.002 A 
ENDROOT
BRANCH   1   7
ATOM      7  C1' N4B d   1      -0.164  -5.804  -2.507  0.00  0.00     0.057 C 
BRANCH   7   8
ATOM      8  C2' N4B d   1      -0.358  -4.834  -1.346  0.00  0.00     0.009 C 
BRANCH   8   9
ATOM      9  C3' N4B d   1       0.682  -5.037  -0.257  0.00  0.00     0.004 C 
ATOM     10  C4' N4B d   1       1.985  -5.556  -0.787  0.00  0.00     0.003 C 
ENDBRANCH   8   9
ENDBRANCH   7   8
ENDBRANCH   1   7
TORSDOF 3
ENDMDL
