MODEL 1
REMARK minimizedAffinity -1.0024178
REMARK minimizedRMSD -1
REMARK  3 active torsions:
REMARK  status: ('A' for Active; 'I' for Inactive)
REMARK    1  A    between atoms: C3'_2  and  C2'_3 
REMARK    2  A    between atoms: C2'_3  and  C1'_4 
REMARK    3  A    between atoms: C1'_4  and  C1_5 
ROOT
ATOM      1  C1  N4B d   1       0.266   0.962   1.004  0.00  0.00    -0.075 A 
ATOM      2  C2  N4B d   1       1.581   0.467   1.139  0.00  0.00     0.002 A 
ATOM      3  C3  N4B d   1       1.794  -0.786   1.660  0.00  0.00     0.002 A 
ATOM      4  C4  N4B d   1       0.712  -1.551   2.070  0.00  0.00    -0.004 A 
ATOM      5  C5  N4B d   1      -0.557  -1.075   1.914  0.00  0.00     0.002 A 
ATOM      6  C6  N4B d   1      -0.786   0.180   1.387  0.00  0.00     0.002 A 
ENDROOT
BRANCH   1   7
ATOM      7  C1' N4B d   1      -0.012   2.359   0.519  0.00  0.00     0.057 C 
BRANCH   7   8
ATOM      8  C2' N4B d   1       0.291   2.440  -0.974  0.00  0.00     0.009 C 
BRANCH   8   9
ATOM      9  C3' N4B d   1       0.596   3.861  -1.415  0.00  0.00     0.004 C 
ATOM     10  C4' N4B d   1      -0.472   4.835  -1.015  0.00  0.00     0.003 C 
ENDBRANCH   8   9
ENDBRANCH   7   8
ENDBRANCH   1   7
TORSDOF 3
ENDMDL
