MODEL 1
REMARK minimizedAffinity 3.81033969
REMARK minimizedRMSD -1
REMARK  3 active torsions:
REMARK  status: ('A' for Active; 'I' for Inactive)
REMARK    1  A    between atoms: C3'_2  and  C2'_3 
REMARK    2  A    between atoms: C2'_3  and  C1'_4 
REMARK    3  A    between atoms: C1'_4  and  C1_5 
ROOT
ATOM      1  C1  N4B d   1      -0.407   2.468   0.035  0.00  0.00    -0.075 A 
ATOM      2  C2  N4B d   1      -1.063   3.664   0.398  0.00  0.00     0.002 A 
ATOM      3  C3  N4B d   1      -0.928   4.786  -0.383  0.00  0.00     0.002 A 
ATOM      4  C4  N4B d   1      -0.130   4.740  -1.517  0.00  0.00    -0.004 A 
ATOM      5  C5  N4B d   1       0.479   3.574  -1.875  0.00  0.00     0.002 A 
ATOM      6  C6  N4B d   1       0.349   2.438  -1.102  0.00  0.00     0.002 A 
ENDROOT
BRANCH   1   7
ATOM      7  C1' N4B d   1      -0.455   1.240   0.903  0.00  0.00     0.057 C 
BRANCH   7   8
ATOM      8  C2' N4B d   1       0.912   1.028   1.546  0.00  0.00     0.009 C 
BRANCH   8   9
ATOM      9  C3' N4B d   1       1.851   2.192   1.283  0.00  0.00     0.004 C 
ATOM     10  C4' N4B d   1       2.676   2.556   2.481  0.00  0.00     0.003 C 
ENDBRANCH   8   9
ENDBRANCH   7   8
ENDBRANCH   1   7
TORSDOF 3
ENDMDL
