MODEL 1
REMARK minimizedAffinity 1.33783948
REMARK minimizedRMSD -1
REMARK  0 active torsions:
REMARK  status: ('A' for Active; 'I' for Inactive)
ROOT
ATOM      1  C   UNL d   1       1.009   3.006  -3.033  0.00  0.00     0.078 C 
ATOM      2  C1  UNL d   1       1.936   2.515  -1.961  0.00  0.00    -0.077 A 
ATOM      3  C2  UNL d   1       3.322   2.497  -2.158  0.00  0.00    -0.001 A 
ATOM      4  C3  UNL d   1       4.172   2.029  -1.155  0.00  0.00     0.003 A 
ATOM      5  C4  UNL d   1       3.645   1.573   0.052  0.00  0.00    -0.005 A 
ATOM      6  C5  UNL d   1       2.266   1.584   0.256  0.00  0.00     0.003 A 
ATOM      7  C6  UNL d   1       1.415   2.052  -0.746  0.00  0.00    -0.001 A 
ENDROOT
TORSDOF 0
ENDMDL
