MODEL 1
REMARK minimizedAffinity 7.11285639
REMARK minimizedRMSD -1
REMARK  0 active torsions:
REMARK  status: ('A' for Active; 'I' for Inactive)
ROOT
ATOM      1  C   UNL d   1      -3.393  -5.082  -5.280  0.00  0.00     0.078 C 
ATOM      2  C1  UNL d   1      -2.507  -4.532  -4.203  0.00  0.00    -0.077 A 
ATOM      3  C2  UNL d   1      -2.635  -3.206  -3.771  0.00  0.00    -0.001 A 
ATOM      4  C3  UNL d   1      -1.796  -2.704  -2.775  0.00  0.00     0.003 A 
ATOM      5  C4  UNL d   1      -0.823  -3.521  -2.202  0.00  0.00    -0.005 A 
ATOM      6  C5  UNL d   1      -0.687  -4.841  -2.627  0.00  0.00     0.003 A 
ATOM      7  C6  UNL d   1      -1.524  -5.344  -3.624  0.00  0.00    -0.001 A 
ENDROOT
TORSDOF 0
ENDMDL
