MODEL 1
REMARK minimizedAffinity 5.50846815
REMARK minimizedRMSD -1
REMARK  0 active torsions:
REMARK  status: ('A' for Active; 'I' for Inactive)
ROOT
ATOM      1  C   UNL d   1      -5.297   0.092   0.975  0.00  0.00     0.078 C 
ATOM      2  C1  UNL d   1      -3.895  -0.229   1.401  0.00  0.00    -0.077 A 
ATOM      3  C2  UNL d   1      -3.186  -1.284   0.813  0.00  0.00    -0.001 A 
ATOM      4  C3  UNL d   1      -1.885  -1.577   1.226  0.00  0.00     0.003 A 
ATOM      5  C4  UNL d   1      -1.283  -0.820   2.229  0.00  0.00    -0.005 A 
ATOM      6  C5  UNL d   1      -1.981   0.230   2.821  0.00  0.00     0.003 A 
ATOM      7  C6  UNL d   1      -3.282   0.524   2.410  0.00  0.00    -0.001 A 
ENDROOT
TORSDOF 0
ENDMDL
