MODEL 1
REMARK minimizedAffinity 12.3682432
REMARK minimizedRMSD -1
REMARK  0 active torsions:
REMARK  status: ('A' for Active; 'I' for Inactive)
ROOT
ATOM      1  C   UNL d   1       3.758   2.937  -5.996  0.00  0.00     0.078 C 
ATOM      2  C1  UNL d   1       4.290   3.388  -4.669  0.00  0.00    -0.077 A 
ATOM      3  C2  UNL d   1       5.512   4.065  -4.574  0.00  0.00    -0.001 A 
ATOM      4  C3  UNL d   1       6.000   4.470  -3.330  0.00  0.00     0.003 A 
ATOM      5  C4  UNL d   1       5.273   4.200  -2.172  0.00  0.00    -0.005 A 
ATOM      6  C5  UNL d   1       4.057   3.525  -2.256  0.00  0.00     0.003 A 
ATOM      7  C6  UNL d   1       3.568   3.120  -3.499  0.00  0.00    -0.001 A 
ENDROOT
TORSDOF 0
ENDMDL
