MODEL 1
REMARK minimizedAffinity 2.8650167
REMARK minimizedRMSD -1
REMARK  0 active torsions:
REMARK  status: ('A' for Active; 'I' for Inactive)
ROOT
ATOM      1  C   UNL d   1      -4.853  -0.016   1.865  0.00  0.00     0.078 C 
ATOM      2  C1  UNL d   1      -4.827   0.414   3.301  0.00  0.00    -0.077 A 
ATOM      3  C2  UNL d   1      -5.999   0.819   3.954  0.00  0.00    -0.001 A 
ATOM      4  C3  UNL d   1      -5.959   1.227   5.288  0.00  0.00     0.003 A 
ATOM      5  C4  UNL d   1      -4.750   1.235   5.981  0.00  0.00    -0.005 A 
ATOM      6  C5  UNL d   1      -3.579   0.836   5.340  0.00  0.00     0.003 A 
ATOM      7  C6  UNL d   1      -3.617   0.428   4.006  0.00  0.00    -0.001 A 
ENDROOT
TORSDOF 0
ENDMDL
