MODEL 1
REMARK minimizedAffinity 3.10272217
REMARK minimizedRMSD -1
REMARK  0 active torsions:
REMARK  status: ('A' for Active; 'I' for Inactive)
ROOT
ATOM      1  C   UNL d   1       1.704  -5.985  -4.495  0.00  0.00     0.078 C 
ATOM      2  C1  UNL d   1       0.273  -5.536  -4.492  0.00  0.00    -0.077 A 
ATOM      3  C2  UNL d   1      -0.208  -4.666  -3.506  0.00  0.00    -0.001 A 
ATOM      4  C3  UNL d   1      -1.544  -4.264  -3.510  0.00  0.00     0.003 A 
ATOM      5  C4  UNL d   1      -2.411  -4.727  -4.497  0.00  0.00    -0.005 A 
ATOM      6  C5  UNL d   1      -1.943  -5.595  -5.481  0.00  0.00     0.003 A 
ATOM      7  C6  UNL d   1      -0.607  -5.998  -5.479  0.00  0.00    -0.001 A 
ENDROOT
TORSDOF 0
ENDMDL
