MODEL 1
REMARK minimizedAffinity 1.42790937
REMARK minimizedRMSD -1
REMARK  0 active torsions:
REMARK  status: ('A' for Active; 'I' for Inactive)
ROOT
ATOM      1  C   UNL d   1      -4.863  -1.696   2.433  0.00  0.00     0.078 C 
ATOM      2  C1  UNL d   1      -4.859  -0.754   3.600  0.00  0.00    -0.077 A 
ATOM      3  C2  UNL d   1      -4.855   0.633   3.406  0.00  0.00    -0.001 A 
ATOM      4  C3  UNL d   1      -4.842   1.498   4.501  0.00  0.00     0.003 A 
ATOM      5  C4  UNL d   1      -4.832   0.986   5.797  0.00  0.00    -0.005 A 
ATOM      6  C5  UNL d   1      -4.834  -0.392   6.000  0.00  0.00     0.003 A 
ATOM      7  C6  UNL d   1      -4.847  -1.259   4.906  0.00  0.00    -0.001 A 
ENDROOT
TORSDOF 0
ENDMDL
