MODEL 1
REMARK minimizedAffinity 7.54311275
REMARK minimizedRMSD -1
REMARK  0 active torsions:
REMARK  status: ('A' for Active; 'I' for Inactive)
ROOT
ATOM      1  C   UNL d   1      -5.252  -5.919   5.990  0.00  0.00     0.078 C 
ATOM      2  C1  UNL d   1      -5.284  -5.351   4.603  0.00  0.00    -0.077 A 
ATOM      3  C2  UNL d   1      -5.982  -5.996   3.575  0.00  0.00    -0.001 A 
ATOM      4  C3  UNL d   1      -5.995  -5.461   2.286  0.00  0.00     0.003 A 
ATOM      5  C4  UNL d   1      -5.310  -4.279   2.012  0.00  0.00    -0.005 A 
ATOM      6  C5  UNL d   1      -4.610  -3.631   3.028  0.00  0.00     0.003 A 
ATOM      7  C6  UNL d   1      -4.596  -4.164   4.318  0.00  0.00    -0.001 A 
ENDROOT
TORSDOF 0
ENDMDL
