MODEL 1
REMARK minimizedAffinity 3.55656004
REMARK minimizedRMSD -1
REMARK  0 active torsions:
REMARK  status: ('A' for Active; 'I' for Inactive)
ROOT
ATOM      1  C   UNL d   1       1.814  -5.639  -3.736  0.00  0.00     0.078 C 
ATOM      2  C1  UNL d   1       0.394  -5.619  -4.219  0.00  0.00    -0.077 A 
ATOM      3  C2  UNL d   1      -0.651  -5.236  -3.370  0.00  0.00    -0.001 A 
ATOM      4  C3  UNL d   1      -1.969  -5.231  -3.830  0.00  0.00     0.003 A 
ATOM      5  C4  UNL d   1      -2.254  -5.610  -5.140  0.00  0.00    -0.005 A 
ATOM      6  C5  UNL d   1      -1.221  -5.995  -5.992  0.00  0.00     0.003 A 
ATOM      7  C6  UNL d   1       0.098  -6.000  -5.534  0.00  0.00    -0.001 A 
ENDROOT
TORSDOF 0
ENDMDL
