MODEL 1
REMARK minimizedAffinity 9.78024864
REMARK minimizedRMSD -1
REMARK  0 active torsions:
REMARK  status: ('A' for Active; 'I' for Inactive)
ROOT
ATOM      1  C   UNL d   1       2.995   1.396  -0.135  0.00  0.00     0.078 C 
ATOM      2  C1  UNL d   1       4.041   2.212   0.564  0.00  0.00    -0.077 A 
ATOM      3  C2  UNL d   1       5.001   2.928  -0.162  0.00  0.00    -0.001 A 
ATOM      4  C3  UNL d   1       5.975   3.676   0.502  0.00  0.00     0.003 A 
ATOM      5  C4  UNL d   1       6.000   3.712   1.895  0.00  0.00    -0.005 A 
ATOM      6  C5  UNL d   1       5.051   3.000   2.625  0.00  0.00     0.003 A 
ATOM      7  C6  UNL d   1       4.076   2.253   1.963  0.00  0.00    -0.001 A 
ENDROOT
TORSDOF 0
ENDMDL
