MODEL 1
REMARK minimizedAffinity 11.4246387
REMARK minimizedRMSD -1
REMARK  0 active torsions:
REMARK  status: ('A' for Active; 'I' for Inactive)
ROOT
ATOM      1  C   UNL d   1      -5.135  -5.868   5.999  0.00  0.00     0.078 C 
ATOM      2  C1  UNL d   1      -5.015  -5.222   4.652  0.00  0.00    -0.077 A 
ATOM      3  C2  UNL d   1      -4.831  -5.991   3.496  0.00  0.00    -0.001 A 
ATOM      4  C3  UNL d   1      -4.712  -5.375   2.250  0.00  0.00     0.003 A 
ATOM      5  C4  UNL d   1      -4.774  -3.987   2.146  0.00  0.00    -0.005 A 
ATOM      6  C5  UNL d   1      -4.954  -3.213   3.291  0.00  0.00     0.003 A 
ATOM      7  C6  UNL d   1      -5.074  -3.827   4.538  0.00  0.00    -0.001 A 
ENDROOT
TORSDOF 0
ENDMDL
