MODEL 1
REMARK minimizedAffinity 9.41980553
REMARK minimizedRMSD -1
REMARK  0 active torsions:
REMARK  status: ('A' for Active; 'I' for Inactive)
ROOT
ATOM      1  C   UNL d   1      -4.841   0.030   1.150  0.00  0.00     0.078 C 
ATOM      2  C1  UNL d   1      -3.422  -0.141   1.604  0.00  0.00    -0.077 A 
ATOM      3  C2  UNL d   1      -2.893   0.648   2.632  0.00  0.00    -0.001 A 
ATOM      4  C3  UNL d   1      -1.568   0.485   3.037  0.00  0.00     0.003 A 
ATOM      5  C4  UNL d   1      -0.759  -0.466   2.419  0.00  0.00    -0.005 A 
ATOM      6  C5  UNL d   1      -1.276  -1.255   1.393  0.00  0.00     0.003 A 
ATOM      7  C6  UNL d   1      -2.601  -1.093   0.986  0.00  0.00    -0.001 A 
ENDROOT
TORSDOF 0
ENDMDL
