MODEL 1
REMARK minimizedAffinity 6.51574087
REMARK minimizedRMSD -1
REMARK  0 active torsions:
REMARK  status: ('A' for Active; 'I' for Inactive)
ROOT
ATOM      1  C   UNL d   1      -1.759  -2.416   0.910  0.00  0.00     0.078 C 
ATOM      2  C1  UNL d   1      -2.141  -1.216   1.724  0.00  0.00    -0.077 A 
ATOM      3  C2  UNL d   1      -1.243  -0.647   2.635  0.00  0.00    -0.001 A 
ATOM      4  C3  UNL d   1      -1.616   0.464   3.394  0.00  0.00     0.003 A 
ATOM      5  C4  UNL d   1      -2.888   1.015   3.250  0.00  0.00    -0.005 A 
ATOM      6  C5  UNL d   1      -3.789   0.454   2.348  0.00  0.00     0.003 A 
ATOM      7  C6  UNL d   1      -3.418  -0.657   1.588  0.00  0.00    -0.001 A 
ENDROOT
TORSDOF 0
ENDMDL
