MODEL 1
REMARK minimizedAffinity 0.463706136
REMARK minimizedRMSD -1
REMARK  0 active torsions:
REMARK  status: ('A' for Active; 'I' for Inactive)
ROOT
ATOM      1  C   UNL d   1       1.179  -1.164   3.548  0.00  0.00     0.078 C 
ATOM      2  C1  UNL d   1       0.065  -0.273   4.009  0.00  0.00    -0.077 A 
ATOM      3  C2  UNL d   1      -0.332  -0.250   5.352  0.00  0.00    -0.001 A 
ATOM      4  C3  UNL d   1      -1.378   0.577   5.765  0.00  0.00     0.003 A 
ATOM      5  C4  UNL d   1      -2.035   1.388   4.842  0.00  0.00    -0.005 A 
ATOM      6  C5  UNL d   1      -1.649   1.370   3.503  0.00  0.00     0.003 A 
ATOM      7  C6  UNL d   1      -0.604   0.543   3.088  0.00  0.00    -0.001 A 
ENDROOT
TORSDOF 0
ENDMDL
