MODEL 1
REMARK minimizedAffinity 4.91670704
REMARK minimizedRMSD -1
REMARK  0 active torsions:
REMARK  status: ('A' for Active; 'I' for Inactive)
ROOT
ATOM      1  C   UNL d   1      -4.926  -2.191   2.946  0.00  0.00     0.078 C 
ATOM      2  C1  UNL d   1      -5.257  -3.446   3.697  0.00  0.00    -0.077 A 
ATOM      3  C2  UNL d   1      -5.526  -4.642   3.020  0.00  0.00    -0.001 A 
ATOM      4  C3  UNL d   1      -5.842  -5.800   3.732  0.00  0.00     0.003 A 
ATOM      5  C4  UNL d   1      -5.895  -5.773   5.124  0.00  0.00    -0.005 A 
ATOM      6  C5  UNL d   1      -5.632  -4.587   5.806  0.00  0.00     0.003 A 
ATOM      7  C6  UNL d   1      -5.315  -3.428   5.096  0.00  0.00    -0.001 A 
ENDROOT
TORSDOF 0
ENDMDL
