MODEL 1
REMARK minimizedAffinity 17.3630219
REMARK minimizedRMSD -1
REMARK  0 active torsions:
REMARK  status: ('A' for Active; 'I' for Inactive)
ROOT
ATOM      1  C   UNL d   1       2.314   1.053   0.283  0.00  0.00     0.078 C 
ATOM      2  C1  UNL d   1       2.219   1.658  -1.086  0.00  0.00    -0.077 A 
ATOM      3  C2  UNL d   1       3.353   2.170  -1.729  0.00  0.00    -0.001 A 
ATOM      4  C3  UNL d   1       3.248   2.739  -2.999  0.00  0.00     0.003 A 
ATOM      5  C4  UNL d   1       2.011   2.804  -3.636  0.00  0.00    -0.005 A 
ATOM      6  C5  UNL d   1       0.876   2.299  -3.004  0.00  0.00     0.003 A 
ATOM      7  C6  UNL d   1       0.979   1.730  -1.734  0.00  0.00    -0.001 A 
ENDROOT
TORSDOF 0
ENDMDL
