MODEL 1
REMARK minimizedAffinity 7.89855909
REMARK minimizedRMSD -1
REMARK  0 active torsions:
REMARK  status: ('A' for Active; 'I' for Inactive)
ROOT
ATOM      1  C   UNL d   1      -5.842  -0.792  -2.694  0.00  0.00     0.078 C 
ATOM      2  C1  UNL d   1      -5.827  -0.113  -1.357  0.00  0.00    -0.077 A 
ATOM      3  C2  UNL d   1      -5.629   1.269  -1.253  0.00  0.00    -0.001 A 
ATOM      4  C3  UNL d   1      -5.608   1.887  -0.002  0.00  0.00     0.003 A 
ATOM      5  C4  UNL d   1      -5.783   1.131   1.155  0.00  0.00    -0.005 A 
ATOM      6  C5  UNL d   1      -5.978  -0.246   1.062  0.00  0.00     0.003 A 
ATOM      7  C6  UNL d   1      -6.000  -0.865  -0.189  0.00  0.00    -0.001 A 
ENDROOT
TORSDOF 0
ENDMDL
