MODEL 1
REMARK minimizedAffinity -3.94091725
REMARK minimizedRMSD -1
REMARK  0 active torsions:
REMARK  status: ('A' for Active; 'I' for Inactive)
ROOT
ATOM      1  C1  BNZ d   1       0.829  -0.212   0.447  0.00  0.00     0.000 A 
ATOM      2  C2  BNZ d   1      -0.002  -1.015  -0.288  0.00  0.00     0.000 A 
ATOM      3  C3  BNZ d   1       0.468  -2.153  -0.882  0.00  0.00     0.000 A 
ATOM      4  C4  BNZ d   1       1.776  -2.465  -0.774  0.00  0.00     0.000 A 
ATOM      5  C5  BNZ d   1       2.629  -1.661  -0.045  0.00  0.00     0.000 A 
ATOM      6  C6  BNZ d   1       2.144  -0.537   0.584  0.00  0.00     0.000 A 
ENDROOT
TORSDOF 0
ENDMDL
