MODEL 1
REMARK minimizedAffinity -4.95516443
REMARK minimizedRMSD -1
REMARK  0 active torsions:
REMARK  status: ('A' for Active; 'I' for Inactive)
ROOT
ATOM      1  C1  BNZ d   1       2.207  -1.897   0.170  0.00  0.00     0.000 A 
ATOM      2  C2  BNZ d   1       0.877  -1.967  -0.147  0.00  0.00     0.000 A 
ATOM      3  C3  BNZ d   1       0.100  -0.842  -0.157  0.00  0.00     0.000 A 
ATOM      4  C4  BNZ d   1       0.644   0.343   0.188  0.00  0.00     0.000 A 
ATOM      5  C5  BNZ d   1       1.982   0.428   0.518  0.00  0.00     0.000 A 
ATOM      6  C6  BNZ d   1       2.770  -0.700   0.489  0.00  0.00     0.000 A 
ENDROOT
TORSDOF 0
ENDMDL
