MODEL 1
REMARK minimizedAffinity -4.50634336
REMARK minimizedRMSD -1
REMARK  0 active torsions:
REMARK  status: ('A' for Active; 'I' for Inactive)
ROOT
ATOM      1  C1  BNZ d   1      -0.244  -0.135  -0.095  0.00  0.00     0.000 A 
ATOM      2  C2  BNZ d   1       0.339  -1.370  -0.194  0.00  0.00     0.000 A 
ATOM      3  C3  BNZ d   1       1.618  -1.577   0.242  0.00  0.00     0.000 A 
ATOM      4  C4  BNZ d   1       2.325  -0.542   0.738  0.00  0.00     0.000 A 
ATOM      5  C5  BNZ d   1       1.755   0.711   0.836  0.00  0.00     0.000 A 
ATOM      6  C6  BNZ d   1       0.454   0.908   0.432  0.00  0.00     0.000 A 
ENDROOT
TORSDOF 0
ENDMDL
