MODEL 1
REMARK minimizedAffinity -3.75812197
REMARK minimizedRMSD -1
REMARK  0 active torsions:
REMARK  status: ('A' for Active; 'I' for Inactive)
ROOT
ATOM      1  C1  BNZ d   1      -0.177  -0.732  -0.405  0.00  0.00     0.000 A 
ATOM      2  C2  BNZ d   1       1.073  -1.038   0.064  0.00  0.00     0.000 A 
ATOM      3  C3  BNZ d   1       1.935  -0.051   0.453  0.00  0.00     0.000 A 
ATOM      4  C4  BNZ d   1       1.561   1.240   0.336  0.00  0.00     0.000 A 
ATOM      5  C5  BNZ d   1       0.308   1.564  -0.144  0.00  0.00     0.000 A 
ATOM      6  C6  BNZ d   1      -0.572   0.567  -0.498  0.00  0.00     0.000 A 
ENDROOT
TORSDOF 0
ENDMDL
