MODEL 1
REMARK minimizedAffinity -5.10708475
REMARK minimizedRMSD -1
REMARK  0 active torsions:
REMARK  status: ('A' for Active; 'I' for Inactive)
ROOT
ATOM      1  C1  BNZ d   1       0.657  -1.492  -0.384  0.00  0.00     0.000 A 
ATOM      2  C2  BNZ d   1       0.222  -0.195  -0.457  0.00  0.00     0.000 A 
ATOM      3  C3  BNZ d   1       0.989   0.829   0.022  0.00  0.00     0.000 A 
ATOM      4  C4  BNZ d   1       2.172   0.553   0.608  0.00  0.00     0.000 A 
ATOM      5  C5  BNZ d   1       2.621  -0.750   0.698  0.00  0.00     0.000 A 
ATOM      6  C6  BNZ d   1       1.863  -1.775   0.180  0.00  0.00     0.000 A 
ENDROOT
TORSDOF 0
ENDMDL
