MODEL 1
REMARK minimizedAffinity -3.72585201
REMARK minimizedRMSD -1
REMARK  0 active torsions:
REMARK  status: ('A' for Active; 'I' for Inactive)
ROOT
ATOM      1  C1  BNZ d   1       1.405   0.457   0.626  0.00  0.00     0.000 A 
ATOM      2  C2  BNZ d   1       2.139  -0.699   0.615  0.00  0.00     0.000 A 
ATOM      3  C3  BNZ d   1       1.704  -1.798  -0.072  0.00  0.00     0.000 A 
ATOM      4  C4  BNZ d   1       0.518  -1.753  -0.714  0.00  0.00     0.000 A 
ATOM      5  C5  BNZ d   1      -0.238  -0.597  -0.704  0.00  0.00     0.000 A 
ATOM      6  C6  BNZ d   1       0.222   0.519  -0.044  0.00  0.00     0.000 A 
ENDROOT
TORSDOF 0
ENDMDL
