MODEL 1
REMARK minimizedAffinity -0.762173295
REMARK minimizedRMSD -1
REMARK  0 active torsions:
REMARK  status: ('A' for Active; 'I' for Inactive)
ROOT
ATOM      1  C1  BNZ d   1       4.107  -0.746  -2.865  0.00  0.00     0.000 A 
ATOM      2  C2  BNZ d   1       3.532  -1.771  -2.162  0.00  0.00     0.000 A 
ATOM      3  C3  BNZ d   1       3.324  -1.666  -0.815  0.00  0.00     0.000 A 
ATOM      4  C4  BNZ d   1       3.726  -0.554  -0.167  0.00  0.00     0.000 A 
ATOM      5  C5  BNZ d   1       4.315   0.485  -0.860  0.00  0.00     0.000 A 
ATOM      6  C6  BNZ d   1       4.488   0.391  -2.222  0.00  0.00     0.000 A 
ENDROOT
TORSDOF 0
ENDMDL
