MODEL 1
REMARK minimizedAffinity 0.819971561
REMARK minimizedRMSD -1
REMARK  0 active torsions:
REMARK  status: ('A' for Active; 'I' for Inactive)
ROOT
ATOM      1  C1  BNZ d   1       0.528  -1.881   0.021  0.00  0.00     0.000 A 
ATOM      2  C2  BNZ d   1       1.822  -2.330  -0.008  0.00  0.00     0.000 A 
ATOM      3  C3  BNZ d   1       2.546  -2.302  -1.167  0.00  0.00     0.000 A 
ATOM      4  C4  BNZ d   1       1.965  -1.863  -2.302  0.00  0.00     0.000 A 
ATOM      5  C5  BNZ d   1       0.658  -1.417  -2.291  0.00  0.00     0.000 A 
ATOM      6  C6  BNZ d   1      -0.055  -1.410  -1.114  0.00  0.00     0.000 A 
ENDROOT
TORSDOF 0
ENDMDL
