MODEL 1
REMARK minimizedAffinity 10.0528717
REMARK minimizedRMSD -1
REMARK  2 active torsions:
REMARK  status: ('A' for Active; 'I' for Inactive)
REMARK    1  A    between atoms: C2'_3  and  C1'_4 
REMARK    2  A    between atoms: C1'_4  and  C1_5 
ROOT
ATOM      1  C1  I4B d   1       1.815  -0.407   0.189  0.00  0.00    -0.075 A 
ATOM      2  C2  I4B d   1       1.334  -0.306  -1.093  0.00  0.00     0.003 A 
ATOM      3  C3  I4B d   1       1.351   0.940  -1.765  0.00  0.00     0.002 A 
ATOM      4  C4  I4B d   1       1.808   2.062  -1.105  0.00  0.00    -0.004 A 
ATOM      5  C5  I4B d   1       2.317   1.954   0.186  0.00  0.00     0.002 A 
ATOM      6  C6  I4B d   1       2.332   0.710   0.833  0.00  0.00     0.003 A 
ENDROOT
BRANCH   1   7
ATOM      7  C1' I4B d   1       1.752  -1.731   0.881  0.00  0.00     0.060 C 
BRANCH   7   8
ATOM      8  C2' I4B d   1       1.998  -1.499   2.358  0.00  0.00    -0.013 C 
ATOM      9  C4' I4B d   1       0.703  -1.427   3.122  0.00  0.00     0.013 C 
ATOM     10  C3' I4B d   1       2.864  -2.613   2.864  0.00  0.00     0.013 C 
ENDBRANCH   7   8
ENDBRANCH   1   7
TORSDOF 2
ENDMDL
