MODEL 1
REMARK minimizedAffinity 11.2269087
REMARK minimizedRMSD -1
REMARK  2 active torsions:
REMARK  status: ('A' for Active; 'I' for Inactive)
REMARK    1  A    between atoms: C2'_3  and  C1'_4 
REMARK    2  A    between atoms: C1'_4  and  C1_5 
ROOT
ATOM      1  C1  I4B d   1       1.290  -1.727   1.835  0.00  0.00    -0.075 A 
ATOM      2  C2  I4B d   1       1.464  -0.913   0.743  0.00  0.00     0.003 A 
ATOM      3  C3  I4B d   1       2.400  -1.258  -0.261  0.00  0.00     0.002 A 
ATOM      4  C4  I4B d   1       3.173  -2.392  -0.110  0.00  0.00    -0.004 A 
ATOM      5  C5  I4B d   1       2.979  -3.227   0.986  0.00  0.00     0.002 A 
ATOM      6  C6  I4B d   1       2.024  -2.900   1.959  0.00  0.00     0.003 A 
ENDROOT
BRANCH   1   7
ATOM      7  C1' I4B d   1       0.317  -1.315   2.893  0.00  0.00     0.060 C 
BRANCH   7   8
ATOM      8  C2' I4B d   1      -0.912  -0.755   2.205  0.00  0.00    -0.013 C 
ATOM      9  C4' I4B d   1      -1.664  -1.834   1.470  0.00  0.00     0.013 C 
ATOM     10  C3' I4B d   1      -1.773  -0.109   3.249  0.00  0.00     0.013 C 
ENDBRANCH   7   8
ENDBRANCH   1   7
TORSDOF 2
ENDMDL
