MODEL 1
REMARK minimizedAffinity 2.7535181
REMARK minimizedRMSD -1
REMARK  2 active torsions:
REMARK  status: ('A' for Active; 'I' for Inactive)
REMARK    1  A    between atoms: C2'_3  and  C1'_4 
REMARK    2  A    between atoms: C1'_4  and  C1_5 
ROOT
ATOM      1  C1  I4B d   1       1.013  -1.091   1.254  0.00  0.00    -0.075 A 
ATOM      2  C2  I4B d   1       1.301  -0.450   2.433  0.00  0.00     0.003 A 
ATOM      3  C3  I4B d   1       0.254  -0.017   3.282  0.00  0.00     0.002 A 
ATOM      4  C4  I4B d   1      -1.057  -0.198   2.892  0.00  0.00    -0.004 A 
ATOM      5  C5  I4B d   1      -1.347  -0.868   1.706  0.00  0.00     0.002 A 
ATOM      6  C6  I4B d   1      -0.305  -1.328   0.888  0.00  0.00     0.003 A 
ENDROOT
BRANCH   1   7
ATOM      7  C1' I4B d   1       2.143  -1.506   0.365  0.00  0.00     0.060 C 
BRANCH   7   8
ATOM      8  C2' I4B d   1       2.681  -2.825   0.881  0.00  0.00    -0.013 C 
ATOM      9  C4' I4B d   1       3.251  -3.656  -0.238  0.00  0.00     0.013 C 
ATOM     10  C3' I4B d   1       3.722  -2.527   1.918  0.00  0.00     0.013 C 
ENDBRANCH   7   8
ENDBRANCH   1   7
TORSDOF 2
ENDMDL
