MODEL 1
REMARK minimizedAffinity 7.88013554
REMARK minimizedRMSD -1
REMARK  2 active torsions:
REMARK  status: ('A' for Active; 'I' for Inactive)
REMARK    1  A    between atoms: C2'_3  and  C1'_4 
REMARK    2  A    between atoms: C1'_4  and  C1_5 
ROOT
ATOM      1  C1  I4B d   1      -3.362   2.680  -5.069  0.00  0.00    -0.075 A 
ATOM      2  C2  I4B d   1      -3.385   2.665  -3.696  0.00  0.00     0.003 A 
ATOM      3  C3  I4B d   1      -3.009   1.498  -2.989  0.00  0.00     0.002 A 
ATOM      4  C4  I4B d   1      -2.667   0.359  -3.691  0.00  0.00    -0.004 A 
ATOM      5  C5  I4B d   1      -2.623   0.383  -5.082  0.00  0.00     0.002 A 
ATOM      6  C6  I4B d   1      -2.960   1.554  -5.775  0.00  0.00     0.003 A 
ENDROOT
BRANCH   1   7
ATOM      7  C1' I4B d   1      -3.796   3.920  -5.783  0.00  0.00     0.060 C 
BRANCH   7   8
ATOM      8  C2' I4B d   1      -4.952   4.523  -5.011  0.00  0.00    -0.013 C 
ATOM      9  C4' I4B d   1      -4.496   5.679  -4.161  0.00  0.00     0.013 C 
ATOM     10  C3' I4B d   1      -5.994   4.956  -6.000  0.00  0.00     0.013 C 
ENDBRANCH   7   8
ENDBRANCH   1   7
TORSDOF 2
ENDMDL
