MODEL 1
REMARK minimizedAffinity 2.37592125
REMARK minimizedRMSD -1
REMARK  2 active torsions:
REMARK  status: ('A' for Active; 'I' for Inactive)
REMARK    1  A    between atoms: C2'_3  and  C1'_4 
REMARK    2  A    between atoms: C1'_4  and  C1_5 
ROOT
ATOM      1  C1  I4B d   1       0.850  -0.948   0.893  0.00  0.00    -0.075 A 
ATOM      2  C2  I4B d   1      -0.036  -0.566  -0.083  0.00  0.00     0.003 A 
ATOM      3  C3  I4B d   1       0.325  -0.658  -1.449  0.00  0.00     0.002 A 
ATOM      4  C4  I4B d   1       1.591  -1.086  -1.790  0.00  0.00    -0.004 A 
ATOM      5  C5  I4B d   1       2.480  -1.495  -0.800  0.00  0.00     0.002 A 
ATOM      6  C6  I4B d   1       2.104  -1.437   0.549  0.00  0.00     0.003 A 
ENDROOT
BRANCH   1   7
ATOM      7  C1' I4B d   1       0.448  -0.807   2.327  0.00  0.00     0.060 C 
BRANCH   7   8
ATOM      8  C2' I4B d   1      -1.009  -1.205   2.445  0.00  0.00    -0.013 C 
ATOM      9  C4' I4B d   1      -1.164  -2.476   3.237  0.00  0.00     0.013 C 
ATOM     10  C3' I4B d   1      -1.748  -0.071   3.091  0.00  0.00     0.013 C 
ENDBRANCH   7   8
ENDBRANCH   1   7
TORSDOF 2
ENDMDL
