MODEL 1
REMARK minimizedAffinity 5.44562769
REMARK minimizedRMSD -1
REMARK  2 active torsions:
REMARK  status: ('A' for Active; 'I' for Inactive)
REMARK    1  A    between atoms: C2'_3  and  C1'_4 
REMARK    2  A    between atoms: C1'_4  and  C1_5 
ROOT
ATOM      1  C1  I4B d   1       0.989  -0.863  -0.542  0.00  0.00    -0.075 A 
ATOM      2  C2  I4B d   1       1.612  -1.201   0.634  0.00  0.00     0.003 A 
ATOM      3  C3  I4B d   1       0.845  -1.581   1.763  0.00  0.00     0.002 A 
ATOM      4  C4  I4B d   1      -0.532  -1.560   1.687  0.00  0.00    -0.004 A 
ATOM      5  C5  I4B d   1      -1.161  -1.239   0.487  0.00  0.00     0.002 A 
ATOM      6  C6  I4B d   1      -0.396  -0.900  -0.638  0.00  0.00     0.003 A 
ENDROOT
BRANCH   1   7
ATOM      7  C1' I4B d   1       1.828  -0.436  -1.704  0.00  0.00     0.060 C 
BRANCH   7   8
ATOM      8  C2' I4B d   1       1.486   1.006  -2.021  0.00  0.00    -0.013 C 
ATOM      9  C4' I4B d   1       2.109   1.946  -1.023  0.00  0.00     0.013 C 
ATOM     10  C3' I4B d   1       1.962   1.300  -3.413  0.00  0.00     0.013 C 
ENDBRANCH   7   8
ENDBRANCH   1   7
TORSDOF 2
ENDMDL
