MODEL 1
REMARK minimizedAffinity 5.75806189
REMARK minimizedRMSD -1
REMARK  0 active torsions:
REMARK  status: ('A' for Active; 'I' for Inactive)
ROOT
ATOM      1  C   UNL d   1       1.712  -3.910   5.999  0.00  0.00     0.172 C 
ATOM      2  N   UNL d   1       1.887  -2.625   5.365  0.00  0.00    -0.070 N 
ATOM      3  C1  UNL d   1       2.284  -1.473   5.990  0.00  0.00    -0.004 A 
ATOM      4  C2  UNL d   1       2.329  -0.473   5.043  0.00  0.00    -0.047 A 
ATOM      5  C3  UNL d   1       1.945  -1.043   3.806  0.00  0.00    -0.047 A 
ATOM      6  C4  UNL d   1       1.676  -2.376   4.034  0.00  0.00    -0.004 A 
ENDROOT
TORSDOF 0
ENDMDL
