MODEL 1
REMARK minimizedAffinity 2.41667676
REMARK minimizedRMSD -1
REMARK  0 active torsions:
REMARK  status: ('A' for Active; 'I' for Inactive)
ROOT
ATOM      1  C   UNL d   1      -3.128   2.351  -3.462  0.00  0.00     0.172 C 
ATOM      2  N   UNL d   1      -2.764   1.021  -3.033  0.00  0.00    -0.070 N 
ATOM      3  C1  UNL d   1      -2.360   0.671  -1.772  0.00  0.00    -0.004 A 
ATOM      4  C2  UNL d   1      -2.106  -0.683  -1.771  0.00  0.00    -0.047 A 
ATOM      5  C3  UNL d   1      -2.365  -1.164  -3.076  0.00  0.00    -0.047 A 
ATOM      6  C4  UNL d   1      -2.771  -0.088  -3.837  0.00  0.00    -0.004 A 
ENDROOT
TORSDOF 0
ENDMDL
