MODEL 1
REMARK minimizedAffinity 5.55990028
REMARK minimizedRMSD -1
REMARK  0 active torsions:
REMARK  status: ('A' for Active; 'I' for Inactive)
ROOT
ATOM      1  C   UNL d   1      -2.246  -0.678   0.672  0.00  0.00     0.172 C 
ATOM      2  N   UNL d   1      -2.289  -0.534  -0.765  0.00  0.00    -0.070 N 
ATOM      3  C1  UNL d   1      -2.125   0.637  -1.455  0.00  0.00    -0.004 A 
ATOM      4  C2  UNL d   1      -2.234   0.353  -2.799  0.00  0.00    -0.047 A 
ATOM      5  C3  UNL d   1      -2.473  -1.036  -2.921  0.00  0.00    -0.047 A 
ATOM      6  C4  UNL d   1      -2.502  -1.561  -1.646  0.00  0.00    -0.004 A 
ENDROOT
TORSDOF 0
ENDMDL
