MODEL 1
REMARK minimizedAffinity 7.94009209
REMARK minimizedRMSD -1
REMARK  0 active torsions:
REMARK  status: ('A' for Active; 'I' for Inactive)
ROOT
ATOM      1  C   UNL d   1      -1.698  -0.052   0.836  0.00  0.00     0.172 C 
ATOM      2  N   UNL d   1      -2.002   0.211  -0.551  0.00  0.00    -0.070 N 
ATOM      3  C1  UNL d   1      -2.478   1.392  -1.053  0.00  0.00    -0.004 A 
ATOM      4  C2  UNL d   1      -2.637   1.239  -2.414  0.00  0.00    -0.047 A 
ATOM      5  C3  UNL d   1      -2.243  -0.081  -2.740  0.00  0.00    -0.047 A 
ATOM      6  C4  UNL d   1      -1.855  -0.695  -1.568  0.00  0.00    -0.004 A 
ENDROOT
TORSDOF 0
ENDMDL
