MODEL 1
REMARK minimizedAffinity 1.403216
REMARK minimizedRMSD -1
REMARK  0 active torsions:
REMARK  status: ('A' for Active; 'I' for Inactive)
ROOT
ATOM      1  C   UNL d   1      -3.191   3.173  -2.826  0.00  0.00     0.172 C 
ATOM      2  N   UNL d   1      -2.645   1.836  -2.859  0.00  0.00    -0.070 N 
ATOM      3  C1  UNL d   1      -1.895   1.255  -1.872  0.00  0.00    -0.004 A 
ATOM      4  C2  UNL d   1      -1.570  -0.020  -2.283  0.00  0.00    -0.047 A 
ATOM      5  C3  UNL d   1      -2.145  -0.211  -3.562  0.00  0.00    -0.047 A 
ATOM      6  C4  UNL d   1      -2.804   0.953  -3.895  0.00  0.00    -0.004 A 
ENDROOT
TORSDOF 0
ENDMDL
