MODEL 1
REMARK minimizedAffinity -1.18685234
REMARK minimizedRMSD -1
REMARK  0 active torsions:
REMARK  status: ('A' for Active; 'I' for Inactive)
ROOT
ATOM      1  C   UNL d   1      -1.697   1.662   1.634  0.00  0.00     0.078 C 
ATOM      2  C1  UNL d   1      -0.724   0.806   0.880  0.00  0.00    -0.077 A 
ATOM      3  C2  UNL d   1      -0.296  -0.424   1.395  0.00  0.00    -0.001 A 
ATOM      4  C3  UNL d   1       0.618  -1.206   0.687  0.00  0.00     0.003 A 
ATOM      5  C4  UNL d   1       1.113  -0.767  -0.539  0.00  0.00    -0.005 A 
ATOM      6  C5  UNL d   1       0.694   0.456  -1.059  0.00  0.00     0.003 A 
ATOM      7  C6  UNL d   1      -0.220   1.240  -0.352  0.00  0.00    -0.001 A 
ENDROOT
TORSDOF 0
ENDMDL
