MODEL 1
REMARK minimizedAffinity -2.1457541
REMARK minimizedRMSD -1
REMARK  0 active torsions:
REMARK  status: ('A' for Active; 'I' for Inactive)
ROOT
ATOM      1  C   UNL d   1       0.610  -1.043   1.876  0.00  0.00     0.078 C 
ATOM      2  C1  UNL d   1      -0.145   0.148   1.365  0.00  0.00    -0.077 A 
ATOM      3  C2  UNL d   1      -0.453   0.278   0.006  0.00  0.00    -0.001 A 
ATOM      4  C3  UNL d   1      -1.147   1.397  -0.457  0.00  0.00     0.003 A 
ATOM      5  C4  UNL d   1      -1.538   2.395   0.433  0.00  0.00    -0.005 A 
ATOM      6  C5  UNL d   1      -1.234   2.276   1.788  0.00  0.00     0.003 A 
ATOM      7  C6  UNL d   1      -0.540   1.158   2.252  0.00  0.00    -0.001 A 
ENDROOT
TORSDOF 0
ENDMDL
