MODEL 1
REMARK minimizedAffinity -3.95597196
REMARK minimizedRMSD -1
REMARK  0 active torsions:
REMARK  status: ('A' for Active; 'I' for Inactive)
ROOT
ATOM      1  C   UNL d   1      -1.880   1.507   1.454  0.00  0.00     0.078 C 
ATOM      2  C1  UNL d   1      -0.935   0.633   0.687  0.00  0.00    -0.077 A 
ATOM      3  C2  UNL d   1      -1.086  -0.759   0.678  0.00  0.00    -0.001 A 
ATOM      4  C3  UNL d   1      -0.193  -1.562  -0.033  0.00  0.00     0.003 A 
ATOM      5  C4  UNL d   1       0.859  -0.982  -0.740  0.00  0.00    -0.005 A 
ATOM      6  C5  UNL d   1       1.019   0.402  -0.735  0.00  0.00     0.003 A 
ATOM      7  C6  UNL d   1       0.127   1.206  -0.025  0.00  0.00    -0.001 A 
ENDROOT
TORSDOF 0
ENDMDL
