MODEL 1
REMARK minimizedAffinity -2.52274299
REMARK minimizedRMSD -1
REMARK  0 active torsions:
REMARK  status: ('A' for Active; 'I' for Inactive)
ROOT
ATOM      1  C   UNL d   1       0.194  -0.127  -0.051  0.00  0.00     0.078 C 
ATOM      2  C1  UNL d   1       0.394  -1.203  -1.076  0.00  0.00    -0.077 A 
ATOM      3  C2  UNL d   1       0.070  -0.987  -2.422  0.00  0.00    -0.001 A 
ATOM      4  C3  UNL d   1       0.253  -2.001  -3.363  0.00  0.00     0.003 A 
ATOM      5  C4  UNL d   1       0.759  -3.238  -2.970  0.00  0.00    -0.005 A 
ATOM      6  C5  UNL d   1       1.082  -3.463  -1.633  0.00  0.00     0.003 A 
ATOM      7  C6  UNL d   1       0.900  -2.451  -0.690  0.00  0.00    -0.001 A 
ENDROOT
TORSDOF 0
ENDMDL
