MODEL 1
REMARK minimizedAffinity -1.751755
REMARK minimizedRMSD -1
REMARK  0 active torsions:
REMARK  status: ('A' for Active; 'I' for Inactive)
ROOT
ATOM      1  C   UNL d   1      -1.542   1.646   2.342  0.00  0.00     0.078 C 
ATOM      2  C1  UNL d   1      -0.865   0.863   1.257  0.00  0.00    -0.077 A 
ATOM      3  C2  UNL d   1      -0.322  -0.402   1.511  0.00  0.00    -0.001 A 
ATOM      4  C3  UNL d   1       0.314  -1.115   0.493  0.00  0.00     0.003 A 
ATOM      5  C4  UNL d   1       0.414  -0.570  -0.785  0.00  0.00    -0.005 A 
ATOM      6  C5  UNL d   1      -0.121   0.689  -1.047  0.00  0.00     0.003 A 
ATOM      7  C6  UNL d   1      -0.757   1.404  -0.031  0.00  0.00    -0.001 A 
ENDROOT
TORSDOF 0
ENDMDL
