MODEL 1
REMARK minimizedAffinity -4.24713373
REMARK minimizedRMSD -1
REMARK  0 active torsions:
REMARK  status: ('A' for Active; 'I' for Inactive)
ROOT
ATOM      1  C   UNL d   1      -2.108   2.422   1.434  0.00  0.00     0.078 C 
ATOM      2  C1  UNL d   1      -1.052   1.558   0.813  0.00  0.00    -0.077 A 
ATOM      3  C2  UNL d   1      -0.426   1.931  -0.383  0.00  0.00    -0.001 A 
ATOM      4  C3  UNL d   1       0.549   1.112  -0.955  0.00  0.00     0.003 A 
ATOM      5  C4  UNL d   1       0.906  -0.086  -0.339  0.00  0.00    -0.005 A 
ATOM      6  C5  UNL d   1       0.287  -0.467   0.850  0.00  0.00     0.003 A 
ATOM      7  C6  UNL d   1      -0.688   0.351   1.423  0.00  0.00    -0.001 A 
ENDROOT
TORSDOF 0
ENDMDL
