MODEL 1
REMARK minimizedAffinity -2.44091845
REMARK minimizedRMSD -1
REMARK  0 active torsions:
REMARK  status: ('A' for Active; 'I' for Inactive)
ROOT
ATOM      1  C   UNL d   1       0.015  -1.447   0.428  0.00  0.00     0.078 C 
ATOM      2  C1  UNL d   1      -0.049  -0.094  -0.216  0.00  0.00    -0.077 A 
ATOM      3  C2  UNL d   1       1.022   0.396  -0.973  0.00  0.00    -0.001 A 
ATOM      4  C3  UNL d   1       0.953   1.661  -1.559  0.00  0.00     0.003 A 
ATOM      5  C4  UNL d   1      -0.185   2.447  -1.392  0.00  0.00    -0.005 A 
ATOM      6  C5  UNL d   1      -1.255   1.970  -0.638  0.00  0.00     0.003 A 
ATOM      7  C6  UNL d   1      -1.188   0.705  -0.052  0.00  0.00    -0.001 A 
ENDROOT
TORSDOF 0
ENDMDL
