MODEL 1
REMARK minimizedAffinity -2.18704915
REMARK minimizedRMSD -1
REMARK  0 active torsions:
REMARK  status: ('A' for Active; 'I' for Inactive)
ROOT
ATOM      1  C   UNL d   1       1.232  -2.919  -1.830  0.00  0.00     0.078 C 
ATOM      2  C1  UNL d   1       1.057  -1.495  -1.394  0.00  0.00    -0.077 A 
ATOM      3  C2  UNL d   1       1.903  -0.486  -1.869  0.00  0.00    -0.001 A 
ATOM      4  C3  UNL d   1       1.735   0.833  -1.447  0.00  0.00     0.003 A 
ATOM      5  C4  UNL d   1       0.721   1.156  -0.547  0.00  0.00    -0.005 A 
ATOM      6  C5  UNL d   1      -0.125   0.159  -0.067  0.00  0.00     0.003 A 
ATOM      7  C6  UNL d   1       0.042  -1.162  -0.488  0.00  0.00    -0.001 A 
ENDROOT
TORSDOF 0
ENDMDL
