MODEL 1
REMARK minimizedAffinity -3.69320726
REMARK minimizedRMSD -1
REMARK  0 active torsions:
REMARK  status: ('A' for Active; 'I' for Inactive)
ROOT
ATOM      1  C   UNL d   1      -1.355   1.363   2.300  0.00  0.00     0.078 C 
ATOM      2  C1  UNL d   1      -0.600   0.733   1.168  0.00  0.00    -0.077 A 
ATOM      3  C2  UNL d   1      -0.122   1.504   0.102  0.00  0.00    -0.001 A 
ATOM      4  C3  UNL d   1       0.571   0.903  -0.950  0.00  0.00     0.003 A 
ATOM      5  C4  UNL d   1       0.790  -0.473  -0.947  0.00  0.00    -0.005 A 
ATOM      6  C5  UNL d   1       0.316  -1.250   0.108  0.00  0.00     0.003 A 
ATOM      7  C6  UNL d   1      -0.377  -0.650   1.161  0.00  0.00    -0.001 A 
ENDROOT
TORSDOF 0
ENDMDL
