MODEL 1
REMARK minimizedAffinity -5.19673729
REMARK minimizedRMSD -1
REMARK  0 active torsions:
REMARK  status: ('A' for Active; 'I' for Inactive)
ROOT
ATOM      1  C   UNL d   1       0.522  -1.136  -0.812  0.00  0.00     0.078 C 
ATOM      2  C1  UNL d   1      -0.299  -0.121  -0.074  0.00  0.00    -0.077 A 
ATOM      3  C2  UNL d   1      -0.922  -0.440   1.138  0.00  0.00    -0.001 A 
ATOM      4  C3  UNL d   1      -1.691   0.512   1.809  0.00  0.00     0.003 A 
ATOM      5  C4  UNL d   1      -1.845   1.790   1.275  0.00  0.00    -0.005 A 
ATOM      6  C5  UNL d   1      -1.230   2.116   0.068  0.00  0.00     0.003 A 
ATOM      7  C6  UNL d   1      -0.461   1.165  -0.604  0.00  0.00    -0.001 A 
ENDROOT
TORSDOF 0
ENDMDL
