MODEL 1
REMARK minimizedAffinity -4.66763496
REMARK minimizedRMSD -1
REMARK  0 active torsions:
REMARK  status: ('A' for Active; 'I' for Inactive)
ROOT
ATOM      1  C   UNL d   1      -1.160   0.090  -0.000  0.00  0.00     0.078 C 
ATOM      2  C1  UNL d   1      -0.588  -0.989  -0.870  0.00  0.00    -0.077 A 
ATOM      3  C2  UNL d   1      -1.420  -1.806  -1.646  0.00  0.00    -0.001 A 
ATOM      4  C3  UNL d   1      -0.874  -2.813  -2.444  0.00  0.00     0.003 A 
ATOM      5  C4  UNL d   1       0.505  -3.013  -2.473  0.00  0.00    -0.005 A 
ATOM      6  C5  UNL d   1       1.340  -2.206  -1.703  0.00  0.00     0.003 A 
ATOM      7  C6  UNL d   1       0.796  -1.199  -0.905  0.00  0.00    -0.001 A 
ENDROOT
TORSDOF 0
ENDMDL
