MODEL 1
REMARK minimizedAffinity -4.99436855
REMARK minimizedRMSD -1
REMARK  0 active torsions:
REMARK  status: ('A' for Active; 'I' for Inactive)
ROOT
ATOM      1  C   UNL d   1      -0.152   3.464  -1.235  0.00  0.00     0.078 C 
ATOM      2  C1  UNL d   1      -0.672   2.534  -0.180  0.00  0.00    -0.077 A 
ATOM      3  C2  UNL d   1      -1.397   3.020   0.915  0.00  0.00    -0.001 A 
ATOM      4  C3  UNL d   1      -1.868   2.145   1.895  0.00  0.00     0.003 A 
ATOM      5  C4  UNL d   1      -1.618   0.778   1.790  0.00  0.00    -0.005 A 
ATOM      6  C5  UNL d   1      -0.895   0.285   0.705  0.00  0.00     0.003 A 
ATOM      7  C6  UNL d   1      -0.424   1.159  -0.276  0.00  0.00    -0.001 A 
ENDROOT
TORSDOF 0
ENDMDL
