MODEL 1
REMARK minimizedAffinity -3.99284029
REMARK minimizedRMSD -1
REMARK  0 active torsions:
REMARK  status: ('A' for Active; 'I' for Inactive)
ROOT
ATOM      1  C   UNL d   1       0.462  -0.793  -0.731  0.00  0.00     0.078 C 
ATOM      2  C1  UNL d   1      -0.391   0.121   0.098  0.00  0.00    -0.077 A 
ATOM      3  C2  UNL d   1      -1.462   0.821  -0.470  0.00  0.00    -0.001 A 
ATOM      4  C3  UNL d   1      -2.241   1.675   0.311  0.00  0.00     0.003 A 
ATOM      5  C4  UNL d   1      -1.957   1.838   1.666  0.00  0.00    -0.005 A 
ATOM      6  C5  UNL d   1      -0.892   1.147   2.240  0.00  0.00     0.003 A 
ATOM      7  C6  UNL d   1      -0.112   0.292   1.460  0.00  0.00    -0.001 A 
ENDROOT
TORSDOF 0
ENDMDL
