MODEL 1
REMARK minimizedAffinity -4.25399828
REMARK minimizedRMSD -1
REMARK  0 active torsions:
REMARK  status: ('A' for Active; 'I' for Inactive)
ROOT
ATOM      1  C   UNL d   1      -2.026   3.389   0.732  0.00  0.00     0.078 C 
ATOM      2  C1  UNL d   1      -1.525   1.976   0.746  0.00  0.00    -0.077 A 
ATOM      3  C2  UNL d   1      -0.787   1.483   1.829  0.00  0.00    -0.001 A 
ATOM      4  C3  UNL d   1      -0.318   0.168   1.823  0.00  0.00     0.003 A 
ATOM      5  C4  UNL d   1      -0.581  -0.664   0.737  0.00  0.00    -0.005 A 
ATOM      6  C5  UNL d   1      -1.313  -0.181  -0.346  0.00  0.00     0.003 A 
ATOM      7  C6  UNL d   1      -1.782   1.133  -0.343  0.00  0.00    -0.001 A 
ENDROOT
TORSDOF 0
ENDMDL
