MODEL 1
REMARK minimizedAffinity -2.96941304
REMARK minimizedRMSD -1
REMARK  0 active torsions:
REMARK  status: ('A' for Active; 'I' for Inactive)
ROOT
ATOM      1  C   UNL d   1      -1.404   1.350   2.143  0.00  0.00     0.078 C 
ATOM      2  C1  UNL d   1      -0.948   0.396   1.080  0.00  0.00    -0.077 A 
ATOM      3  C2  UNL d   1      -1.756  -0.673   0.675  0.00  0.00    -0.001 A 
ATOM      4  C3  UNL d   1      -1.314  -1.559  -0.309  0.00  0.00     0.003 A 
ATOM      5  C4  UNL d   1      -0.062  -1.385  -0.896  0.00  0.00    -0.005 A 
ATOM      6  C5  UNL d   1       0.750  -0.325  -0.497  0.00  0.00     0.003 A 
ATOM      7  C6  UNL d   1       0.310   0.562   0.487  0.00  0.00    -0.001 A 
ENDROOT
TORSDOF 0
ENDMDL
