MODEL 1
REMARK minimizedAffinity -5.48163652
REMARK minimizedRMSD -1
REMARK  0 active torsions:
REMARK  status: ('A' for Active; 'I' for Inactive)
ROOT
ATOM      1  C   UNL d   1      -2.497  -1.447  -2.736  0.00  0.00     0.078 C 
ATOM      2  C1  UNL d   1      -1.341  -0.730  -2.105  0.00  0.00    -0.077 A 
ATOM      3  C2  UNL d   1      -1.083  -0.844  -0.733  0.00  0.00    -0.001 A 
ATOM      4  C3  UNL d   1      -0.009  -0.164  -0.158  0.00  0.00     0.003 A 
ATOM      5  C4  UNL d   1       0.816   0.636  -0.946  0.00  0.00    -0.005 A 
ATOM      6  C5  UNL d   1       0.566   0.758  -2.311  0.00  0.00     0.003 A 
ATOM      7  C6  UNL d   1      -0.508   0.078  -2.889  0.00  0.00    -0.001 A 
ENDROOT
TORSDOF 0
ENDMDL
