MODEL 1
REMARK minimizedAffinity -4.78259039
REMARK minimizedRMSD -1
REMARK  0 active torsions:
REMARK  status: ('A' for Active; 'I' for Inactive)
ROOT
ATOM      1  C   UNL d   1      -1.969   1.771   1.568  0.00  0.00     0.078 C 
ATOM      2  C1  UNL d   1      -1.130   0.882   0.701  0.00  0.00    -0.077 A 
ATOM      3  C2  UNL d   1      -0.017   1.385   0.016  0.00  0.00    -0.001 A 
ATOM      4  C3  UNL d   1       0.750   0.548  -0.796  0.00  0.00     0.003 A 
ATOM      5  C4  UNL d   1       0.411  -0.797  -0.932  0.00  0.00    -0.005 A 
ATOM      6  C5  UNL d   1      -0.696  -1.306  -0.256  0.00  0.00     0.003 A 
ATOM      7  C6  UNL d   1      -1.464  -0.470   0.556  0.00  0.00    -0.001 A 
ENDROOT
TORSDOF 0
ENDMDL
