MODEL 1
REMARK minimizedAffinity 0.056538336
REMARK minimizedRMSD -1
REMARK  2 active torsions:
REMARK  status: ('A' for Active; 'I' for Inactive)
REMARK    1  A    between atoms: C2'_3  and  C1'_4 
REMARK    2  A    between atoms: C1'_4  and  C1_5 
ROOT
ATOM      1  C1  I4B d   1       0.146   0.636  -0.620  0.00  0.00    -0.075 A 
ATOM      2  C2  I4B d   1       1.478   0.366  -0.430  0.00  0.00     0.003 A 
ATOM      3  C3  I4B d   1       1.915  -0.269   0.758  0.00  0.00     0.002 A 
ATOM      4  C4  I4B d   1       0.998  -0.568   1.745  0.00  0.00    -0.004 A 
ATOM      5  C5  I4B d   1      -0.355  -0.314   1.541  0.00  0.00     0.002 A 
ATOM      6  C6  I4B d   1      -0.786   0.280   0.347  0.00  0.00     0.003 A 
ENDROOT
BRANCH   1   7
ATOM      7  C1' I4B d   1      -0.276   1.337  -1.872  0.00  0.00     0.060 C 
BRANCH   7   8
ATOM      8  C2' I4B d   1      -0.084   2.825  -1.661  0.00  0.00    -0.013 C 
ATOM      9  C4' I4B d   1       0.990   3.370  -2.566  0.00  0.00     0.013 C 
ATOM     10  C3' I4B d   1      -1.398   3.502  -1.912  0.00  0.00     0.013 C 
ENDBRANCH   7   8
ENDBRANCH   1   7
TORSDOF 2
ENDMDL
