MODEL 1
REMARK minimizedAffinity -1.39343071
REMARK minimizedRMSD -1
REMARK  2 active torsions:
REMARK  status: ('A' for Active; 'I' for Inactive)
REMARK    1  A    between atoms: C2'_3  and  C1'_4 
REMARK    2  A    between atoms: C1'_4  and  C1_5 
ROOT
ATOM      1  C1  I4B d   1       0.125   0.447  -0.946  0.00  0.00    -0.075 A 
ATOM      2  C2  I4B d   1       0.984  -0.454  -1.524  0.00  0.00     0.003 A 
ATOM      3  C3  I4B d   1       1.900  -1.179  -0.723  0.00  0.00     0.002 A 
ATOM      4  C4  I4B d   1       1.957  -0.936   0.634  0.00  0.00    -0.004 A 
ATOM      5  C5  I4B d   1       1.070  -0.038   1.220  0.00  0.00     0.002 A 
ATOM      6  C6  I4B d   1       0.140   0.649   0.428  0.00  0.00     0.003 A 
ENDROOT
BRANCH   1   7
ATOM      7  C1' I4B d   1      -0.807   1.220  -1.826  0.00  0.00     0.060 C 
BRANCH   7   8
ATOM      8  C2' I4B d   1      -0.417   2.682  -1.749  0.00  0.00    -0.013 C 
ATOM      9  C4' I4B d   1       0.758   2.980  -2.642  0.00  0.00     0.013 C 
ATOM     10  C3' I4B d   1      -1.612   3.501  -2.134  0.00  0.00     0.013 C 
ENDBRANCH   7   8
ENDBRANCH   1   7
TORSDOF 2
ENDMDL
