MODEL 1
REMARK minimizedAffinity -4.70117569
REMARK minimizedRMSD -1
REMARK  2 active torsions:
REMARK  status: ('A' for Active; 'I' for Inactive)
REMARK    1  A    between atoms: C2'_3  and  C1'_4 
REMARK    2  A    between atoms: C1'_4  and  C1_5 
ROOT
ATOM      1  C1  I4B d   1      -0.597   0.282  -0.385  0.00  0.00    -0.075 A 
ATOM      2  C2  I4B d   1       0.709  -0.060  -0.135  0.00  0.00     0.003 A 
ATOM      3  C3  I4B d   1       1.082  -0.573   1.131  0.00  0.00     0.002 A 
ATOM      4  C4  I4B d   1       0.133  -0.678   2.128  0.00  0.00    -0.004 A 
ATOM      5  C5  I4B d   1      -1.194  -0.352   1.866  0.00  0.00     0.002 A 
ATOM      6  C6  I4B d   1      -1.564   0.120   0.598  0.00  0.00     0.003 A 
ENDROOT
BRANCH   1   7
ATOM      7  C1' I4B d   1      -0.949   0.851  -1.722  0.00  0.00     0.060 C 
BRANCH   7   8
ATOM      8  C2' I4B d   1      -0.527   2.306  -1.737  0.00  0.00    -0.013 C 
ATOM      9  C4' I4B d   1       0.706   2.507  -2.578  0.00  0.00     0.013 C 
ATOM     10  C3' I4B d   1      -1.676   3.117  -2.258  0.00  0.00     0.013 C 
ENDBRANCH   7   8
ENDBRANCH   1   7
TORSDOF 2
ENDMDL
