MODEL 1
REMARK minimizedAffinity -1.99453247
REMARK minimizedRMSD -1
REMARK  2 active torsions:
REMARK  status: ('A' for Active; 'I' for Inactive)
REMARK    1  A    between atoms: C2'_3  and  C1'_4 
REMARK    2  A    between atoms: C1'_4  and  C1_5 
ROOT
ATOM      1  C1  I4B d   1      -0.280   0.261  -0.362  0.00  0.00    -0.075 A 
ATOM      2  C2  I4B d   1      -1.425   0.027   0.356  0.00  0.00     0.003 A 
ATOM      3  C3  I4B d   1      -1.347  -0.424   1.696  0.00  0.00     0.002 A 
ATOM      4  C4  I4B d   1      -0.111  -0.675   2.257  0.00  0.00    -0.004 A 
ATOM      5  C5  I4B d   1       1.050  -0.415   1.535  0.00  0.00     0.002 A 
ATOM      6  C6  I4B d   1       0.966   0.067   0.221  0.00  0.00     0.003 A 
ENDROOT
BRANCH   1   7
ATOM      7  C1' I4B d   1      -0.400   0.705  -1.786  0.00  0.00     0.060 C 
BRANCH   7   8
ATOM      8  C2' I4B d   1      -0.894   2.138  -1.787  0.00  0.00    -0.013 C 
ATOM      9  C4' I4B d   1       0.128   3.066  -2.388  0.00  0.00     0.013 C 
ATOM     10  C3' I4B d   1      -2.183   2.182  -2.553  0.00  0.00     0.013 C 
ENDBRANCH   7   8
ENDBRANCH   1   7
TORSDOF 2
ENDMDL
