MODEL 1
REMARK minimizedAffinity -2.00340486
REMARK minimizedRMSD -1
REMARK  2 active torsions:
REMARK  status: ('A' for Active; 'I' for Inactive)
REMARK    1  A    between atoms: C2'_3  and  C1'_4 
REMARK    2  A    between atoms: C1'_4  and  C1_5 
ROOT
ATOM      1  C1  I4B d   1      -0.618  -0.622   0.992  0.00  0.00    -0.075 A 
ATOM      2  C2  I4B d   1      -1.548  -0.244   0.056  0.00  0.00     0.003 A 
ATOM      3  C3  I4B d   1      -1.131   0.298  -1.184  0.00  0.00     0.002 A 
ATOM      4  C4  I4B d   1       0.215   0.491  -1.423  0.00  0.00    -0.004 A 
ATOM      5  C5  I4B d   1       1.156   0.086  -0.482  0.00  0.00     0.002 A 
ATOM      6  C6  I4B d   1       0.739  -0.485   0.729  0.00  0.00     0.003 A 
ENDROOT
BRANCH   1   7
ATOM      7  C1' I4B d   1      -1.094  -1.161   2.304  0.00  0.00     0.060 C 
BRANCH   7   8
ATOM      8  C2' I4B d   1      -0.260  -2.381   2.638  0.00  0.00    -0.013 C 
ATOM      9  C4' I4B d   1       1.037  -1.992   3.295  0.00  0.00     0.013 C 
ATOM     10  C3' I4B d   1      -1.075  -3.269   3.531  0.00  0.00     0.013 C 
ENDBRANCH   7   8
ENDBRANCH   1   7
TORSDOF 2
ENDMDL
