MODEL 1
REMARK minimizedAffinity -2.33743596
REMARK minimizedRMSD -1
REMARK  2 active torsions:
REMARK  status: ('A' for Active; 'I' for Inactive)
REMARK    1  A    between atoms: C2'_3  and  C1'_4 
REMARK    2  A    between atoms: C1'_4  and  C1_5 
ROOT
ATOM      1  C1  I4B d   1      -0.427  -0.073  -0.536  0.00  0.00    -0.075 A 
ATOM      2  C2  I4B d   1      -1.473  -0.059   0.352  0.00  0.00     0.003 A 
ATOM      3  C3  I4B d   1      -1.250  -0.347   1.721  0.00  0.00     0.002 A 
ATOM      4  C4  I4B d   1       0.017  -0.691   2.145  0.00  0.00    -0.004 A 
ATOM      5  C5  I4B d   1       1.081  -0.682   1.247  0.00  0.00     0.002 A 
ATOM      6  C6  I4B d   1       0.860  -0.359  -0.100  0.00  0.00     0.003 A 
ENDROOT
BRANCH   1   7
ATOM      7  C1' I4B d   1      -0.704   0.203  -1.980  0.00  0.00     0.060 C 
BRANCH   7   8
ATOM      8  C2' I4B d   1      -1.080   1.665  -2.112  0.00  0.00    -0.013 C 
ATOM      9  C4' I4B d   1      -0.097   2.405  -2.980  0.00  0.00     0.013 C 
ATOM     10  C3' I4B d   1      -2.466   1.736  -2.680  0.00  0.00     0.013 C 
ENDBRANCH   7   8
ENDBRANCH   1   7
TORSDOF 2
ENDMDL
