MODEL 1
REMARK minimizedAffinity -5.94874954
REMARK minimizedRMSD -1
REMARK  3 active torsions:
REMARK  status: ('A' for Active; 'I' for Inactive)
REMARK    1  A    between atoms: C3'_2  and  C2'_3 
REMARK    2  A    between atoms: C2'_3  and  C1'_4 
REMARK    3  A    between atoms: C1'_4  and  C1_5 
ROOT
ATOM      1  C1  N4B d   1       0.092  -0.049   0.293  0.00  0.00    -0.075 A 
ATOM      2  C2  N4B d   1       0.359  -0.172   1.674  0.00  0.00     0.002 A 
ATOM      3  C3  N4B d   1      -0.146   0.751   2.556  0.00  0.00     0.002 A 
ATOM      4  C4  N4B d   1      -0.902   1.812   2.081  0.00  0.00    -0.004 A 
ATOM      5  C5  N4B d   1      -1.177   1.910   0.748  0.00  0.00     0.002 A 
ATOM      6  C6  N4B d   1      -0.679   0.987  -0.149  0.00  0.00     0.002 A 
ENDROOT
BRANCH   1   7
ATOM      7  C1' N4B d   1       0.693  -0.985  -0.719  0.00  0.00     0.057 C 
BRANCH   7   8
ATOM      8  C2' N4B d   1      -0.378  -1.962  -1.196  0.00  0.00     0.009 C 
BRANCH   8   9
ATOM      9  C3' N4B d   1       0.201  -3.332  -1.508  0.00  0.00     0.004 C 
ATOM     10  C4' N4B d   1      -0.590  -4.449  -0.895  0.00  0.00     0.003 C 
ENDBRANCH   8   9
ENDBRANCH   7   8
ENDBRANCH   1   7
TORSDOF 3
ENDMDL
