MODEL 1
REMARK minimizedAffinity -5.71833134
REMARK minimizedRMSD -1
REMARK  3 active torsions:
REMARK  status: ('A' for Active; 'I' for Inactive)
REMARK    1  A    between atoms: C3'_2  and  C2'_3 
REMARK    2  A    between atoms: C2'_3  and  C1'_4 
REMARK    3  A    between atoms: C1'_4  and  C1_5 
ROOT
ATOM      1  C1  N4B d   1      -0.413   1.061   0.554  0.00  0.00    -0.075 A 
ATOM      2  C2  N4B d   1      -0.445   1.790   1.763  0.00  0.00     0.002 A 
ATOM      3  C3  N4B d   1      -0.851   3.102   1.763  0.00  0.00     0.002 A 
ATOM      4  C4  N4B d   1      -1.210   3.709   0.568  0.00  0.00    -0.004 A 
ATOM      5  C5  N4B d   1      -1.201   2.990  -0.591  0.00  0.00     0.002 A 
ATOM      6  C6  N4B d   1      -0.799   1.669  -0.605  0.00  0.00     0.002 A 
ENDROOT
BRANCH   1   7
ATOM      7  C1' N4B d   1       0.106  -0.350   0.492  0.00  0.00     0.057 C 
BRANCH   7   8
ATOM      8  C2' N4B d   1       0.375  -0.720  -0.964  0.00  0.00     0.009 C 
BRANCH   8   9
ATOM      9  C3' N4B d   1      -0.476  -1.894  -1.418  0.00  0.00     0.004 C 
ATOM     10  C4' N4B d   1       0.260  -3.199  -1.368  0.00  0.00     0.003 C 
ENDBRANCH   8   9
ENDBRANCH   7   8
ENDBRANCH   1   7
TORSDOF 3
ENDMDL
