MODEL 1
REMARK minimizedAffinity -5.26306295
REMARK minimizedRMSD -1
REMARK  3 active torsions:
REMARK  status: ('A' for Active; 'I' for Inactive)
REMARK    1  A    between atoms: C3'_2  and  C2'_3 
REMARK    2  A    between atoms: C2'_3  and  C1'_4 
REMARK    3  A    between atoms: C1'_4  and  C1_5 
ROOT
ATOM      1  C1  N4B d   1       0.059   0.892   0.549  0.00  0.00    -0.075 A 
ATOM      2  C2  N4B d   1       0.009   1.474  -0.736  0.00  0.00     0.002 A 
ATOM      3  C3  N4B d   1      -0.128   2.834  -0.869  0.00  0.00     0.002 A 
ATOM      4  C4  N4B d   1      -0.235   3.627   0.264  0.00  0.00    -0.004 A 
ATOM      5  C5  N4B d   1      -0.160   3.059   1.502  0.00  0.00     0.002 A 
ATOM      6  C6  N4B d   1      -0.018   1.694   1.651  0.00  0.00     0.002 A 
ENDROOT
BRANCH   1   7
ATOM      7  C1' N4B d   1       0.121  -0.598   0.744  0.00  0.00     0.057 C 
BRANCH   7   8
ATOM      8  C2' N4B d   1       0.303  -1.274  -0.612  0.00  0.00     0.009 C 
BRANCH   8   9
ATOM      9  C3' N4B d   1      -0.905  -2.111  -0.996  0.00  0.00     0.004 C 
ATOM     10  C4' N4B d   1      -0.535  -3.496  -1.438  0.00  0.00     0.003 C 
ENDBRANCH   8   9
ENDBRANCH   7   8
ENDBRANCH   1   7
TORSDOF 3
ENDMDL
