MODEL 1
REMARK minimizedAffinity 12.7502813
REMARK minimizedRMSD -1
REMARK  1 active torsions:
REMARK  status: ('A' for Active; 'I' for Inactive)
REMARK    1  A    between atoms: C1_2  and  C2_3 
ROOT
ATOM      1  C2  UNL d   1       4.799   0.281  -5.594  0.00  0.00    -0.077 A 
ATOM      2  C3  UNL d   1       3.592   0.993  -5.601  0.00  0.00     0.002 A 
ATOM      3  C4  UNL d   1       3.588   2.375  -5.801  0.00  0.00     0.002 A 
ATOM      4  C5  UNL d   1       4.788   3.055  -5.999  0.00  0.00    -0.004 A 
ATOM      5  C6  UNL d   1       5.994   2.356  -5.992  0.00  0.00     0.002 A 
ATOM      6  C7  UNL d   1       6.000   0.975  -5.792  0.00  0.00     0.002 A 
ENDROOT
BRANCH   1   7
ATOM      7  C1  UNL d   1       4.801  -1.216  -5.428  0.00  0.00     0.055 C 
ATOM      8  C   UNL d   1       3.527  -1.700  -4.751  0.00  0.00     0.019 C 
ENDBRANCH   1   7
TORSDOF 1
ENDMDL
