MODEL 1
REMARK minimizedAffinity 9.37112713
REMARK minimizedRMSD -1
REMARK  1 active torsions:
REMARK  status: ('A' for Active; 'I' for Inactive)
REMARK    1  A    between atoms: C1_2  and  C2_3 
ROOT
ATOM      1  C2  UNL d   1       0.086   1.203   3.699  0.00  0.00    -0.077 A 
ATOM      2  C3  UNL d   1      -0.094   1.020   2.321  0.00  0.00     0.002 A 
ATOM      3  C4  UNL d   1       0.344  -0.152   1.701  0.00  0.00     0.002 A 
ATOM      4  C5  UNL d   1       0.959  -1.151   2.452  0.00  0.00    -0.004 A 
ATOM      5  C6  UNL d   1       1.145  -0.978   3.823  0.00  0.00     0.002 A 
ATOM      6  C7  UNL d   1       0.709   0.194   4.444  0.00  0.00     0.002 A 
ENDROOT
BRANCH   1   7
ATOM      7  C1  UNL d   1      -0.429   2.445   4.378  0.00  0.00     0.055 C 
ATOM      8  C   UNL d   1      -0.074   2.455   5.858  0.00  0.00     0.019 C 
ENDBRANCH   1   7
TORSDOF 1
ENDMDL
