MODEL 1
REMARK minimizedAffinity 11.2693052
REMARK minimizedRMSD -1
REMARK  1 active torsions:
REMARK  status: ('A' for Active; 'I' for Inactive)
REMARK    1  A    between atoms: C1_2  and  C2_3 
ROOT
ATOM      1  C2  UNL d   1       3.439   2.105   5.416  0.00  0.00    -0.077 A 
ATOM      2  C3  UNL d   1       2.456   1.107   5.376  0.00  0.00     0.002 A 
ATOM      3  C4  UNL d   1       1.121   1.419   5.644  0.00  0.00     0.002 A 
ATOM      4  C5  UNL d   1       0.758   2.730   5.948  0.00  0.00    -0.004 A 
ATOM      5  C6  UNL d   1       1.729   3.729   5.991  0.00  0.00     0.002 A 
ATOM      6  C7  UNL d   1       3.063   3.419   5.726  0.00  0.00     0.002 A 
ENDROOT
BRANCH   1   7
ATOM      7  C1  UNL d   1       4.871   1.780   5.080  0.00  0.00     0.055 C 
ATOM      8  C   UNL d   1       5.197   0.328   5.396  0.00  0.00     0.019 C 
ENDBRANCH   1   7
TORSDOF 1
ENDMDL
