MODEL 1
REMARK minimizedAffinity 16.4278107
REMARK minimizedRMSD -1
REMARK  1 active torsions:
REMARK  status: ('A' for Active; 'I' for Inactive)
REMARK    1  A    between atoms: C1_2  and  C2_3 
ROOT
ATOM      1  C2  UNL d   1      -0.814  -2.992  -5.095  0.00  0.00    -0.077 A 
ATOM      2  C3  UNL d   1      -1.546  -2.990  -3.900  0.00  0.00     0.002 A 
ATOM      3  C4  UNL d   1      -1.578  -1.851  -3.093  0.00  0.00     0.002 A 
ATOM      4  C5  UNL d   1      -0.884  -0.705  -3.475  0.00  0.00    -0.004 A 
ATOM      5  C6  UNL d   1      -0.151  -0.698  -4.661  0.00  0.00     0.002 A 
ATOM      6  C7  UNL d   1      -0.117  -1.836  -5.468  0.00  0.00     0.002 A 
ENDROOT
BRANCH   1   7
ATOM      7  C1  UNL d   1      -0.818  -4.203  -5.991  0.00  0.00     0.055 C 
ATOM      8  C   UNL d   1      -2.179  -4.884  -5.996  0.00  0.00     0.019 C 
ENDBRANCH   1   7
TORSDOF 1
ENDMDL
