MODEL 1
REMARK minimizedAffinity 3.74172497
REMARK minimizedRMSD -1
REMARK  1 active torsions:
REMARK  status: ('A' for Active; 'I' for Inactive)
REMARK    1  A    between atoms: C1_2  and  C2_3 
ROOT
ATOM      1  C2  UNL d   1       5.277   3.572   3.419  0.00  0.00    -0.077 A 
ATOM      2  C3  UNL d   1       5.652   4.792   4.000  0.00  0.00     0.002 A 
ATOM      3  C4  UNL d   1       5.279   6.000   3.407  0.00  0.00     0.002 A 
ATOM      4  C5  UNL d   1       4.526   5.999   2.235  0.00  0.00    -0.004 A 
ATOM      5  C6  UNL d   1       4.150   4.791   1.649  0.00  0.00     0.002 A 
ATOM      6  C7  UNL d   1       4.523   3.583   2.239  0.00  0.00     0.002 A 
ENDROOT
BRANCH   1   7
ATOM      7  C1  UNL d   1       5.636   2.268   4.084  0.00  0.00     0.055 C 
ATOM      8  C   UNL d   1       4.462   1.300   4.075  0.00  0.00     0.019 C 
ENDBRANCH   1   7
TORSDOF 1
ENDMDL
