MODEL 1
REMARK minimizedAffinity 6.57388973
REMARK minimizedRMSD -1
REMARK  1 active torsions:
REMARK  status: ('A' for Active; 'I' for Inactive)
REMARK    1  A    between atoms: C1_2  and  C2_3 
ROOT
ATOM      1  C2  UNL d   1       0.741   1.004   4.068  0.00  0.00    -0.077 A 
ATOM      2  C3  UNL d   1      -0.320   1.622   3.390  0.00  0.00     0.002 A 
ATOM      3  C4  UNL d   1      -0.952   0.973   2.327  0.00  0.00     0.002 A 
ATOM      4  C5  UNL d   1      -0.533  -0.296   1.935  0.00  0.00    -0.004 A 
ATOM      5  C6  UNL d   1       0.523  -0.918   2.601  0.00  0.00     0.002 A 
ATOM      6  C7  UNL d   1       1.156  -0.271   3.663  0.00  0.00     0.002 A 
ENDROOT
BRANCH   1   7
ATOM      7  C1  UNL d   1       1.391   1.681   5.246  0.00  0.00     0.055 C 
ATOM      8  C   UNL d   1       0.434   2.650   5.925  0.00  0.00     0.019 C 
ENDBRANCH   1   7
TORSDOF 1
ENDMDL
