MODEL 1
REMARK minimizedAffinity 2.87422371
REMARK minimizedRMSD -1
REMARK  1 active torsions:
REMARK  status: ('A' for Active; 'I' for Inactive)
REMARK    1  A    between atoms: C1_2  and  C2_3 
ROOT
ATOM      1  C2  UNL d   1       4.454   2.604   3.845  0.00  0.00    -0.077 A 
ATOM      2  C3  UNL d   1       4.097   2.494   2.494  0.00  0.00     0.002 A 
ATOM      3  C4  UNL d   1       3.888   3.638   1.722  0.00  0.00     0.002 A 
ATOM      4  C5  UNL d   1       4.038   4.901   2.291  0.00  0.00    -0.004 A 
ATOM      5  C6  UNL d   1       4.390   5.022   3.635  0.00  0.00     0.002 A 
ATOM      6  C7  UNL d   1       4.598   3.879   4.408  0.00  0.00     0.002 A 
ENDROOT
BRANCH   1   7
ATOM      7  C1  UNL d   1       4.727   1.371   4.666  0.00  0.00     0.055 C 
ATOM      8  C   UNL d   1       3.477   0.516   4.814  0.00  0.00     0.019 C 
ENDBRANCH   1   7
TORSDOF 1
ENDMDL
