MODEL 1
REMARK minimizedAffinity 17.5570545
REMARK minimizedRMSD -1
REMARK  1 active torsions:
REMARK  status: ('A' for Active; 'I' for Inactive)
REMARK    1  A    between atoms: C1_2  and  C2_3 
ROOT
ATOM      1  C2  UNL d   1       5.209   2.321  -5.675  0.00  0.00    -0.077 A 
ATOM      2  C3  UNL d   1       5.933   1.123  -5.745  0.00  0.00     0.002 A 
ATOM      3  C4  UNL d   1       5.300  -0.100  -5.514  0.00  0.00     0.002 A 
ATOM      4  C5  UNL d   1       3.939  -0.137  -5.216  0.00  0.00    -0.004 A 
ATOM      5  C6  UNL d   1       3.211   1.049  -5.142  0.00  0.00     0.002 A 
ATOM      6  C7  UNL d   1       3.842   2.273  -5.372  0.00  0.00     0.002 A 
ENDROOT
BRANCH   1   7
ATOM      7  C1  UNL d   1       5.879   3.637  -5.973  0.00  0.00     0.055 C 
ATOM      8  C   UNL d   1       4.875   4.780  -5.979  0.00  0.00     0.019 C 
ENDBRANCH   1   7
TORSDOF 1
ENDMDL
