MODEL 1
REMARK minimizedAffinity 7.63629913
REMARK minimizedRMSD -1
REMARK  1 active torsions:
REMARK  status: ('A' for Active; 'I' for Inactive)
REMARK    1  A    between atoms: C1_2  and  C2_3 
ROOT
ATOM      1  C2  UNL d   1       0.514   0.147   3.826  0.00  0.00    -0.077 A 
ATOM      2  C3  UNL d   1       0.842   1.031   4.864  0.00  0.00     0.002 A 
ATOM      3  C4  UNL d   1       0.286   2.311   4.903  0.00  0.00     0.002 A 
ATOM      4  C5  UNL d   1      -0.604   2.717   3.911  0.00  0.00    -0.004 A 
ATOM      5  C6  UNL d   1      -0.934   1.846   2.874  0.00  0.00     0.002 A 
ATOM      6  C7  UNL d   1      -0.379   0.567   2.832  0.00  0.00     0.002 A 
ENDROOT
BRANCH   1   7
ATOM      7  C1  UNL d   1       1.075  -1.251   3.809  0.00  0.00     0.055 C 
ATOM      8  C   UNL d   1       1.330  -1.763   5.219  0.00  0.00     0.019 C 
ENDBRANCH   1   7
TORSDOF 1
ENDMDL
