MODEL 1
REMARK minimizedAffinity -4.88040257
REMARK minimizedRMSD -1
REMARK  3 active torsions:
REMARK  status: ('A' for Active; 'I' for Inactive)
REMARK    1  A    between atoms: C3'_2  and  C2'_3 
REMARK    2  A    between atoms: C2'_3  and  C1'_4 
REMARK    3  A    between atoms: C1'_4  and  C1_5 
ROOT
ATOM      1  C1  N4B d   1      -0.338  -0.465  -0.225  0.00  0.00    -0.075 A 
ATOM      2  C2  N4B d   1      -0.807  -0.648   1.095  0.00  0.00     0.002 A 
ATOM      3  C3  N4B d   1      -1.263  -1.880   1.496  0.00  0.00     0.002 A 
ATOM      4  C4  N4B d   1      -1.277  -2.934   0.595  0.00  0.00    -0.004 A 
ATOM      5  C5  N4B d   1      -0.799  -2.755  -0.671  0.00  0.00     0.002 A 
ATOM      6  C6  N4B d   1      -0.334  -1.523  -1.087  0.00  0.00     0.002 A 
ENDROOT
BRANCH   1   7
ATOM      7  C1' N4B d   1       0.090   0.884  -0.735  0.00  0.00     0.057 C 
BRANCH   7   8
ATOM      8  C2' N4B d   1       0.059   1.887   0.414  0.00  0.00     0.009 C 
BRANCH   8   9
ATOM      9  C3' N4B d   1       1.056   3.015   0.210  0.00  0.00     0.004 C 
ATOM     10  C4' N4B d   1       1.331   3.781   1.470  0.00  0.00     0.003 C 
ENDBRANCH   8   9
ENDBRANCH   7   8
ENDBRANCH   1   7
TORSDOF 3
ENDMDL
