MODEL 1
REMARK minimizedAffinity -5.80112457
REMARK minimizedRMSD -1
REMARK  3 active torsions:
REMARK  status: ('A' for Active; 'I' for Inactive)
REMARK    1  A    between atoms: C3'_2  and  C2'_3 
REMARK    2  A    between atoms: C2'_3  and  C1'_4 
REMARK    3  A    between atoms: C1'_4  and  C1_5 
ROOT
ATOM      1  C1  N4B d   1      -0.271  -0.521  -0.136  0.00  0.00    -0.075 A 
ATOM      2  C2  N4B d   1       0.127  -1.725  -0.758  0.00  0.00     0.002 A 
ATOM      3  C3  N4B d   1      -0.273  -2.931  -0.237  0.00  0.00     0.002 A 
ATOM      4  C4  N4B d   1      -1.051  -2.958   0.911  0.00  0.00    -0.004 A 
ATOM      5  C5  N4B d   1      -1.452  -1.790   1.491  0.00  0.00     0.002 A 
ATOM      6  C6  N4B d   1      -1.061  -0.571   0.976  0.00  0.00     0.002 A 
ENDROOT
BRANCH   1   7
ATOM      7  C1' N4B d   1       0.212   0.819  -0.619  0.00  0.00     0.057 C 
BRANCH   7   8
ATOM      8  C2' N4B d   1       0.357   1.759   0.574  0.00  0.00     0.009 C 
BRANCH   8   9
ATOM      9  C3' N4B d   1       1.023   3.069   0.188  0.00  0.00     0.004 C 
ATOM     10  C4' N4B d   1       2.517   2.965   0.125  0.00  0.00     0.003 C 
ENDBRANCH   8   9
ENDBRANCH   7   8
ENDBRANCH   1   7
TORSDOF 3
ENDMDL
