MODEL 1
REMARK minimizedAffinity -2.9670403
REMARK minimizedRMSD -1
REMARK  3 active torsions:
REMARK  status: ('A' for Active; 'I' for Inactive)
REMARK    1  A    between atoms: C3'_2  and  C2'_3 
REMARK    2  A    between atoms: C2'_3  and  C1'_4 
REMARK    3  A    between atoms: C1'_4  and  C1_5 
ROOT
ATOM      1  C1  N4B d   1      -0.247  -0.817  -0.136  0.00  0.00    -0.075 A 
ATOM      2  C2  N4B d   1      -0.046  -1.309  -1.445  0.00  0.00     0.002 A 
ATOM      3  C3  N4B d   1      -0.647  -2.480  -1.837  0.00  0.00     0.002 A 
ATOM      4  C4  N4B d   1      -1.433  -3.183  -0.936  0.00  0.00    -0.004 A 
ATOM      5  C5  N4B d   1      -1.642  -2.687   0.318  0.00  0.00     0.002 A 
ATOM      6  C6  N4B d   1      -1.048  -1.509   0.724  0.00  0.00     0.002 A 
ENDROOT
BRANCH   1   7
ATOM      7  C1' N4B d   1       0.458   0.414   0.366  0.00  0.00     0.057 C 
BRANCH   7   8
ATOM      8  C2' N4B d   1      -0.112   1.641  -0.341  0.00  0.00     0.009 C 
BRANCH   8   9
ATOM      9  C3' N4B d   1       0.656   2.905   0.006  0.00  0.00     0.004 C 
ATOM     10  C4' N4B d   1       1.983   2.621   0.643  0.00  0.00     0.003 C 
ENDBRANCH   8   9
ENDBRANCH   7   8
ENDBRANCH   1   7
TORSDOF 3
ENDMDL
