MODEL 1
REMARK minimizedAffinity -0.280798823
REMARK minimizedRMSD -1
REMARK  3 active torsions:
REMARK  status: ('A' for Active; 'I' for Inactive)
REMARK    1  A    between atoms: C3'_2  and  C2'_3 
REMARK    2  A    between atoms: C2'_3  and  C1'_4 
REMARK    3  A    between atoms: C1'_4  and  C1_5 
ROOT
ATOM      1  C1  N4B d   1      -0.897  -2.090   0.323  0.00  0.00    -0.075 A 
ATOM      2  C2  N4B d   1      -0.026  -1.031  -0.016  0.00  0.00     0.002 A 
ATOM      3  C3  N4B d   1       0.034   0.089   0.777  0.00  0.00     0.002 A 
ATOM      4  C4  N4B d   1      -0.776   0.179   1.899  0.00  0.00    -0.004 A 
ATOM      5  C5  N4B d   1      -1.595  -0.859   2.233  0.00  0.00     0.002 A 
ATOM      6  C6  N4B d   1      -1.664  -1.992   1.448  0.00  0.00     0.002 A 
ENDROOT
BRANCH   1   7
ATOM      7  C1' N4B d   1      -1.060  -3.297  -0.560  0.00  0.00     0.057 C 
BRANCH   7   8
ATOM      8  C2' N4B d   1      -1.662  -2.864  -1.893  0.00  0.00     0.009 C 
BRANCH   8   9
ATOM      9  C3' N4B d   1      -0.827  -3.334  -3.073  0.00  0.00     0.004 C 
ATOM     10  C4' N4B d   1       0.270  -2.374  -3.427  0.00  0.00     0.003 C 
ENDBRANCH   8   9
ENDBRANCH   7   8
ENDBRANCH   1   7
TORSDOF 3
ENDMDL
