MODEL 1
REMARK minimizedAffinity -5.81638193
REMARK minimizedRMSD -1
REMARK  3 active torsions:
REMARK  status: ('A' for Active; 'I' for Inactive)
REMARK    1  A    between atoms: C3'_2  and  C2'_3 
REMARK    2  A    between atoms: C2'_3  and  C1'_4 
REMARK    3  A    between atoms: C1'_4  and  C1_5 
ROOT
ATOM      1  C1  N4B d   1       0.311  -0.946  -0.125  0.00  0.00    -0.075 A 
ATOM      2  C2  N4B d   1       0.095  -2.249   0.376  0.00  0.00     0.002 A 
ATOM      3  C3  N4B d   1      -0.028  -3.306  -0.492  0.00  0.00     0.002 A 
ATOM      4  C4  N4B d   1       0.041  -3.083  -1.859  0.00  0.00    -0.004 A 
ATOM      5  C5  N4B d   1       0.275  -1.826  -2.333  0.00  0.00     0.002 A 
ATOM      6  C6  N4B d   1       0.405  -0.754  -1.473  0.00  0.00     0.002 A 
ENDROOT
BRANCH   1   7
ATOM      7  C1' N4B d   1       0.366   0.253   0.781  0.00  0.00     0.057 C 
BRANCH   7   8
ATOM      8  C2' N4B d   1       0.002   1.501  -0.018  0.00  0.00     0.009 C 
BRANCH   8   9
ATOM      9  C3' N4B d   1       0.486   2.771   0.661  0.00  0.00     0.004 C 
ATOM     10  C4' N4B d   1       1.976   2.926   0.609  0.00  0.00     0.003 C 
ENDBRANCH   8   9
ENDBRANCH   7   8
ENDBRANCH   1   7
TORSDOF 3
ENDMDL
