MODEL 1
REMARK minimizedAffinity -1.8522433
REMARK minimizedRMSD -1
REMARK  2 active torsions:
REMARK  status: ('A' for Active; 'I' for Inactive)
REMARK    1  A    between atoms: C1_2  and  C2_3 
REMARK    2  A    between atoms: C2_3  and  C3_4 
ROOT
ATOM      1  C3  UNL d   1       1.003   0.919   0.424  0.00  0.00    -0.075 A 
ATOM      2  C4  UNL d   1       0.676   2.089  -0.277  0.00  0.00     0.002 A 
ATOM      3  C5  UNL d   1       1.405   3.261  -0.078  0.00  0.00     0.002 A 
ATOM      4  C6  UNL d   1       2.462   3.283   0.830  0.00  0.00    -0.004 A 
ATOM      5  C7  UNL d   1       2.785   2.131   1.544  0.00  0.00     0.002 A 
ATOM      6  C8  UNL d   1       2.060   0.955   1.343  0.00  0.00     0.002 A 
ENDROOT
BRANCH   1   7
ATOM      7  C2  UNL d   1       0.236  -0.361   0.191  0.00  0.00     0.056 C 
BRANCH   7   8
ATOM      8  C1  UNL d   1       0.009  -1.191   1.459  0.00  0.00     0.007 C 
ATOM      9  C   UNL d   1      -1.261  -2.030   1.407  0.00  0.00     0.009 C 
ENDBRANCH   7   8
ENDBRANCH   1   7
TORSDOF 2
ENDMDL
