MODEL 1
REMARK minimizedAffinity -4.19097185
REMARK minimizedRMSD -1
REMARK  2 active torsions:
REMARK  status: ('A' for Active; 'I' for Inactive)
REMARK    1  A    between atoms: C1_2  and  C2_3 
REMARK    2  A    between atoms: C2_3  and  C3_4 
ROOT
ATOM      1  C3  UNL d   1      -0.072   0.382   0.438  0.00  0.00    -0.075 A 
ATOM      2  C4  UNL d   1       0.328   1.617   0.968  0.00  0.00     0.002 A 
ATOM      3  C5  UNL d   1       0.411   2.745   0.152  0.00  0.00     0.002 A 
ATOM      4  C6  UNL d   1       0.105   2.651  -1.204  0.00  0.00    -0.004 A 
ATOM      5  C7  UNL d   1      -0.277   1.426  -1.745  0.00  0.00     0.002 A 
ATOM      6  C8  UNL d   1      -0.365   0.296  -0.930  0.00  0.00     0.002 A 
ENDROOT
BRANCH   1   7
ATOM      7  C2  UNL d   1      -0.192  -0.837   1.322  0.00  0.00     0.056 C 
BRANCH   7   8
ATOM      8  C1  UNL d   1      -1.589  -1.466   1.331  0.00  0.00     0.007 C 
ATOM      9  C   UNL d   1      -1.601  -2.909   0.844  0.00  0.00     0.009 C 
ENDBRANCH   7   8
ENDBRANCH   1   7
TORSDOF 2
ENDMDL
