MODEL 1
REMARK minimizedAffinity -4.76103878
REMARK minimizedRMSD -1
REMARK  2 active torsions:
REMARK  status: ('A' for Active; 'I' for Inactive)
REMARK    1  A    between atoms: C1_2  and  C2_3 
REMARK    2  A    between atoms: C2_3  and  C3_4 
ROOT
ATOM      1  C3  UNL d   1       0.439   1.500  -0.010  0.00  0.00    -0.075 A 
ATOM      2  C4  UNL d   1       0.367   2.409  -1.075  0.00  0.00     0.002 A 
ATOM      3  C5  UNL d   1       1.300   3.440  -1.190  0.00  0.00     0.002 A 
ATOM      4  C6  UNL d   1       2.308   3.582  -0.239  0.00  0.00    -0.004 A 
ATOM      5  C7  UNL d   1       2.379   2.694   0.832  0.00  0.00     0.002 A 
ATOM      6  C8  UNL d   1       1.450   1.659   0.948  0.00  0.00     0.002 A 
ENDROOT
BRANCH   1   7
ATOM      7  C2  UNL d   1      -0.550   0.364   0.105  0.00  0.00     0.056 C 
BRANCH   7   8
ATOM      8  C1  UNL d   1       0.025  -1.004  -0.279  0.00  0.00     0.007 C 
ATOM      9  C   UNL d   1      -0.541  -2.147   0.553  0.00  0.00     0.009 C 
ENDBRANCH   7   8
ENDBRANCH   1   7
TORSDOF 2
ENDMDL
