MODEL 1
REMARK minimizedAffinity -3.39453149
REMARK minimizedRMSD -1
REMARK  2 active torsions:
REMARK  status: ('A' for Active; 'I' for Inactive)
REMARK    1  A    between atoms: C1_2  and  C2_3 
REMARK    2  A    between atoms: C2_3  and  C3_4 
ROOT
ATOM      1  C3  UNL d   1       0.304   0.339  -0.136  0.00  0.00    -0.075 A 
ATOM      2  C4  UNL d   1      -0.583   0.203   0.942  0.00  0.00     0.002 A 
ATOM      3  C5  UNL d   1      -0.991  -1.061   1.369  0.00  0.00     0.002 A 
ATOM      4  C6  UNL d   1      -0.528  -2.202   0.718  0.00  0.00    -0.004 A 
ATOM      5  C7  UNL d   1       0.340  -2.079  -0.365  0.00  0.00     0.002 A 
ATOM      6  C8  UNL d   1       0.754  -0.815  -0.791  0.00  0.00     0.002 A 
ENDROOT
BRANCH   1   7
ATOM      7  C2  UNL d   1       0.773   1.703  -0.583  0.00  0.00     0.056 C 
BRANCH   7   8
ATOM      8  C1  UNL d   1       1.653   2.427   0.441  0.00  0.00     0.007 C 
ATOM      9  C   UNL d   1       2.806   3.193  -0.192  0.00  0.00     0.009 C 
ENDBRANCH   7   8
ENDBRANCH   1   7
TORSDOF 2
ENDMDL
