MODEL 1
REMARK minimizedAffinity -5.7345643
REMARK minimizedRMSD -1
REMARK  2 active torsions:
REMARK  status: ('A' for Active; 'I' for Inactive)
REMARK    1  A    between atoms: C1_2  and  C2_3 
REMARK    2  A    between atoms: C2_3  and  C3_4 
ROOT
ATOM      1  C3  UNL d   1      -0.017  -0.427  -0.052  0.00  0.00    -0.075 A 
ATOM      2  C4  UNL d   1      -1.024  -0.665   0.895  0.00  0.00     0.002 A 
ATOM      3  C5  UNL d   1      -1.206  -1.941   1.429  0.00  0.00     0.002 A 
ATOM      4  C6  UNL d   1      -0.393  -2.994   1.017  0.00  0.00    -0.004 A 
ATOM      5  C7  UNL d   1       0.600  -2.773   0.065  0.00  0.00     0.002 A 
ATOM      6  C8  UNL d   1       0.787  -1.496  -0.468  0.00  0.00     0.002 A 
ENDROOT
BRANCH   1   7
ATOM      7  C2  UNL d   1       0.205   0.958  -0.612  0.00  0.00     0.056 C 
BRANCH   7   8
ATOM      8  C1  UNL d   1       0.895   1.921   0.360  0.00  0.00     0.007 C 
ATOM      9  C   UNL d   1       1.553   3.105  -0.335  0.00  0.00     0.009 C 
ENDBRANCH   7   8
ENDBRANCH   1   7
TORSDOF 2
ENDMDL
