MODEL 1
REMARK minimizedAffinity -4.66836071
REMARK minimizedRMSD -1
REMARK  2 active torsions:
REMARK  status: ('A' for Active; 'I' for Inactive)
REMARK    1  A    between atoms: C1_2  and  C2_3 
REMARK    2  A    between atoms: C2_3  and  C3_4 
ROOT
ATOM      1  C3  UNL d   1      -0.140  -0.117   0.033  0.00  0.00    -0.075 A 
ATOM      2  C4  UNL d   1      -1.152  -0.425   0.954  0.00  0.00     0.002 A 
ATOM      3  C5  UNL d   1      -1.411  -1.751   1.304  0.00  0.00     0.002 A 
ATOM      4  C6  UNL d   1      -0.671  -2.783   0.733  0.00  0.00    -0.004 A 
ATOM      5  C7  UNL d   1       0.325  -2.490  -0.196  0.00  0.00     0.002 A 
ATOM      6  C8  UNL d   1       0.590  -1.165  -0.545  0.00  0.00     0.002 A 
ENDROOT
BRANCH   1   7
ATOM      7  C2  UNL d   1       0.166   1.317  -0.328  0.00  0.00     0.056 C 
BRANCH   7   8
ATOM      8  C1  UNL d   1       0.829   2.116   0.799  0.00  0.00     0.007 C 
ATOM      9  C   UNL d   1       1.979   2.991   0.317  0.00  0.00     0.009 C 
ENDBRANCH   7   8
ENDBRANCH   1   7
TORSDOF 2
ENDMDL
