MODEL 1
REMARK minimizedAffinity -5.17966509
REMARK minimizedRMSD -1
REMARK  2 active torsions:
REMARK  status: ('A' for Active; 'I' for Inactive)
REMARK    1  A    between atoms: C1_2  and  C2_3 
REMARK    2  A    between atoms: C2_3  and  C3_4 
ROOT
ATOM      1  C3  UNL d   1      -0.107  -0.370   0.548  0.00  0.00    -0.075 A 
ATOM      2  C4  UNL d   1       0.858  -1.380   0.419  0.00  0.00     0.002 A 
ATOM      3  C5  UNL d   1       0.496  -2.723   0.520  0.00  0.00     0.002 A 
ATOM      4  C6  UNL d   1      -0.831  -3.073   0.761  0.00  0.00    -0.004 A 
ATOM      5  C7  UNL d   1      -1.795  -2.078   0.908  0.00  0.00     0.002 A 
ATOM      6  C8  UNL d   1      -1.436  -0.733   0.803  0.00  0.00     0.002 A 
ENDROOT
BRANCH   1   7
ATOM      7  C2  UNL d   1       0.274   1.085   0.411  0.00  0.00     0.056 C 
BRANCH   7   8
ATOM      8  C1  UNL d   1       1.134   1.616   1.563  0.00  0.00     0.007 C 
ATOM      9  C   UNL d   1       0.511   1.385   2.933  0.00  0.00     0.009 C 
ENDBRANCH   7   8
ENDBRANCH   1   7
TORSDOF 2
ENDMDL
