MODEL 1
REMARK minimizedAffinity -3.83671618
REMARK minimizedRMSD -1
REMARK  2 active torsions:
REMARK  status: ('A' for Active; 'I' for Inactive)
REMARK    1  A    between atoms: C1_2  and  C2_3 
REMARK    2  A    between atoms: C2_3  and  C3_4 
ROOT
ATOM      1  C3  UNL d   1       0.025  -0.187   0.245  0.00  0.00    -0.075 A 
ATOM      2  C4  UNL d   1       0.266  -1.346  -0.507  0.00  0.00     0.002 A 
ATOM      3  C5  UNL d   1      -0.381  -2.541  -0.194  0.00  0.00     0.002 A 
ATOM      4  C6  UNL d   1      -1.269  -2.596   0.878  0.00  0.00    -0.004 A 
ATOM      5  C7  UNL d   1      -1.505  -1.455   1.642  0.00  0.00     0.002 A 
ATOM      6  C8  UNL d   1      -0.861  -0.256   1.329  0.00  0.00     0.002 A 
ENDROOT
BRANCH   1   7
ATOM      7  C2  UNL d   1       0.700   1.117  -0.107  0.00  0.00     0.056 C 
BRANCH   7   8
ATOM      8  C1  UNL d   1       1.063   1.979   1.107  0.00  0.00     0.007 C 
ATOM      9  C   UNL d   1       1.798   3.260   0.736  0.00  0.00     0.009 C 
ENDBRANCH   7   8
ENDBRANCH   1   7
TORSDOF 2
ENDMDL
