MODEL 1
REMARK minimizedAffinity 5.36230659
REMARK minimizedRMSD -1
REMARK  2 active torsions:
REMARK  status: ('A' for Active; 'I' for Inactive)
REMARK    1  A    between atoms: C1_2  and  C2_3 
REMARK    2  A    between atoms: C2_3  and  C3_4 
ROOT
ATOM      1  C3  UNL d   1      -1.977   1.986   0.658  0.00  0.00    -0.075 A 
ATOM      2  C4  UNL d   1      -1.676   0.819   1.376  0.00  0.00     0.002 A 
ATOM      3  C5  UNL d   1      -0.647  -0.024   0.957  0.00  0.00     0.002 A 
ATOM      4  C6  UNL d   1       0.086   0.281  -0.187  0.00  0.00    -0.004 A 
ATOM      5  C7  UNL d   1      -0.215   1.429  -0.918  0.00  0.00     0.002 A 
ATOM      6  C8  UNL d   1      -1.242   2.277  -0.499  0.00  0.00     0.002 A 
ENDROOT
BRANCH   1   7
ATOM      7  C2  UNL d   1      -3.071   2.918   1.122  0.00  0.00     0.056 C 
BRANCH   7   8
ATOM      8  C1  UNL d   1      -4.352   2.205   1.567  0.00  0.00     0.007 C 
ATOM      9  C   UNL d   1      -4.778   2.564   2.984  0.00  0.00     0.009 C 
ENDBRANCH   7   8
ENDBRANCH   1   7
TORSDOF 2
ENDMDL
