MODEL 1
REMARK minimizedAffinity 2.96053052
REMARK minimizedRMSD -1
REMARK  2 active torsions:
REMARK  status: ('A' for Active; 'I' for Inactive)
REMARK    1  A    between atoms: C1_2  and  C2_3 
REMARK    2  A    between atoms: C2_3  and  C3_4 
ROOT
ATOM      1  C3  UNL d   1       2.739   4.005   0.296  0.00  0.00    -0.075 A 
ATOM      2  C4  UNL d   1       1.948   3.303  -0.625  0.00  0.00     0.002 A 
ATOM      3  C5  UNL d   1       2.509   2.790  -1.795  0.00  0.00     0.002 A 
ATOM      4  C6  UNL d   1       3.862   2.981  -2.064  0.00  0.00    -0.004 A 
ATOM      5  C7  UNL d   1       4.654   3.691  -1.164  0.00  0.00     0.002 A 
ATOM      6  C8  UNL d   1       4.097   4.201   0.009  0.00  0.00     0.002 A 
ENDROOT
BRANCH   1   7
ATOM      7  C2  UNL d   1       2.145   4.537   1.578  0.00  0.00     0.056 C 
BRANCH   7   8
ATOM      8  C1  UNL d   1       0.876   3.805   2.028  0.00  0.00     0.007 C 
ATOM      9  C   UNL d   1      -0.134   4.718   2.710  0.00  0.00     0.009 C 
ENDBRANCH   7   8
ENDBRANCH   1   7
TORSDOF 2
ENDMDL
