MODEL 1
REMARK minimizedAffinity 7.90024376
REMARK minimizedRMSD -1
REMARK  0 active torsions:
REMARK  status: ('A' for Active; 'I' for Inactive)
ROOT
ATOM      1  O1  BZF d   1      -4.726   1.012  -4.500  0.00  0.00    -0.204 OA
ATOM      2  C2  BZF d   1      -4.417   2.255  -3.984  0.00  0.00     0.174 A 
ATOM      3  C3  BZF d   1      -3.624   2.140  -2.899  0.00  0.00    -0.012 A 
ATOM      4  C3A BZF d   1      -3.349   0.741  -2.781  0.00  0.00    -0.107 A 
ATOM      5  C4  BZF d   1      -2.604   0.001  -1.908  0.00  0.00     0.055 A 
ATOM      6  C5  BZF d   1      -2.602  -1.353  -2.025  0.00  0.00    -0.016 A 
ATOM      7  C6  BZF d   1      -3.336  -2.000  -2.998  0.00  0.00     0.022 A 
ATOM      8  C7  BZF d   1      -4.087  -1.308  -3.890  0.00  0.00     0.029 A 
ATOM      9  C7A BZF d   1      -4.065   0.062  -3.795  0.00  0.00     0.058 A 
ENDROOT
TORSDOF 0
ENDMDL
