MODEL 1
REMARK minimizedAffinity 1.67130005
REMARK minimizedRMSD -1
REMARK  0 active torsions:
REMARK  status: ('A' for Active; 'I' for Inactive)
ROOT
ATOM      1  O1  BZF d   1       0.771  -2.516   2.592  0.00  0.00    -0.204 OA
ATOM      2  C2  BZF d   1       1.571  -1.426   2.310  0.00  0.00     0.174 A 
ATOM      3  C3  BZF d   1       2.496  -1.249   3.275  0.00  0.00    -0.012 A 
ATOM      4  C3A BZF d   1       2.319  -2.348   4.173  0.00  0.00    -0.107 A 
ATOM      5  C4  BZF d   1       2.950  -2.735   5.321  0.00  0.00     0.055 A 
ATOM      6  C5  BZF d   1       2.486  -3.818   5.997  0.00  0.00    -0.016 A 
ATOM      7  C6  BZF d   1       1.391  -4.534   5.559  0.00  0.00     0.022 A 
ATOM      8  C7  BZF d   1       0.735  -4.192   4.423  0.00  0.00     0.029 A 
ATOM      9  C7A BZF d   1       1.222  -3.117   3.720  0.00  0.00     0.058 A 
ENDROOT
TORSDOF 0
ENDMDL
