MODEL 1
REMARK minimizedAffinity 3.47116375
REMARK minimizedRMSD -1
REMARK  0 active torsions:
REMARK  status: ('A' for Active; 'I' for Inactive)
ROOT
ATOM      1  O1  BZF d   1       0.968  -2.476   2.212  0.00  0.00    -0.204 OA
ATOM      2  C2  BZF d   1       1.173  -1.129   2.439  0.00  0.00     0.174 A 
ATOM      3  C3  BZF d   1       2.080  -0.942   3.421  0.00  0.00    -0.012 A 
ATOM      4  C3A BZF d   1       2.533  -2.254   3.768  0.00  0.00    -0.107 A 
ATOM      5  C4  BZF d   1       3.447  -2.724   4.669  0.00  0.00     0.055 A 
ATOM      6  C5  BZF d   1       3.602  -4.066   4.813  0.00  0.00    -0.016 A 
ATOM      7  C6  BZF d   1       2.858  -4.966   4.078  0.00  0.00     0.022 A 
ATOM      8  C7  BZF d   1       1.944  -4.548   3.169  0.00  0.00     0.029 A 
ATOM      9  C7A BZF d   1       1.808  -3.192   2.998  0.00  0.00     0.058 A 
ENDROOT
TORSDOF 0
ENDMDL
