MODEL 1
REMARK minimizedAffinity 9.31592941
REMARK minimizedRMSD -1
REMARK  0 active torsions:
REMARK  status: ('A' for Active; 'I' for Inactive)
ROOT
ATOM      1  O1  BZF d   1      -4.734   0.167  -2.696  0.00  0.00    -0.204 OA
ATOM      2  C2  BZF d   1      -3.392   0.434  -2.892  0.00  0.00     0.174 A 
ATOM      3  C3  BZF d   1      -2.642  -0.650  -2.605  0.00  0.00    -0.012 A 
ATOM      4  C3A BZF d   1      -3.580  -1.684  -2.292  0.00  0.00    -0.107 A 
ATOM      5  C4  BZF d   1      -3.447  -2.997  -1.941  0.00  0.00     0.055 A 
ATOM      6  C5  BZF d   1      -4.559  -3.714  -1.632  0.00  0.00    -0.016 A 
ATOM      7  C6  BZF d   1      -5.817  -3.150  -1.657  0.00  0.00     0.022 A 
ATOM      8  C7  BZF d   1      -6.000  -1.852  -2.004  0.00  0.00     0.029 A 
ATOM      9  C7A BZF d   1      -4.881  -1.134  -2.349  0.00  0.00     0.058 A 
ENDROOT
TORSDOF 0
ENDMDL
