MODEL 1
REMARK minimizedAffinity 10.9505768
REMARK minimizedRMSD -1
REMARK  0 active torsions:
REMARK  status: ('A' for Active; 'I' for Inactive)
ROOT
ATOM      1  O1  BZF d   1       4.683  -2.285   4.072  0.00  0.00    -0.204 OA
ATOM      2  C2  BZF d   1       4.634  -3.342   4.960  0.00  0.00     0.174 A 
ATOM      3  C3  BZF d   1       3.397  -3.878   4.999  0.00  0.00    -0.012 A 
ATOM      4  C3A BZF d   1       2.648  -3.166   4.009  0.00  0.00    -0.107 A 
ATOM      5  C4  BZF d   1       1.359  -3.251   3.565  0.00  0.00     0.055 A 
ATOM      6  C5  BZF d   1       0.920  -2.361   2.638  0.00  0.00    -0.016 A 
ATOM      7  C6  BZF d   1       1.739  -1.371   2.136  0.00  0.00     0.022 A 
ATOM      8  C7  BZF d   1       3.027  -1.249   2.542  0.00  0.00     0.029 A 
ATOM      9  C7A BZF d   1       3.483  -2.168   3.455  0.00  0.00     0.058 A 
ENDROOT
TORSDOF 0
ENDMDL
