MODEL 1
REMARK minimizedAffinity 6.76141071
REMARK minimizedRMSD -1
REMARK  0 active torsions:
REMARK  status: ('A' for Active; 'I' for Inactive)
ROOT
ATOM      1  O1  BZF d   1       4.368  -4.548   4.173  0.00  0.00    -0.204 OA
ATOM      2  C2  BZF d   1       5.505  -3.764   4.134  0.00  0.00     0.174 A 
ATOM      3  C3  BZF d   1       5.212  -2.517   3.710  0.00  0.00    -0.012 A 
ATOM      4  C3A BZF d   1       3.790  -2.497   3.556  0.00  0.00    -0.107 A 
ATOM      5  C4  BZF d   1       2.900  -1.533   3.175  0.00  0.00     0.055 A 
ATOM      6  C5  BZF d   1       1.586  -1.857   3.058  0.00  0.00    -0.016 A 
ATOM      7  C6  BZF d   1       1.127  -3.133   3.308  0.00  0.00     0.022 A 
ATOM      8  C7  BZF d   1       1.971  -4.121   3.694  0.00  0.00     0.029 A 
ATOM      9  C7A BZF d   1       3.295  -3.789   3.845  0.00  0.00     0.058 A 
ENDROOT
TORSDOF 0
ENDMDL
