MODEL 1
REMARK minimizedAffinity 3.16860795
REMARK minimizedRMSD -1
REMARK  2 active torsions:
REMARK  status: ('A' for Active; 'I' for Inactive)
REMARK    1  A    between atoms: C2'_3  and  C1'_4 
REMARK    2  A    between atoms: C1'_4  and  C1_5 
ROOT
ATOM      1  C1  I4B d   1      -0.711  -0.193  -0.989  0.00  0.00    -0.075 A 
ATOM      2  C2  I4B d   1       0.179   0.047   0.028  0.00  0.00     0.003 A 
ATOM      3  C3  I4B d   1      -0.284   0.505   1.286  0.00  0.00     0.002 A 
ATOM      4  C4  I4B d   1      -1.629   0.756   1.465  0.00  0.00    -0.004 A 
ATOM      5  C5  I4B d   1      -2.531   0.490   0.440  0.00  0.00     0.002 A 
ATOM      6  C6  I4B d   1      -2.072   0.001  -0.792  0.00  0.00     0.003 A 
ENDROOT
BRANCH   1   7
ATOM      7  C1' I4B d   1      -0.184  -0.645  -2.315  0.00  0.00     0.060 C 
BRANCH   7   8
ATOM      8  C2' I4B d   1      -0.494   0.434  -3.332  0.00  0.00    -0.013 C 
ATOM      9  C4' I4B d   1       0.725   1.265  -3.634  0.00  0.00     0.013 C 
ATOM     10  C3' I4B d   1      -1.015  -0.233  -4.570  0.00  0.00     0.013 C 
ENDBRANCH   7   8
ENDBRANCH   1   7
TORSDOF 2
ENDMDL
