MODEL 1
REMARK minimizedAffinity 1.87968838
REMARK minimizedRMSD -1
REMARK  2 active torsions:
REMARK  status: ('A' for Active; 'I' for Inactive)
REMARK    1  A    between atoms: C2'_3  and  C1'_4 
REMARK    2  A    between atoms: C1'_4  and  C1_5 
ROOT
ATOM      1  C1  I4B d   1       0.878   0.819  -2.049  0.00  0.00    -0.075 A 
ATOM      2  C2  I4B d   1      -0.096   0.112  -2.709  0.00  0.00     0.003 A 
ATOM      3  C3  I4B d   1      -0.222   0.214  -4.115  0.00  0.00     0.002 A 
ATOM      4  C4  I4B d   1       0.610   1.067  -4.812  0.00  0.00    -0.004 A 
ATOM      5  C5  I4B d   1       1.612   1.765  -4.144  0.00  0.00     0.002 A 
ATOM      6  C6  I4B d   1       1.755   1.631  -2.755  0.00  0.00     0.003 A 
ENDROOT
BRANCH   1   7
ATOM      7  C1' I4B d   1       0.961   0.713  -0.559  0.00  0.00     0.060 C 
BRANCH   7   8
ATOM      8  C2' I4B d   1       0.824  -0.749  -0.186  0.00  0.00    -0.013 C 
ATOM      9  C4' I4B d   1       1.948  -1.190   0.714  0.00  0.00     0.013 C 
ATOM     10  C3' I4B d   1      -0.507  -0.935   0.479  0.00  0.00     0.013 C 
ENDBRANCH   7   8
ENDBRANCH   1   7
TORSDOF 2
ENDMDL
