MODEL 1
REMARK minimizedAffinity 2.07848859
REMARK minimizedRMSD -1
REMARK  2 active torsions:
REMARK  status: ('A' for Active; 'I' for Inactive)
REMARK    1  A    between atoms: C2'_3  and  C1'_4 
REMARK    2  A    between atoms: C1'_4  and  C1_5 
ROOT
ATOM      1  C1  I4B d   1       0.159   0.056  -2.044  0.00  0.00    -0.075 A 
ATOM      2  C2  I4B d   1      -0.291  -1.035  -2.745  0.00  0.00     0.003 A 
ATOM      3  C3  I4B d   1      -0.270  -1.031  -4.161  0.00  0.00     0.002 A 
ATOM      4  C4  I4B d   1       0.158   0.096  -4.831  0.00  0.00    -0.004 A 
ATOM      5  C5  I4B d   1       0.634   1.193  -4.119  0.00  0.00     0.002 A 
ATOM      6  C6  I4B d   1       0.646   1.169  -2.717  0.00  0.00     0.003 A 
ENDROOT
BRANCH   1   7
ATOM      7  C1' I4B d   1       0.092   0.031  -0.550  0.00  0.00     0.060 C 
BRANCH   7   8
ATOM      8  C2' I4B d   1      -1.343   0.298  -0.143  0.00  0.00    -0.013 C 
ATOM      9  C4' I4B d   1      -1.443   0.606   1.328  0.00  0.00     0.013 C 
ATOM     10  C3' I4B d   1      -1.854   1.439  -0.971  0.00  0.00     0.013 C 
ENDBRANCH   7   8
ENDBRANCH   1   7
TORSDOF 2
ENDMDL
