MODEL 1
REMARK minimizedAffinity -5.09059811
REMARK minimizedRMSD -1
REMARK  2 active torsions:
REMARK  status: ('A' for Active; 'I' for Inactive)
REMARK    1  A    between atoms: C2'_3  and  C1'_4 
REMARK    2  A    between atoms: C1'_4  and  C1_5 
ROOT
ATOM      1  C1  I4B d   1       0.369  -0.073  -0.086  0.00  0.00    -0.075 A 
ATOM      2  C2  I4B d   1      -0.988   0.111  -0.187  0.00  0.00     0.003 A 
ATOM      3  C3  I4B d   1      -1.714   0.665   0.896  0.00  0.00     0.002 A 
ATOM      4  C4  I4B d   1      -1.056   0.971   2.069  0.00  0.00    -0.004 A 
ATOM      5  C5  I4B d   1       0.323   0.805   2.161  0.00  0.00     0.002 A 
ATOM      6  C6  I4B d   1       1.042   0.291   1.072  0.00  0.00     0.003 A 
ENDROOT
BRANCH   1   7
ATOM      7  C1' I4B d   1       1.099  -0.691  -1.236  0.00  0.00     0.060 C 
BRANCH   7   8
ATOM      8  C2' I4B d   1       0.794   0.125  -2.476  0.00  0.00    -0.013 C 
ATOM      9  C4' I4B d   1       2.008   0.883  -2.943  0.00  0.00     0.013 C 
ATOM     10  C3' I4B d   1       0.299  -0.812  -3.537  0.00  0.00     0.013 C 
ENDBRANCH   7   8
ENDBRANCH   1   7
TORSDOF 2
ENDMDL
