MODEL 1
REMARK minimizedAffinity -6.29351711
REMARK minimizedRMSD -1
REMARK  2 active torsions:
REMARK  status: ('A' for Active; 'I' for Inactive)
REMARK    1  A    between atoms: C2'_3  and  C1'_4 
REMARK    2  A    between atoms: C1'_4  and  C1_5 
ROOT
ATOM      1  C1  I4B d   1       0.172  -0.059  -0.002  0.00  0.00    -0.075 A 
ATOM      2  C2  I4B d   1      -1.186   0.138  -0.035  0.00  0.00     0.003 A 
ATOM      3  C3  I4B d   1      -1.837   0.798   1.035  0.00  0.00     0.002 A 
ATOM      4  C4  I4B d   1      -1.104   1.197   2.134  0.00  0.00    -0.004 A 
ATOM      5  C5  I4B d   1       0.276   1.017   2.156  0.00  0.00     0.002 A 
ATOM      6  C6  I4B d   1       0.920   0.396   1.076  0.00  0.00     0.003 A 
ENDROOT
BRANCH   1   7
ATOM      7  C1' I4B d   1       0.823  -0.789  -1.134  0.00  0.00     0.060 C 
BRANCH   7   8
ATOM      8  C2' I4B d   1       0.569  -0.002  -2.404  0.00  0.00    -0.013 C 
ATOM      9  C4' I4B d   1       1.812   0.717  -2.858  0.00  0.00     0.013 C 
ATOM     10  C3' I4B d   1       0.083  -0.959  -3.451  0.00  0.00     0.013 C 
ENDBRANCH   7   8
ENDBRANCH   1   7
TORSDOF 2
ENDMDL
