MODEL 1
REMARK minimizedAffinity -3.60580015
REMARK minimizedRMSD -1
REMARK  2 active torsions:
REMARK  status: ('A' for Active; 'I' for Inactive)
REMARK    1  A    between atoms: C2'_3  and  C1'_4 
REMARK    2  A    between atoms: C1'_4  and  C1_5 
ROOT
ATOM      1  C1  I4B d   1       0.623   0.762   0.707  0.00  0.00    -0.075 A 
ATOM      2  C2  I4B d   1      -0.291   1.772   0.872  0.00  0.00     0.003 A 
ATOM      3  C3  I4B d   1      -0.650   2.203   2.172  0.00  0.00     0.002 A 
ATOM      4  C4  I4B d   1      -0.112   1.566   3.272  0.00  0.00    -0.004 A 
ATOM      5  C5  I4B d   1       0.832   0.557   3.103  0.00  0.00     0.002 A 
ATOM      6  C6  I4B d   1       1.211   0.161   1.812  0.00  0.00     0.003 A 
ENDROOT
BRANCH   1   7
ATOM      7  C1' I4B d   1       0.954   0.310  -0.680  0.00  0.00     0.060 C 
BRANCH   7   8
ATOM      8  C2' I4B d   1      -0.050  -0.753  -1.077  0.00  0.00    -0.013 C 
ATOM      9  C4' I4B d   1      -1.376  -0.532  -0.397  0.00  0.00     0.013 C 
ATOM     10  C3' I4B d   1      -0.195  -0.720  -2.569  0.00  0.00     0.013 C 
ENDBRANCH   7   8
ENDBRANCH   1   7
TORSDOF 2
ENDMDL
