MODEL 1
REMARK minimizedAffinity 7.58552456
REMARK minimizedRMSD -1
REMARK  0 active torsions:
REMARK  status: ('A' for Active; 'I' for Inactive)
ROOT
ATOM      1  C2' OXE d   1      -4.522  -2.038   3.770  0.00  0.00     0.078 C 
ATOM      2  C1' OXE d   1      -2.624  -0.558   2.325  0.00  0.00     0.078 C 
ATOM      3  C1  OXE d   1      -3.132   0.024   3.620  0.00  0.00    -0.078 A 
ATOM      4  C2  OXE d   1      -4.095  -0.685   4.297  0.00  0.00    -0.078 A 
ATOM      5  C3  OXE d   1      -4.559  -0.219   5.524  0.00  0.00     0.003 A 
ATOM      6  C4  OXE d   1      -4.166   1.038   6.000  0.00  0.00    -0.002 A 
ATOM      7  C5  OXE d   1      -3.216   1.794   5.306  0.00  0.00    -0.002 A 
ATOM      8  C6  OXE d   1      -2.659   1.284   4.139  0.00  0.00     0.003 A 
ENDROOT
TORSDOF 0
ENDMDL
