MODEL 1
REMARK minimizedAffinity 9.62882328
REMARK minimizedRMSD -1
REMARK  0 active torsions:
REMARK  status: ('A' for Active; 'I' for Inactive)
ROOT
ATOM      1  C2' OXE d   1      -2.561   0.830   4.721  0.00  0.00     0.078 C 
ATOM      2  C1' OXE d   1      -4.345  -0.007   2.722  0.00  0.00     0.078 C 
ATOM      3  C1  OXE d   1      -2.886  -0.349   2.551  0.00  0.00    -0.078 A 
ATOM      4  C2  OXE d   1      -2.014   0.106   3.510  0.00  0.00    -0.078 A 
ATOM      5  C3  OXE d   1      -0.665  -0.229   3.429  0.00  0.00     0.003 A 
ATOM      6  C4  OXE d   1      -0.165  -0.891   2.301  0.00  0.00    -0.002 A 
ATOM      7  C5  OXE d   1      -1.031  -1.327   1.293  0.00  0.00    -0.002 A 
ATOM      8  C6  OXE d   1      -2.397  -1.102   1.423  0.00  0.00     0.003 A 
ENDROOT
TORSDOF 0
ENDMDL
