MODEL 1
REMARK minimizedAffinity 1.16056192
REMARK minimizedRMSD -1
REMARK  0 active torsions:
REMARK  status: ('A' for Active; 'I' for Inactive)
ROOT
ATOM      1  C2' OXE d   1      -2.821   0.948   6.000  0.00  0.00     0.078 C 
ATOM      2  C1' OXE d   1      -1.932   0.406   3.393  0.00  0.00     0.078 C 
ATOM      3  C1  OXE d   1      -3.225  -0.227   3.841  0.00  0.00    -0.078 A 
ATOM      4  C2  OXE d   1      -3.629   0.006   5.133  0.00  0.00    -0.078 A 
ATOM      5  C3  OXE d   1      -4.842  -0.509   5.580  0.00  0.00     0.003 A 
ATOM      6  C4  OXE d   1      -5.578  -1.388   4.776  0.00  0.00    -0.002 A 
ATOM      7  C5  OXE d   1      -5.165  -1.671   3.470  0.00  0.00    -0.002 A 
ATOM      8  C6  OXE d   1      -4.015  -1.066   2.973  0.00  0.00     0.003 A 
ENDROOT
TORSDOF 0
ENDMDL
