MODEL 1
REMARK minimizedAffinity -0.635925531
REMARK minimizedRMSD -1
REMARK  0 active torsions:
REMARK  status: ('A' for Active; 'I' for Inactive)
ROOT
ATOM      1  C2' OXE d   1      -2.189   1.164   4.244  0.00  0.00     0.078 C 
ATOM      2  C1' OXE d   1      -1.056  -0.814   2.605  0.00  0.00     0.078 C 
ATOM      3  C1  OXE d   1      -2.551  -0.836   2.804  0.00  0.00    -0.078 A 
ATOM      4  C2  OXE d   1      -3.092   0.107   3.645  0.00  0.00    -0.078 A 
ATOM      5  C3  OXE d   1      -4.471   0.165   3.819  0.00  0.00     0.003 A 
ATOM      6  C4  OXE d   1      -5.298  -0.822   3.269  0.00  0.00    -0.002 A 
ATOM      7  C5  OXE d   1      -4.763  -1.815   2.442  0.00  0.00    -0.002 A 
ATOM      8  C6  OXE d   1      -3.400  -1.811   2.165  0.00  0.00     0.003 A 
ENDROOT
TORSDOF 0
ENDMDL
