MODEL 1
REMARK minimizedAffinity 2.73425531
REMARK minimizedRMSD -1
REMARK  0 active torsions:
REMARK  status: ('A' for Active; 'I' for Inactive)
ROOT
ATOM      1  C2' OXE d   1      -0.800   4.587  -3.380  0.00  0.00     0.078 C 
ATOM      2  C1' OXE d   1      -0.668   5.585  -6.000  0.00  0.00     0.078 C 
ATOM      3  C1  OXE d   1      -2.020   5.532  -5.334  0.00  0.00    -0.078 A 
ATOM      4  C2  OXE d   1      -2.082   4.998  -4.070  0.00  0.00    -0.078 A 
ATOM      5  C3  OXE d   1      -3.296   4.976  -3.389  0.00  0.00     0.003 A 
ATOM      6  C4  OXE d   1      -4.479   5.349  -4.038  0.00  0.00    -0.002 A 
ATOM      7  C5  OXE d   1      -4.444   5.858  -5.341  0.00  0.00    -0.002 A 
ATOM      8  C6  OXE d   1      -3.220   5.996  -5.986  0.00  0.00     0.003 A 
ENDROOT
TORSDOF 0
ENDMDL
