MODEL 1
REMARK minimizedAffinity 7.31787252
REMARK minimizedRMSD -1
REMARK  0 active torsions:
REMARK  status: ('A' for Active; 'I' for Inactive)
ROOT
ATOM      1  C2' OXE d   1       3.875   0.925  -0.735  0.00  0.00     0.078 C 
ATOM      2  C1' OXE d   1       2.229   1.881   1.328  0.00  0.00     0.078 C 
ATOM      3  C1  OXE d   1       3.538   2.590   1.086  0.00  0.00    -0.078 A 
ATOM      4  C2  OXE d   1       4.358   2.087   0.105  0.00  0.00    -0.078 A 
ATOM      5  C3  OXE d   1       5.552   2.737  -0.196  0.00  0.00     0.003 A 
ATOM      6  C4  OXE d   1       5.996   3.805   0.593  0.00  0.00    -0.002 A 
ATOM      7  C5  OXE d   1       5.194   4.308   1.623  0.00  0.00    -0.002 A 
ATOM      8  C6  OXE d   1       3.946   3.741   1.854  0.00  0.00     0.003 A 
ENDROOT
TORSDOF 0
ENDMDL
