MODEL 1
REMARK minimizedAffinity 9.08107662
REMARK minimizedRMSD -1
REMARK  0 active torsions:
REMARK  status: ('A' for Active; 'I' for Inactive)
ROOT
ATOM      1  C2' OXE d   1      -1.315  -0.929   1.362  0.00  0.00     0.078 C 
ATOM      2  C1' OXE d   1      -2.051   1.119   3.136  0.00  0.00     0.078 C 
ATOM      3  C1  OXE d   1      -1.369  -0.097   3.710  0.00  0.00    -0.078 A 
ATOM      4  C2  OXE d   1      -1.055  -1.115   2.842  0.00  0.00    -0.078 A 
ATOM      5  C3  OXE d   1      -0.375  -2.236   3.310  0.00  0.00     0.003 A 
ATOM      6  C4  OXE d   1      -0.147  -2.405   4.681  0.00  0.00    -0.002 A 
ATOM      7  C5  OXE d   1      -0.495  -1.398   5.588  0.00  0.00    -0.002 A 
ATOM      8  C6  OXE d   1      -1.067  -0.222   5.115  0.00  0.00     0.003 A 
ENDROOT
TORSDOF 0
ENDMDL
