MODEL 1
REMARK minimizedAffinity 5.99071074
REMARK minimizedRMSD -1
REMARK  0 active torsions:
REMARK  status: ('A' for Active; 'I' for Inactive)
ROOT
ATOM      1  C2' OXE d   1      -1.552   1.766   2.049  0.00  0.00     0.078 C 
ATOM      2  C1' OXE d   1      -3.562   2.650   0.300  0.00  0.00     0.078 C 
ATOM      3  C1  OXE d   1      -2.245   3.384   0.286  0.00  0.00    -0.078 A 
ATOM      4  C2  OXE d   1      -1.283   2.974   1.178  0.00  0.00    -0.078 A 
ATOM      5  C3  OXE d   1      -0.030   3.582   1.168  0.00  0.00     0.003 A 
ATOM      6  C4  OXE d   1       0.207   4.705   0.367  0.00  0.00    -0.002 A 
ATOM      7  C5  OXE d   1      -0.773   5.164  -0.520  0.00  0.00    -0.002 A 
ATOM      8  C6  OXE d   1      -1.986   4.489  -0.603  0.00  0.00     0.003 A 
ENDROOT
TORSDOF 0
ENDMDL
