MODEL 1
REMARK minimizedAffinity 12.4539385
REMARK minimizedRMSD -1
REMARK  0 active torsions:
REMARK  status: ('A' for Active; 'I' for Inactive)
ROOT
ATOM      1  C2' OXE d   1       3.205   3.655  -1.331  0.00  0.00     0.078 C 
ATOM      2  C1' OXE d   1       1.391   3.028  -3.380  0.00  0.00     0.078 C 
ATOM      3  C1  OXE d   1       2.406   1.981  -2.995  0.00  0.00    -0.078 A 
ATOM      4  C2  OXE d   1       3.319   2.314  -2.023  0.00  0.00    -0.078 A 
ATOM      5  C3  OXE d   1       4.243   1.366  -1.592  0.00  0.00     0.003 A 
ATOM      6  C4  OXE d   1       4.349   0.131  -2.244  0.00  0.00    -0.002 A 
ATOM      7  C5  OXE d   1       3.454  -0.212  -3.263  0.00  0.00    -0.002 A 
ATOM      8  C6  OXE d   1       2.451   0.683  -3.620  0.00  0.00     0.003 A 
ENDROOT
TORSDOF 0
ENDMDL
