MODEL 1
REMARK minimizedAffinity 6.50269556
REMARK minimizedRMSD -1
REMARK  0 active torsions:
REMARK  status: ('A' for Active; 'I' for Inactive)
ROOT
ATOM      1  C2' OXE d   1       3.202  -0.792   0.849  0.00  0.00     0.078 C 
ATOM      2  C1' OXE d   1       1.232  -2.788   0.977  0.00  0.00     0.078 C 
ATOM      3  C1  OXE d   1       2.615  -3.192   0.532  0.00  0.00    -0.078 A 
ATOM      4  C2  OXE d   1       3.561  -2.201   0.427  0.00  0.00    -0.078 A 
ATOM      5  C3  OXE d   1       4.867  -2.528   0.074  0.00  0.00     0.003 A 
ATOM      6  C4  OXE d   1       5.187  -3.832  -0.324  0.00  0.00    -0.002 A 
ATOM      7  C5  OXE d   1       4.229  -4.849  -0.263  0.00  0.00    -0.002 A 
ATOM      8  C6  OXE d   1       2.952  -4.555   0.202  0.00  0.00     0.003 A 
ENDROOT
TORSDOF 0
ENDMDL
