MODEL 1
REMARK minimizedAffinity 5.06668091
REMARK minimizedRMSD -1
REMARK  0 active torsions:
REMARK  status: ('A' for Active; 'I' for Inactive)
ROOT
ATOM      1  C2' OXE d   1       1.848  -3.740  -0.071  0.00  0.00     0.078 C 
ATOM      2  C1' OXE d   1       3.900  -1.830   0.058  0.00  0.00     0.078 C 
ATOM      3  C1  OXE d   1       4.295  -3.285   0.023  0.00  0.00    -0.078 A 
ATOM      4  C2  OXE d   1       3.283  -4.214   0.007  0.00  0.00    -0.078 A 
ATOM      5  C3  OXE d   1       3.592  -5.569  -0.081  0.00  0.00     0.003 A 
ATOM      6  C4  OXE d   1       4.922  -5.999   0.001  0.00  0.00    -0.002 A 
ATOM      7  C5  OXE d   1       5.966  -5.070   0.058  0.00  0.00    -0.002 A 
ATOM      8  C6  OXE d   1       5.672  -3.712   0.027  0.00  0.00     0.003 A 
ENDROOT
TORSDOF 0
ENDMDL
