MODEL 1
REMARK minimizedAffinity 4.62419319
REMARK minimizedRMSD -1
REMARK  0 active torsions:
REMARK  status: ('A' for Active; 'I' for Inactive)
ROOT
ATOM      1  C2' OXE d   1      -4.002   0.079   0.218  0.00  0.00     0.078 C 
ATOM      2  C1' OXE d   1      -3.912   2.885   0.272  0.00  0.00     0.078 C 
ATOM      3  C1  OXE d   1      -3.145   2.136   1.332  0.00  0.00    -0.078 A 
ATOM      4  C2  OXE d   1      -3.232   0.764   1.326  0.00  0.00    -0.078 A 
ATOM      5  C3  OXE d   1      -2.500   0.023   2.249  0.00  0.00     0.003 A 
ATOM      6  C4  OXE d   1      -1.798   0.664   3.277  0.00  0.00    -0.002 A 
ATOM      7  C5  OXE d   1      -1.729   2.060   3.325  0.00  0.00    -0.002 A 
ATOM      8  C6  OXE d   1      -2.360   2.808   2.338  0.00  0.00     0.003 A 
ENDROOT
TORSDOF 0
ENDMDL
