MODEL 1
REMARK minimizedAffinity 5.64062166
REMARK minimizedRMSD -1
REMARK  0 active torsions:
REMARK  status: ('A' for Active; 'I' for Inactive)
ROOT
ATOM      1  C2' OXE d   1      -1.543   2.301   1.653  0.00  0.00     0.078 C 
ATOM      2  C1' OXE d   1      -3.556   2.958  -0.190  0.00  0.00     0.078 C 
ATOM      3  C1  OXE d   1      -2.303   3.798  -0.187  0.00  0.00    -0.078 A 
ATOM      4  C2  OXE d   1      -1.343   3.499   0.750  0.00  0.00    -0.078 A 
ATOM      5  C3  OXE d   1      -0.145   4.208   0.760  0.00  0.00     0.003 A 
ATOM      6  C4  OXE d   1       0.027   5.320  -0.072  0.00  0.00    -0.002 A 
ATOM      7  C5  OXE d   1      -0.954   5.667  -1.006  0.00  0.00    -0.002 A 
ATOM      8  C6  OXE d   1      -2.104   4.892  -1.106  0.00  0.00     0.003 A 
ENDROOT
TORSDOF 0
ENDMDL
