MODEL 1
REMARK minimizedAffinity 8.55066776
REMARK minimizedRMSD -1
REMARK  0 active torsions:
REMARK  status: ('A' for Active; 'I' for Inactive)
ROOT
ATOM      1  C2' OXE d   1       5.333  -1.229   0.854  0.00  0.00     0.078 C 
ATOM      2  C1' OXE d   1       3.003  -0.308   2.121  0.00  0.00     0.078 C 
ATOM      3  C1  OXE d   1       2.867  -1.443   1.137  0.00  0.00    -0.078 A 
ATOM      4  C2  OXE d   1       4.005  -1.856   0.487  0.00  0.00    -0.078 A 
ATOM      5  C3  OXE d   1       3.945  -2.935  -0.390  0.00  0.00     0.003 A 
ATOM      6  C4  OXE d   1       2.712  -3.503  -0.732  0.00  0.00    -0.002 A 
ATOM      7  C5  OXE d   1       1.535  -3.071  -0.111  0.00  0.00    -0.002 A 
ATOM      8  C6  OXE d   1       1.601  -2.073   0.855  0.00  0.00     0.003 A 
ENDROOT
TORSDOF 0
ENDMDL
