MODEL 1
REMARK minimizedAffinity 6.59045982
REMARK minimizedRMSD -1
REMARK  0 active torsions:
REMARK  status: ('A' for Active; 'I' for Inactive)
ROOT
ATOM      1  C2' OXE d   1       4.170  -4.614  -0.255  0.00  0.00     0.078 C 
ATOM      2  C1' OXE d   1       4.159  -1.825   0.062  0.00  0.00     0.078 C 
ATOM      3  C1  OXE d   1       2.887  -2.573   0.371  0.00  0.00    -0.078 A 
ATOM      4  C2  OXE d   1       2.887  -3.932   0.168  0.00  0.00    -0.078 A 
ATOM      5  C3  OXE d   1       1.756  -4.677   0.490  0.00  0.00     0.003 A 
ATOM      6  C4  OXE d   1       0.570  -4.037   0.871  0.00  0.00    -0.002 A 
ATOM      7  C5  OXE d   1       0.537  -2.650   1.045  0.00  0.00    -0.002 A 
ATOM      8  C6  OXE d   1       1.696  -1.909   0.841  0.00  0.00     0.003 A 
ENDROOT
TORSDOF 0
ENDMDL
