MODEL 1
REMARK minimizedAffinity 4.41093111
REMARK minimizedRMSD -1
REMARK  0 active torsions:
REMARK  status: ('A' for Active; 'I' for Inactive)
ROOT
ATOM      1  C2' OXE d   1       1.875  -3.380   0.377  0.00  0.00     0.078 C 
ATOM      2  C1' OXE d   1       4.132  -1.754  -0.001  0.00  0.00     0.078 C 
ATOM      3  C1  OXE d   1       4.348  -3.243   0.109  0.00  0.00    -0.078 A 
ATOM      4  C2  OXE d   1       3.243  -4.026   0.341  0.00  0.00    -0.078 A 
ATOM      5  C3  OXE d   1       3.379  -5.411   0.396  0.00  0.00     0.003 A 
ATOM      6  C4  OXE d   1       4.649  -6.000   0.371  0.00  0.00    -0.002 A 
ATOM      7  C5  OXE d   1       5.791  -5.217   0.175  0.00  0.00    -0.002 A 
ATOM      8  C6  OXE d   1       5.654  -3.844   0.000  0.00  0.00     0.003 A 
ENDROOT
TORSDOF 0
ENDMDL
