MODEL 1
REMARK minimizedAffinity -0.541108847
REMARK minimizedRMSD -1
REMARK  0 active torsions:
REMARK  status: ('A' for Active; 'I' for Inactive)
ROOT
ATOM      1  C2' OXE d   1      -0.385  -4.746  -1.462  0.00  0.00     0.078 C 
ATOM      2  C1' OXE d   1       1.895  -3.964  -0.024  0.00  0.00     0.078 C 
ATOM      3  C1  OXE d   1       0.560  -3.423   0.425  0.00  0.00    -0.078 A 
ATOM      4  C2  OXE d   1      -0.544  -3.774  -0.313  0.00  0.00    -0.078 A 
ATOM      5  C3  OXE d   1      -1.806  -3.347   0.090  0.00  0.00     0.003 A 
ATOM      6  C4  OXE d   1      -1.944  -2.440   1.148  0.00  0.00    -0.002 A 
ATOM      7  C5  OXE d   1      -0.827  -2.039   1.888  0.00  0.00    -0.002 A 
ATOM      8  C6  OXE d   1       0.424  -2.553   1.567  0.00  0.00     0.003 A 
ENDROOT
TORSDOF 0
ENDMDL
