MODEL 1
REMARK minimizedAffinity 3.8233707
REMARK minimizedRMSD -1
REMARK  0 active torsions:
REMARK  status: ('A' for Active; 'I' for Inactive)
ROOT
ATOM      1  C2' OXE d   1       5.134  -2.490   0.683  0.00  0.00     0.078 C 
ATOM      2  C1' OXE d   1       4.371  -5.013  -0.284  0.00  0.00     0.078 C 
ATOM      3  C1  OXE d   1       3.279  -4.022   0.035  0.00  0.00    -0.078 A 
ATOM      4  C2  OXE d   1       3.660  -2.807   0.551  0.00  0.00    -0.078 A 
ATOM      5  C3  OXE d   1       2.696  -1.836   0.811  0.00  0.00     0.003 A 
ATOM      6  C4  OXE d   1       1.335  -2.141   0.697  0.00  0.00    -0.002 A 
ATOM      7  C5  OXE d   1       0.924  -3.386   0.210  0.00  0.00    -0.002 A 
ATOM      8  C6  OXE d   1       1.883  -4.321  -0.165  0.00  0.00     0.003 A 
ENDROOT
TORSDOF 0
ENDMDL
