MODEL 1
REMARK minimizedAffinity 15.5873976
REMARK minimizedRMSD -1
REMARK  0 active torsions:
REMARK  status: ('A' for Active; 'I' for Inactive)
ROOT
ATOM      1  C2' OXE d   1       3.616  -1.975   0.383  0.00  0.00     0.078 C 
ATOM      2  C1' OXE d   1       1.800  -4.116   0.361  0.00  0.00     0.078 C 
ATOM      3  C1  OXE d   1       3.263  -4.433   0.178  0.00  0.00    -0.078 A 
ATOM      4  C2  OXE d   1       4.140  -3.375   0.143  0.00  0.00    -0.078 A 
ATOM      5  C3  OXE d   1       5.506  -3.616   0.032  0.00  0.00     0.003 A 
ATOM      6  C4  OXE d   1       5.981  -4.912  -0.200  0.00  0.00    -0.002 A 
ATOM      7  C5  OXE d   1       5.101  -6.000  -0.207  0.00  0.00    -0.002 A 
ATOM      8  C6  OXE d   1       3.747  -5.782   0.022  0.00  0.00     0.003 A 
ENDROOT
TORSDOF 0
ENDMDL
