MODEL 1
REMARK minimizedAffinity 4.09078503
REMARK minimizedRMSD -1
REMARK  0 active torsions:
REMARK  status: ('A' for Active; 'I' for Inactive)
ROOT
ATOM      1  C2' OXE d   1       2.638   4.063   1.393  0.00  0.00     0.078 C 
ATOM      2  C1' OXE d   1       4.414   4.713  -0.681  0.00  0.00     0.078 C 
ATOM      3  C1  OXE d   1       3.722   3.375  -0.742  0.00  0.00    -0.078 A 
ATOM      4  C2  OXE d   1       2.890   3.045   0.301  0.00  0.00    -0.078 A 
ATOM      5  C3  OXE d   1       2.184   1.846   0.268  0.00  0.00     0.003 A 
ATOM      6  C4  OXE d   1       2.431   0.906  -0.741  0.00  0.00    -0.002 A 
ATOM      7  C5  OXE d   1       3.305   1.205  -1.792  0.00  0.00    -0.002 A 
ATOM      8  C6  OXE d   1       3.924   2.450  -1.830  0.00  0.00     0.003 A 
ENDROOT
TORSDOF 0
ENDMDL
