MODEL 1
REMARK minimizedAffinity -2.54255915
REMARK minimizedRMSD -1
REMARK  0 active torsions:
REMARK  status: ('A' for Active; 'I' for Inactive)
ROOT
ATOM      1  C1  DEN d   1      -0.678  -1.162   0.033  0.00  0.00     0.130 A 
ATOM      2  C2  DEN d   1       0.566  -1.923   0.115  0.00  0.00    -0.031 A 
ATOM      3  C3  DEN d   1       1.658  -0.981   0.432  0.00  0.00     0.027 A 
ATOM      4  C4  DEN d   1       1.544   1.568   0.805  0.00  0.00     0.027 A 
ATOM      5  C5  DEN d   1       0.709   2.664   0.827  0.00  0.00    -0.003 A 
ATOM      6  C6  DEN d   1      -0.629   2.567   0.555  0.00  0.00     0.001 A 
ATOM      7  C7  DEN d   1      -1.182   1.341   0.293  0.00  0.00     0.017 A 
ATOM      8  C8  DEN d   1      -0.345   0.233   0.261  0.00  0.00    -0.094 A 
ATOM      9  C9  DEN d   1       1.004   0.350   0.552  0.00  0.00    -0.072 A 
ENDROOT
TORSDOF 0
ENDMDL
