MODEL 1
REMARK minimizedAffinity -3.17581058
REMARK minimizedRMSD -1
REMARK  0 active torsions:
REMARK  status: ('A' for Active; 'I' for Inactive)
ROOT
ATOM      1  C1  DEN d   1       0.871  -1.176   0.126  0.00  0.00     0.130 A 
ATOM      2  C2  DEN d   1      -0.096  -2.065  -0.513  0.00  0.00    -0.031 A 
ATOM      3  C3  DEN d   1      -1.316  -1.283  -0.797  0.00  0.00     0.027 A 
ATOM      4  C4  DEN d   1      -1.798   1.205  -0.316  0.00  0.00     0.027 A 
ATOM      5  C5  DEN d   1      -1.285   2.364   0.223  0.00  0.00    -0.003 A 
ATOM      6  C6  DEN d   1      -0.041   2.415   0.794  0.00  0.00     0.001 A 
ATOM      7  C7  DEN d   1       0.751   1.297   0.798  0.00  0.00     0.017 A 
ATOM      8  C8  DEN d   1       0.238   0.123   0.263  0.00  0.00    -0.094 A 
ATOM      9  C9  DEN d   1      -1.018   0.094  -0.321  0.00  0.00    -0.072 A 
ENDROOT
TORSDOF 0
ENDMDL
