MODEL 1
REMARK minimizedAffinity -1.49674392
REMARK minimizedRMSD -1
REMARK  0 active torsions:
REMARK  status: ('A' for Active; 'I' for Inactive)
ROOT
ATOM      1  C1  DEN d   1      -0.027  -1.619   0.834  0.00  0.00     0.130 A 
ATOM      2  C2  DEN d   1      -0.232  -2.422  -0.368  0.00  0.00    -0.031 A 
ATOM      3  C3  DEN d   1      -0.747  -1.533  -1.429  0.00  0.00     0.027 A 
ATOM      4  C4  DEN d   1      -1.239   0.997  -1.329  0.00  0.00     0.027 A 
ATOM      5  C5  DEN d   1      -1.232   2.111  -0.518  0.00  0.00    -0.003 A 
ATOM      6  C6  DEN d   1      -0.858   2.053   0.798  0.00  0.00     0.001 A 
ATOM      7  C7  DEN d   1      -0.432   0.866   1.332  0.00  0.00     0.017 A 
ATOM      8  C8  DEN d   1      -0.444  -0.263   0.523  0.00  0.00    -0.094 A 
ATOM      9  C9  DEN d   1      -0.814  -0.182  -0.809  0.00  0.00    -0.072 A 
ENDROOT
TORSDOF 0
ENDMDL
