MODEL 1
REMARK minimizedAffinity -2.80570602
REMARK minimizedRMSD -1
REMARK  0 active torsions:
REMARK  status: ('A' for Active; 'I' for Inactive)
ROOT
ATOM      1  C1  DEN d   1      -1.426  -2.073  -2.077  0.00  0.00     0.130 A 
ATOM      2  C2  DEN d   1      -1.089  -3.408  -1.590  0.00  0.00    -0.031 A 
ATOM      3  C3  DEN d   1      -0.547  -3.273  -0.223  0.00  0.00     0.027 A 
ATOM      4  C4  DEN d   1      -0.202  -1.137   1.181  0.00  0.00     0.027 A 
ATOM      5  C5  DEN d   1      -0.330   0.235   1.187  0.00  0.00    -0.003 A 
ATOM      6  C6  DEN d   1      -0.795   0.930   0.103  0.00  0.00     0.001 A 
ATOM      7  C7  DEN d   1      -1.194   0.252  -1.018  0.00  0.00     0.017 A 
ATOM      8  C8  DEN d   1      -1.061  -1.130  -1.035  0.00  0.00    -0.094 A 
ATOM      9  C9  DEN d   1      -0.600  -1.816   0.075  0.00  0.00    -0.072 A 
ENDROOT
TORSDOF 0
ENDMDL
