MODEL 1
REMARK minimizedAffinity -3.49960399
REMARK minimizedRMSD -1
REMARK  0 active torsions:
REMARK  status: ('A' for Active; 'I' for Inactive)
ROOT
ATOM      1  C1  DEN d   1      -1.335  -2.441  -2.468  0.00  0.00     0.130 A 
ATOM      2  C2  DEN d   1      -0.662  -3.661  -2.030  0.00  0.00    -0.031 A 
ATOM      3  C3  DEN d   1       0.078  -3.353  -0.790  0.00  0.00     0.027 A 
ATOM      4  C4  DEN d   1       0.243  -1.120   0.490  0.00  0.00     0.027 A 
ATOM      5  C5  DEN d   1      -0.148   0.201   0.498  0.00  0.00    -0.003 A 
ATOM      6  C6  DEN d   1      -0.927   0.738  -0.493  0.00  0.00     0.001 A 
ATOM      7  C7  DEN d   1      -1.378  -0.062  -1.509  0.00  0.00     0.017 A 
ATOM      8  C8  DEN d   1      -0.983  -1.393  -1.528  0.00  0.00    -0.094 A 
ATOM      9  C9  DEN d   1      -0.205  -1.919  -0.511  0.00  0.00    -0.072 A 
ENDROOT
TORSDOF 0
ENDMDL
