MODEL 1
REMARK minimizedAffinity -4.62314939
REMARK minimizedRMSD -1
REMARK  0 active torsions:
REMARK  status: ('A' for Active; 'I' for Inactive)
ROOT
ATOM      1  C1  DEN d   1      -1.137   0.181  -1.244  0.00  0.00     0.130 A 
ATOM      2  C2  DEN d   1      -0.748   0.457   0.137  0.00  0.00    -0.031 A 
ATOM      3  C3  DEN d   1      -0.185  -0.782   0.709  0.00  0.00     0.027 A 
ATOM      4  C4  DEN d   1       0.126  -3.088  -0.404  0.00  0.00     0.027 A 
ATOM      5  C5  DEN d   1      -0.066  -3.811  -1.560  0.00  0.00    -0.003 A 
ATOM      6  C6  DEN d   1      -0.654  -3.269  -2.672  0.00  0.00     0.001 A 
ATOM      7  C7  DEN d   1      -1.030  -1.952  -2.666  0.00  0.00     0.017 A 
ATOM      8  C8  DEN d   1      -0.847  -1.218  -1.501  0.00  0.00    -0.094 A 
ATOM      9  C9  DEN d   1      -0.240  -1.781  -0.392  0.00  0.00    -0.072 A 
ENDROOT
TORSDOF 0
ENDMDL
