MODEL 1
REMARK minimizedAffinity -0.80538547
REMARK minimizedRMSD -1
REMARK  0 active torsions:
REMARK  status: ('A' for Active; 'I' for Inactive)
ROOT
ATOM      1  C1  DEN d   1       2.637   0.948   1.109  0.00  0.00     0.130 A 
ATOM      2  C2  DEN d   1       3.041   2.257   1.615  0.00  0.00    -0.031 A 
ATOM      3  C3  DEN d   1       1.828   3.089   1.748  0.00  0.00     0.027 A 
ATOM      4  C4  DEN d   1      -0.623   2.480   1.225  0.00  0.00     0.027 A 
ATOM      5  C5  DEN d   1      -1.459   1.488   0.760  0.00  0.00    -0.003 A 
ATOM      6  C6  DEN d   1      -0.988   0.268   0.351  0.00  0.00     0.001 A 
ATOM      7  C7  DEN d   1       0.351  -0.007   0.440  0.00  0.00     0.017 A 
ATOM      8  C8  DEN d   1       1.201   0.991   0.900  0.00  0.00    -0.094 A 
ATOM      9  C9  DEN d   1       0.704   2.213   1.321  0.00  0.00    -0.072 A 
ENDROOT
TORSDOF 0
ENDMDL
