MODEL 1
REMARK minimizedAffinity -3.51502872
REMARK minimizedRMSD -1
REMARK  0 active torsions:
REMARK  status: ('A' for Active; 'I' for Inactive)
ROOT
ATOM      1  C1  DEN d   1      -0.729   1.344  -1.212  0.00  0.00     0.130 A 
ATOM      2  C2  DEN d   1      -0.730   2.134   0.016  0.00  0.00    -0.031 A 
ATOM      3  C3  DEN d   1      -0.554   1.210   1.154  0.00  0.00     0.027 A 
ATOM      4  C4  DEN d   1      -0.277  -1.354   1.135  0.00  0.00     0.027 A 
ATOM      5  C5  DEN d   1      -0.223  -2.471   0.331  0.00  0.00    -0.003 A 
ATOM      6  C6  DEN d   1      -0.368  -2.399  -1.030  0.00  0.00     0.001 A 
ATOM      7  C7  DEN d   1      -0.527  -1.179  -1.632  0.00  0.00     0.017 A 
ATOM      8  C8  DEN d   1      -0.590  -0.049  -0.827  0.00  0.00    -0.094 A 
ATOM      9  C9  DEN d   1      -0.429  -0.141   0.545  0.00  0.00    -0.072 A 
ENDROOT
TORSDOF 0
ENDMDL
