MODEL 1
REMARK minimizedAffinity -2.07690144
REMARK minimizedRMSD -1
REMARK  0 active torsions:
REMARK  status: ('A' for Active; 'I' for Inactive)
ROOT
ATOM      1  C1  DEN d   1      -0.122  -4.025  -1.419  0.00  0.00     0.130 A 
ATOM      2  C2  DEN d   1      -0.983  -3.847  -2.586  0.00  0.00    -0.031 A 
ATOM      3  C3  DEN d   1      -1.384  -2.427  -2.644  0.00  0.00     0.027 A 
ATOM      4  C4  DEN d   1      -0.757  -0.496  -1.053  0.00  0.00     0.027 A 
ATOM      5  C5  DEN d   1      -0.059  -0.163   0.087  0.00  0.00    -0.003 A 
ATOM      6  C6  DEN d   1       0.633  -1.092   0.817  0.00  0.00     0.001 A 
ATOM      7  C7  DEN d   1       0.680  -2.393   0.391  0.00  0.00     0.017 A 
ATOM      8  C8  DEN d   1      -0.027  -2.738  -0.753  0.00  0.00    -0.094 A 
ATOM      9  C9  DEN d   1      -0.711  -1.782  -1.485  0.00  0.00    -0.072 A 
ENDROOT
TORSDOF 0
ENDMDL
