MODEL 1
REMARK minimizedAffinity -2.43994045
REMARK minimizedRMSD -1
REMARK  0 active torsions:
REMARK  status: ('A' for Active; 'I' for Inactive)
ROOT
ATOM      1  C1  DEN d   1       0.234   0.780  -0.428  0.00  0.00     0.130 A 
ATOM      2  C2  DEN d   1      -0.932   1.098   0.392  0.00  0.00    -0.031 A 
ATOM      3  C3  DEN d   1      -1.787  -0.105   0.455  0.00  0.00     0.027 A 
ATOM      4  C4  DEN d   1      -1.417  -2.417  -0.625  0.00  0.00     0.027 A 
ATOM      5  C5  DEN d   1      -0.576  -3.162  -1.422  0.00  0.00    -0.003 A 
ATOM      6  C6  DEN d   1       0.567  -2.640  -1.967  0.00  0.00     0.001 A 
ATOM      7  C7  DEN d   1       0.924  -1.348  -1.684  0.00  0.00     0.017 A 
ATOM      8  C8  DEN d   1       0.078  -0.588  -0.888  0.00  0.00    -0.094 A 
ATOM      9  C9  DEN d   1      -1.067  -1.138  -0.337  0.00  0.00    -0.072 A 
ENDROOT
TORSDOF 0
ENDMDL
