MODEL 1
REMARK minimizedAffinity -1.99916995
REMARK minimizedRMSD -1
REMARK  0 active torsions:
REMARK  status: ('A' for Active; 'I' for Inactive)
ROOT
ATOM      1  C1  DEN d   1       0.462  -1.443   0.217  0.00  0.00     0.130 A 
ATOM      2  C2  DEN d   1      -0.115  -2.161  -0.916  0.00  0.00    -0.031 A 
ATOM      3  C3  DEN d   1      -0.998  -1.229  -1.646  0.00  0.00     0.027 A 
ATOM      4  C4  DEN d   1      -1.519   1.246  -1.138  0.00  0.00     0.027 A 
ATOM      5  C5  DEN d   1      -1.274   2.290  -0.274  0.00  0.00    -0.003 A 
ATOM      6  C6  DEN d   1      -0.467   2.155   0.824  0.00  0.00     0.001 A 
ATOM      7  C7  DEN d   1       0.161   0.961   1.063  0.00  0.00     0.017 A 
ATOM      8  C8  DEN d   1      -0.087  -0.099   0.200  0.00  0.00    -0.094 A 
ATOM      9  C9  DEN d   1      -0.896   0.061  -0.912  0.00  0.00    -0.072 A 
ENDROOT
TORSDOF 0
ENDMDL
