MODEL 1
REMARK minimizedAffinity 0.033448074
REMARK minimizedRMSD -1
REMARK  0 active torsions:
REMARK  status: ('A' for Active; 'I' for Inactive)
ROOT
ATOM      1  O1  BZF d   1       0.488   3.202  -1.680  0.00  0.00    -0.204 OA
ATOM      2  C2  BZF d   1       0.462   4.528  -1.294  0.00  0.00     0.174 A 
ATOM      3  C3  BZF d   1       0.488   4.636   0.050  0.00  0.00    -0.012 A 
ATOM      4  C3A BZF d   1       0.627   3.296   0.532  0.00  0.00    -0.107 A 
ATOM      5  C4  BZF d   1       0.726   2.754   1.782  0.00  0.00     0.055 A 
ATOM      6  C5  BZF d   1       0.776   1.402   1.913  0.00  0.00    -0.016 A 
ATOM      7  C6  BZF d   1       0.724   0.564   0.818  0.00  0.00     0.022 A 
ATOM      8  C7  BZF d   1       0.630   1.056  -0.441  0.00  0.00     0.029 A 
ATOM      9  C7A BZF d   1       0.613   2.422  -0.579  0.00  0.00     0.058 A 
ENDROOT
TORSDOF 0
ENDMDL
