MODEL 1
REMARK minimizedAffinity -3.84405446
REMARK minimizedRMSD -1
REMARK  0 active torsions:
REMARK  status: ('A' for Active; 'I' for Inactive)
ROOT
ATOM      1  O1  BZF d   1       1.687   2.616   3.088  0.00  0.00    -0.204 OA
ATOM      2  C2  BZF d   1       2.558   3.049   4.069  0.00  0.00     0.174 A 
ATOM      3  C3  BZF d   1       3.259   2.015   4.577  0.00  0.00    -0.012 A 
ATOM      4  C3A BZF d   1       2.864   0.877   3.804  0.00  0.00    -0.107 A 
ATOM      5  C4  BZF d   1       3.224  -0.440   3.820  0.00  0.00     0.055 A 
ATOM      6  C5  BZF d   1       2.597  -1.307   2.982  0.00  0.00    -0.016 A 
ATOM      7  C6  BZF d   1       1.603  -0.892   2.120  0.00  0.00     0.022 A 
ATOM      8  C7  BZF d   1       1.214   0.405   2.065  0.00  0.00     0.029 A 
ATOM      9  C7A BZF d   1       1.869   1.289   2.887  0.00  0.00     0.058 A 
ENDROOT
TORSDOF 0
ENDMDL
