MODEL 1
REMARK minimizedAffinity 3.25069809
REMARK minimizedRMSD -1
REMARK  0 active torsions:
REMARK  status: ('A' for Active; 'I' for Inactive)
ROOT
ATOM      1  O1  BZF d   1       0.393   3.203  -1.455  0.00  0.00    -0.204 OA
ATOM      2  C2  BZF d   1       0.453   4.508  -1.008  0.00  0.00     0.174 A 
ATOM      3  C3  BZF d   1       0.414   4.555   0.339  0.00  0.00    -0.012 A 
ATOM      4  C3A BZF d   1       0.417   3.189   0.763  0.00  0.00    -0.107 A 
ATOM      5  C4  BZF d   1       0.403   2.586   1.989  0.00  0.00     0.055 A 
ATOM      6  C5  BZF d   1       0.336   1.230   2.057  0.00  0.00    -0.016 A 
ATOM      7  C6  BZF d   1       0.276   0.448   0.923  0.00  0.00     0.022 A 
ATOM      8  C7  BZF d   1       0.293   1.000  -0.315  0.00  0.00     0.029 A 
ATOM      9  C7A BZF d   1       0.393   2.368  -0.388  0.00  0.00     0.058 A 
ENDROOT
TORSDOF 0
ENDMDL
