MODEL 1
REMARK minimizedAffinity -1.72518229
REMARK minimizedRMSD -1
REMARK  0 active torsions:
REMARK  status: ('A' for Active; 'I' for Inactive)
ROOT
ATOM      1  O1  BZF d   1       0.343   2.851  -1.502  0.00  0.00    -0.204 OA
ATOM      2  C2  BZF d   1       0.343   4.187  -1.152  0.00  0.00     0.174 A 
ATOM      3  C3  BZF d   1       0.345   4.330   0.189  0.00  0.00    -0.012 A 
ATOM      4  C3A BZF d   1       0.440   3.001   0.709  0.00  0.00    -0.107 A 
ATOM      5  C4  BZF d   1       0.501   2.489   1.974  0.00  0.00     0.055 A 
ATOM      6  C5  BZF d   1       0.514   1.141   2.141  0.00  0.00    -0.016 A 
ATOM      7  C6  BZF d   1       0.463   0.275   1.068  0.00  0.00     0.022 A 
ATOM      8  C7  BZF d   1       0.407   0.736  -0.206  0.00  0.00     0.029 A 
ATOM      9  C7A BZF d   1       0.427   2.098  -0.379  0.00  0.00     0.058 A 
ENDROOT
TORSDOF 0
ENDMDL
