MODEL 1
REMARK minimizedAffinity 10.91113
REMARK minimizedRMSD -1
REMARK  0 active torsions:
REMARK  status: ('A' for Active; 'I' for Inactive)
ROOT
ATOM      1  O1  BZF d   1       3.579  -4.121  -3.332  0.00  0.00    -0.204 OA
ATOM      2  C2  BZF d   1       4.784  -4.619  -3.788  0.00  0.00     0.174 A 
ATOM      3  C3  BZF d   1       5.387  -5.361  -2.837  0.00  0.00    -0.012 A 
ATOM      4  C3A BZF d   1       4.460  -5.401  -1.748  0.00  0.00    -0.107 A 
ATOM      5  C4  BZF d   1       4.480  -5.997  -0.519  0.00  0.00     0.055 A 
ATOM      6  C5  BZF d   1       3.447  -5.780   0.337  0.00  0.00    -0.016 A 
ATOM      7  C6  BZF d   1       2.383  -4.969   0.001  0.00  0.00     0.022 A 
ATOM      8  C7  BZF d   1       2.316  -4.360  -1.208  0.00  0.00     0.029 A 
ATOM      9  C7A BZF d   1       3.342  -4.604  -2.089  0.00  0.00     0.058 A 
ENDROOT
TORSDOF 0
ENDMDL
