MODEL 1
REMARK minimizedAffinity -3.18001914
REMARK minimizedRMSD -1
REMARK  0 active torsions:
REMARK  status: ('A' for Active; 'I' for Inactive)
ROOT
ATOM      1  O1  BZF d   1      -0.180   1.662  -0.916  0.00  0.00    -0.204 OA
ATOM      2  C2  BZF d   1      -1.235   0.874  -1.334  0.00  0.00     0.174 A 
ATOM      3  C3  BZF d   1      -2.116   1.598  -2.053  0.00  0.00    -0.012 A 
ATOM      4  C3A BZF d   1      -1.532   2.900  -2.165  0.00  0.00    -0.107 A 
ATOM      5  C4  BZF d   1      -1.925   4.056  -2.777  0.00  0.00     0.055 A 
ATOM      6  C5  BZF d   1      -1.161   5.171  -2.634  0.00  0.00    -0.016 A 
ATOM      7  C6  BZF d   1      -0.004   5.167  -1.883  0.00  0.00     0.022 A 
ATOM      8  C7  BZF d   1       0.428   4.043  -1.261  0.00  0.00     0.029 A 
ATOM      9  C7A BZF d   1      -0.324   2.906  -1.431  0.00  0.00     0.058 A 
ENDROOT
TORSDOF 0
ENDMDL
