MODEL 1
REMARK minimizedAffinity 1.44567442
REMARK minimizedRMSD -1
REMARK  0 active torsions:
REMARK  status: ('A' for Active; 'I' for Inactive)
ROOT
ATOM      1  O1  BZF d   1      -0.069   1.950  -0.959  0.00  0.00    -0.204 OA
ATOM      2  C2  BZF d   1       0.044   0.808  -1.728  0.00  0.00     0.174 A 
ATOM      3  C3  BZF d   1       0.475  -0.230  -0.982  0.00  0.00    -0.012 A 
ATOM      4  C3A BZF d   1       0.553   0.274   0.355  0.00  0.00    -0.107 A 
ATOM      5  C4  BZF d   1       0.904  -0.285   1.550  0.00  0.00     0.055 A 
ATOM      6  C5  BZF d   1       0.946   0.499   2.659  0.00  0.00    -0.016 A 
ATOM      7  C6  BZF d   1       0.649   1.845   2.608  0.00  0.00     0.022 A 
ATOM      8  C7  BZF d   1       0.290   2.444   1.447  0.00  0.00     0.029 A 
ATOM      9  C7A BZF d   1       0.215   1.647   0.330  0.00  0.00     0.058 A 
ENDROOT
TORSDOF 0
ENDMDL
