MODEL 1
REMARK minimizedAffinity 2.52524734
REMARK minimizedRMSD -1
REMARK  0 active torsions:
REMARK  status: ('A' for Active; 'I' for Inactive)
ROOT
ATOM      1  O1  BZF d   1       0.230   3.686  -2.331  0.00  0.00    -0.204 OA
ATOM      2  C2  BZF d   1       0.672   4.983  -2.156  0.00  0.00     0.174 A 
ATOM      3  C3  BZF d   1       0.931   5.229  -0.856  0.00  0.00    -0.012 A 
ATOM      4  C3A BZF d   1       0.721   3.981  -0.188  0.00  0.00    -0.107 A 
ATOM      5  C4  BZF d   1       0.834   3.582   1.113  0.00  0.00     0.055 A 
ATOM      6  C5  BZF d   1       0.485   2.312   1.447  0.00  0.00    -0.016 A 
ATOM      7  C6  BZF d   1       0.014   1.418   0.508  0.00  0.00     0.022 A 
ATOM      8  C7  BZF d   1      -0.111   1.766  -0.795  0.00  0.00     0.029 A 
ATOM      9  C7A BZF d   1       0.272   3.039  -1.142  0.00  0.00     0.058 A 
ENDROOT
TORSDOF 0
ENDMDL
