MODEL 1
REMARK minimizedAffinity -3.64764404
REMARK minimizedRMSD -1
REMARK  0 active torsions:
REMARK  status: ('A' for Active; 'I' for Inactive)
ROOT
ATOM      1  C   UNL d   1      -0.768   1.000  -0.184  0.00  0.00     0.078 C 
ATOM      2  C1  UNL d   1       0.330   0.030   0.135  0.00  0.00    -0.077 A 
ATOM      3  C2  UNL d   1       1.264   0.303   1.142  0.00  0.00    -0.001 A 
ATOM      4  C3  UNL d   1       2.286  -0.605   1.421  0.00  0.00     0.003 A 
ATOM      5  C4  UNL d   1       2.386  -1.792   0.697  0.00  0.00    -0.005 A 
ATOM      6  C5  UNL d   1       1.462  -2.071  -0.308  0.00  0.00     0.003 A 
ATOM      7  C6  UNL d   1       0.439  -1.164  -0.589  0.00  0.00    -0.001 A 
ENDROOT
TORSDOF 0
ENDMDL
