MODEL 1
REMARK minimizedAffinity -4.48802948
REMARK minimizedRMSD -1
REMARK  0 active torsions:
REMARK  status: ('A' for Active; 'I' for Inactive)
ROOT
ATOM      1  C   UNL d   1      -0.954   0.554  -0.225  0.00  0.00     0.078 C 
ATOM      2  C1  UNL d   1       0.195  -0.292   0.237  0.00  0.00    -0.077 A 
ATOM      3  C2  UNL d   1       0.652  -0.228   1.560  0.00  0.00    -0.001 A 
ATOM      4  C3  UNL d   1       1.729  -1.014   1.973  0.00  0.00     0.003 A 
ATOM      5  C4  UNL d   1       2.359  -1.869   1.071  0.00  0.00    -0.005 A 
ATOM      6  C5  UNL d   1       1.913  -1.937  -0.248  0.00  0.00     0.003 A 
ATOM      7  C6  UNL d   1       0.836  -1.152  -0.663  0.00  0.00    -0.001 A 
ENDROOT
TORSDOF 0
ENDMDL
