MODEL 1
REMARK minimizedAffinity -3.8376298
REMARK minimizedRMSD -1
REMARK  0 active torsions:
REMARK  status: ('A' for Active; 'I' for Inactive)
ROOT
ATOM      1  C   UNL d   1       3.160  -1.354   1.442  0.00  0.00     0.078 C 
ATOM      2  C1  UNL d   1       1.916  -1.114   0.640  0.00  0.00    -0.077 A 
ATOM      3  C2  UNL d   1       1.259   0.122   0.681  0.00  0.00    -0.001 A 
ATOM      4  C3  UNL d   1       0.096   0.329  -0.062  0.00  0.00     0.003 A 
ATOM      5  C4  UNL d   1      -0.420  -0.696  -0.853  0.00  0.00    -0.005 A 
ATOM      6  C5  UNL d   1       0.225  -1.930  -0.899  0.00  0.00     0.003 A 
ATOM      7  C6  UNL d   1       1.388  -2.139  -0.155  0.00  0.00    -0.001 A 
ENDROOT
TORSDOF 0
ENDMDL
