MODEL 1
REMARK minimizedAffinity -3.67469263
REMARK minimizedRMSD -1
REMARK  0 active torsions:
REMARK  status: ('A' for Active; 'I' for Inactive)
ROOT
ATOM      1  C   UNL d   1       1.906  -2.178   0.112  0.00  0.00     0.078 C 
ATOM      2  C1  UNL d   1       2.337  -0.743   0.145  0.00  0.00    -0.077 A 
ATOM      3  C2  UNL d   1       1.400   0.289   0.285  0.00  0.00    -0.001 A 
ATOM      4  C3  UNL d   1       1.814   1.621   0.304  0.00  0.00     0.003 A 
ATOM      5  C4  UNL d   1       3.167   1.935   0.182  0.00  0.00    -0.005 A 
ATOM      6  C5  UNL d   1       4.106   0.916   0.040  0.00  0.00     0.003 A 
ATOM      7  C6  UNL d   1       3.694  -0.417   0.021  0.00  0.00    -0.001 A 
ENDROOT
TORSDOF 0
ENDMDL
