MODEL 1
REMARK minimizedAffinity 7.9811101
REMARK minimizedRMSD -1
REMARK  0 active torsions:
REMARK  status: ('A' for Active; 'I' for Inactive)
ROOT
ATOM      1  C   UNL d   1       3.608  -0.336  -2.611  0.00  0.00     0.077 C 
ATOM      2  C1  UNL d   1       4.436  -0.727  -3.799  0.00  0.00    -0.074 A 
ATOM      3  C2  UNL d   1       4.848   0.229  -4.734  0.00  0.00    -0.005 A 
ATOM      4  C3  UNL d   1       5.626  -0.148  -5.828  0.00  0.00     0.006 A 
ATOM      5  C4  UNL d   1       5.999  -1.481  -5.999  0.00  0.00    -0.005 A 
ATOM      6  C5  UNL d   1       5.597  -2.451  -5.075  0.00  0.00    -0.074 A 
ATOM      7  C6  UNL d   1       5.998  -3.887  -5.239  0.00  0.00     0.077 C 
ATOM      8  C7  UNL d   1       4.822  -2.063  -3.974  0.00  0.00    -0.001 A 
ENDROOT
TORSDOF 0
ENDMDL
