MODEL 1
REMARK minimizedAffinity 8.83686352
REMARK minimizedRMSD -1
REMARK  0 active torsions:
REMARK  status: ('A' for Active; 'I' for Inactive)
ROOT
ATOM      1  C   UNL d   1       1.780   4.749  -0.019  0.00  0.00     0.077 C 
ATOM      2  C1  UNL d   1       1.672   3.365   0.549  0.00  0.00    -0.074 A 
ATOM      3  C2  UNL d   1       0.543   2.973   1.275  0.00  0.00    -0.005 A 
ATOM      4  C3  UNL d   1       0.452   1.679   1.790  0.00  0.00     0.006 A 
ATOM      5  C4  UNL d   1       1.488   0.767   1.584  0.00  0.00    -0.005 A 
ATOM      6  C5  UNL d   1       2.624   1.141   0.859  0.00  0.00    -0.074 A 
ATOM      7  C6  UNL d   1       3.742   0.170   0.620  0.00  0.00     0.077 C 
ATOM      8  C7  UNL d   1       2.705   2.440   0.340  0.00  0.00    -0.001 A 
ENDROOT
TORSDOF 0
ENDMDL
