MODEL 1
REMARK minimizedAffinity 8.91074944
REMARK minimizedRMSD -1
REMARK  0 active torsions:
REMARK  status: ('A' for Active; 'I' for Inactive)
ROOT
ATOM      1  C   UNL d   1       0.850  -3.874   5.618  0.00  0.00     0.077 C 
ATOM      2  C1  UNL d   1       1.611  -3.144   4.552  0.00  0.00    -0.074 A 
ATOM      3  C2  UNL d   1       2.703  -3.740   3.913  0.00  0.00    -0.005 A 
ATOM      4  C3  UNL d   1       3.396  -3.052   2.917  0.00  0.00     0.006 A 
ATOM      5  C4  UNL d   1       3.004  -1.764   2.549  0.00  0.00    -0.005 A 
ATOM      6  C5  UNL d   1       1.914  -1.153   3.177  0.00  0.00    -0.074 A 
ATOM      7  C6  UNL d   1       1.473   0.227   2.787  0.00  0.00     0.077 C 
ATOM      8  C7  UNL d   1       1.219  -1.853   4.172  0.00  0.00    -0.001 A 
ENDROOT
TORSDOF 0
ENDMDL
