MODEL 1
REMARK minimizedAffinity 16.0687885
REMARK minimizedRMSD -1
REMARK  0 active torsions:
REMARK  status: ('A' for Active; 'I' for Inactive)
ROOT
ATOM      1  C   UNL d   1       4.857  -3.160   6.000  0.00  0.00     0.077 C 
ATOM      2  C1  UNL d   1       3.964  -3.086   4.797  0.00  0.00    -0.074 A 
ATOM      3  C2  UNL d   1       3.779  -4.199   3.970  0.00  0.00    -0.005 A 
ATOM      4  C3  UNL d   1       2.937  -4.118   2.861  0.00  0.00     0.006 A 
ATOM      5  C4  UNL d   1       2.274  -2.925   2.567  0.00  0.00    -0.005 A 
ATOM      6  C5  UNL d   1       2.446  -1.803   3.384  0.00  0.00    -0.074 A 
ATOM      7  C6  UNL d   1       1.733  -0.517   3.088  0.00  0.00     0.077 C 
ATOM      8  C7  UNL d   1       3.288  -1.894   4.501  0.00  0.00    -0.001 A 
ENDROOT
TORSDOF 0
ENDMDL
