MODEL 1
REMARK minimizedAffinity 9.76132202
REMARK minimizedRMSD -1
REMARK  0 active torsions:
REMARK  status: ('A' for Active; 'I' for Inactive)
ROOT
ATOM      1  C   UNL d   1      -6.000   2.926   3.391  0.00  0.00     0.077 C 
ATOM      2  C1  UNL d   1      -5.387   3.073   2.030  0.00  0.00    -0.074 A 
ATOM      3  C2  UNL d   1      -4.273   2.314   1.657  0.00  0.00    -0.005 A 
ATOM      4  C3  UNL d   1      -3.719   2.455   0.385  0.00  0.00     0.006 A 
ATOM      5  C4  UNL d   1      -4.273   3.355  -0.526  0.00  0.00    -0.005 A 
ATOM      6  C5  UNL d   1      -5.387   4.122  -0.172  0.00  0.00    -0.074 A 
ATOM      7  C6  UNL d   1      -6.000   5.088  -1.142  0.00  0.00     0.077 C 
ATOM      8  C7  UNL d   1      -5.942   3.970   1.106  0.00  0.00    -0.001 A 
ENDROOT
TORSDOF 0
ENDMDL
