MODEL 1
REMARK minimizedAffinity 11.0873394
REMARK minimizedRMSD -1
REMARK  0 active torsions:
REMARK  status: ('A' for Active; 'I' for Inactive)
ROOT
ATOM      1  C   UNL d   1       1.230   3.859   3.167  0.00  0.00     0.077 C 
ATOM      2  C1  UNL d   1       1.433   4.106   1.701  0.00  0.00    -0.074 A 
ATOM      3  C2  UNL d   1       2.715   4.103   1.143  0.00  0.00    -0.005 A 
ATOM      4  C3  UNL d   1       2.888   4.325  -0.223  0.00  0.00     0.006 A 
ATOM      5  C4  UNL d   1       1.782   4.551  -1.044  0.00  0.00    -0.005 A 
ATOM      6  C5  UNL d   1       0.492   4.556  -0.503  0.00  0.00    -0.074 A 
ATOM      7  C6  UNL d   1      -0.708   4.787  -1.373  0.00  0.00     0.077 C 
ATOM      8  C7  UNL d   1       0.326   4.325   0.869  0.00  0.00    -0.001 A 
ENDROOT
TORSDOF 0
ENDMDL
