MODEL 1
REMARK minimizedAffinity 2.8063724
REMARK minimizedRMSD -1
REMARK  0 active torsions:
REMARK  status: ('A' for Active; 'I' for Inactive)
ROOT
ATOM      1  C   UNL d   1       0.721  -5.709   5.999  0.00  0.00     0.077 C 
ATOM      2  C1  UNL d   1       1.883  -4.861   5.575  0.00  0.00    -0.074 A 
ATOM      3  C2  UNL d   1       3.186  -5.178   5.969  0.00  0.00    -0.005 A 
ATOM      4  C3  UNL d   1       4.258  -4.386   5.558  0.00  0.00     0.006 A 
ATOM      5  C4  UNL d   1       4.038  -3.270   4.751  0.00  0.00    -0.005 A 
ATOM      6  C5  UNL d   1       2.741  -2.937   4.345  0.00  0.00    -0.074 A 
ATOM      7  C6  UNL d   1       2.488  -1.747   3.469  0.00  0.00     0.077 C 
ATOM      8  C7  UNL d   1       1.670  -3.743   4.756  0.00  0.00    -0.001 A 
ENDROOT
TORSDOF 0
ENDMDL
