MODEL 1
REMARK minimizedAffinity 6.8832655
REMARK minimizedRMSD -1
REMARK  0 active torsions:
REMARK  status: ('A' for Active; 'I' for Inactive)
ROOT
ATOM      1  C   UNL d   1       2.825   0.488   5.887  0.00  0.00     0.077 C 
ATOM      2  C1  UNL d   1       2.618   0.235   4.423  0.00  0.00    -0.074 A 
ATOM      3  C2  UNL d   1       2.371  -1.056   3.945  0.00  0.00    -0.005 A 
ATOM      4  C3  UNL d   1       2.171  -1.274   2.582  0.00  0.00     0.006 A 
ATOM      5  C4  UNL d   1       2.215  -0.206   1.685  0.00  0.00    -0.005 A 
ATOM      6  C5  UNL d   1       2.459   1.092   2.145  0.00  0.00    -0.074 A 
ATOM      7  C6  UNL d   1       2.500   2.252   1.196  0.00  0.00     0.077 C 
ATOM      8  C7  UNL d   1       2.653   1.304   3.517  0.00  0.00    -0.001 A 
ENDROOT
TORSDOF 0
ENDMDL
