MODEL 1
REMARK minimizedAffinity 7.83523703
REMARK minimizedRMSD -1
REMARK  0 active torsions:
REMARK  status: ('A' for Active; 'I' for Inactive)
ROOT
ATOM      1  C   UNL d   1       2.263   1.318   5.690  0.00  0.00     0.077 C 
ATOM      2  C1  UNL d   1       2.401   0.316   4.583  0.00  0.00    -0.074 A 
ATOM      3  C2  UNL d   1       2.086   0.656   3.263  0.00  0.00    -0.005 A 
ATOM      4  C3  UNL d   1       2.228  -0.284   2.243  0.00  0.00     0.006 A 
ATOM      5  C4  UNL d   1       2.685  -1.571   2.530  0.00  0.00    -0.005 A 
ATOM      6  C5  UNL d   1       3.006  -1.928   3.844  0.00  0.00    -0.074 A 
ATOM      7  C6  UNL d   1       3.509  -3.303   4.169  0.00  0.00     0.077 C 
ATOM      8  C7  UNL d   1       2.867  -0.976   4.863  0.00  0.00    -0.001 A 
ENDROOT
TORSDOF 0
ENDMDL
