MODEL 1
REMARK minimizedAffinity -4.3474741
REMARK minimizedRMSD -1
REMARK  0 active torsions:
REMARK  status: ('A' for Active; 'I' for Inactive)
ROOT
ATOM      1  C   UNL d   1      -1.480  -0.724   1.899  0.00  0.00     0.020 A 
ATOM      2  C1  UNL d   1      -0.492  -0.367   2.816  0.00  0.00     0.020 A 
ATOM      3  C2  UNL d   1       0.724   0.152   2.366  0.00  0.00     0.034 A 
ATOM      4  C3  UNL d   1       0.956   0.314   0.995  0.00  0.00     0.017 A 
ATOM      5  C4  UNL d   1      -0.037  -0.044   0.076  0.00  0.00     0.017 A 
ATOM      6  C5  UNL d   1      -1.252  -0.563   0.532  0.00  0.00     0.034 A 
ATOM      7 Cl   UNL d   1       0.176   0.127  -1.631  0.00  0.00    -0.070 Cl
ATOM      8 Cl1  UNL d   1       2.482   0.961   0.510  0.00  0.00    -0.070 Cl
ENDROOT
TORSDOF 0
ENDMDL
