MODEL 1
REMARK minimizedAffinity -4.62164259
REMARK minimizedRMSD -1
REMARK  0 active torsions:
REMARK  status: ('A' for Active; 'I' for Inactive)
ROOT
ATOM      1  C   UNL d   1       1.100   0.255  -0.286  0.00  0.00     0.020 A 
ATOM      2  C1  UNL d   1       1.647  -0.069   0.955  0.00  0.00     0.020 A 
ATOM      3  C2  UNL d   1       0.815  -0.216   2.067  0.00  0.00     0.034 A 
ATOM      4  C3  UNL d   1      -0.567  -0.039   1.941  0.00  0.00     0.017 A 
ATOM      5  C4  UNL d   1      -1.115   0.286   0.695  0.00  0.00     0.017 A 
ATOM      6  C5  UNL d   1      -0.278   0.432  -0.416  0.00  0.00     0.034 A 
ATOM      7 Cl   UNL d   1      -2.812   0.520   0.460  0.00  0.00    -0.070 Cl
ATOM      8 Cl1  UNL d   1      -1.536  -0.236   3.358  0.00  0.00    -0.070 Cl
ENDROOT
TORSDOF 0
ENDMDL
