MODEL 1
REMARK minimizedAffinity -0.814339817
REMARK minimizedRMSD -1
REMARK  0 active torsions:
REMARK  status: ('A' for Active; 'I' for Inactive)
ROOT
ATOM      1  C   UNL d   1      -1.142  -0.663   1.922  0.00  0.00     0.020 A 
ATOM      2  C1  UNL d   1      -1.811  -0.883   0.718  0.00  0.00     0.020 A 
ATOM      3  C2  UNL d   1      -1.193  -0.560  -0.493  0.00  0.00     0.034 A 
ATOM      4  C3  UNL d   1       0.096  -0.016  -0.502  0.00  0.00     0.017 A 
ATOM      5  C4  UNL d   1       0.766   0.205   0.707  0.00  0.00     0.017 A 
ATOM      6  C5  UNL d   1       0.143  -0.120   1.916  0.00  0.00     0.034 A 
ATOM      7 Cl   UNL d   1       2.358   0.874   0.776  0.00  0.00    -0.070 Cl
ATOM      8 Cl1  UNL d   1       0.799   0.360  -2.035  0.00  0.00    -0.070 Cl
ENDROOT
TORSDOF 0
ENDMDL
