MODEL 1
REMARK minimizedAffinity -4.96739244
REMARK minimizedRMSD -1
REMARK  0 active torsions:
REMARK  status: ('A' for Active; 'I' for Inactive)
ROOT
ATOM      1  C   UNL d   1      -2.284  -0.784   1.325  0.00  0.00     0.020 A 
ATOM      2  C1  UNL d   1      -1.505  -1.000   2.461  0.00  0.00     0.020 A 
ATOM      3  C2  UNL d   1      -0.191  -0.530   2.505  0.00  0.00     0.034 A 
ATOM      4  C3  UNL d   1       0.349   0.157   1.412  0.00  0.00     0.017 A 
ATOM      5  C4  UNL d   1      -0.434   0.374   0.272  0.00  0.00     0.017 A 
ATOM      6  C5  UNL d   1      -1.750  -0.098   0.233  0.00  0.00     0.034 A 
ATOM      7 Cl   UNL d   1       0.162   1.214  -1.116  0.00  0.00    -0.070 Cl
ATOM      8 Cl1  UNL d   1       1.981   0.710   1.536  0.00  0.00    -0.070 Cl
ENDROOT
TORSDOF 0
ENDMDL
