MODEL 1
REMARK minimizedAffinity -4.46607542
REMARK minimizedRMSD -1
REMARK  0 active torsions:
REMARK  status: ('A' for Active; 'I' for Inactive)
ROOT
ATOM      1  C   UNL d   1      -1.328  -0.936   1.442  0.00  0.00     0.020 A 
ATOM      2  C1  UNL d   1      -0.519  -0.455   2.470  0.00  0.00     0.020 A 
ATOM      3  C2  UNL d   1       0.691   0.175   2.169  0.00  0.00     0.034 A 
ATOM      4  C3  UNL d   1       1.095   0.324   0.838  0.00  0.00     0.017 A 
ATOM      5  C4  UNL d   1       0.282  -0.160  -0.193  0.00  0.00     0.017 A 
ATOM      6  C5  UNL d   1      -0.929  -0.789   0.113  0.00  0.00     0.034 A 
ATOM      7 Cl   UNL d   1       0.713  -0.013  -1.861  0.00  0.00    -0.070 Cl
ATOM      8 Cl1  UNL d   1       2.603   1.112   0.539  0.00  0.00    -0.070 Cl
ENDROOT
TORSDOF 0
ENDMDL
