MODEL 1
REMARK minimizedAffinity -3.72506332
REMARK minimizedRMSD -1
REMARK  0 active torsions:
REMARK  status: ('A' for Active; 'I' for Inactive)
ROOT
ATOM      1  C   UNL d   1      -0.222   0.218  -1.786  0.00  0.00     0.020 A 
ATOM      2  C1  UNL d   1       0.807  -0.391  -1.069  0.00  0.00     0.020 A 
ATOM      3  C2  UNL d   1       0.615  -0.736   0.270  0.00  0.00     0.034 A 
ATOM      4  C3  UNL d   1      -0.608  -0.472   0.897  0.00  0.00     0.017 A 
ATOM      5  C4  UNL d   1      -1.640   0.139   0.176  0.00  0.00     0.017 A 
ATOM      6  C5  UNL d   1      -1.443   0.483  -1.165  0.00  0.00     0.034 A 
ATOM      7 Cl   UNL d   1      -3.177   0.497   0.882  0.00  0.00    -0.070 Cl
ATOM      8 Cl1  UNL d   1      -0.775  -0.926   2.556  0.00  0.00    -0.070 Cl
ENDROOT
TORSDOF 0
ENDMDL
