MODEL 1
REMARK minimizedAffinity -3.53348303
REMARK minimizedRMSD -1
REMARK  0 active torsions:
REMARK  status: ('A' for Active; 'I' for Inactive)
ROOT
ATOM      1  C   UNL d   1      -0.503  -0.497   2.983  0.00  0.00     0.020 A 
ATOM      2  C1  UNL d   1      -1.458  -0.886   2.044  0.00  0.00     0.020 A 
ATOM      3  C2  UNL d   1      -1.178  -0.783   0.680  0.00  0.00     0.034 A 
ATOM      4  C3  UNL d   1       0.059  -0.290   0.250  0.00  0.00     0.017 A 
ATOM      5  C4  UNL d   1       1.017   0.100   1.193  0.00  0.00     0.017 A 
ATOM      6  C5  UNL d   1       0.732  -0.005   2.558  0.00  0.00     0.034 A 
ATOM      7 Cl   UNL d   1       2.566   0.718   0.739  0.00  0.00    -0.070 Cl
ATOM      8 Cl1  UNL d   1       0.337  -0.191  -1.452  0.00  0.00    -0.070 Cl
ENDROOT
TORSDOF 0
ENDMDL
