MODEL 1
REMARK minimizedAffinity -3.79897881
REMARK minimizedRMSD -1
REMARK  0 active torsions:
REMARK  status: ('A' for Active; 'I' for Inactive)
ROOT
ATOM      1  C   UNL d   1      -1.181  -0.592   2.945  0.00  0.00     0.020 A 
ATOM      2  C1  UNL d   1      -2.072  -0.717   1.880  0.00  0.00     0.020 A 
ATOM      3  C2  UNL d   1      -1.655  -0.414   0.582  0.00  0.00     0.034 A 
ATOM      4  C3  UNL d   1      -0.344   0.017   0.346  0.00  0.00     0.017 A 
ATOM      5  C4  UNL d   1       0.549   0.143   1.416  0.00  0.00     0.017 A 
ATOM      6  C5  UNL d   1       0.126  -0.163   2.714  0.00  0.00     0.034 A 
ATOM      7 Cl   UNL d   1       2.182   0.668   1.203  0.00  0.00    -0.070 Cl
ATOM      8 Cl1  UNL d   1       0.103   0.374  -1.284  0.00  0.00    -0.070 Cl
ENDROOT
TORSDOF 0
ENDMDL
