MODEL 1
REMARK minimizedAffinity -2.83518147
REMARK minimizedRMSD -1
REMARK  0 active torsions:
REMARK  status: ('A' for Active; 'I' for Inactive)
ROOT
ATOM      1  C   UNL d   1       0.472  -0.454   2.807  0.00  0.00     0.020 A 
ATOM      2  C1  UNL d   1       1.574   0.045   2.114  0.00  0.00     0.020 A 
ATOM      3  C2  UNL d   1       1.483   0.291   0.742  0.00  0.00     0.034 A 
ATOM      4  C3  UNL d   1       0.288   0.038   0.059  0.00  0.00     0.017 A 
ATOM      5  C4  UNL d   1      -0.818  -0.463   0.756  0.00  0.00     0.017 A 
ATOM      6  C5  UNL d   1      -0.721  -0.707   2.129  0.00  0.00     0.034 A 
ATOM      7 Cl   UNL d   1      -2.326  -0.799  -0.018  0.00  0.00    -0.070 Cl
ATOM      8 Cl1  UNL d   1       0.247   0.366  -1.637  0.00  0.00    -0.070 Cl
ENDROOT
TORSDOF 0
ENDMDL
