MODEL 1
REMARK minimizedAffinity -4.31033468
REMARK minimizedRMSD -1
REMARK  0 active torsions:
REMARK  status: ('A' for Active; 'I' for Inactive)
ROOT
ATOM      1  C   UNL d   1      -0.770  -0.239   3.120  0.00  0.00     0.020 A 
ATOM      2  C1  UNL d   1      -1.779  -0.223   2.157  0.00  0.00     0.020 A 
ATOM      3  C2  UNL d   1      -1.457  -0.029   0.812  0.00  0.00     0.034 A 
ATOM      4  C3  UNL d   1      -0.124   0.151   0.426  0.00  0.00     0.017 A 
ATOM      5  C4  UNL d   1       0.888   0.135   1.393  0.00  0.00     0.017 A 
ATOM      6  C5  UNL d   1       0.560  -0.060   2.738  0.00  0.00     0.034 A 
ATOM      7 Cl   UNL d   1       2.556   0.349   0.993  0.00  0.00    -0.070 Cl
ATOM      8 Cl1  UNL d   1       0.201   0.385  -1.255  0.00  0.00    -0.070 Cl
ENDROOT
TORSDOF 0
ENDMDL
