MODEL 1
REMARK minimizedAffinity -5.74013329
REMARK minimizedRMSD -1
REMARK  0 active torsions:
REMARK  status: ('A' for Active; 'I' for Inactive)
ROOT
ATOM      1  C   UNL d   1      -2.533  -0.332   2.905  0.00  0.00     0.020 A 
ATOM      2  C1  UNL d   1      -1.509  -0.060   3.811  0.00  0.00     0.020 A 
ATOM      3  C2  UNL d   1      -0.222   0.218   3.346  0.00  0.00     0.034 A 
ATOM      4  C3  UNL d   1       0.045   0.225   1.972  0.00  0.00     0.017 A 
ATOM      5  C4  UNL d   1      -0.984  -0.048   1.064  0.00  0.00     0.017 A 
ATOM      6  C5  UNL d   1      -2.271  -0.326   1.534  0.00  0.00     0.034 A 
ATOM      7 Cl   UNL d   1      -0.733  -0.057  -0.646  0.00  0.00    -0.070 Cl
ATOM      8 Cl1  UNL d   1       1.659   0.578   1.468  0.00  0.00    -0.070 Cl
ENDROOT
TORSDOF 0
ENDMDL
