MODEL 1
REMARK minimizedAffinity -2.74290609
REMARK minimizedRMSD -1
REMARK  0 active torsions:
REMARK  status: ('A' for Active; 'I' for Inactive)
ROOT
ATOM      1  C   UNL d   1      -1.244  -0.436   2.898  0.00  0.00     0.020 A 
ATOM      2  C1  UNL d   1      -1.610  -1.510   2.087  0.00  0.00     0.020 A 
ATOM      3  C2  UNL d   1      -1.134  -1.589   0.777  0.00  0.00     0.034 A 
ATOM      4  C3  UNL d   1      -0.291  -0.593   0.273  0.00  0.00     0.017 A 
ATOM      5  C4  UNL d   1       0.075   0.485   1.087  0.00  0.00     0.017 A 
ATOM      6  C5  UNL d   1      -0.404   0.559   2.399  0.00  0.00     0.034 A 
ATOM      7 Cl   UNL d   1       1.112   1.753   0.535  0.00  0.00    -0.070 Cl
ATOM      8 Cl1  UNL d   1       0.260  -0.755  -1.357  0.00  0.00    -0.070 Cl
ENDROOT
TORSDOF 0
ENDMDL
