MODEL 1
REMARK minimizedAffinity -3.98548865
REMARK minimizedRMSD -1
REMARK  0 active torsions:
REMARK  status: ('A' for Active; 'I' for Inactive)
ROOT
ATOM      1  C   UNL d   1       0.325   0.637  -1.050  0.00  0.00     0.020 A 
ATOM      2  C1  UNL d   1       1.247   0.487  -0.015  0.00  0.00     0.020 A 
ATOM      3  C2  UNL d   1       0.810   0.137   1.264  0.00  0.00     0.034 A 
ATOM      4  C3  UNL d   1      -0.552  -0.065   1.511  0.00  0.00     0.017 A 
ATOM      5  C4  UNL d   1      -1.477   0.085   0.472  0.00  0.00     0.017 A 
ATOM      6  C5  UNL d   1      -1.034   0.436  -0.807  0.00  0.00     0.034 A 
ATOM      7 Cl   UNL d   1      -3.175  -0.147   0.700  0.00  0.00    -0.070 Cl
ATOM      8 Cl1  UNL d   1      -1.022  -0.496   3.117  0.00  0.00    -0.070 Cl
ENDROOT
TORSDOF 0
ENDMDL
