MODEL 1
REMARK minimizedAffinity -5.08787441
REMARK minimizedRMSD -1
REMARK  0 active torsions:
REMARK  status: ('A' for Active; 'I' for Inactive)
ROOT
ATOM      1  C   UNL d   1      -0.901  -0.347   3.041  0.00  0.00     0.020 A 
ATOM      2  C1  UNL d   1      -2.254  -0.023   2.944  0.00  0.00     0.020 A 
ATOM      3  C2  UNL d   1      -2.800   0.330   1.708  0.00  0.00     0.034 A 
ATOM      4  C3  UNL d   1      -1.993   0.360   0.564  0.00  0.00     0.017 A 
ATOM      5  C4  UNL d   1      -0.635   0.034   0.664  0.00  0.00     0.017 A 
ATOM      6  C5  UNL d   1      -0.094  -0.318   1.904  0.00  0.00     0.034 A 
ATOM      7 Cl   UNL d   1       0.423   0.048  -0.702  0.00  0.00    -0.070 Cl
ATOM      8 Cl1  UNL d   1      -2.735   0.805  -0.931  0.00  0.00    -0.070 Cl
ENDROOT
TORSDOF 0
ENDMDL
