MODEL 1
REMARK minimizedAffinity -4.20578051
REMARK minimizedRMSD -1
REMARK  0 active torsions:
REMARK  status: ('A' for Active; 'I' for Inactive)
ROOT
ATOM      1  C   UNL d   1      -0.314  -0.763   2.621  0.00  0.00     0.020 A 
ATOM      2  C1  UNL d   1       0.874  -0.692   1.894  0.00  0.00     0.020 A 
ATOM      3  C2  UNL d   1       0.876  -0.136   0.613  0.00  0.00     0.034 A 
ATOM      4  C3  UNL d   1      -0.312   0.351   0.055  0.00  0.00     0.017 A 
ATOM      5  C4  UNL d   1      -1.503   0.279   0.786  0.00  0.00     0.017 A 
ATOM      6  C5  UNL d   1      -1.500  -0.279   2.068  0.00  0.00     0.034 A 
ATOM      7 Cl   UNL d   1      -3.008   0.860   0.165  0.00  0.00    -0.070 Cl
ATOM      8 Cl1  UNL d   1      -0.236   1.026  -1.533  0.00  0.00    -0.070 Cl
ENDROOT
TORSDOF 0
ENDMDL
