MODEL 1
REMARK minimizedAffinity -2.68744373
REMARK minimizedRMSD -1
REMARK  0 active torsions:
REMARK  status: ('A' for Active; 'I' for Inactive)
ROOT
ATOM      1  C   UNL d   1      -1.958   0.009   0.888  0.00  0.00     0.020 A 
ATOM      2  C1  UNL d   1      -2.291   0.805  -0.207  0.00  0.00     0.020 A 
ATOM      3  C2  UNL d   1      -1.372   0.986  -1.243  0.00  0.00     0.034 A 
ATOM      4  C3  UNL d   1      -0.116   0.371  -1.186  0.00  0.00     0.017 A 
ATOM      5  C4  UNL d   1       0.216  -0.428  -0.086  0.00  0.00     0.017 A 
ATOM      6  C5  UNL d   1      -0.707  -0.606   0.948  0.00  0.00     0.034 A 
ATOM      7 Cl   UNL d   1       1.746  -1.221   0.055  0.00  0.00    -0.070 Cl
ATOM      8 Cl1  UNL d   1       0.970   0.638  -2.503  0.00  0.00    -0.070 Cl
ENDROOT
TORSDOF 0
ENDMDL
