MODEL 1
REMARK minimizedAffinity -1.02564633
REMARK minimizedRMSD -1
REMARK  0 active torsions:
REMARK  status: ('A' for Active; 'I' for Inactive)
ROOT
ATOM      1  C   UNL d   1      -1.489   0.081  -0.487  0.00  0.00     0.020 A 
ATOM      2  C1  UNL d   1      -0.307   0.615  -1.000  0.00  0.00     0.020 A 
ATOM      3  C2  UNL d   1       0.846   0.645  -0.212  0.00  0.00     0.034 A 
ATOM      4  C3  UNL d   1       0.819   0.140   1.094  0.00  0.00     0.017 A 
ATOM      5  C4  UNL d   1      -0.367  -0.396   1.608  0.00  0.00     0.017 A 
ATOM      6  C5  UNL d   1      -1.518  -0.423   0.814  0.00  0.00     0.034 A 
ATOM      7 Cl   UNL d   1      -0.477  -1.037   3.209  0.00  0.00    -0.070 Cl
ATOM      8 Cl1  UNL d   1       2.282   0.209   2.011  0.00  0.00    -0.070 Cl
ENDROOT
TORSDOF 0
ENDMDL
