MODEL 1
REMARK minimizedAffinity -3.73184347
REMARK minimizedRMSD -1
REMARK  0 active torsions:
REMARK  status: ('A' for Active; 'I' for Inactive)
ROOT
ATOM      1  C   UNL d   1       1.675   0.277   0.381  0.00  0.00     0.020 A 
ATOM      2  C1  UNL d   1       0.963   0.433  -0.807  0.00  0.00     0.020 A 
ATOM      3  C2  UNL d   1      -0.432   0.369  -0.799  0.00  0.00     0.034 A 
ATOM      4  C3  UNL d   1      -1.119   0.150   0.400  0.00  0.00     0.017 A 
ATOM      5  C4  UNL d   1      -0.403  -0.006   1.593  0.00  0.00     0.017 A 
ATOM      6  C5  UNL d   1       0.993   0.059   1.579  0.00  0.00     0.034 A 
ATOM      7 Cl   UNL d   1      -1.181  -0.280   3.112  0.00  0.00    -0.070 Cl
ATOM      8 Cl1  UNL d   1      -2.845   0.083   0.337  0.00  0.00    -0.070 Cl
ENDROOT
TORSDOF 0
ENDMDL
