MODEL 1
REMARK minimizedAffinity -2.34411263
REMARK minimizedRMSD -1
REMARK  0 active torsions:
REMARK  status: ('A' for Active; 'I' for Inactive)
ROOT
ATOM      1  C   UNL d   1      -1.131   0.538  -1.190  0.00  0.00     0.020 A 
ATOM      2  C1  UNL d   1      -2.261   0.043  -0.542  0.00  0.00     0.020 A 
ATOM      3  C2  UNL d   1      -2.178  -0.373   0.789  0.00  0.00     0.034 A 
ATOM      4  C3  UNL d   1      -0.960  -0.294   1.475  0.00  0.00     0.017 A 
ATOM      5  C4  UNL d   1       0.174   0.203   0.824  0.00  0.00     0.017 A 
ATOM      6  C5  UNL d   1       0.084   0.618  -0.509  0.00  0.00     0.034 A 
ATOM      7 Cl   UNL d   1       1.710   0.330   1.605  0.00  0.00    -0.070 Cl
ATOM      8 Cl1  UNL d   1      -0.930  -0.826   3.119  0.00  0.00    -0.070 Cl
ENDROOT
TORSDOF 0
ENDMDL
