MODEL 1
REMARK minimizedAffinity 7.06830311
REMARK minimizedRMSD -1
REMARK  0 active torsions:
REMARK  status: ('A' for Active; 'I' for Inactive)
ROOT
ATOM      1  C   UNL d   1      -1.945   1.869  -0.381  0.00  0.00     0.020 A 
ATOM      2  C1  UNL d   1      -1.439   0.584  -0.187  0.00  0.00     0.020 A 
ATOM      3  C2  UNL d   1      -1.852  -0.461  -1.016  0.00  0.00     0.034 A 
ATOM      4  C3  UNL d   1      -2.774  -0.224  -2.041  0.00  0.00     0.017 A 
ATOM      5  C4  UNL d   1      -3.282   1.066  -2.235  0.00  0.00     0.017 A 
ATOM      6  C5  UNL d   1      -2.865   2.109  -1.403  0.00  0.00     0.034 A 
ATOM      7 Cl   UNL d   1      -4.423   1.436  -3.480  0.00  0.00    -0.070 Cl
ATOM      8 Cl1  UNL d   1      -3.241  -1.564  -3.028  0.00  0.00    -0.070 Cl
ENDROOT
TORSDOF 0
ENDMDL
