MODEL 1
REMARK minimizedAffinity 2.31154132
REMARK minimizedRMSD -1
REMARK  0 active torsions:
REMARK  status: ('A' for Active; 'I' for Inactive)
ROOT
ATOM      1  C   UNL d   1       1.250  -0.019   2.841  0.00  0.00     0.020 A 
ATOM      2  C1  UNL d   1       2.199  -0.335   1.871  0.00  0.00     0.020 A 
ATOM      3  C2  UNL d   1       2.732  -1.625   1.810  0.00  0.00     0.034 A 
ATOM      4  C3  UNL d   1       2.316  -2.602   2.721  0.00  0.00     0.017 A 
ATOM      5  C4  UNL d   1       1.363  -2.283   3.695  0.00  0.00     0.017 A 
ATOM      6  C5  UNL d   1       0.833  -0.991   3.752  0.00  0.00     0.034 A 
ATOM      7 Cl   UNL d   1       0.800  -3.436   4.854  0.00  0.00    -0.070 Cl
ATOM      8 Cl1  UNL d   1       3.016  -4.176   2.587  0.00  0.00    -0.070 Cl
ENDROOT
TORSDOF 0
ENDMDL
