MODEL 1
REMARK minimizedAffinity 8.53260708
REMARK minimizedRMSD -1
REMARK  0 active torsions:
REMARK  status: ('A' for Active; 'I' for Inactive)
ROOT
ATOM      1  C   UNL d   1       5.534  -5.938  -4.396  0.00  0.00     0.020 A 
ATOM      2  C1  UNL d   1       6.000  -5.847  -3.085  0.00  0.00     0.020 A 
ATOM      3  C2  UNL d   1       5.094  -5.791  -2.024  0.00  0.00     0.034 A 
ATOM      4  C3  UNL d   1       3.717  -5.825  -2.273  0.00  0.00     0.017 A 
ATOM      5  C4  UNL d   1       3.250  -5.916  -3.589  0.00  0.00     0.017 A 
ATOM      6  C5  UNL d   1       4.162  -5.972  -4.647  0.00  0.00     0.034 A 
ATOM      7 Cl   UNL d   1       1.566  -5.964  -3.974  0.00  0.00    -0.070 Cl
ATOM      8 Cl1  UNL d   1       2.653  -5.752  -0.913  0.00  0.00    -0.070 Cl
ENDROOT
TORSDOF 0
ENDMDL
