MODEL 1
REMARK minimizedAffinity 6.77301168
REMARK minimizedRMSD -1
REMARK  0 active torsions:
REMARK  status: ('A' for Active; 'I' for Inactive)
ROOT
ATOM      1  C   UNL d   1      -1.538   3.550   2.300  0.00  0.00     0.020 A 
ATOM      2  C1  UNL d   1      -1.792   2.899   1.093  0.00  0.00     0.020 A 
ATOM      3  C2  UNL d   1      -3.082   2.897   0.558  0.00  0.00     0.034 A 
ATOM      4  C3  UNL d   1      -4.123   3.547   1.231  0.00  0.00     0.017 A 
ATOM      5  C4  UNL d   1      -3.868   4.200   2.442  0.00  0.00     0.017 A 
ATOM      6  C5  UNL d   1      -2.574   4.198   2.973  0.00  0.00     0.034 A 
ATOM      7 Cl   UNL d   1      -5.101   5.023   3.330  0.00  0.00    -0.070 Cl
ATOM      8 Cl1  UNL d   1      -5.694   3.505   0.512  0.00  0.00    -0.070 Cl
ENDROOT
TORSDOF 0
ENDMDL
