MODEL 1
REMARK minimizedAffinity 2.41298985
REMARK minimizedRMSD -1
REMARK  0 active torsions:
REMARK  status: ('A' for Active; 'I' for Inactive)
ROOT
ATOM      1  C   UNL d   1       2.131  -4.299   3.861  0.00  0.00     0.020 A 
ATOM      2  C1  UNL d   1       2.300  -3.919   2.530  0.00  0.00     0.020 A 
ATOM      3  C2  UNL d   1       2.317  -2.565   2.187  0.00  0.00     0.034 A 
ATOM      4  C3  UNL d   1       2.164  -1.587   3.177  0.00  0.00     0.017 A 
ATOM      5  C4  UNL d   1       1.995  -1.970   4.512  0.00  0.00     0.017 A 
ATOM      6  C5  UNL d   1       1.979  -3.327   4.850  0.00  0.00     0.034 A 
ATOM      7 Cl   UNL d   1       1.800  -0.820   5.788  0.00  0.00    -0.070 Cl
ATOM      8 Cl1  UNL d   1       2.195   0.068   2.681  0.00  0.00    -0.070 Cl
ENDROOT
TORSDOF 0
ENDMDL
