MODEL 1
REMARK minimizedAffinity 6.90947962
REMARK minimizedRMSD -1
REMARK  0 active torsions:
REMARK  status: ('A' for Active; 'I' for Inactive)
ROOT
ATOM      1  C   UNL d   1       2.477  -4.525   3.207  0.00  0.00     0.020 A 
ATOM      2  C1  UNL d   1       2.521  -4.367   4.592  0.00  0.00     0.020 A 
ATOM      3  C2  UNL d   1       2.292  -3.111   5.158  0.00  0.00     0.034 A 
ATOM      4  C3  UNL d   1       2.017  -2.009   4.340  0.00  0.00     0.017 A 
ATOM      5  C4  UNL d   1       1.973  -2.169   2.951  0.00  0.00     0.017 A 
ATOM      6  C5  UNL d   1       2.204  -3.429   2.388  0.00  0.00     0.034 A 
ATOM      7 Cl   UNL d   1       1.641  -0.857   1.876  0.00  0.00    -0.070 Cl
ATOM      8 Cl1  UNL d   1       1.743  -0.486   5.109  0.00  0.00    -0.070 Cl
ENDROOT
TORSDOF 0
ENDMDL
