MODEL 1
REMARK minimizedAffinity 5.82559776
REMARK minimizedRMSD -1
REMARK  0 active torsions:
REMARK  status: ('A' for Active; 'I' for Inactive)
ROOT
ATOM      1  C   UNL d   1       2.428  -0.561   1.351  0.00  0.00     0.020 A 
ATOM      2  C1  UNL d   1       1.497   0.022   2.211  0.00  0.00     0.020 A 
ATOM      3  C2  UNL d   1       0.906  -0.741   3.220  0.00  0.00     0.034 A 
ATOM      4  C3  UNL d   1       1.245  -2.091   3.372  0.00  0.00     0.017 A 
ATOM      5  C4  UNL d   1       2.179  -2.674   2.509  0.00  0.00     0.017 A 
ATOM      6  C5  UNL d   1       2.768  -1.906   1.500  0.00  0.00     0.034 A 
ATOM      7 Cl   UNL d   1       2.647  -4.333   2.634  0.00  0.00    -0.070 Cl
ATOM      8 Cl1  UNL d   1       0.475  -2.974   4.642  0.00  0.00    -0.070 Cl
ENDROOT
TORSDOF 0
ENDMDL
