MODEL 1
REMARK minimizedAffinity -1.90796542
REMARK minimizedRMSD -1
REMARK  1 active torsions:
REMARK  status: ('A' for Active; 'I' for Inactive)
REMARK    1  A    between atoms: C3_4  and  O_7 
ROOT
ATOM      1  C   UNL d   1       5.587   3.954   5.953  0.00  0.00    -0.033 A 
ATOM      2  C1  UNL d   1       4.404   3.212   5.915  0.00  0.00     0.039 A 
ATOM      3  C2  UNL d   1       3.169   3.864   5.923  0.00  0.00    -0.080 A 
ATOM      4  C3  UNL d   1       3.130   5.255   5.966  0.00  0.00     0.150 A 
ATOM      5  C4  UNL d   1       4.304   6.000   5.999  0.00  0.00    -0.007 A 
ATOM      6  C5  UNL d   1       5.537   5.348   5.993  0.00  0.00     0.039 A 
ENDROOT
BRANCH   4   7
ATOM      7  O   UNL d   1       1.949   5.934   5.979  0.00  0.00    -0.526 OA
ATOM      8  H5  UNL d   1       1.222   5.289   5.982  0.00  0.00     0.418 HD
ENDBRANCH   4   7
TORSDOF 1
ENDMDL
