MODEL 1
REMARK minimizedAffinity 3.05277967
REMARK minimizedRMSD -1
REMARK  1 active torsions:
REMARK  status: ('A' for Active; 'I' for Inactive)
REMARK    1  A    between atoms: C3_4  and  O_7 
ROOT
ATOM      1  C   UNL d   1       4.830   5.873   5.656  0.00  0.00    -0.033 A 
ATOM      2  C1  UNL d   1       3.606   5.239   5.876  0.00  0.00     0.039 A 
ATOM      3  C2  UNL d   1       3.548   3.849   5.993  0.00  0.00    -0.080 A 
ATOM      4  C3  UNL d   1       4.720   3.105   5.890  0.00  0.00     0.150 A 
ATOM      5  C4  UNL d   1       5.944   3.730   5.675  0.00  0.00    -0.007 A 
ATOM      6  C5  UNL d   1       6.000   5.118   5.557  0.00  0.00     0.039 A 
ENDROOT
BRANCH   4   7
ATOM      7  O   UNL d   1       4.713   1.746   5.993  0.00  0.00    -0.526 OA
ATOM      8  H5  UNL d   1       3.794   1.451   6.112  0.00  0.00     0.418 HD
ENDBRANCH   4   7
TORSDOF 1
ENDMDL
