MODEL 1
REMARK minimizedAffinity -1.88246751
REMARK minimizedRMSD -1
REMARK  1 active torsions:
REMARK  status: ('A' for Active; 'I' for Inactive)
REMARK    1  A    between atoms: C3_4  and  O_7 
ROOT
ATOM      1  C   UNL d   1       5.476   3.967   5.587  0.00  0.00    -0.033 A 
ATOM      2  C1  UNL d   1       5.407   5.299   5.999  0.00  0.00     0.039 A 
ATOM      3  C2  UNL d   1       4.202   5.999   5.904  0.00  0.00    -0.080 A 
ATOM      4  C3  UNL d   1       3.076   5.356   5.397  0.00  0.00     0.150 A 
ATOM      5  C4  UNL d   1       3.138   4.028   4.988  0.00  0.00    -0.007 A 
ATOM      6  C5  UNL d   1       4.342   3.331   5.083  0.00  0.00     0.039 A 
ENDROOT
BRANCH   4   7
ATOM      7  O   UNL d   1       1.880   5.999   5.281  0.00  0.00    -0.526 OA
ATOM      8  H5  UNL d   1       1.995   6.918   5.574  0.00  0.00     0.418 HD
ENDBRANCH   4   7
TORSDOF 1
ENDMDL
