MODEL 1
REMARK minimizedAffinity 7.73870373
REMARK minimizedRMSD -1
REMARK  1 active torsions:
REMARK  status: ('A' for Active; 'I' for Inactive)
REMARK    1  A    between atoms: C3_4  and  O_7 
ROOT
ATOM      1  C   UNL d   1      -6.000   6.000   1.745  0.00  0.00    -0.033 A 
ATOM      2  C1  UNL d   1      -5.253   5.058   2.456  0.00  0.00     0.039 A 
ATOM      3  C2  UNL d   1      -4.486   4.112   1.772  0.00  0.00    -0.080 A 
ATOM      4  C3  UNL d   1      -4.475   4.119   0.380  0.00  0.00     0.150 A 
ATOM      5  C4  UNL d   1      -5.214   5.056  -0.334  0.00  0.00    -0.007 A 
ATOM      6  C5  UNL d   1      -5.979   6.000   0.350  0.00  0.00     0.039 A 
ENDROOT
BRANCH   4   7
ATOM      7  O   UNL d   1      -3.746   3.212  -0.331  0.00  0.00    -0.526 OA
ATOM      8  H5  UNL d   1      -3.310   2.610   0.295  0.00  0.00     0.418 HD
ENDBRANCH   4   7
TORSDOF 1
ENDMDL
