MODEL 1
REMARK minimizedAffinity 6.62192297
REMARK minimizedRMSD -1
REMARK  1 active torsions:
REMARK  status: ('A' for Active; 'I' for Inactive)
REMARK    1  A    between atoms: C3_4  and  O_7 
ROOT
ATOM      1  C   UNL d   1       4.966   5.969   5.786  0.00  0.00    -0.033 A 
ATOM      2  C1  UNL d   1       5.625   4.749   5.619  0.00  0.00     0.039 A 
ATOM      3  C2  UNL d   1       4.903   3.554   5.644  0.00  0.00    -0.080 A 
ATOM      4  C3  UNL d   1       3.525   3.593   5.836  0.00  0.00     0.150 A 
ATOM      5  C4  UNL d   1       2.861   4.804   6.000  0.00  0.00    -0.007 A 
ATOM      6  C5  UNL d   1       3.584   5.996   5.975  0.00  0.00     0.039 A 
ENDROOT
BRANCH   4   7
ATOM      7  O   UNL d   1       2.779   2.452   5.873  0.00  0.00    -0.526 OA
ATOM      8  H5  UNL d   1       3.375   1.691   5.775  0.00  0.00     0.418 HD
ENDBRANCH   4   7
TORSDOF 1
ENDMDL
