MODEL 1
REMARK minimizedAffinity 8.15164185
REMARK minimizedRMSD -1
REMARK  1 active torsions:
REMARK  status: ('A' for Active; 'I' for Inactive)
REMARK    1  A    between atoms: C3_4  and  O_7 
ROOT
ATOM      1  C   UNL d   1       2.389   3.846   5.931  0.00  0.00    -0.033 A 
ATOM      2  C1  UNL d   1       3.603   3.160   5.999  0.00  0.00     0.039 A 
ATOM      3  C2  UNL d   1       4.808   3.865   5.982  0.00  0.00    -0.080 A 
ATOM      4  C3  UNL d   1       4.786   5.254   5.899  0.00  0.00     0.150 A 
ATOM      5  C4  UNL d   1       3.580   5.945   5.835  0.00  0.00    -0.007 A 
ATOM      6  C5  UNL d   1       2.378   5.239   5.851  0.00  0.00     0.039 A 
ENDROOT
BRANCH   4   7
ATOM      7  O   UNL d   1       5.936   5.985   5.874  0.00  0.00    -0.526 OA
ATOM      8  H5  UNL d   1       6.690   5.373   5.896  0.00  0.00     0.418 HD
ENDBRANCH   4   7
TORSDOF 1
ENDMDL
