MODEL 1
REMARK minimizedAffinity 9.14689636
REMARK minimizedRMSD -1
REMARK  1 active torsions:
REMARK  status: ('A' for Active; 'I' for Inactive)
REMARK    1  A    between atoms: C3_4  and  O_7 
ROOT
ATOM      1  C   UNL d   1       5.936   4.176   4.832  0.00  0.00    -0.033 A 
ATOM      2  C1  UNL d   1       4.729   3.563   4.491  0.00  0.00     0.039 A 
ATOM      3  C2  UNL d   1       3.517   4.140   4.876  0.00  0.00    -0.080 A 
ATOM      4  C3  UNL d   1       3.527   5.330   5.598  0.00  0.00     0.150 A 
ATOM      5  C4  UNL d   1       4.725   5.948   5.938  0.00  0.00    -0.007 A 
ATOM      6  C5  UNL d   1       5.934   5.369   5.554  0.00  0.00     0.039 A 
ENDROOT
BRANCH   4   7
ATOM      7  O   UNL d   1       2.370   5.929   6.000  0.00  0.00    -0.526 OA
ATOM      8  H5  UNL d   1       1.623   5.375   5.719  0.00  0.00     0.418 HD
ENDBRANCH   4   7
TORSDOF 1
ENDMDL
