MODEL 1
REMARK minimizedAffinity -1.92915726
REMARK minimizedRMSD -1
REMARK  1 active torsions:
REMARK  status: ('A' for Active; 'I' for Inactive)
REMARK    1  A    between atoms: C3_4  and  O_7 
ROOT
ATOM      1  C   UNL d   1       5.876   3.869   5.939  0.00  0.00    -0.033 A 
ATOM      2  C1  UNL d   1       5.915   5.265   5.927  0.00  0.00     0.039 A 
ATOM      3  C2  UNL d   1       4.728   5.999   5.947  0.00  0.00    -0.080 A 
ATOM      4  C3  UNL d   1       3.509   5.326   5.981  0.00  0.00     0.150 A 
ATOM      5  C4  UNL d   1       3.463   3.936   5.998  0.00  0.00    -0.007 A 
ATOM      6  C5  UNL d   1       4.650   3.205   5.976  0.00  0.00     0.039 A 
ENDROOT
BRANCH   4   7
ATOM      7  O   UNL d   1       2.324   5.999   5.998  0.00  0.00    -0.526 OA
ATOM      8  H5  UNL d   1       2.510   6.952   5.954  0.00  0.00     0.418 HD
ENDBRANCH   4   7
TORSDOF 1
ENDMDL
