MODEL 1
REMARK minimizedAffinity 2.33215642
REMARK minimizedRMSD -1
REMARK  1 active torsions:
REMARK  status: ('A' for Active; 'I' for Inactive)
REMARK    1  A    between atoms: C3_4  and  O_7 
ROOT
ATOM      1  C   UNL d   1       5.995   4.050   5.171  0.00  0.00    -0.033 A 
ATOM      2  C1  UNL d   1       4.786   3.416   4.881  0.00  0.00     0.039 A 
ATOM      3  C2  UNL d   1       3.576   4.059   5.153  0.00  0.00    -0.080 A 
ATOM      4  C3  UNL d   1       3.590   5.334   5.712  0.00  0.00     0.150 A 
ATOM      5  C4  UNL d   1       4.792   5.973   6.000  0.00  0.00    -0.007 A 
ATOM      6  C5  UNL d   1       5.999   5.329   5.729  0.00  0.00     0.039 A 
ENDROOT
BRANCH   4   7
ATOM      7  O   UNL d   1       2.435   5.999   5.999  0.00  0.00    -0.526 OA
ATOM      8  H5  UNL d   1       1.685   5.424   5.774  0.00  0.00     0.418 HD
ENDBRANCH   4   7
TORSDOF 1
ENDMDL
