MODEL 1
REMARK minimizedAffinity 11.6031322
REMARK minimizedRMSD -1
REMARK  1 active torsions:
REMARK  status: ('A' for Active; 'I' for Inactive)
REMARK    1  A    between atoms: C3_4  and  O_7 
ROOT
ATOM      1  C   UNL d   1       5.150   1.842  -2.939  0.00  0.00    -0.033 A 
ATOM      2  C1  UNL d   1       5.999   2.419  -1.992  0.00  0.00     0.039 A 
ATOM      3  C2  UNL d   1       5.470   2.987  -0.832  0.00  0.00    -0.080 A 
ATOM      4  C3  UNL d   1       4.092   2.972  -0.631  0.00  0.00     0.150 A 
ATOM      5  C4  UNL d   1       3.241   2.396  -1.568  0.00  0.00    -0.007 A 
ATOM      6  C5  UNL d   1       3.772   1.830  -2.727  0.00  0.00     0.039 A 
ENDROOT
BRANCH   4   7
ATOM      7  O   UNL d   1       3.529   3.519   0.484  0.00  0.00    -0.526 OA
ATOM      8  H5  UNL d   1       4.236   3.905   1.028  0.00  0.00     0.418 HD
ENDBRANCH   4   7
TORSDOF 1
ENDMDL
