MODEL 1
REMARK minimizedAffinity -2.05283976
REMARK minimizedRMSD -1
REMARK  1 active torsions:
REMARK  status: ('A' for Active; 'I' for Inactive)
REMARK    1  A    between atoms: C3_4  and  O_7 
ROOT
ATOM      1  C   UNL d   1       5.999   4.097   5.999  0.00  0.00    -0.033 A 
ATOM      2  C1  UNL d   1       4.836   3.332   5.891  0.00  0.00     0.039 A 
ATOM      3  C2  UNL d   1       3.670   3.900   5.375  0.00  0.00    -0.080 A 
ATOM      4  C3  UNL d   1       3.680   5.232   4.970  0.00  0.00     0.150 A 
ATOM      5  C4  UNL d   1       4.836   5.999   5.071  0.00  0.00    -0.007 A 
ATOM      6  C5  UNL d   1       6.000   5.430   5.588  0.00  0.00     0.039 A 
ENDROOT
BRANCH   4   7
ATOM      7  O   UNL d   1       2.565   5.832   4.464  0.00  0.00    -0.526 OA
ATOM      8  H5  UNL d   1       1.836   5.190   4.481  0.00  0.00     0.418 HD
ENDBRANCH   4   7
TORSDOF 1
ENDMDL
