MODEL 1
REMARK minimizedAffinity -0.416562915
REMARK minimizedRMSD -1
REMARK  1 active torsions:
REMARK  status: ('A' for Active; 'I' for Inactive)
REMARK    1  A    between atoms: C3_4  and  O_7 
ROOT
ATOM      1  C   UNL d   1       5.766   3.869   5.427  0.00  0.00    -0.033 A 
ATOM      2  C1  UNL d   1       5.804   5.265   5.416  0.00  0.00     0.039 A 
ATOM      3  C2  UNL d   1       4.632   5.999   5.609  0.00  0.00    -0.080 A 
ATOM      4  C3  UNL d   1       3.430   5.327   5.811  0.00  0.00     0.150 A 
ATOM      5  C4  UNL d   1       3.385   3.936   5.827  0.00  0.00    -0.007 A 
ATOM      6  C5  UNL d   1       4.557   3.205   5.634  0.00  0.00     0.039 A 
ENDROOT
BRANCH   4   7
ATOM      7  O   UNL d   1       2.260   6.000   5.999  0.00  0.00    -0.526 OA
ATOM      8  H5  UNL d   1       2.439   6.953   5.934  0.00  0.00     0.418 HD
ENDBRANCH   4   7
TORSDOF 1
ENDMDL
