MODEL 1
REMARK minimizedAffinity 1.71800363
REMARK minimizedRMSD -1
REMARK  1 active torsions:
REMARK  status: ('A' for Active; 'I' for Inactive)
REMARK    1  A    between atoms: C3_4  and  O_7 
ROOT
ATOM      1  C   UNL d   1       3.892   5.981   5.956  0.00  0.00    -0.033 A 
ATOM      2  C1  UNL d   1       5.287   5.995   5.991  0.00  0.00     0.039 A 
ATOM      3  C2  UNL d   1       5.999   4.793   5.998  0.00  0.00    -0.080 A 
ATOM      4  C3  UNL d   1       5.305   3.587   5.969  0.00  0.00     0.150 A 
ATOM      5  C4  UNL d   1       3.914   3.566   5.930  0.00  0.00    -0.007 A 
ATOM      6  C5  UNL d   1       3.205   4.767   5.924  0.00  0.00     0.039 A 
ENDROOT
BRANCH   4   7
ATOM      7  O   UNL d   1       5.956   2.390   5.980  0.00  0.00    -0.526 OA
ATOM      8  H5  UNL d   1       6.911   2.559   6.037  0.00  0.00     0.418 HD
ENDBRANCH   4   7
TORSDOF 1
ENDMDL
