MODEL 1
REMARK minimizedAffinity 2.40337849
REMARK minimizedRMSD -1
REMARK  1 active torsions:
REMARK  status: ('A' for Active; 'I' for Inactive)
REMARK    1  A    between atoms: C3_4  and  O_7 
ROOT
ATOM      1  C   UNL d   1       5.989   4.001   5.380  0.00  0.00    -0.033 A 
ATOM      2  C1  UNL d   1       5.971   5.346   5.754  0.00  0.00     0.039 A 
ATOM      3  C2  UNL d   1       4.754   5.997   5.966  0.00  0.00    -0.080 A 
ATOM      4  C3  UNL d   1       3.565   5.293   5.803  0.00  0.00     0.150 A 
ATOM      5  C4  UNL d   1       3.575   3.951   5.435  0.00  0.00    -0.007 A 
ATOM      6  C5  UNL d   1       4.791   3.303   5.223  0.00  0.00     0.039 A 
ENDROOT
BRANCH   4   7
ATOM      7  O   UNL d   1       2.353   5.887   5.995  0.00  0.00    -0.526 OA
ATOM      8  H5  UNL d   1       2.500   6.821   6.217  0.00  0.00     0.418 HD
ENDBRANCH   4   7
TORSDOF 1
ENDMDL
