MODEL 1
REMARK minimizedAffinity 4.72556686
REMARK minimizedRMSD -1
REMARK  1 active torsions:
REMARK  status: ('A' for Active; 'I' for Inactive)
REMARK    1  A    between atoms: C3_4  and  O_7 
ROOT
ATOM      1  C   UNL d   1      -5.706   6.000  -0.338  0.00  0.00    -0.033 A 
ATOM      2  C1  UNL d   1      -4.417   6.000  -0.874  0.00  0.00     0.039 A 
ATOM      3  C2  UNL d   1      -3.416   5.219  -0.292  0.00  0.00    -0.080 A 
ATOM      4  C3  UNL d   1      -3.718   4.443   0.824  0.00  0.00     0.150 A 
ATOM      5  C4  UNL d   1      -5.001   4.436   1.361  0.00  0.00    -0.007 A 
ATOM      6  C5  UNL d   1      -5.998   5.217   0.779  0.00  0.00     0.039 A 
ENDROOT
BRANCH   4   7
ATOM      7  O   UNL d   1      -2.773   3.668   1.429  0.00  0.00    -0.526 OA
ATOM      8  H5  UNL d   1      -1.928   3.796   0.967  0.00  0.00     0.418 HD
ENDBRANCH   4   7
TORSDOF 1
ENDMDL
