MODEL 1
REMARK minimizedAffinity -1.75863576
REMARK minimizedRMSD -1
REMARK  1 active torsions:
REMARK  status: ('A' for Active; 'I' for Inactive)
REMARK    1  A    between atoms: C3_4  and  O_7 
ROOT
ATOM      1  C   UNL d   1       5.703   3.863   5.791  0.00  0.00    -0.033 A 
ATOM      2  C1  UNL d   1       4.487   3.178   5.728  0.00  0.00     0.039 A 
ATOM      3  C2  UNL d   1       3.283   3.881   5.795  0.00  0.00    -0.080 A 
ATOM      4  C3  UNL d   1       3.308   5.267   5.924  0.00  0.00     0.150 A 
ATOM      5  C4  UNL d   1       4.515   5.956   5.984  0.00  0.00    -0.007 A 
ATOM      6  C5  UNL d   1       5.716   5.252   5.917  0.00  0.00     0.039 A 
ENDROOT
BRANCH   4   7
ATOM      7  O   UNL d   1       2.159   5.997   5.999  0.00  0.00    -0.526 OA
ATOM      8  H5  UNL d   1       1.404   5.385   5.974  0.00  0.00     0.418 HD
ENDBRANCH   4   7
TORSDOF 1
ENDMDL
