MODEL 1
REMARK minimizedAffinity 0.141837567
REMARK minimizedRMSD -1
REMARK  1 active torsions:
REMARK  status: ('A' for Active; 'I' for Inactive)
REMARK    1  A    between atoms: C3_4  and  O_7 
ROOT
ATOM      1  C   UNL d   1       5.006   5.998   5.944  0.00  0.00    -0.033 A 
ATOM      2  C1  UNL d   1       5.731   4.804   5.945  0.00  0.00     0.039 A 
ATOM      3  C2  UNL d   1       5.062   3.579   5.962  0.00  0.00    -0.080 A 
ATOM      4  C3  UNL d   1       3.670   3.561   5.976  0.00  0.00     0.150 A 
ATOM      5  C4  UNL d   1       2.941   4.746   5.971  0.00  0.00    -0.007 A 
ATOM      6  C5  UNL d   1       3.611   5.968   5.956  0.00  0.00     0.039 A 
ENDROOT
BRANCH   4   7
ATOM      7  O   UNL d   1       2.973   2.389   5.998  0.00  0.00    -0.526 OA
ATOM      8  H5  UNL d   1       3.607   1.654   6.028  0.00  0.00     0.418 HD
ENDBRANCH   4   7
TORSDOF 1
ENDMDL
