MODEL 1
REMARK minimizedAffinity 12.8855667
REMARK minimizedRMSD -1
REMARK  1 active torsions:
REMARK  status: ('A' for Active; 'I' for Inactive)
REMARK    1  A    between atoms: C3_4  and  O_7 
ROOT
ATOM      1  C   UNL d   1       4.306   5.993   5.996  0.00  0.00    -0.033 A 
ATOM      2  C1  UNL d   1       3.459   4.888   5.895  0.00  0.00     0.039 A 
ATOM      3  C2  UNL d   1       3.879   3.744   5.212  0.00  0.00    -0.080 A 
ATOM      4  C3  UNL d   1       5.146   3.719   4.636  0.00  0.00     0.150 A 
ATOM      5  C4  UNL d   1       5.996   4.815   4.736  0.00  0.00    -0.007 A 
ATOM      6  C5  UNL d   1       5.575   5.956   5.418  0.00  0.00     0.039 A 
ENDROOT
BRANCH   4   7
ATOM      7  O   UNL d   1       5.598   2.628   3.955  0.00  0.00    -0.526 OA
ATOM      8  H5  UNL d   1       4.893   1.959   3.943  0.00  0.00     0.418 HD
ENDBRANCH   4   7
TORSDOF 1
ENDMDL
