MODEL 1
REMARK minimizedAffinity -3.54063177
REMARK minimizedRMSD -1
REMARK  1 active torsions:
REMARK  status: ('A' for Active; 'I' for Inactive)
REMARK    1  A    between atoms: N_2  and  C1_3 
ROOT
ATOM      1  C1  UNL d   1      -1.254  -1.808  -0.784  0.00  0.00     0.143 A 
ATOM      2  C2  UNL d   1      -2.000  -1.921   0.395  0.00  0.00    -0.057 A 
ATOM      3  C3  UNL d   1      -3.181  -2.672   0.438  0.00  0.00     0.033 A 
ATOM      4  C4  UNL d   1      -3.654  -3.302  -0.709  0.00  0.00    -0.042 A 
ATOM      5  C5  UNL d   1      -2.942  -3.183  -1.898  0.00  0.00     0.033 A 
ATOM      6  C6  UNL d   1      -1.760  -2.436  -1.932  0.00  0.00    -0.057 A 
ENDROOT
BRANCH   1   7
ATOM      7  N   UNL d   1      -0.126  -0.995  -0.915  0.00  0.00    -0.732 N 
ATOM      8  C   UNL d   1      -0.041   0.268  -0.214  0.00  0.00     0.284 C 
ATOM      9  H3  UNL d   1       0.740  -1.530  -0.914  0.00  0.00     0.395 HD
ENDBRANCH   1   7
TORSDOF 1
ENDMDL
