MODEL 1
REMARK minimizedAffinity -1.97278452
REMARK minimizedRMSD -1
REMARK  1 active torsions:
REMARK  status: ('A' for Active; 'I' for Inactive)
REMARK    1  A    between atoms: N_2  and  C1_3 
ROOT
ATOM      1  C1  UNL d   1      -2.149  -1.689  -2.649  0.00  0.00     0.143 A 
ATOM      2  C2  UNL d   1      -2.094  -2.555  -1.552  0.00  0.00    -0.057 A 
ATOM      3  C3  UNL d   1      -1.359  -2.230  -0.405  0.00  0.00     0.033 A 
ATOM      4  C4  UNL d   1      -0.640  -1.041  -0.348  0.00  0.00    -0.042 A 
ATOM      5  C5  UNL d   1      -0.659  -0.176  -1.437  0.00  0.00     0.033 A 
ATOM      6  C6  UNL d   1      -1.400  -0.504  -2.576  0.00  0.00    -0.057 A 
ENDROOT
BRANCH   1   7
ATOM      7  N   UNL d   1      -2.781  -2.001  -3.855  0.00  0.00    -0.732 N 
ATOM      8  C   UNL d   1      -2.458  -3.221  -4.563  0.00  0.00     0.284 C 
ATOM      9  H3  UNL d   1      -3.774  -1.778  -3.842  0.00  0.00     0.395 HD
ENDBRANCH   1   7
TORSDOF 1
ENDMDL
