MODEL 1
REMARK minimizedAffinity -0.676407337
REMARK minimizedRMSD -1
REMARK  1 active torsions:
REMARK  status: ('A' for Active; 'I' for Inactive)
REMARK    1  A    between atoms: N_2  and  C1_3 
ROOT
ATOM      1  C1  UNL d   1      -2.241  -1.991  -1.065  0.00  0.00     0.143 A 
ATOM      2  C2  UNL d   1      -0.906  -1.627  -1.266  0.00  0.00    -0.057 A 
ATOM      3  C3  UNL d   1      -0.266  -0.716  -0.417  0.00  0.00     0.033 A 
ATOM      4  C4  UNL d   1      -0.962  -0.129   0.634  0.00  0.00    -0.042 A 
ATOM      5  C5  UNL d   1      -2.298  -0.456   0.838  0.00  0.00     0.033 A 
ATOM      6  C6  UNL d   1      -2.929  -1.372  -0.009  0.00  0.00    -0.057 A 
ENDROOT
BRANCH   1   7
ATOM      7  N   UNL d   1      -2.962  -2.816  -1.932  0.00  0.00    -0.732 N 
ATOM      8  C   UNL d   1      -2.519  -4.167  -2.202  0.00  0.00     0.284 C 
ATOM      9  H3  UNL d   1      -3.968  -2.724  -1.810  0.00  0.00     0.395 HD
ENDBRANCH   1   7
TORSDOF 1
ENDMDL
