MODEL 1
REMARK minimizedAffinity -1.5820812
REMARK minimizedRMSD -1
REMARK  1 active torsions:
REMARK  status: ('A' for Active; 'I' for Inactive)
REMARK    1  A    between atoms: N_2  and  C1_3 
ROOT
ATOM      1  C1  UNL d   1      -1.950  -1.611  -2.054  0.00  0.00     0.143 A 
ATOM      2  C2  UNL d   1      -2.419  -1.928  -0.775  0.00  0.00    -0.057 A 
ATOM      3  C3  UNL d   1      -2.054  -1.168   0.342  0.00  0.00     0.033 A 
ATOM      4  C4  UNL d   1      -1.186  -0.089   0.203  0.00  0.00    -0.042 A 
ATOM      5  C5  UNL d   1      -0.688   0.230  -1.055  0.00  0.00     0.033 A 
ATOM      6  C6  UNL d   1      -1.061  -0.530  -2.167  0.00  0.00    -0.057 A 
ENDROOT
BRANCH   1   7
ATOM      7  N   UNL d   1      -2.198  -2.387  -3.189  0.00  0.00    -0.732 N 
ATOM      8  C   UNL d   1      -1.939  -3.811  -3.179  0.00  0.00     0.284 C 
ATOM      9  H3  UNL d   1      -3.062  -2.125  -3.657  0.00  0.00     0.395 HD
ENDBRANCH   1   7
TORSDOF 1
ENDMDL
