MODEL 1
REMARK minimizedAffinity 1.06306183
REMARK minimizedRMSD -1
REMARK  1 active torsions:
REMARK  status: ('A' for Active; 'I' for Inactive)
REMARK    1  A    between atoms: N_2  and  C1_3 
ROOT
ATOM      1  C1  UNL d   1      -1.199  -1.200  -1.069  0.00  0.00     0.143 A 
ATOM      2  C2  UNL d   1      -1.491  -0.800  -2.378  0.00  0.00    -0.057 A 
ATOM      3  C3  UNL d   1      -2.242  -1.613  -3.235  0.00  0.00     0.033 A 
ATOM      4  C4  UNL d   1      -2.692  -2.858  -2.807  0.00  0.00    -0.042 A 
ATOM      5  C5  UNL d   1      -2.393  -3.287  -1.518  0.00  0.00     0.033 A 
ATOM      6  C6  UNL d   1      -1.648  -2.467  -0.664  0.00  0.00    -0.057 A 
ENDROOT
BRANCH   1   7
ATOM      7  N   UNL d   1      -0.374  -0.481  -0.201  0.00  0.00    -0.732 N 
ATOM      8  C   UNL d   1       0.803   0.199  -0.697  0.00  0.00     0.284 C 
ATOM      9  H3  UNL d   1      -0.904   0.052   0.486  0.00  0.00     0.395 HD
ENDBRANCH   1   7
TORSDOF 1
ENDMDL
