MODEL 1
REMARK minimizedAffinity 3.83651662
REMARK minimizedRMSD -1
REMARK  1 active torsions:
REMARK  status: ('A' for Active; 'I' for Inactive)
REMARK    1  A    between atoms: N_2  and  C1_3 
ROOT
ATOM      1  C1  UNL d   1      -1.873   0.322   1.179  0.00  0.00     0.143 A 
ATOM      2  C2  UNL d   1      -1.751   1.389   0.283  0.00  0.00    -0.057 A 
ATOM      3  C3  UNL d   1      -0.889   1.317  -0.819  0.00  0.00     0.033 A 
ATOM      4  C4  UNL d   1      -0.110   0.183  -1.027  0.00  0.00    -0.042 A 
ATOM      5  C5  UNL d   1      -0.196  -0.879  -0.134  0.00  0.00     0.033 A 
ATOM      6  C6  UNL d   1      -1.064  -0.804   0.960  0.00  0.00    -0.057 A 
ENDROOT
BRANCH   1   7
ATOM      7  N   UNL d   1      -2.638   0.371   2.347  0.00  0.00    -0.732 N 
ATOM      8  C   UNL d   1      -2.197  -0.308   3.547  0.00  0.00     0.284 C 
ATOM      9  H3  UNL d   1      -3.034   1.293   2.513  0.00  0.00     0.395 HD
ENDBRANCH   1   7
TORSDOF 1
ENDMDL
