MODEL 1
REMARK minimizedAffinity 1.0576278
REMARK minimizedRMSD -1
REMARK  1 active torsions:
REMARK  status: ('A' for Active; 'I' for Inactive)
REMARK    1  A    between atoms: N_2  and  C1_3 
ROOT
ATOM      1  C1  UNL d   1      -4.766  -4.055  -1.514  0.00  0.00     0.143 A 
ATOM      2  C2  UNL d   1      -4.070  -4.835  -2.444  0.00  0.00    -0.057 A 
ATOM      3  C3  UNL d   1      -3.062  -4.284  -3.245  0.00  0.00     0.033 A 
ATOM      4  C4  UNL d   1      -2.752  -2.931  -3.150  0.00  0.00    -0.042 A 
ATOM      5  C5  UNL d   1      -3.449  -2.131  -2.251  0.00  0.00     0.033 A 
ATOM      6  C6  UNL d   1      -4.449  -2.689  -1.449  0.00  0.00    -0.057 A 
ENDROOT
BRANCH   1   7
ATOM      7  N   UNL d   1      -5.845  -4.523  -0.759  0.00  0.00    -0.732 N 
ATOM      8  C   UNL d   1      -5.999  -5.936  -0.491  0.00  0.00     0.284 C 
ATOM      9  H3  UNL d   1      -6.050  -3.924   0.037  0.00  0.00     0.395 HD
ENDBRANCH   1   7
TORSDOF 1
ENDMDL
