MODEL 1
REMARK minimizedAffinity 3.26631451
REMARK minimizedRMSD -1
REMARK  1 active torsions:
REMARK  status: ('A' for Active; 'I' for Inactive)
REMARK    1  A    between atoms: N_2  and  C1_3 
ROOT
ATOM      1  C1  UNL d   1      -1.176  -1.156  -0.744  0.00  0.00     0.143 A 
ATOM      2  C2  UNL d   1      -1.433  -0.131  -1.661  0.00  0.00    -0.057 A 
ATOM      3  C3  UNL d   1      -2.272  -0.334  -2.762  0.00  0.00     0.033 A 
ATOM      4  C4  UNL d   1      -2.850  -1.580  -2.983  0.00  0.00    -0.042 A 
ATOM      5  C5  UNL d   1      -2.589  -2.621  -2.100  0.00  0.00     0.033 A 
ATOM      6  C6  UNL d   1      -1.755  -2.410  -0.998  0.00  0.00    -0.057 A 
ENDROOT
BRANCH   1   7
ATOM      7  N   UNL d   1      -0.273  -1.045   0.315  0.00  0.00    -0.732 N 
ATOM      8  C   UNL d   1       1.056  -0.514   0.099  0.00  0.00     0.284 C 
ATOM      9  H3  UNL d   1      -0.716  -0.719   1.171  0.00  0.00     0.395 HD
ENDBRANCH   1   7
TORSDOF 1
ENDMDL
