MODEL 1
REMARK minimizedAffinity 4.91483641
REMARK minimizedRMSD -1
REMARK  1 active torsions:
REMARK  status: ('A' for Active; 'I' for Inactive)
REMARK    1  A    between atoms: N_2  and  C1_3 
ROOT
ATOM      1  C1  UNL d   1       1.177   2.082   4.392  0.00  0.00     0.143 A 
ATOM      2  C2  UNL d   1       2.326   2.010   5.188  0.00  0.00    -0.057 A 
ATOM      3  C3  UNL d   1       3.088   0.838   5.258  0.00  0.00     0.033 A 
ATOM      4  C4  UNL d   1       2.696  -0.296   4.555  0.00  0.00    -0.042 A 
ATOM      5  C5  UNL d   1       1.545  -0.256   3.777  0.00  0.00     0.033 A 
ATOM      6  C6  UNL d   1       0.792   0.920   3.705  0.00  0.00    -0.057 A 
ENDROOT
BRANCH   1   7
ATOM      7  N   UNL d   1       0.323   3.187   4.357  0.00  0.00    -0.732 N 
ATOM      8  C   UNL d   1      -0.961   3.148   5.024  0.00  0.00     0.284 C 
ATOM      9  H3  UNL d   1       0.822   4.067   4.467  0.00  0.00     0.395 HD
ENDBRANCH   1   7
TORSDOF 1
ENDMDL
