MODEL 1
REMARK minimizedAffinity -4.0024457
REMARK minimizedRMSD -1
REMARK  1 active torsions:
REMARK  status: ('A' for Active; 'I' for Inactive)
REMARK    1  A    between atoms: N_2  and  C1_3 
ROOT
ATOM      1  C1  UNL d   1      -5.028   0.881   4.978  0.00  0.00     0.143 A 
ATOM      2  C2  UNL d   1      -5.841  -0.045   5.640  0.00  0.00    -0.057 A 
ATOM      3  C3  UNL d   1      -5.558  -1.416   5.606  0.00  0.00     0.033 A 
ATOM      4  C4  UNL d   1      -4.469  -1.889   4.882  0.00  0.00    -0.042 A 
ATOM      5  C5  UNL d   1      -3.661  -0.990   4.196  0.00  0.00     0.033 A 
ATOM      6  C6  UNL d   1      -3.945   0.379   4.239  0.00  0.00    -0.057 A 
ENDROOT
BRANCH   1   7
ATOM      7  N   UNL d   1      -5.313   2.246   4.893  0.00  0.00    -0.732 N 
ATOM      8  C   UNL d   1      -4.950   3.002   3.714  0.00  0.00     0.284 C 
ATOM      9  H3  UNL d   1      -6.230   2.475   5.268  0.00  0.00     0.395 HD
ENDBRANCH   1   7
TORSDOF 1
ENDMDL
