MODEL 1
REMARK minimizedAffinity -1.98367167
REMARK minimizedRMSD -1
REMARK  1 active torsions:
REMARK  status: ('A' for Active; 'I' for Inactive)
REMARK    1  A    between atoms: N_2  and  C1_3 
ROOT
ATOM      1  C1  UNL d   1      -5.460   5.172   3.110  0.00  0.00     0.143 A 
ATOM      2  C2  UNL d   1      -6.000   6.000   4.101  0.00  0.00    -0.057 A 
ATOM      3  C3  UNL d   1      -5.554   5.931   5.427  0.00  0.00     0.033 A 
ATOM      4  C4  UNL d   1      -4.578   5.010   5.792  0.00  0.00    -0.042 A 
ATOM      5  C5  UNL d   1      -4.045   4.160   4.829  0.00  0.00     0.033 A 
ATOM      6  C6  UNL d   1      -4.489   4.238   3.505  0.00  0.00    -0.057 A 
ENDROOT
BRANCH   1   7
ATOM      7  N   UNL d   1      -5.930   5.124   1.796  0.00  0.00    -0.732 N 
ATOM      8  C   UNL d   1      -5.328   5.947   0.768  0.00  0.00     0.284 C 
ATOM      9  H3  UNL d   1      -6.148   4.177   1.495  0.00  0.00     0.395 HD
ENDBRANCH   1   7
TORSDOF 1
ENDMDL
