MODEL 1
REMARK minimizedAffinity -2.45357561
REMARK minimizedRMSD -1
REMARK  1 active torsions:
REMARK  status: ('A' for Active; 'I' for Inactive)
REMARK    1  A    between atoms: N_2  and  C1_3 
ROOT
ATOM      1  C1  UNL d   1      -5.418   4.892   3.240  0.00  0.00     0.143 A 
ATOM      2  C2  UNL d   1      -4.787   3.797   3.840  0.00  0.00    -0.057 A 
ATOM      3  C3  UNL d   1      -4.496   3.788   5.209  0.00  0.00     0.033 A 
ATOM      4  C4  UNL d   1      -4.805   4.890   6.000  0.00  0.00    -0.042 A 
ATOM      5  C5  UNL d   1      -5.409   5.999   5.420  0.00  0.00     0.033 A 
ATOM      6  C6  UNL d   1      -5.704   6.000   4.053  0.00  0.00    -0.057 A 
ENDROOT
BRANCH   1   7
ATOM      7  N   UNL d   1      -5.645   5.002   1.866  0.00  0.00    -0.732 N 
ATOM      8  C   UNL d   1      -4.930   5.981   1.076  0.00  0.00     0.284 C 
ATOM      9  H3  UNL d   1      -5.744   4.095   1.415  0.00  0.00     0.395 HD
ENDBRANCH   1   7
TORSDOF 1
ENDMDL
