MODEL 1
REMARK minimizedAffinity 2.30302596
REMARK minimizedRMSD -1
REMARK  0 active torsions:
REMARK  status: ('A' for Active; 'I' for Inactive)
ROOT
ATOM      1  C4' PXY d   1      -0.890  -3.152  -3.226  0.00  0.00     0.077 C 
ATOM      2  C1' PXY d   1      -1.760   2.553  -2.895  0.00  0.00     0.077 C 
ATOM      3  C1  PXY d   1      -1.542   1.055  -2.974  0.00  0.00    -0.082 A 
ATOM      4  C2  PXY d   1      -0.339   0.583  -3.258  0.00  0.00     0.003 A 
ATOM      5  C3  PXY d   1      -0.132  -0.768  -3.365  0.00  0.00     0.003 A 
ATOM      6  C4  PXY d   1      -1.154  -1.647  -3.126  0.00  0.00    -0.082 A 
ATOM      7  C5  PXY d   1      -2.382  -1.174  -2.826  0.00  0.00     0.003 A 
ATOM      8  C6  PXY d   1      -2.581   0.203  -2.762  0.00  0.00     0.003 A 
ENDROOT
TORSDOF 0
ENDMDL
