MODEL 1
REMARK minimizedAffinity 7.44691753
REMARK minimizedRMSD -1
REMARK  0 active torsions:
REMARK  status: ('A' for Active; 'I' for Inactive)
ROOT
ATOM      1  C4' PXY d   1      -4.104   1.370  -2.155  0.00  0.00     0.077 C 
ATOM      2  C1' PXY d   1      -5.540   5.542  -5.890  0.00  0.00     0.077 C 
ATOM      3  C1  PXY d   1      -5.151   4.450  -4.912  0.00  0.00    -0.082 A 
ATOM      4  C2  PXY d   1      -5.998   3.465  -4.661  0.00  0.00     0.003 A 
ATOM      5  C3  PXY d   1      -5.675   2.487  -3.756  0.00  0.00     0.003 A 
ATOM      6  C4  PXY d   1      -4.451   2.489  -3.141  0.00  0.00    -0.082 A 
ATOM      7  C5  PXY d   1      -3.577   3.485  -3.401  0.00  0.00     0.003 A 
ATOM      8  C6  PXY d   1      -3.941   4.490  -4.292  0.00  0.00     0.003 A 
ENDROOT
TORSDOF 0
ENDMDL
