MODEL 1
REMARK minimizedAffinity 8.66165447
REMARK minimizedRMSD -1
REMARK  0 active torsions:
REMARK  status: ('A' for Active; 'I' for Inactive)
ROOT
ATOM      1  C4' PXY d   1       6.000  -2.310  -1.350  0.00  0.00     0.077 C 
ATOM      2  C1' PXY d   1       3.220  -6.000  -4.824  0.00  0.00     0.077 C 
ATOM      3  C1  PXY d   1       3.960  -5.034  -3.920  0.00  0.00    -0.082 A 
ATOM      4  C2  PXY d   1       3.517  -4.818  -2.692  0.00  0.00     0.003 A 
ATOM      5  C3  PXY d   1       4.156  -3.924  -1.872  0.00  0.00     0.003 A 
ATOM      6  C4  PXY d   1       5.290  -3.284  -2.295  0.00  0.00    -0.082 A 
ATOM      7  C5  PXY d   1       5.754  -3.507  -3.542  0.00  0.00     0.003 A 
ATOM      8  C6  PXY d   1       5.068  -4.387  -4.374  0.00  0.00     0.003 A 
ENDROOT
TORSDOF 0
ENDMDL
