MODEL 1
REMARK minimizedAffinity 1.0766387
REMARK minimizedRMSD -1
REMARK  0 active torsions:
REMARK  status: ('A' for Active; 'I' for Inactive)
ROOT
ATOM      1  C4' PXY d   1      -0.014  -5.371  -1.510  0.00  0.00     0.077 C 
ATOM      2  C1' PXY d   1      -0.070   0.175  -3.138  0.00  0.00     0.077 C 
ATOM      3  C1  PXY d   1      -0.067  -1.281  -2.716  0.00  0.00    -0.082 A 
ATOM      4  C2  PXY d   1       0.673  -1.663  -1.687  0.00  0.00     0.003 A 
ATOM      5  C3  PXY d   1       0.712  -2.981  -1.313  0.00  0.00     0.003 A 
ATOM      6  C4  PXY d   1      -0.055  -3.910  -1.965  0.00  0.00    -0.082 A 
ATOM      7  C5  PXY d   1      -0.820  -3.526  -3.008  0.00  0.00     0.003 A 
ATOM      8  C6  PXY d   1      -0.814  -2.190  -3.399  0.00  0.00     0.003 A 
ENDROOT
TORSDOF 0
ENDMDL
