MODEL 1
REMARK minimizedAffinity 7.11717558
REMARK minimizedRMSD -1
REMARK  0 active torsions:
REMARK  status: ('A' for Active; 'I' for Inactive)
ROOT
ATOM      1  C4' PXY d   1       2.307   5.998  -2.085  0.00  0.00     0.077 C 
ATOM      2  C1' PXY d   1      -1.191   2.931   1.345  0.00  0.00     0.077 C 
ATOM      3  C1  PXY d   1      -0.264   3.734   0.454  0.00  0.00    -0.082 A 
ATOM      4  C2  PXY d   1      -0.772   4.597  -0.410  0.00  0.00     0.003 A 
ATOM      5  C3  PXY d   1       0.050   5.309  -1.245  0.00  0.00     0.003 A 
ATOM      6  C4  PXY d   1       1.410   5.173  -1.159  0.00  0.00    -0.082 A 
ATOM      7  C5  PXY d   1       1.937   4.301  -0.274  0.00  0.00     0.003 A 
ATOM      8  C6  PXY d   1       1.083   3.559   0.537  0.00  0.00     0.003 A 
ENDROOT
TORSDOF 0
ENDMDL
