MODEL 1
REMARK minimizedAffinity 12.751874
REMARK minimizedRMSD -1
REMARK  0 active torsions:
REMARK  status: ('A' for Active; 'I' for Inactive)
ROOT
ATOM      1  C4' PXY d   1      -2.218  -1.916  -3.783  0.00  0.00     0.077 C 
ATOM      2  C1' PXY d   1      -4.519   2.284  -0.546  0.00  0.00     0.077 C 
ATOM      3  C1  PXY d   1      -3.909   1.191  -1.402  0.00  0.00    -0.082 A 
ATOM      4  C2  PXY d   1      -4.537   0.033  -1.530  0.00  0.00     0.003 A 
ATOM      5  C3  PXY d   1      -3.983  -0.977  -2.274  0.00  0.00     0.003 A 
ATOM      6  C4  PXY d   1      -2.802  -0.781  -2.937  0.00  0.00    -0.082 A 
ATOM      7  C5  PXY d   1      -2.161   0.401  -2.820  0.00  0.00     0.003 A 
ATOM      8  C6  PXY d   1      -2.719   1.399  -2.027  0.00  0.00     0.003 A 
ENDROOT
TORSDOF 0
ENDMDL
