MODEL 1
REMARK minimizedAffinity 5.73326683
REMARK minimizedRMSD -1
REMARK  0 active torsions:
REMARK  status: ('A' for Active; 'I' for Inactive)
ROOT
ATOM      1  C4' PXY d   1       5.655  -3.373  -2.847  0.00  0.00     0.077 C 
ATOM      2  C1' PXY d   1       2.941  -0.926   1.633  0.00  0.00     0.077 C 
ATOM      3  C1  PXY d   1       3.662  -1.572   0.466  0.00  0.00    -0.082 A 
ATOM      4  C2  PXY d   1       3.482  -1.100  -0.757  0.00  0.00     0.003 A 
ATOM      5  C3  PXY d   1       4.101  -1.693  -1.827  0.00  0.00     0.003 A 
ATOM      6  C4  PXY d   1       4.955  -2.746  -1.638  0.00  0.00    -0.082 A 
ATOM      7  C5  PXY d   1       5.153  -3.226  -0.392  0.00  0.00     0.003 A 
ATOM      8  C6  PXY d   1       4.483  -2.637   0.676  0.00  0.00     0.003 A 
ENDROOT
TORSDOF 0
ENDMDL
