MODEL 1
REMARK minimizedAffinity 8.30977821
REMARK minimizedRMSD -1
REMARK  0 active torsions:
REMARK  status: ('A' for Active; 'I' for Inactive)
ROOT
ATOM      1  C4' PXY d   1       2.618   6.000  -2.435  0.00  0.00     0.077 C 
ATOM      2  C1' PXY d   1      -0.788   4.196   1.873  0.00  0.00     0.077 C 
ATOM      3  C1  PXY d   1       0.116   4.666   0.750  0.00  0.00    -0.082 A 
ATOM      4  C2  PXY d   1      -0.317   5.586  -0.096  0.00  0.00     0.003 A 
ATOM      5  C3  PXY d   1       0.476   5.999  -1.136  0.00  0.00     0.003 A 
ATOM      6  C4  PXY d   1       1.744   5.503  -1.280  0.00  0.00    -0.082 A 
ATOM      7  C5  PXY d   1       2.196   4.571  -0.415  0.00  0.00     0.003 A 
ATOM      8  C6  PXY d   1       1.361   4.135   0.610  0.00  0.00     0.003 A 
ENDROOT
TORSDOF 0
ENDMDL
