MODEL 1
REMARK minimizedAffinity 6.23162889
REMARK minimizedRMSD -1
REMARK  0 active torsions:
REMARK  status: ('A' for Active; 'I' for Inactive)
ROOT
ATOM      1  C4' PXY d   1       0.123   3.055   0.521  0.00  0.00     0.077 C 
ATOM      2  C1' PXY d   1      -0.133  -0.057  -4.343  0.00  0.00     0.077 C 
ATOM      3  C1  PXY d   1      -0.074   0.768  -3.073  0.00  0.00    -0.082 A 
ATOM      4  C2  PXY d   1       0.978   0.668  -2.276  0.00  0.00     0.003 A 
ATOM      5  C3  PXY d   1       1.033   1.382  -1.107  0.00  0.00     0.003 A 
ATOM      6  C4  PXY d   1       0.025   2.249  -0.777  0.00  0.00    -0.082 A 
ATOM      7  C5  PXY d   1      -1.046   2.365  -1.590  0.00  0.00     0.003 A 
ATOM      8  C6  PXY d   1      -1.101   1.600  -2.751  0.00  0.00     0.003 A 
ENDROOT
TORSDOF 0
ENDMDL
