MODEL 1
REMARK minimizedAffinity 4.78690147
REMARK minimizedRMSD -1
REMARK  0 active torsions:
REMARK  status: ('A' for Active; 'I' for Inactive)
ROOT
ATOM      1  C4' PXY d   1       2.916  -2.644   0.129  0.00  0.00     0.077 C 
ATOM      2  C1' PXY d   1       5.935  -5.282  -4.035  0.00  0.00     0.077 C 
ATOM      3  C1  PXY d   1       5.154  -4.584  -2.939  0.00  0.00    -0.082 A 
ATOM      4  C2  PXY d   1       4.025  -5.116  -2.500  0.00  0.00     0.003 A 
ATOM      5  C3  PXY d   1       3.289  -4.482  -1.532  0.00  0.00     0.003 A 
ATOM      6  C4  PXY d   1       3.742  -3.319  -0.969  0.00  0.00    -0.082 A 
ATOM      7  C5  PXY d   1       4.899  -2.775  -1.403  0.00  0.00     0.003 A 
ATOM      8  C6  PXY d   1       5.610  -3.413  -2.416  0.00  0.00     0.003 A 
ENDROOT
TORSDOF 0
ENDMDL
