MODEL 1
REMARK minimizedAffinity 3.394207
REMARK minimizedRMSD -1
REMARK  0 active torsions:
REMARK  status: ('A' for Active; 'I' for Inactive)
ROOT
ATOM      1  C4' PXY d   1       4.512  -5.998   0.317  0.00  0.00     0.077 C 
ATOM      2  C1' PXY d   1       5.993  -2.641  -4.150  0.00  0.00     0.077 C 
ATOM      3  C1  PXY d   1       5.594  -3.526  -2.985  0.00  0.00    -0.082 A 
ATOM      4  C2  PXY d   1       6.000  -3.221  -1.763  0.00  0.00     0.003 A 
ATOM      5  C3  PXY d   1       5.675  -4.027  -0.703  0.00  0.00     0.003 A 
ATOM      6  C4  PXY d   1       4.883  -5.129  -0.888  0.00  0.00    -0.082 A 
ATOM      7  C5  PXY d   1       4.456  -5.440  -2.130  0.00  0.00     0.003 A 
ATOM      8  C6  PXY d   1       4.831  -4.631  -3.199  0.00  0.00     0.003 A 
ENDROOT
TORSDOF 0
ENDMDL
