MODEL 1
REMARK minimizedAffinity 2.69958639
REMARK minimizedRMSD -1
REMARK  0 active torsions:
REMARK  status: ('A' for Active; 'I' for Inactive)
ROOT
ATOM      1  C4' PXY d   1       0.889   2.294   0.645  0.00  0.00     0.077 C 
ATOM      2  C1' PXY d   1       0.754  -2.503  -2.578  0.00  0.00     0.077 C 
ATOM      3  C1  PXY d   1       0.787  -1.252  -1.722  0.00  0.00    -0.082 A 
ATOM      4  C2  PXY d   1       0.584  -0.071  -2.283  0.00  0.00     0.003 A 
ATOM      5  C3  PXY d   1       0.642   1.073  -1.529  0.00  0.00     0.003 A 
ATOM      6  C4  PXY d   1       0.856   1.003  -0.179  0.00  0.00    -0.082 A 
ATOM      7  C5  PXY d   1       1.053  -0.199   0.402  0.00  0.00     0.003 A 
ATOM      8  C6  PXY d   1       1.032  -1.345  -0.387  0.00  0.00     0.003 A 
ENDROOT
TORSDOF 0
ENDMDL
