MODEL 1
REMARK minimizedAffinity 8.68464947
REMARK minimizedRMSD -1
REMARK  0 active torsions:
REMARK  status: ('A' for Active; 'I' for Inactive)
ROOT
ATOM      1  C4' PXY d   1      -2.100   1.476   1.167  0.00  0.00     0.077 C 
ATOM      2  C1' PXY d   1       2.108   4.740  -1.080  0.00  0.00     0.077 C 
ATOM      3  C1  PXY d   1       0.997   3.886  -0.502  0.00  0.00    -0.082 A 
ATOM      4  C2  PXY d   1       0.920   3.713   0.808  0.00  0.00     0.003 A 
ATOM      5  C3  PXY d   1      -0.059   2.918   1.346  0.00  0.00     0.003 A 
ATOM      6  C4  PXY d   1      -1.001   2.337   0.539  0.00  0.00    -0.082 A 
ATOM      7  C5  PXY d   1      -0.936   2.518  -0.797  0.00  0.00     0.003 A 
ATOM      8  C6  PXY d   1       0.091   3.296  -1.327  0.00  0.00     0.003 A 
ENDROOT
TORSDOF 0
ENDMDL
