MODEL 1
REMARK minimizedAffinity 10.7059221
REMARK minimizedRMSD -1
REMARK  0 active torsions:
REMARK  status: ('A' for Active; 'I' for Inactive)
ROOT
ATOM      1  C4' PXY d   1      -1.540   2.030   0.174  0.00  0.00     0.077 C 
ATOM      2  C1' PXY d   1       3.055  -1.424  -0.430  0.00  0.00     0.077 C 
ATOM      3  C1  PXY d   1       1.855  -0.511  -0.281  0.00  0.00    -0.082 A 
ATOM      4  C2  PXY d   1       1.196  -0.478   0.865  0.00  0.00     0.003 A 
ATOM      5  C3  PXY d   1       0.089   0.318   1.007  0.00  0.00     0.003 A 
ATOM      6  C4  PXY d   1      -0.316   1.130  -0.019  0.00  0.00    -0.082 A 
ATOM      7  C5  PXY d   1       0.357   1.111  -1.188  0.00  0.00     0.003 A 
ATOM      8  C6  PXY d   1       1.454   0.264  -1.325  0.00  0.00     0.003 A 
ENDROOT
TORSDOF 0
ENDMDL
