MODEL 1
REMARK minimizedAffinity 4.5484972
REMARK minimizedRMSD -1
REMARK  0 active torsions:
REMARK  status: ('A' for Active; 'I' for Inactive)
ROOT
ATOM      1  C2' OXE d   1      -1.885   1.804   0.001  0.00  0.00     0.078 C 
ATOM      2  C1' OXE d   1      -3.384  -0.382  -0.924  0.00  0.00     0.078 C 
ATOM      3  C1  OXE d   1      -2.262   0.121  -1.797  0.00  0.00    -0.078 A 
ATOM      4  C2  OXE d   1      -1.563   1.221  -1.358  0.00  0.00    -0.078 A 
ATOM      5  C3  OXE d   1      -0.483   1.692  -2.098  0.00  0.00     0.003 A 
ATOM      6  C4  OXE d   1      -0.199   1.153  -3.359  0.00  0.00    -0.002 A 
ATOM      7  C5  OXE d   1      -0.923   0.058  -3.843  0.00  0.00    -0.002 A 
ATOM      8  C6  OXE d   1      -1.928  -0.495  -3.057  0.00  0.00     0.003 A 
ENDROOT
TORSDOF 0
ENDMDL
