MODEL 1
REMARK minimizedAffinity 6.89300919
REMARK minimizedRMSD -1
REMARK  0 active torsions:
REMARK  status: ('A' for Active; 'I' for Inactive)
ROOT
ATOM      1  C2' OXE d   1      -0.732   2.582   0.858  0.00  0.00     0.078 C 
ATOM      2  C1' OXE d   1       1.322   0.757   0.280  0.00  0.00     0.078 C 
ATOM      3  C1  OXE d   1       0.539   0.555   1.553  0.00  0.00    -0.078 A 
ATOM      4  C2  OXE d   1      -0.433   1.480   1.852  0.00  0.00    -0.078 A 
ATOM      5  C3  OXE d   1      -1.222   1.310   2.986  0.00  0.00     0.003 A 
ATOM      6  C4  OXE d   1      -0.933   0.293   3.904  0.00  0.00    -0.002 A 
ATOM      7  C5  OXE d   1       0.079  -0.636   3.640  0.00  0.00    -0.002 A 
ATOM      8  C6  OXE d   1       0.794  -0.545   2.451  0.00  0.00     0.003 A 
ENDROOT
TORSDOF 0
ENDMDL
