MODEL 1
REMARK minimizedAffinity 13.0920448
REMARK minimizedRMSD -1
REMARK  0 active torsions:
REMARK  status: ('A' for Active; 'I' for Inactive)
ROOT
ATOM      1  C2' OXE d   1       1.967   2.838   1.666  0.00  0.00     0.078 C 
ATOM      2  C1' OXE d   1       2.256   4.748  -0.371  0.00  0.00     0.078 C 
ATOM      3  C1  OXE d   1       0.966   3.968  -0.316  0.00  0.00    -0.078 A 
ATOM      4  C2  OXE d   1       0.852   3.003   0.656  0.00  0.00    -0.078 A 
ATOM      5  C3  OXE d   1      -0.338   2.293   0.786  0.00  0.00     0.003 A 
ATOM      6  C4  OXE d   1      -1.360   2.444  -0.159  0.00  0.00    -0.002 A 
ATOM      7  C5  OXE d   1      -1.248   3.394  -1.180  0.00  0.00    -0.002 A 
ATOM      8  C6  OXE d   1      -0.112   4.192  -1.247  0.00  0.00     0.003 A 
ENDROOT
TORSDOF 0
ENDMDL
