MODEL 1
REMARK minimizedAffinity 5.8114357
REMARK minimizedRMSD -1
REMARK  0 active torsions:
REMARK  status: ('A' for Active; 'I' for Inactive)
ROOT
ATOM      1  C2' OXE d   1      -1.071   4.545  -0.054  0.00  0.00     0.078 C 
ATOM      2  C1' OXE d   1      -0.090   2.524   1.630  0.00  0.00     0.078 C 
ATOM      3  C1  OXE d   1      -0.161   2.235   0.151  0.00  0.00    -0.078 A 
ATOM      4  C2  OXE d   1      -0.685   3.213  -0.660  0.00  0.00    -0.078 A 
ATOM      5  C3  OXE d   1      -0.722   3.019  -2.038  0.00  0.00     0.003 A 
ATOM      6  C4  OXE d   1      -0.373   1.780  -2.589  0.00  0.00    -0.002 A 
ATOM      7  C5  OXE d   1       0.126   0.757  -1.776  0.00  0.00    -0.002 A 
ATOM      8  C6  OXE d   1       0.278   0.983  -0.413  0.00  0.00     0.003 A 
ENDROOT
TORSDOF 0
ENDMDL
