MODEL 1
REMARK minimizedAffinity 12.3187437
REMARK minimizedRMSD -1
REMARK  0 active torsions:
REMARK  status: ('A' for Active; 'I' for Inactive)
ROOT
ATOM      1  C2' OXE d   1      -0.796  -0.025  -3.225  0.00  0.00     0.078 C 
ATOM      2  C1' OXE d   1      -3.104  -0.278  -1.647  0.00  0.00     0.078 C 
ATOM      3  C1  OXE d   1      -2.063   0.725  -1.216  0.00  0.00    -0.078 A 
ATOM      4  C2  OXE d   1      -0.916   0.809  -1.968  0.00  0.00    -0.078 A 
ATOM      5  C3  OXE d   1       0.051   1.756  -1.646  0.00  0.00     0.003 A 
ATOM      6  C4  OXE d   1      -0.063   2.516  -0.475  0.00  0.00    -0.002 A 
ATOM      7  C5  OXE d   1      -1.205   2.418   0.326  0.00  0.00    -0.002 A 
ATOM      8  C6  OXE d   1      -2.232   1.560  -0.052  0.00  0.00     0.003 A 
ENDROOT
TORSDOF 0
ENDMDL
