MODEL 1
REMARK minimizedAffinity 0.543304324
REMARK minimizedRMSD -1
REMARK  0 active torsions:
REMARK  status: ('A' for Active; 'I' for Inactive)
ROOT
ATOM      1  C2' OXE d   1      -0.889   0.517  -1.728  0.00  0.00     0.078 C 
ATOM      2  C1' OXE d   1      -0.946   3.183  -2.606  0.00  0.00     0.078 C 
ATOM      3  C1  OXE d   1      -0.646   2.928  -1.150  0.00  0.00    -0.078 A 
ATOM      4  C2  OXE d   1      -0.666   1.623  -0.720  0.00  0.00    -0.078 A 
ATOM      5  C3  OXE d   1      -0.342   1.328   0.602  0.00  0.00     0.003 A 
ATOM      6  C4  OXE d   1      -0.147   2.358   1.530  0.00  0.00    -0.002 A 
ATOM      7  C5  OXE d   1      -0.162   3.695   1.121  0.00  0.00    -0.002 A 
ATOM      8  C6  OXE d   1      -0.367   3.995  -0.221  0.00  0.00     0.003 A 
ENDROOT
TORSDOF 0
ENDMDL
