MODEL 1
REMARK minimizedAffinity 2.02223063
REMARK minimizedRMSD -1
REMARK  0 active torsions:
REMARK  status: ('A' for Active; 'I' for Inactive)
ROOT
ATOM      1  C2' OXE d   1      -0.142   0.315  -1.674  0.00  0.00     0.078 C 
ATOM      2  C1' OXE d   1      -1.001   2.926  -2.244  0.00  0.00     0.078 C 
ATOM      3  C1  OXE d   1      -0.748   2.568  -0.801  0.00  0.00    -0.078 A 
ATOM      4  C2  OXE d   1      -0.373   1.274  -0.527  0.00  0.00    -0.078 A 
ATOM      5  C3  OXE d   1      -0.074   0.906   0.782  0.00  0.00     0.003 A 
ATOM      6  C4  OXE d   1      -0.299   1.796   1.838  0.00  0.00    -0.002 A 
ATOM      7  C5  OXE d   1      -0.719   3.107   1.585  0.00  0.00    -0.002 A 
ATOM      8  C6  OXE d   1      -0.906   3.520   0.270  0.00  0.00     0.003 A 
ENDROOT
TORSDOF 0
ENDMDL
