MODEL 1
REMARK minimizedAffinity 8.77390957
REMARK minimizedRMSD -1
REMARK  0 active torsions:
REMARK  status: ('A' for Active; 'I' for Inactive)
ROOT
ATOM      1  C2' OXE d   1       2.165   0.051   0.913  0.00  0.00     0.078 C 
ATOM      2  C1' OXE d   1       0.881  -0.953   3.198  0.00  0.00     0.078 C 
ATOM      3  C1  OXE d   1       0.384   0.352   2.629  0.00  0.00    -0.078 A 
ATOM      4  C2  OXE d   1       1.049   0.860   1.538  0.00  0.00    -0.078 A 
ATOM      5  C3  OXE d   1       0.598   2.033   0.941  0.00  0.00     0.003 A 
ATOM      6  C4  OXE d   1      -0.429   2.780   1.532  0.00  0.00    -0.002 A 
ATOM      7  C5  OXE d   1      -1.093   2.301   2.666  0.00  0.00    -0.002 A 
ATOM      8  C6  OXE d   1      -0.728   1.071   3.201  0.00  0.00     0.003 A 
ENDROOT
TORSDOF 0
ENDMDL
