MODEL 1
REMARK minimizedAffinity -0.980754137
REMARK minimizedRMSD -1
REMARK  0 active torsions:
REMARK  status: ('A' for Active; 'I' for Inactive)
ROOT
ATOM      1  C2' OXE d   1       1.500   0.375  -0.310  0.00  0.00     0.078 C 
ATOM      2  C1' OXE d   1      -0.485   2.328  -0.662  0.00  0.00     0.078 C 
ATOM      3  C1  OXE d   1      -0.375   1.674   0.692  0.00  0.00    -0.078 A 
ATOM      4  C2  OXE d   1       0.569   0.686   0.842  0.00  0.00    -0.078 A 
ATOM      5  C3  OXE d   1       0.750   0.088   2.086  0.00  0.00     0.003 A 
ATOM      6  C4  OXE d   1      -0.122   0.375   3.143  0.00  0.00    -0.002 A 
ATOM      7  C5  OXE d   1      -1.116   1.349   3.000  0.00  0.00    -0.002 A 
ATOM      8  C6  OXE d   1      -1.228   2.037   1.797  0.00  0.00     0.003 A 
ENDROOT
TORSDOF 0
ENDMDL
