MODEL 1
REMARK minimizedAffinity -4.14501286
REMARK minimizedRMSD -1
REMARK  0 active torsions:
REMARK  status: ('A' for Active; 'I' for Inactive)
ROOT
ATOM      1  N1  IND d   1      -0.367  -0.669   0.413  0.00  0.00    -0.196 N 
ATOM      2  C2  IND d   1      -0.377   0.698   0.364  0.00  0.00     0.054 A 
ATOM      3  C3  IND d   1       0.617   1.146  -0.435  0.00  0.00    -0.031 A 
ATOM      4  C4  IND d   1       2.313  -0.186  -1.842  0.00  0.00     0.051 A 
ATOM      5  C5  IND d   1       2.737  -1.460  -2.095  0.00  0.00    -0.031 A 
ATOM      6  C6  IND d   1       2.135  -2.558  -1.515  0.00  0.00     0.015 A 
ATOM      7  C7  IND d   1       1.073  -2.422  -0.666  0.00  0.00    -0.016 A 
ATOM      8  C8  IND d   1       0.644  -1.130  -0.402  0.00  0.00    -0.047 A 
ATOM      9  C9  IND d   1       1.278  -0.009  -0.954  0.00  0.00    -0.096 A 
ATOM     10  HN1 IND d   1      -0.903  -1.158   0.874  0.00  0.00     0.298 HD
ENDROOT
TORSDOF 0
ENDMDL
