MODEL 1
REMARK minimizedAffinity -3.4797709
REMARK minimizedRMSD -1
REMARK  0 active torsions:
REMARK  status: ('A' for Active; 'I' for Inactive)
ROOT
ATOM      1  N1  IND d   1      -0.425   1.334  -0.835  0.00  0.00    -0.196 N 
ATOM      2  C2  IND d   1       0.730   1.083  -0.148  0.00  0.00     0.054 A 
ATOM      3  C3  IND d   1       0.449   0.665   1.107  0.00  0.00    -0.031 A 
ATOM      4  C4  IND d   1      -1.834   0.221   2.211  0.00  0.00     0.051 A 
ATOM      5  C5  IND d   1      -3.177   0.340   1.992  0.00  0.00    -0.031 A 
ATOM      6  C6  IND d   1      -3.682   0.803   0.794  0.00  0.00     0.015 A 
ATOM      7  C7  IND d   1      -2.859   1.155  -0.238  0.00  0.00    -0.016 A 
ATOM      8  C8  IND d   1      -1.494   1.043  -0.016  0.00  0.00    -0.047 A 
ATOM      9  C9  IND d   1      -0.974   0.614   1.212  0.00  0.00    -0.096 A 
ATOM     10  HN1 IND d   1      -0.475   1.625  -1.642  0.00  0.00     0.298 HD
ENDROOT
TORSDOF 0
ENDMDL
