MODEL 1
REMARK minimizedAffinity -5.90550947
REMARK minimizedRMSD -1
REMARK  0 active torsions:
REMARK  status: ('A' for Active; 'I' for Inactive)
ROOT
ATOM      1  N1  IND d   1       0.203  -0.948   0.500  0.00  0.00    -0.196 N 
ATOM      2  C2  IND d   1       0.219   0.285   1.092  0.00  0.00     0.054 A 
ATOM      3  C3  IND d   1       0.884   1.170   0.317  0.00  0.00    -0.031 A 
ATOM      4  C4  IND d   1       1.940   0.840  -2.007  0.00  0.00     0.051 A 
ATOM      5  C5  IND d   1       2.211  -0.121  -2.941  0.00  0.00    -0.031 A 
ATOM      6  C6  IND d   1       1.816  -1.433  -2.773  0.00  0.00     0.015 A 
ATOM      7  C7  IND d   1       1.123  -1.831  -1.665  0.00  0.00    -0.016 A 
ATOM      8  C8  IND d   1       0.852  -0.860  -0.712  0.00  0.00    -0.047 A 
ATOM      9  C9  IND d   1       1.287   0.464  -0.857  0.00  0.00    -0.096 A 
ATOM     10  HN1 IND d   1      -0.152  -1.658   0.829  0.00  0.00     0.298 HD
ENDROOT
TORSDOF 0
ENDMDL
