MODEL 1
REMARK minimizedAffinity -2.14903474
REMARK minimizedRMSD -1
REMARK  0 active torsions:
REMARK  status: ('A' for Active; 'I' for Inactive)
ROOT
ATOM      1  N1  IND d   1      -1.160   1.378   1.458  0.00  0.00    -0.196 N 
ATOM      2  C2  IND d   1      -1.466   0.122   1.903  0.00  0.00     0.054 A 
ATOM      3  C3  IND d   1      -0.785  -0.807   1.195  0.00  0.00    -0.031 A 
ATOM      4  C4  IND d   1       0.960  -0.486  -0.670  0.00  0.00     0.051 A 
ATOM      5  C5  IND d   1       1.545   0.476  -1.444  0.00  0.00    -0.031 A 
ATOM      6  C6  IND d   1       1.254   1.816  -1.286  0.00  0.00     0.015 A 
ATOM      7  C7  IND d   1       0.372   2.245  -0.335  0.00  0.00    -0.016 A 
ATOM      8  C8  IND d   1      -0.229   1.270   0.448  0.00  0.00    -0.047 A 
ATOM      9  C9  IND d   1       0.031  -0.094   0.264  0.00  0.00    -0.096 A 
ATOM     10  HN1 IND d   1      -1.493   2.111   1.758  0.00  0.00     0.298 HD
ENDROOT
TORSDOF 0
ENDMDL
