MODEL 1
REMARK minimizedAffinity -2.63634205
REMARK minimizedRMSD -1
REMARK  0 active torsions:
REMARK  status: ('A' for Active; 'I' for Inactive)
ROOT
ATOM      1  N1  IND d   1       1.475  -2.589  -0.635  0.00  0.00    -0.196 N 
ATOM      2  C2  IND d   1       2.540  -2.797  -1.468  0.00  0.00     0.054 A 
ATOM      3  C3  IND d   1       2.972  -1.623  -1.981  0.00  0.00    -0.031 A 
ATOM      4  C4  IND d   1       2.145   0.770  -1.512  0.00  0.00     0.051 A 
ATOM      5  C5  IND d   1       1.171   1.462  -0.849  0.00  0.00    -0.031 A 
ATOM      6  C6  IND d   1       0.231   0.827  -0.063  0.00  0.00     0.015 A 
ATOM      7  C7  IND d   1       0.238  -0.529   0.099  0.00  0.00    -0.016 A 
ATOM      8  C8  IND d   1       1.221  -1.237  -0.578  0.00  0.00    -0.047 A 
ATOM      9  C9  IND d   1       2.151  -0.602  -1.411  0.00  0.00    -0.096 A 
ATOM     10  HN1 IND d   1       1.038  -3.201  -0.218  0.00  0.00     0.298 HD
ENDROOT
TORSDOF 0
ENDMDL
