MODEL 1
REMARK minimizedAffinity -0.483629465
REMARK minimizedRMSD -1
REMARK  0 active torsions:
REMARK  status: ('A' for Active; 'I' for Inactive)
ROOT
ATOM      1  N1  IND d   1       0.011  -2.058   0.757  0.00  0.00    -0.196 N 
ATOM      2  C2  IND d   1       0.395  -3.009  -0.146  0.00  0.00     0.054 A 
ATOM      3  C3  IND d   1       1.171  -2.460  -1.107  0.00  0.00    -0.031 A 
ATOM      4  C4  IND d   1       2.020  -0.041  -1.339  0.00  0.00     0.051 A 
ATOM      5  C5  IND d   1       1.905   1.200  -0.777  0.00  0.00    -0.031 A 
ATOM      6  C6  IND d   1       1.140   1.422   0.349  0.00  0.00     0.015 A 
ATOM      7  C7  IND d   1       0.467   0.405   0.965  0.00  0.00    -0.016 A 
ATOM      8  C8  IND d   1       0.575  -0.855   0.393  0.00  0.00    -0.047 A 
ATOM      9  C9  IND d   1       1.316  -1.078  -0.775  0.00  0.00    -0.096 A 
ATOM     10  HN1 IND d   1      -0.498  -2.188   1.438  0.00  0.00     0.298 HD
ENDROOT
TORSDOF 0
ENDMDL
