MODEL 1
REMARK minimizedAffinity -3.98608661
REMARK minimizedRMSD -1
REMARK  0 active torsions:
REMARK  status: ('A' for Active; 'I' for Inactive)
ROOT
ATOM      1  N1  IND d   1      -6.000   4.685  -5.926  0.00  0.00    -0.196 N 
ATOM      2  C2  IND d   1      -5.005   5.620  -5.997  0.00  0.00     0.054 A 
ATOM      3  C3  IND d   1      -3.793   5.022  -5.958  0.00  0.00    -0.031 A 
ATOM      4  C4  IND d   1      -3.208   2.516  -5.882  0.00  0.00     0.051 A 
ATOM      5  C5  IND d   1      -3.779   1.280  -5.769  0.00  0.00    -0.031 A 
ATOM      6  C6  IND d   1      -5.147   1.112  -5.704  0.00  0.00     0.015 A 
ATOM      7  C7  IND d   1      -5.999   2.178  -5.761  0.00  0.00    -0.016 A 
ATOM      8  C8  IND d   1      -5.423   3.435  -5.869  0.00  0.00    -0.047 A 
ATOM      9  C9  IND d   1      -4.034   3.616  -5.893  0.00  0.00    -0.096 A 
ATOM     10  HN1 IND d   1      -6.844   4.850  -5.918  0.00  0.00     0.298 HD
ENDROOT
TORSDOF 0
ENDMDL
