MODEL 1
REMARK minimizedAffinity -4.14645052
REMARK minimizedRMSD -1
REMARK  0 active torsions:
REMARK  status: ('A' for Active; 'I' for Inactive)
ROOT
ATOM      1  N1  IND d   1      -1.044  -0.928  -0.258  0.00  0.00    -0.196 N 
ATOM      2  C2  IND d   1      -1.193  -0.609   1.063  0.00  0.00     0.054 A 
ATOM      3  C3  IND d   1      -0.252   0.286   1.439  0.00  0.00    -0.031 A 
ATOM      4  C4  IND d   1       1.566   1.439   0.027  0.00  0.00     0.051 A 
ATOM      5  C5  IND d   1       2.117   1.443  -1.224  0.00  0.00    -0.031 A 
ATOM      6  C6  IND d   1       1.631   0.643  -2.238  0.00  0.00     0.015 A 
ATOM      7  C7  IND d   1       0.564  -0.186  -2.041  0.00  0.00    -0.016 A 
ATOM      8  C8  IND d   1       0.006  -0.199  -0.770  0.00  0.00    -0.047 A 
ATOM      9  C9  IND d   1       0.522   0.579   0.274  0.00  0.00    -0.096 A 
ATOM     10  HN1 IND d   1      -1.526  -1.490  -0.695  0.00  0.00     0.298 HD
ENDROOT
TORSDOF 0
ENDMDL
