MODEL 1
REMARK minimizedAffinity 1.3787694
REMARK minimizedRMSD -1
REMARK  0 active torsions:
REMARK  status: ('A' for Active; 'I' for Inactive)
ROOT
ATOM      1  N1  IND d   1      -3.165  -0.608   0.950  0.00  0.00    -0.196 N 
ATOM      2  C2  IND d   1      -3.611   0.364   1.800  0.00  0.00     0.054 A 
ATOM      3  C3  IND d   1      -2.618   1.241   2.074  0.00  0.00    -0.031 A 
ATOM      4  C4  IND d   1      -0.214   1.328   1.157  0.00  0.00     0.051 A 
ATOM      5  C5  IND d   1       0.668   0.633   0.379  0.00  0.00    -0.031 A 
ATOM      6  C6  IND d   1       0.309  -0.534  -0.265  0.00  0.00     0.015 A 
ATOM      7  C7  IND d   1      -0.954  -1.045  -0.162  0.00  0.00    -0.016 A 
ATOM      8  C8  IND d   1      -1.850  -0.345   0.634  0.00  0.00    -0.047 A 
ATOM      9  C9  IND d   1      -1.480   0.816   1.323  0.00  0.00    -0.096 A 
ATOM     10  HN1 IND d   1      -3.627  -1.273   0.661  0.00  0.00     0.298 HD
ENDROOT
TORSDOF 0
ENDMDL
