MODEL 1
REMARK minimizedAffinity -2.52625561
REMARK minimizedRMSD -1
REMARK  0 active torsions:
REMARK  status: ('A' for Active; 'I' for Inactive)
ROOT
ATOM      1  N1  IND d   1       0.255  -0.180   0.965  0.00  0.00    -0.196 N 
ATOM      2  C2  IND d   1       0.500   0.468  -0.213  0.00  0.00     0.054 A 
ATOM      3  C3  IND d   1      -0.642   0.995  -0.707  0.00  0.00    -0.031 A 
ATOM      4  C4  IND d   1      -3.011   1.002   0.302  0.00  0.00     0.051 A 
ATOM      5  C5  IND d   1      -3.737   0.506   1.348  0.00  0.00    -0.031 A 
ATOM      6  C6  IND d   1      -3.158  -0.258   2.340  0.00  0.00     0.015 A 
ATOM      7  C7  IND d   1      -1.823  -0.545   2.331  0.00  0.00    -0.016 A 
ATOM      8  C8  IND d   1      -1.083  -0.049   1.267  0.00  0.00    -0.047 A 
ATOM      9  C9  IND d   1      -1.673   0.691   0.234  0.00  0.00    -0.096 A 
ATOM     10  HN1 IND d   1       0.838  -0.599   1.438  0.00  0.00     0.298 HD
ENDROOT
TORSDOF 0
ENDMDL
