MODEL 1
REMARK minimizedAffinity -0.891736746
REMARK minimizedRMSD -1
REMARK  0 active torsions:
REMARK  status: ('A' for Active; 'I' for Inactive)
ROOT
ATOM      1  N1  IND d   1      -0.586  -2.039   0.805  0.00  0.00    -0.196 N 
ATOM      2  C2  IND d   1      -1.105  -1.362   1.873  0.00  0.00     0.054 A 
ATOM      3  C3  IND d   1      -0.835  -0.042   1.769  0.00  0.00    -0.031 A 
ATOM      4  C4  IND d   1       0.353   1.241  -0.121  0.00  0.00     0.051 A 
ATOM      5  C5  IND d   1       1.033   1.049  -1.291  0.00  0.00    -0.031 A 
ATOM      6  C6  IND d   1       1.210  -0.207  -1.834  0.00  0.00     0.015 A 
ATOM      7  C7  IND d   1       0.700  -1.322  -1.231  0.00  0.00    -0.016 A 
ATOM      8  C8  IND d   1       0.015  -1.132  -0.039  0.00  0.00    -0.047 A 
ATOM      9  C9  IND d   1      -0.131   0.136   0.539  0.00  0.00    -0.096 A 
ATOM     10  HN1 IND d   1      -0.628  -2.889   0.681  0.00  0.00     0.298 HD
ENDROOT
TORSDOF 0
ENDMDL
