MODEL 1
REMARK minimizedAffinity -2.3346262
REMARK minimizedRMSD -1
REMARK  0 active torsions:
REMARK  status: ('A' for Active; 'I' for Inactive)
ROOT
ATOM      1  N1  IND d   1       1.404  -2.449  -0.850  0.00  0.00    -0.196 N 
ATOM      2  C2  IND d   1       0.547  -2.917   0.108  0.00  0.00     0.054 A 
ATOM      3  C3  IND d   1       0.086  -1.897   0.865  0.00  0.00    -0.031 A 
ATOM      4  C4  IND d   1       0.526   0.631   0.647  0.00  0.00     0.051 A 
ATOM      5  C5  IND d   1       1.270   1.538  -0.053  0.00  0.00    -0.031 A 
ATOM      6  C6  IND d   1       2.111   1.155  -1.078  0.00  0.00     0.015 A 
ATOM      7  C7  IND d   1       2.232  -0.154  -1.449  0.00  0.00    -0.016 A 
ATOM      8  C8  IND d   1       1.484  -1.079  -0.735  0.00  0.00    -0.047 A 
ATOM      9  C9  IND d   1       0.660  -0.701   0.334  0.00  0.00    -0.096 A 
ATOM     10  HN1 IND d   1       1.822  -2.930  -1.427  0.00  0.00     0.298 HD
ENDROOT
TORSDOF 0
ENDMDL
