MODEL 1
REMARK minimizedAffinity -5.45702791
REMARK minimizedRMSD -1
REMARK  2 active torsions:
REMARK  status: ('A' for Active; 'I' for Inactive)
REMARK    1  A    between atoms: C2'_3  and  C1'_4 
REMARK    2  A    between atoms: C1'_4  and  C1_5 
ROOT
ATOM      1  C1  I4B d   1      -0.314  -0.730   0.718  0.00  0.00    -0.075 A 
ATOM      2  C2  I4B d   1      -0.143  -2.061   1.005  0.00  0.00     0.003 A 
ATOM      3  C3  I4B d   1      -1.179  -2.793   1.634  0.00  0.00     0.002 A 
ATOM      4  C4  I4B d   1      -2.342  -2.147   2.000  0.00  0.00    -0.004 A 
ATOM      5  C5  I4B d   1      -2.522  -0.803   1.688  0.00  0.00     0.002 A 
ATOM      6  C6  I4B d   1      -1.507  -0.092   1.031  0.00  0.00     0.003 A 
ENDROOT
BRANCH   1   7
ATOM      7  C1' I4B d   1       0.814   0.021   0.084  0.00  0.00     0.060 C 
BRANCH   7   8
ATOM      8  C2' I4B d   1       0.304   1.397  -0.294  0.00  0.00    -0.013 C 
ATOM      9  C4' I4B d   1       0.370   2.344   0.876  0.00  0.00     0.013 C 
ATOM     10  C3' I4B d   1       1.129   1.897  -1.442  0.00  0.00     0.013 C 
ENDBRANCH   7   8
ENDBRANCH   1   7
TORSDOF 2
ENDMDL
