MODEL 1
REMARK minimizedAffinity -5.56443071
REMARK minimizedRMSD -1
REMARK  2 active torsions:
REMARK  status: ('A' for Active; 'I' for Inactive)
REMARK    1  A    between atoms: C2'_3  and  C1'_4 
REMARK    2  A    between atoms: C1'_4  and  C1_5 
ROOT
ATOM      1  C1  I4B d   1       0.572   1.800  -1.370  0.00  0.00    -0.075 A 
ATOM      2  C2  I4B d   1       1.843   2.277  -1.571  0.00  0.00     0.003 A 
ATOM      3  C3  I4B d   1       2.182   2.911  -2.791  0.00  0.00     0.002 A 
ATOM      4  C4  I4B d   1       1.239   3.002  -3.794  0.00  0.00    -0.004 A 
ATOM      5  C5  I4B d   1      -0.056   2.539  -3.580  0.00  0.00     0.002 A 
ATOM      6  C6  I4B d   1      -0.395   1.945  -2.356  0.00  0.00     0.003 A 
ENDROOT
BRANCH   1   7
ATOM      7  C1' I4B d   1       0.258   1.106  -0.083  0.00  0.00     0.060 C 
BRANCH   7   8
ATOM      8  C2' I4B d   1       0.303  -0.388  -0.335  0.00  0.00    -0.013 C 
ATOM      9  C4' I4B d   1       1.376  -1.048   0.491  0.00  0.00     0.013 C 
ATOM     10  C3' I4B d   1      -1.049  -0.952  -0.017  0.00  0.00     0.013 C 
ENDBRANCH   7   8
ENDBRANCH   1   7
TORSDOF 2
ENDMDL
