MODEL 1
REMARK minimizedAffinity -3.1646347
REMARK minimizedRMSD -1
REMARK  2 active torsions:
REMARK  status: ('A' for Active; 'I' for Inactive)
REMARK    1  A    between atoms: C2'_3  and  C1'_4 
REMARK    2  A    between atoms: C1'_4  and  C1_5 
ROOT
ATOM      1  C1  I4B d   1       0.195   0.689  -0.275  0.00  0.00    -0.075 A 
ATOM      2  C2  I4B d   1       1.011  -0.414  -0.321  0.00  0.00     0.003 A 
ATOM      3  C3  I4B d   1       0.555  -1.659   0.176  0.00  0.00     0.002 A 
ATOM      4  C4  I4B d   1      -0.696  -1.744   0.752  0.00  0.00    -0.004 A 
ATOM      5  C5  I4B d   1      -1.530  -0.630   0.777  0.00  0.00     0.002 A 
ATOM      6  C6  I4B d   1      -1.087   0.591   0.249  0.00  0.00     0.003 A 
ENDROOT
BRANCH   1   7
ATOM      7  C1' I4B d   1       0.721   1.996  -0.778  0.00  0.00     0.060 C 
BRANCH   7   8
ATOM      8  C2' I4B d   1       0.848   1.899  -2.285  0.00  0.00    -0.013 C 
ATOM      9  C4' I4B d   1      -0.186   2.750  -2.975  0.00  0.00     0.013 C 
ATOM     10  C3' I4B d   1       2.237   2.323  -2.661  0.00  0.00     0.013 C 
ENDBRANCH   7   8
ENDBRANCH   1   7
TORSDOF 2
ENDMDL
