MODEL 1
REMARK minimizedAffinity -2.32182598
REMARK minimizedRMSD -1
REMARK  2 active torsions:
REMARK  status: ('A' for Active; 'I' for Inactive)
REMARK    1  A    between atoms: C2'_3  and  C1'_4 
REMARK    2  A    between atoms: C1'_4  and  C1_5 
ROOT
ATOM      1  C1  I4B d   1       0.296   0.357  -0.038  0.00  0.00    -0.075 A 
ATOM      2  C2  I4B d   1       1.084  -0.711   0.310  0.00  0.00     0.003 A 
ATOM      3  C3  I4B d   1       0.494  -1.913   0.771  0.00  0.00     0.002 A 
ATOM      4  C4  I4B d   1      -0.876  -1.985   0.917  0.00  0.00    -0.004 A 
ATOM      5  C5  I4B d   1      -1.676  -0.909   0.542  0.00  0.00     0.002 A 
ATOM      6  C6  I4B d   1      -1.087   0.266   0.050  0.00  0.00     0.003 A 
ENDROOT
BRANCH   1   7
ATOM      7  C1' I4B d   1       0.953   1.622  -0.490  0.00  0.00     0.060 C 
BRANCH   7   8
ATOM      8  C2' I4B d   1       1.785   1.304  -1.716  0.00  0.00    -0.013 C 
ATOM      9  C4' I4B d   1       1.132   1.828  -2.968  0.00  0.00     0.013 C 
ATOM     10  C3' I4B d   1       3.145   1.904  -1.522  0.00  0.00     0.013 C 
ENDBRANCH   7   8
ENDBRANCH   1   7
TORSDOF 2
ENDMDL
