MODEL 1
REMARK minimizedAffinity -4.92558384
REMARK minimizedRMSD -1
REMARK  2 active torsions:
REMARK  status: ('A' for Active; 'I' for Inactive)
REMARK    1  A    between atoms: C2'_3  and  C1'_4 
REMARK    2  A    between atoms: C1'_4  and  C1_5 
ROOT
ATOM      1  C1  I4B d   1      -0.571  -0.784   0.563  0.00  0.00    -0.075 A 
ATOM      2  C2  I4B d   1      -0.653  -2.151   0.653  0.00  0.00     0.003 A 
ATOM      3  C3  I4B d   1      -1.759  -2.758   1.295  0.00  0.00     0.002 A 
ATOM      4  C4  I4B d   1      -2.729  -1.965   1.874  0.00  0.00    -0.004 A 
ATOM      5  C5  I4B d   1      -2.656  -0.579   1.762  0.00  0.00     0.002 A 
ATOM      6  C6  I4B d   1      -1.577   0.015   1.091  0.00  0.00     0.003 A 
ENDROOT
BRANCH   1   7
ATOM      7  C1' I4B d   1       0.627  -0.175  -0.093  0.00  0.00     0.060 C 
BRANCH   7   8
ATOM      8  C2' I4B d   1       0.221   1.175  -0.647  0.00  0.00    -0.013 C 
ATOM      9  C4' I4B d   1       0.308   2.246   0.408  0.00  0.00     0.013 C 
ATOM     10  C3' I4B d   1       1.115   1.487  -1.810  0.00  0.00     0.013 C 
ENDBRANCH   7   8
ENDBRANCH   1   7
TORSDOF 2
ENDMDL
