MODEL 1
REMARK minimizedAffinity -2.79278636
REMARK minimizedRMSD -1
REMARK  2 active torsions:
REMARK  status: ('A' for Active; 'I' for Inactive)
REMARK    1  A    between atoms: C2'_3  and  C1'_4 
REMARK    2  A    between atoms: C1'_4  and  C1_5 
ROOT
ATOM      1  C1  I4B d   1       0.849   0.665  -0.281  0.00  0.00    -0.075 A 
ATOM      2  C2  I4B d   1      -0.503   0.878  -0.175  0.00  0.00     0.003 A 
ATOM      3  C3  I4B d   1      -1.336  -0.105   0.413  0.00  0.00     0.002 A 
ATOM      4  C4  I4B d   1      -0.786  -1.299   0.834  0.00  0.00    -0.004 A 
ATOM      5  C5  I4B d   1       0.588  -1.504   0.746  0.00  0.00     0.002 A 
ATOM      6  C6  I4B d   1       1.413  -0.511   0.197  0.00  0.00     0.003 A 
ENDROOT
BRANCH   1   7
ATOM      7  C1' I4B d   1       1.694   1.710  -0.938  0.00  0.00     0.060 C 
BRANCH   7   8
ATOM      8  C2' I4B d   1       1.682   1.449  -2.430  0.00  0.00    -0.013 C 
ATOM      9  C4' I4B d   1       0.980   2.556  -3.172  0.00  0.00     0.013 C 
ATOM     10  C3' I4B d   1       3.104   1.308  -2.887  0.00  0.00     0.013 C 
ENDBRANCH   7   8
ENDBRANCH   1   7
TORSDOF 2
ENDMDL
