MODEL 1
REMARK minimizedAffinity -3.27903152
REMARK minimizedRMSD -1
REMARK  2 active torsions:
REMARK  status: ('A' for Active; 'I' for Inactive)
REMARK    1  A    between atoms: C2'_3  and  C1'_4 
REMARK    2  A    between atoms: C1'_4  and  C1_5 
ROOT
ATOM      1  C1  I4B d   1       0.552   0.582  -0.336  0.00  0.00    -0.075 A 
ATOM      2  C2  I4B d   1      -0.808   0.449  -0.210  0.00  0.00     0.003 A 
ATOM      3  C3  I4B d   1      -1.363  -0.760   0.274  0.00  0.00     0.002 A 
ATOM      4  C4  I4B d   1      -0.531  -1.820   0.570  0.00  0.00    -0.004 A 
ATOM      5  C5  I4B d   1       0.849  -1.675   0.463  0.00  0.00     0.002 A 
ATOM      6  C6  I4B d   1       1.396  -0.463   0.019  0.00  0.00     0.003 A 
ENDROOT
BRANCH   1   7
ATOM      7  C1' I4B d   1       1.103   1.861  -0.882  0.00  0.00     0.060 C 
BRANCH   7   8
ATOM      8  C2' I4B d   1       1.239   1.708  -2.383  0.00  0.00    -0.013 C 
ATOM      9  C4' I4B d   1       0.074   2.334  -3.103  0.00  0.00     0.013 C 
ATOM     10  C3' I4B d   1       2.534   2.341  -2.797  0.00  0.00     0.013 C 
ENDBRANCH   7   8
ENDBRANCH   1   7
TORSDOF 2
ENDMDL
