MODEL 1
REMARK minimizedAffinity -4.11974144
REMARK minimizedRMSD -1
REMARK  2 active torsions:
REMARK  status: ('A' for Active; 'I' for Inactive)
REMARK    1  A    between atoms: C2'_3  and  C1'_4 
REMARK    2  A    between atoms: C1'_4  and  C1_5 
ROOT
ATOM      1  C1  I4B d   1       0.797   1.264  -1.414  0.00  0.00    -0.075 A 
ATOM      2  C2  I4B d   1      -0.182   1.497  -2.348  0.00  0.00     0.003 A 
ATOM      3  C3  I4B d   1       0.158   2.009  -3.623  0.00  0.00     0.002 A 
ATOM      4  C4  I4B d   1       1.473   2.321  -3.902  0.00  0.00    -0.004 A 
ATOM      5  C5  I4B d   1       2.467   2.063  -2.962  0.00  0.00     0.002 A 
ATOM      6  C6  I4B d   1       2.129   1.519  -1.714  0.00  0.00     0.003 A 
ENDROOT
BRANCH   1   7
ATOM      7  C1' I4B d   1       0.399   0.753  -0.065  0.00  0.00     0.060 C 
BRANCH   7   8
ATOM      8  C2' I4B d   1      -0.090  -0.671  -0.231  0.00  0.00    -0.013 C 
ATOM      9  C4' I4B d   1       0.874  -1.653   0.382  0.00  0.00     0.013 C 
ATOM     10  C3' I4B d   1      -1.444  -0.773   0.404  0.00  0.00     0.013 C 
ENDBRANCH   7   8
ENDBRANCH   1   7
TORSDOF 2
ENDMDL
