MODEL 1
REMARK minimizedAffinity -3.53913665
REMARK minimizedRMSD -1
REMARK  2 active torsions:
REMARK  status: ('A' for Active; 'I' for Inactive)
REMARK    1  A    between atoms: C2'_3  and  C1'_4 
REMARK    2  A    between atoms: C1'_4  and  C1_5 
ROOT
ATOM      1  C1  I4B d   1       1.247   0.326   0.799  0.00  0.00    -0.075 A 
ATOM      2  C2  I4B d   1      -0.093   0.384   0.508  0.00  0.00     0.003 A 
ATOM      3  C3  I4B d   1      -0.924  -0.737   0.749  0.00  0.00     0.002 A 
ATOM      4  C4  I4B d   1      -0.368  -1.904   1.230  0.00  0.00    -0.004 A 
ATOM      5  C5  I4B d   1       0.987  -1.954   1.545  0.00  0.00     0.002 A 
ATOM      6  C6  I4B d   1       1.798  -0.828   1.340  0.00  0.00     0.003 A 
ENDROOT
BRANCH   1   7
ATOM      7  C1' I4B d   1       2.102   1.517   0.502  0.00  0.00     0.060 C 
BRANCH   7   8
ATOM      8  C2' I4B d   1       2.736   1.309  -0.858  0.00  0.00    -0.013 C 
ATOM      9  C4' I4B d   1       2.864   2.611  -1.605  0.00  0.00     0.013 C 
ATOM     10  C3' I4B d   1       4.076   0.670  -0.651  0.00  0.00     0.013 C 
ENDBRANCH   7   8
ENDBRANCH   1   7
TORSDOF 2
ENDMDL
