MODEL 1
REMARK minimizedAffinity -2.9915247
REMARK minimizedRMSD -1
REMARK  2 active torsions:
REMARK  status: ('A' for Active; 'I' for Inactive)
REMARK    1  A    between atoms: C2'_3  and  C1'_4 
REMARK    2  A    between atoms: C1'_4  and  C1_5 
ROOT
ATOM      1  C1  I4B d   1       1.154   1.502  -1.312  0.00  0.00    -0.075 A 
ATOM      2  C2  I4B d   1       0.208   2.043  -2.147  0.00  0.00     0.003 A 
ATOM      3  C3  I4B d   1       0.604   2.744  -3.313  0.00  0.00     0.002 A 
ATOM      4  C4  I4B d   1       1.947   2.921  -3.576  0.00  0.00    -0.004 A 
ATOM      5  C5  I4B d   1       2.904   2.352  -2.741  0.00  0.00     0.002 A 
ATOM      6  C6  I4B d   1       2.505   1.628  -1.608  0.00  0.00     0.003 A 
ENDROOT
BRANCH   1   7
ATOM      7  C1' I4B d   1       0.702   0.797  -0.073  0.00  0.00     0.060 C 
BRANCH   7   8
ATOM      8  C2' I4B d   1      -0.800   0.620  -0.158  0.00  0.00    -0.013 C 
ATOM      9  C4' I4B d   1      -1.211  -0.764   0.270  0.00  0.00     0.013 C 
ATOM     10  C3' I4B d   1      -1.440   1.666   0.706  0.00  0.00     0.013 C 
ENDBRANCH   7   8
ENDBRANCH   1   7
TORSDOF 2
ENDMDL
