MODEL 1
REMARK minimizedAffinity -0.938023984
REMARK minimizedRMSD -1
REMARK  1 active torsions:
REMARK  status: ('A' for Active; 'I' for Inactive)
REMARK    1  A    between atoms: C1_2  and  C2_3 
ROOT
ATOM      1  C2  UNL d   1       1.471   0.334   0.849  0.00  0.00    -0.077 A 
ATOM      2  C3  UNL d   1       0.552   1.330   0.489  0.00  0.00     0.002 A 
ATOM      3  C4  UNL d   1      -0.755   0.990   0.137  0.00  0.00     0.002 A 
ATOM      4  C5  UNL d   1      -1.157  -0.344   0.145  0.00  0.00    -0.004 A 
ATOM      5  C6  UNL d   1      -0.250  -1.342   0.500  0.00  0.00     0.002 A 
ATOM      6  C7  UNL d   1       1.058  -1.004   0.851  0.00  0.00     0.002 A 
ENDROOT
BRANCH   1   7
ATOM      7  C1  UNL d   1       2.867   0.703   1.277  0.00  0.00     0.055 C 
ATOM      8  C   UNL d   1       3.850  -0.422   0.987  0.00  0.00     0.019 C 
ENDBRANCH   1   7
TORSDOF 1
ENDMDL
