MODEL 1
REMARK minimizedAffinity -5.54885101
REMARK minimizedRMSD -1
REMARK  1 active torsions:
REMARK  status: ('A' for Active; 'I' for Inactive)
REMARK    1  A    between atoms: C1_2  and  C2_3 
ROOT
ATOM      1  C2  UNL d   1       0.040   0.099   0.010  0.00  0.00    -0.077 A 
ATOM      2  C3  UNL d   1       0.479  -1.189   0.346  0.00  0.00     0.002 A 
ATOM      3  C4  UNL d   1       1.806  -1.408   0.722  0.00  0.00     0.002 A 
ATOM      4  C5  UNL d   1       2.703  -0.342   0.770  0.00  0.00    -0.004 A 
ATOM      5  C6  UNL d   1       2.276   0.943   0.436  0.00  0.00     0.002 A 
ATOM      6  C7  UNL d   1       0.950   1.162   0.059  0.00  0.00     0.002 A 
ENDROOT
BRANCH   1   7
ATOM      7  C1  UNL d   1      -1.402   0.344  -0.348  0.00  0.00     0.055 C 
ATOM      8  C   UNL d   1      -1.686  -0.035  -1.794  0.00  0.00     0.019 C 
ENDBRANCH   1   7
TORSDOF 1
ENDMDL
