MODEL 1
REMARK minimizedAffinity -5.7772336
REMARK minimizedRMSD -1
REMARK  1 active torsions:
REMARK  status: ('A' for Active; 'I' for Inactive)
REMARK    1  A    between atoms: C1_2  and  C2_3 
ROOT
ATOM      1  C2  UNL d   1       0.548  -0.557   0.446  0.00  0.00    -0.077 A 
ATOM      2  C3  UNL d   1       0.707  -1.707   1.231  0.00  0.00     0.002 A 
ATOM      3  C4  UNL d   1       1.910  -1.947   1.897  0.00  0.00     0.002 A 
ATOM      4  C5  UNL d   1       2.961  -1.040   1.789  0.00  0.00    -0.004 A 
ATOM      5  C6  UNL d   1       2.814   0.107   1.009  0.00  0.00     0.002 A 
ATOM      6  C7  UNL d   1       1.612   0.348   0.341  0.00  0.00     0.002 A 
ENDROOT
BRANCH   1   7
ATOM      7  C1  UNL d   1      -0.766  -0.271  -0.233  0.00  0.00     0.055 C 
ATOM      8  C   UNL d   1      -1.920  -0.962   0.480  0.00  0.00     0.019 C 
ENDBRANCH   1   7
TORSDOF 1
ENDMDL
