MODEL 1
REMARK minimizedAffinity -4.17077255
REMARK minimizedRMSD -1
REMARK  1 active torsions:
REMARK  status: ('A' for Active; 'I' for Inactive)
REMARK    1  A    between atoms: C1_2  and  C2_3 
ROOT
ATOM      1  C2  UNL d   1      -0.118   0.036   0.574  0.00  0.00    -0.077 A 
ATOM      2  C3  UNL d   1       0.892  -0.933   0.651  0.00  0.00     0.002 A 
ATOM      3  C4  UNL d   1       2.228  -0.551   0.796  0.00  0.00     0.002 A 
ATOM      4  C5  UNL d   1       2.564   0.799   0.871  0.00  0.00    -0.004 A 
ATOM      5  C6  UNL d   1       1.566   1.770   0.794  0.00  0.00     0.002 A 
ATOM      6  C7  UNL d   1       0.231   1.390   0.648  0.00  0.00     0.002 A 
ENDROOT
BRANCH   1   7
ATOM      7  C1  UNL d   1      -1.563  -0.375   0.467  0.00  0.00     0.055 C 
ATOM      8  C   UNL d   1      -2.128  -0.058  -0.910  0.00  0.00     0.019 C 
ENDBRANCH   1   7
TORSDOF 1
ENDMDL
