MODEL 1
REMARK minimizedAffinity -4.30754423
REMARK minimizedRMSD -1
REMARK  1 active torsions:
REMARK  status: ('A' for Active; 'I' for Inactive)
REMARK    1  A    between atoms: C1_2  and  C2_3 
ROOT
ATOM      1  C2  UNL d   1       0.031  -0.161   0.556  0.00  0.00    -0.077 A 
ATOM      2  C3  UNL d   1       0.107  -1.408   1.191  0.00  0.00     0.002 A 
ATOM      3  C4  UNL d   1       1.269  -1.787   1.866  0.00  0.00     0.002 A 
ATOM      4  C5  UNL d   1       2.362  -0.924   1.915  0.00  0.00    -0.004 A 
ATOM      5  C6  UNL d   1       2.297   0.318   1.285  0.00  0.00     0.002 A 
ATOM      6  C7  UNL d   1       1.136   0.698   0.609  0.00  0.00     0.002 A 
ENDROOT
BRANCH   1   7
ATOM      7  C1  UNL d   1      -1.239   0.271  -0.130  0.00  0.00     0.055 C 
ATOM      8  C   UNL d   1      -1.539  -0.603  -1.339  0.00  0.00     0.019 C 
ENDBRANCH   1   7
TORSDOF 1
ENDMDL
