MODEL 1
REMARK minimizedAffinity -4.9204483
REMARK minimizedRMSD -1
REMARK  1 active torsions:
REMARK  status: ('A' for Active; 'I' for Inactive)
REMARK    1  A    between atoms: C1_2  and  C2_3 
ROOT
ATOM      1  C2  UNL d   1      -0.072  -0.112   0.088  0.00  0.00    -0.077 A 
ATOM      2  C3  UNL d   1       0.615  -1.182   0.681  0.00  0.00     0.002 A 
ATOM      3  C4  UNL d   1       1.960  -1.050   1.031  0.00  0.00     0.002 A 
ATOM      4  C5  UNL d   1       2.628   0.150   0.797  0.00  0.00    -0.004 A 
ATOM      5  C6  UNL d   1       1.955   1.218   0.206  0.00  0.00     0.002 A 
ATOM      6  C7  UNL d   1       0.611   1.088  -0.146  0.00  0.00     0.002 A 
ENDROOT
BRANCH   1   7
ATOM      7  C1  UNL d   1      -1.536  -0.236  -0.245  0.00  0.00     0.055 C 
ATOM      8  C   UNL d   1      -1.799   0.084  -1.709  0.00  0.00     0.019 C 
ENDBRANCH   1   7
TORSDOF 1
ENDMDL
