MODEL 1
REMARK minimizedAffinity -5.1100626
REMARK minimizedRMSD -1
REMARK  1 active torsions:
REMARK  status: ('A' for Active; 'I' for Inactive)
REMARK    1  A    between atoms: C1_2  and  C2_3 
ROOT
ATOM      1  C2  UNL d   1       0.064  -0.077   0.291  0.00  0.00    -0.077 A 
ATOM      2  C3  UNL d   1       0.734  -1.305   0.383  0.00  0.00     0.002 A 
ATOM      3  C4  UNL d   1       2.100  -1.344   0.673  0.00  0.00     0.002 A 
ATOM      4  C5  UNL d   1       2.804  -0.160   0.878  0.00  0.00    -0.004 A 
ATOM      5  C6  UNL d   1       2.147   1.066   0.787  0.00  0.00     0.002 A 
ATOM      6  C7  UNL d   1       0.783   1.107   0.496  0.00  0.00     0.002 A 
ENDROOT
BRANCH   1   7
ATOM      7  C1  UNL d   1      -1.419  -0.035   0.027  0.00  0.00     0.055 C 
ATOM      8  C   UNL d   1      -1.737  -0.428  -1.408  0.00  0.00     0.019 C 
ENDBRANCH   1   7
TORSDOF 1
ENDMDL
