MODEL 1
REMARK minimizedAffinity -5.50350761
REMARK minimizedRMSD -1
REMARK  1 active torsions:
REMARK  status: ('A' for Active; 'I' for Inactive)
REMARK    1  A    between atoms: C1_2  and  C2_3 
ROOT
ATOM      1  C2  UNL d   1      -0.058  -0.084   0.175  0.00  0.00    -0.077 A 
ATOM      2  C3  UNL d   1       0.725  -1.240   0.057  0.00  0.00     0.002 A 
ATOM      3  C4  UNL d   1       2.048  -1.246   0.504  0.00  0.00     0.002 A 
ATOM      4  C5  UNL d   1       2.597  -0.100   1.076  0.00  0.00    -0.004 A 
ATOM      5  C6  UNL d   1       1.827   1.056   1.196  0.00  0.00     0.002 A 
ATOM      6  C7  UNL d   1       0.505   1.064   0.748  0.00  0.00     0.002 A 
ENDROOT
BRANCH   1   7
ATOM      7  C1  UNL d   1      -1.500  -0.090  -0.262  0.00  0.00     0.055 C 
ATOM      8  C   UNL d   1      -1.632  -0.477  -1.728  0.00  0.00     0.019 C 
ENDBRANCH   1   7
TORSDOF 1
ENDMDL
