MODEL 1
REMARK minimizedAffinity -3.71320057
REMARK minimizedRMSD -1
REMARK  3 active torsions:
REMARK  status: ('A' for Active; 'I' for Inactive)
REMARK    1  A    between atoms: C3'_2  and  C2'_3 
REMARK    2  A    between atoms: C2'_3  and  C1'_4 
REMARK    3  A    between atoms: C1'_4  and  C1_5 
ROOT
ATOM      1  C1  N4B d   1       0.850   0.393  -0.492  0.00  0.00    -0.075 A 
ATOM      2  C2  N4B d   1       1.833   1.015  -1.292  0.00  0.00     0.002 A 
ATOM      3  C3  N4B d   1       1.472   1.988  -2.191  0.00  0.00     0.002 A 
ATOM      4  C4  N4B d   1       0.137   2.341  -2.321  0.00  0.00    -0.004 A 
ATOM      5  C5  N4B d   1      -0.803   1.753  -1.527  0.00  0.00     0.002 A 
ATOM      6  C6  N4B d   1      -0.454   0.776  -0.616  0.00  0.00     0.002 A 
ENDROOT
BRANCH   1   7
ATOM      7  C1' N4B d   1       1.186  -0.737   0.443  0.00  0.00     0.057 C 
BRANCH   7   8
ATOM      8  C2' N4B d   1       0.095  -1.800   0.355  0.00  0.00     0.009 C 
BRANCH   8   9
ATOM      9  C3' N4B d   1      -0.292  -2.332   1.725  0.00  0.00     0.004 C 
ATOM     10  C4' N4B d   1      -1.718  -2.034   2.081  0.00  0.00     0.003 C 
ENDBRANCH   8   9
ENDBRANCH   7   8
ENDBRANCH   1   7
TORSDOF 3
ENDMDL
