MODEL 1
REMARK minimizedAffinity -2.99439788
REMARK minimizedRMSD -1
REMARK  3 active torsions:
REMARK  status: ('A' for Active; 'I' for Inactive)
REMARK    1  A    between atoms: C3'_2  and  C2'_3 
REMARK    2  A    between atoms: C2'_3  and  C1'_4 
REMARK    3  A    between atoms: C1'_4  and  C1_5 
ROOT
ATOM      1  C1  N4B d   1       0.516  -0.153  -0.148  0.00  0.00    -0.075 A 
ATOM      2  C2  N4B d   1      -0.868   0.065   0.031  0.00  0.00     0.002 A 
ATOM      3  C3  N4B d   1      -1.644  -0.900   0.623  0.00  0.00     0.002 A 
ATOM      4  C4  N4B d   1      -1.065  -2.095   1.025  0.00  0.00    -0.004 A 
ATOM      5  C5  N4B d   1       0.277  -2.287   0.872  0.00  0.00     0.002 A 
ATOM      6  C6  N4B d   1       1.070  -1.324   0.282  0.00  0.00     0.002 A 
ENDROOT
BRANCH   1   7
ATOM      7  C1' N4B d   1       1.390   0.838  -0.868  0.00  0.00     0.057 C 
BRANCH   7   8
ATOM      8  C2' N4B d   1       0.575   1.523  -1.961  0.00  0.00     0.009 C 
BRANCH   8   9
ATOM      9  C3' N4B d   1       1.462   2.205  -2.988  0.00  0.00     0.004 C 
ATOM     10  C4' N4B d   1       1.043   1.917  -4.399  0.00  0.00     0.003 C 
ENDBRANCH   8   9
ENDBRANCH   7   8
ENDBRANCH   1   7
TORSDOF 3
ENDMDL
