MODEL 1
REMARK minimizedAffinity -2.36272311
REMARK minimizedRMSD -1
REMARK  3 active torsions:
REMARK  status: ('A' for Active; 'I' for Inactive)
REMARK    1  A    between atoms: C3'_2  and  C2'_3 
REMARK    2  A    between atoms: C2'_3  and  C1'_4 
REMARK    3  A    between atoms: C1'_4  and  C1_5 
ROOT
ATOM      1  C1  N4B d   1       0.087  -0.288   0.234  0.00  0.00    -0.075 A 
ATOM      2  C2  N4B d   1      -1.236  -0.447   0.701  0.00  0.00     0.002 A 
ATOM      3  C3  N4B d   1      -1.642  -1.654   1.215  0.00  0.00     0.002 A 
ATOM      4  C4  N4B d   1      -0.752  -2.717   1.254  0.00  0.00    -0.004 A 
ATOM      5  C5  N4B d   1       0.531  -2.548   0.824  0.00  0.00     0.002 A 
ATOM      6  C6  N4B d   1       0.954  -1.339   0.309  0.00  0.00     0.002 A 
ENDROOT
BRANCH   1   7
ATOM      7  C1' N4B d   1       0.551   0.987  -0.415  0.00  0.00     0.057 C 
BRANCH   7   8
ATOM      8  C2' N4B d   1       0.102   0.999  -1.873  0.00  0.00     0.009 C 
BRANCH   8   9
ATOM      9  C3' N4B d   1       0.917   1.970  -2.711  0.00  0.00     0.004 C 
ATOM     10  C4' N4B d   1       1.732   1.285  -3.766  0.00  0.00     0.003 C 
ENDBRANCH   8   9
ENDBRANCH   7   8
ENDBRANCH   1   7
TORSDOF 3
ENDMDL
