MODEL 1
REMARK minimizedAffinity -2.6429832
REMARK minimizedRMSD -1
REMARK  3 active torsions:
REMARK  status: ('A' for Active; 'I' for Inactive)
REMARK    1  A    between atoms: C3'_2  and  C2'_3 
REMARK    2  A    between atoms: C2'_3  and  C1'_4 
REMARK    3  A    between atoms: C1'_4  and  C1_5 
ROOT
ATOM      1  C1  N4B d   1       0.239   0.135   0.209  0.00  0.00    -0.075 A 
ATOM      2  C2  N4B d   1      -0.965  -0.496   0.593  0.00  0.00     0.002 A 
ATOM      3  C3  N4B d   1      -0.944  -1.785   1.066  0.00  0.00     0.002 A 
ATOM      4  C4  N4B d   1       0.261  -2.466   1.146  0.00  0.00    -0.004 A 
ATOM      5  C5  N4B d   1       1.422  -1.841   0.798  0.00  0.00     0.002 A 
ATOM      6  C6  N4B d   1       1.417  -0.544   0.324  0.00  0.00     0.002 A 
ENDROOT
BRANCH   1   7
ATOM      7  C1' N4B d   1       0.256   1.513  -0.394  0.00  0.00     0.057 C 
BRANCH   7   8
ATOM      8  C2' N4B d   1       1.546   1.696  -1.188  0.00  0.00     0.009 C 
BRANCH   8   9
ATOM      9  C3' N4B d   1       1.298   2.362  -2.530  0.00  0.00     0.004 C 
ATOM     10  C4' N4B d   1       2.317   1.982  -3.564  0.00  0.00     0.003 C 
ENDBRANCH   8   9
ENDBRANCH   7   8
ENDBRANCH   1   7
TORSDOF 3
ENDMDL
