MODEL 1
REMARK minimizedAffinity -4.28400755
REMARK minimizedRMSD -1
REMARK  3 active torsions:
REMARK  status: ('A' for Active; 'I' for Inactive)
REMARK    1  A    between atoms: C3'_2  and  C2'_3 
REMARK    2  A    between atoms: C2'_3  and  C1'_4 
REMARK    3  A    between atoms: C1'_4  and  C1_5 
ROOT
ATOM      1  C1  N4B d   1       0.150  -0.074   0.200  0.00  0.00    -0.075 A 
ATOM      2  C2  N4B d   1      -1.247  -0.275   0.259  0.00  0.00     0.002 A 
ATOM      3  C3  N4B d   1      -1.749  -1.512   0.582  0.00  0.00     0.002 A 
ATOM      4  C4  N4B d   1      -0.878  -2.563   0.830  0.00  0.00    -0.004 A 
ATOM      5  C5  N4B d   1       0.470  -2.353   0.796  0.00  0.00     0.002 A 
ATOM      6  C6  N4B d   1       0.988  -1.114   0.477  0.00  0.00     0.002 A 
ENDROOT
BRANCH   1   7
ATOM      7  C1' N4B d   1       0.745   1.238  -0.233  0.00  0.00     0.057 C 
BRANCH   7   8
ATOM      8  C2' N4B d   1       0.310   1.538  -1.664  0.00  0.00     0.009 C 
BRANCH   8   9
ATOM      9  C3' N4B d   1       1.485   1.922  -2.547  0.00  0.00     0.004 C 
ATOM     10  C4' N4B d   1       1.132   1.951  -4.004  0.00  0.00     0.003 C 
ENDBRANCH   8   9
ENDBRANCH   7   8
ENDBRANCH   1   7
TORSDOF 3
ENDMDL
