MODEL 1
REMARK minimizedAffinity -3.22588897
REMARK minimizedRMSD -1
REMARK  3 active torsions:
REMARK  status: ('A' for Active; 'I' for Inactive)
REMARK    1  A    between atoms: C3'_2  and  C2'_3 
REMARK    2  A    between atoms: C2'_3  and  C1'_4 
REMARK    3  A    between atoms: C1'_4  and  C1_5 
ROOT
ATOM      1  C1  N4B d   1       0.049   0.076   0.139  0.00  0.00    -0.075 A 
ATOM      2  C2  N4B d   1       0.953  -0.987   0.358  0.00  0.00     0.002 A 
ATOM      3  C3  N4B d   1       0.480  -2.243   0.647  0.00  0.00     0.002 A 
ATOM      4  C4  N4B d   1      -0.888  -2.456   0.739  0.00  0.00    -0.004 A 
ATOM      5  C5  N4B d   1      -1.755  -1.431   0.500  0.00  0.00     0.002 A 
ATOM      6  C6  N4B d   1      -1.293  -0.164   0.205  0.00  0.00     0.002 A 
ENDROOT
BRANCH   1   7
ATOM      7  C1' N4B d   1       0.521   1.485  -0.095  0.00  0.00     0.057 C 
BRANCH   7   8
ATOM      8  C2' N4B d   1      -0.298   2.107  -1.222  0.00  0.00     0.009 C 
BRANCH   8   9
ATOM      9  C3' N4B d   1       0.535   2.327  -2.474  0.00  0.00     0.004 C 
ATOM     10  C4' N4B d   1       2.008   2.201  -2.221  0.00  0.00     0.003 C 
ENDBRANCH   8   9
ENDBRANCH   7   8
ENDBRANCH   1   7
TORSDOF 3
ENDMDL
