MODEL 1
REMARK minimizedAffinity -1.02728128
REMARK minimizedRMSD -1
REMARK  3 active torsions:
REMARK  status: ('A' for Active; 'I' for Inactive)
REMARK    1  A    between atoms: C3'_2  and  C2'_3 
REMARK    2  A    between atoms: C2'_3  and  C1'_4 
REMARK    3  A    between atoms: C1'_4  and  C1_5 
ROOT
ATOM      1  C1  N4B d   1      -0.153  -0.076   0.115  0.00  0.00    -0.075 A 
ATOM      2  C2  N4B d   1       1.077  -0.768   0.053  0.00  0.00     0.002 A 
ATOM      3  C3  N4B d   1       1.158  -2.065   0.499  0.00  0.00     0.002 A 
ATOM      4  C4  N4B d   1       0.032  -2.681   1.025  0.00  0.00    -0.004 A 
ATOM      5  C5  N4B d   1      -1.158  -2.014   1.057  0.00  0.00     0.002 A 
ATOM      6  C6  N4B d   1      -1.255  -0.712   0.609  0.00  0.00     0.002 A 
ENDROOT
BRANCH   1   7
ATOM      7  C1' N4B d   1      -0.271   1.370  -0.281  0.00  0.00     0.057 C 
BRANCH   7   8
ATOM      8  C2' N4B d   1      -0.128   1.489  -1.795  0.00  0.00     0.009 C 
BRANCH   8   9
ATOM      9  C3' N4B d   1       1.245   1.997  -2.199  0.00  0.00     0.004 C 
ATOM     10  C4' N4B d   1       1.594   1.662  -3.618  0.00  0.00     0.003 C 
ENDBRANCH   8   9
ENDBRANCH   7   8
ENDBRANCH   1   7
TORSDOF 3
ENDMDL
