MODEL 1
REMARK minimizedAffinity -3.98018694
REMARK minimizedRMSD -1
REMARK  3 active torsions:
REMARK  status: ('A' for Active; 'I' for Inactive)
REMARK    1  A    between atoms: C3'_2  and  C2'_3 
REMARK    2  A    between atoms: C2'_3  and  C1'_4 
REMARK    3  A    between atoms: C1'_4  and  C1_5 
ROOT
ATOM      1  C1  N4B d   1       0.229  -0.769   0.273  0.00  0.00    -0.075 A 
ATOM      2  C2  N4B d   1       0.421  -2.063   0.803  0.00  0.00     0.002 A 
ATOM      3  C3  N4B d   1      -0.652  -2.776   1.281  0.00  0.00     0.002 A 
ATOM      4  C4  N4B d   1      -1.917  -2.209   1.257  0.00  0.00    -0.004 A 
ATOM      5  C5  N4B d   1      -2.098  -0.968   0.720  0.00  0.00     0.002 A 
ATOM      6  C6  N4B d   1      -1.030  -0.242   0.232  0.00  0.00     0.002 A 
ENDROOT
BRANCH   1   7
ATOM      7  C1' N4B d   1       1.383   0.082  -0.183  0.00  0.00     0.057 C 
BRANCH   7   8
ATOM      8  C2' N4B d   1       0.842   1.336  -0.864  0.00  0.00     0.009 C 
BRANCH   8   9
ATOM      9  C3' N4B d   1       1.896   2.018  -1.719  0.00  0.00     0.004 C 
ATOM     10  C4' N4B d   1       1.393   2.376  -3.086  0.00  0.00     0.003 C 
ENDBRANCH   8   9
ENDBRANCH   7   8
ENDBRANCH   1   7
TORSDOF 3
ENDMDL
