MODEL 1
REMARK minimizedAffinity -6.41234112
REMARK minimizedRMSD -1
REMARK  3 active torsions:
REMARK  status: ('A' for Active; 'I' for Inactive)
REMARK    1  A    between atoms: C3'_2  and  C2'_3 
REMARK    2  A    between atoms: C2'_3  and  C1'_4 
REMARK    3  A    between atoms: C1'_4  and  C1_5 
ROOT
ATOM      1  C1  N4B d   1      -0.020  -0.446   0.038  0.00  0.00    -0.075 A 
ATOM      2  C2  N4B d   1      -1.426  -0.319   0.087  0.00  0.00     0.002 A 
ATOM      3  C3  N4B d   1      -2.191  -1.345   0.584  0.00  0.00     0.002 A 
ATOM      4  C4  N4B d   1      -1.577  -2.510   1.020  0.00  0.00    -0.004 A 
ATOM      5  C5  N4B d   1      -0.217  -2.614   0.993  0.00  0.00     0.002 A 
ATOM      6  C6  N4B d   1       0.565  -1.590   0.499  0.00  0.00     0.002 A 
ENDROOT
BRANCH   1   7
ATOM      7  C1' N4B d   1       0.852   0.614  -0.577  0.00  0.00     0.057 C 
BRANCH   7   8
ATOM      8  C2' N4B d   1      -0.006   1.824  -0.934  0.00  0.00     0.009 C 
BRANCH   8   9
ATOM      9  C3' N4B d   1       0.100   2.182  -2.406  0.00  0.00     0.004 C 
ATOM     10  C4' N4B d   1       1.432   1.825  -2.996  0.00  0.00     0.003 C 
ENDBRANCH   8   9
ENDBRANCH   7   8
ENDBRANCH   1   7
TORSDOF 3
ENDMDL
