MODEL 1
REMARK minimizedAffinity 20.1901569
REMARK minimizedRMSD -1
REMARK  0 active torsions:
REMARK  status: ('A' for Active; 'I' for Inactive)
ROOT
ATOM      1  O1  BZF d   1       3.722   2.817   3.903  0.00  0.00    -0.204 OA
ATOM      2  C2  BZF d   1       4.887   2.291   3.379  0.00  0.00     0.174 A 
ATOM      3  C3  BZF d   1       5.949   3.051   3.716  0.00  0.00    -0.012 A 
ATOM      4  C3A BZF d   1       5.426   4.067   4.577  0.00  0.00    -0.107 A 
ATOM      5  C4  BZF d   1       5.994   5.112   5.249  0.00  0.00     0.055 A 
ATOM      6  C5  BZF d   1       5.195   5.962   5.945  0.00  0.00    -0.016 A 
ATOM      7  C6  BZF d   1       3.825   5.800   5.987  0.00  0.00     0.022 A 
ATOM      8  C7  BZF d   1       3.217   4.775   5.341  0.00  0.00     0.029 A 
ATOM      9  C7A BZF d   1       4.025   3.896   4.664  0.00  0.00     0.058 A 
ENDROOT
TORSDOF 0
ENDMDL
