MODEL 1
REMARK minimizedAffinity 18.1311989
REMARK minimizedRMSD -1
REMARK  0 active torsions:
REMARK  status: ('A' for Active; 'I' for Inactive)
ROOT
ATOM      1  O1  BZF d   1       5.026   3.400   0.250  0.00  0.00    -0.204 OA
ATOM      2  C2  BZF d   1       3.739   3.491   0.742  0.00  0.00     0.174 A 
ATOM      3  C3  BZF d   1       2.848   3.033  -0.161  0.00  0.00    -0.012 A 
ATOM      4  C3A BZF d   1       3.634   2.546  -1.252  0.00  0.00    -0.107 A 
ATOM      5  C4  BZF d   1       3.323   1.956  -2.444  0.00  0.00     0.055 A 
ATOM      6  C5  BZF d   1       4.323   1.666  -3.318  0.00  0.00    -0.016 A 
ATOM      7  C6  BZF d   1       5.641   1.957  -3.036  0.00  0.00     0.022 A 
ATOM      8  C7  BZF d   1       5.999   2.537  -1.864  0.00  0.00     0.029 A 
ATOM      9  C7A BZF d   1       4.995   2.801  -0.965  0.00  0.00     0.058 A 
ENDROOT
TORSDOF 0
ENDMDL
