MODEL 1
REMARK minimizedAffinity 25.1209888
REMARK minimizedRMSD -1
REMARK  0 active torsions:
REMARK  status: ('A' for Active; 'I' for Inactive)
ROOT
ATOM      1  O1  BZF d   1       3.161   3.146  -0.137  0.00  0.00    -0.204 OA
ATOM      2  C2  BZF d   1       4.320   2.984   0.597  0.00  0.00     0.174 A 
ATOM      3  C3  BZF d   1       4.875   1.779   0.354  0.00  0.00    -0.012 A 
ATOM      4  C3A BZF d   1       4.059   1.186  -0.661  0.00  0.00    -0.107 A 
ATOM      5  C4  BZF d   1       4.109  -0.003  -1.330  0.00  0.00     0.055 A 
ATOM      6  C5  BZF d   1       3.119  -0.309  -2.208  0.00  0.00    -0.016 A 
ATOM      7  C6  BZF d   1       2.061   0.547  -2.437  0.00  0.00     0.022 A 
ATOM      8  C7  BZF d   1       1.971   1.740  -1.801  0.00  0.00     0.029 A 
ATOM      9  C7A BZF d   1       2.987   2.067  -0.937  0.00  0.00     0.058 A 
ENDROOT
TORSDOF 0
ENDMDL
