MODEL 1
REMARK minimizedAffinity 2.25187969
REMARK minimizedRMSD -1
REMARK  0 active torsions:
REMARK  status: ('A' for Active; 'I' for Inactive)
ROOT
ATOM      1  O1  BZF d   1       2.386   3.661   3.226  0.00  0.00    -0.204 OA
ATOM      2  C2  BZF d   1       3.210   2.755   2.586  0.00  0.00     0.174 A 
ATOM      3  C3  BZF d   1       4.454   2.790   3.106  0.00  0.00    -0.012 A 
ATOM      4  C3A BZF d   1       4.381   3.713   4.196  0.00  0.00    -0.107 A 
ATOM      5  C4  BZF d   1       5.291   4.160   5.111  0.00  0.00     0.055 A 
ATOM      6  C5  BZF d   1       4.919   5.118   6.000  0.00  0.00    -0.016 A 
ATOM      7  C6  BZF d   1       3.648   5.655   5.999  0.00  0.00     0.022 A 
ATOM      8  C7  BZF d   1       2.709   5.239   5.114  0.00  0.00     0.029 A 
ATOM      9  C7A BZF d   1       3.072   4.248   4.236  0.00  0.00     0.058 A 
ENDROOT
TORSDOF 0
ENDMDL
