MODEL 1
REMARK minimizedAffinity 8.10710049
REMARK minimizedRMSD -1
REMARK  0 active torsions:
REMARK  status: ('A' for Active; 'I' for Inactive)
ROOT
ATOM      1  O1  BZF d   1       5.110   2.081   5.563  0.00  0.00    -0.204 OA
ATOM      2  C2  BZF d   1       3.866   1.522   5.784  0.00  0.00     0.174 A 
ATOM      3  C3  BZF d   1       2.941   2.481   5.995  0.00  0.00    -0.012 A 
ATOM      4  C3A BZF d   1       3.634   3.719   5.809  0.00  0.00    -0.107 A 
ATOM      5  C4  BZF d   1       3.249   5.028   5.868  0.00  0.00     0.055 A 
ATOM      6  C5  BZF d   1       4.185   6.000   5.708  0.00  0.00    -0.016 A 
ATOM      7  C6  BZF d   1       5.514   5.699   5.493  0.00  0.00     0.022 A 
ATOM      8  C7  BZF d   1       5.943   4.415   5.421  0.00  0.00     0.029 A 
ATOM      9  C7A BZF d   1       4.993   3.431   5.549  0.00  0.00     0.058 A 
ENDROOT
TORSDOF 0
ENDMDL
