MODEL 1
REMARK minimizedAffinity 27.7188625
REMARK minimizedRMSD -1
REMARK  0 active torsions:
REMARK  status: ('A' for Active; 'I' for Inactive)
ROOT
ATOM      1  O1  BZF d   1      -3.913   2.168  -5.143  0.00  0.00    -0.204 OA
ATOM      2  C2  BZF d   1      -2.768   2.338  -4.388  0.00  0.00     0.174 A 
ATOM      3  C3  BZF d   1      -2.571   3.642  -4.105  0.00  0.00    -0.012 A 
ATOM      4  C3A BZF d   1      -3.710   4.320  -4.643  0.00  0.00    -0.107 A 
ATOM      5  C4  BZF d   1      -4.098   5.629  -4.667  0.00  0.00     0.055 A 
ATOM      6  C5  BZF d   1      -5.230   5.970  -5.337  0.00  0.00    -0.016 A 
ATOM      7  C6  BZF d   1      -5.993   5.030  -5.999  0.00  0.00     0.022 A 
ATOM      8  C7  BZF d   1      -5.650   3.719  -6.000  0.00  0.00     0.029 A 
ATOM      9  C7A BZF d   1      -4.525   3.367  -5.296  0.00  0.00     0.058 A 
ENDROOT
TORSDOF 0
ENDMDL
