MODEL 1
REMARK minimizedAffinity 7.42153931
REMARK minimizedRMSD -1
REMARK  0 active torsions:
REMARK  status: ('A' for Active; 'I' for Inactive)
ROOT
ATOM      1  O1  BZF d   1       3.509   5.247   5.929  0.00  0.00    -0.204 OA
ATOM      2  C2  BZF d   1       4.668   5.998   5.919  0.00  0.00     0.174 A 
ATOM      3  C3  BZF d   1       5.755   5.201   5.961  0.00  0.00    -0.012 A 
ATOM      4  C3A BZF d   1       5.245   3.866   5.907  0.00  0.00    -0.107 A 
ATOM      5  C4  BZF d   1       5.835   2.634   5.900  0.00  0.00     0.055 A 
ATOM      6  C5  BZF d   1       5.050   1.525   5.915  0.00  0.00    -0.016 A 
ATOM      7  C6  BZF d   1       3.674   1.610   5.944  0.00  0.00     0.022 A 
ATOM      8  C7  BZF d   1       3.042   2.809   5.947  0.00  0.00     0.029 A 
ATOM      9  C7A BZF d   1       3.832   3.932   5.898  0.00  0.00     0.058 A 
ENDROOT
TORSDOF 0
ENDMDL
