MODEL 1
REMARK minimizedAffinity 13.5232573
REMARK minimizedRMSD -1
REMARK  0 active torsions:
REMARK  status: ('A' for Active; 'I' for Inactive)
ROOT
ATOM      1  O1  BZF d   1       2.234   2.806   0.240  0.00  0.00    -0.204 OA
ATOM      2  C2  BZF d   1       3.568   3.161   0.282  0.00  0.00     0.174 A 
ATOM      3  C3  BZF d   1       4.326   2.255  -0.368  0.00  0.00    -0.012 A 
ATOM      4  C3A BZF d   1       3.397   1.320  -0.927  0.00  0.00    -0.107 A 
ATOM      5  C4  BZF d   1       3.540   0.201  -1.696  0.00  0.00     0.055 A 
ATOM      6  C5  BZF d   1       2.437  -0.529  -2.011  0.00  0.00    -0.016 A 
ATOM      7  C6  BZF d   1       1.180  -0.171  -1.571  0.00  0.00     0.022 A 
ATOM      8  C7  BZF d   1       0.988   0.934  -0.810  0.00  0.00     0.029 A 
ATOM      9  C7A BZF d   1       2.096   1.691  -0.517  0.00  0.00     0.058 A 
ENDROOT
TORSDOF 0
ENDMDL
