MODEL 1
REMARK minimizedAffinity 9.61580753
REMARK minimizedRMSD -1
REMARK  0 active torsions:
REMARK  status: ('A' for Active; 'I' for Inactive)
ROOT
ATOM      1  O1  BZF d   1       2.440   4.636   5.999  0.00  0.00    -0.204 OA
ATOM      2  C2  BZF d   1       2.878   5.946   5.957  0.00  0.00     0.174 A 
ATOM      3  C3  BZF d   1       4.226   6.000   5.949  0.00  0.00    -0.012 A 
ATOM      4  C3A BZF d   1       4.656   4.636   5.894  0.00  0.00    -0.107 A 
ATOM      5  C4  BZF d   1       5.884   4.041   5.847  0.00  0.00     0.055 A 
ATOM      6  C5  BZF d   1       5.962   2.684   5.875  0.00  0.00    -0.016 A 
ATOM      7  C6  BZF d   1       4.834   1.894   5.955  0.00  0.00     0.022 A 
ATOM      8  C7  BZF d   1       3.594   2.439   5.999  0.00  0.00     0.029 A 
ATOM      9  C7A BZF d   1       3.511   3.808   5.937  0.00  0.00     0.058 A 
ENDROOT
TORSDOF 0
ENDMDL
