MODEL 1
REMARK minimizedAffinity 7.75977325
REMARK minimizedRMSD -1
REMARK  0 active torsions:
REMARK  status: ('A' for Active; 'I' for Inactive)
ROOT
ATOM      1  O1  BZF d   1       2.739   3.582   2.743  0.00  0.00    -0.204 OA
ATOM      2  C2  BZF d   1       3.667   2.891   1.987  0.00  0.00     0.174 A 
ATOM      3  C3  BZF d   1       4.866   2.870   2.604  0.00  0.00    -0.012 A 
ATOM      4  C3A BZF d   1       4.653   3.514   3.864  0.00  0.00    -0.107 A 
ATOM      5  C4  BZF d   1       5.463   3.786   4.928  0.00  0.00     0.055 A 
ATOM      6  C5  BZF d   1       4.964   4.494   5.975  0.00  0.00    -0.016 A 
ATOM      7  C6  BZF d   1       3.662   4.950   5.988  0.00  0.00     0.022 A 
ATOM      8  C7  BZF d   1       2.818   4.701   4.957  0.00  0.00     0.029 A 
ATOM      9  C7A BZF d   1       3.311   3.957   3.913  0.00  0.00     0.058 A 
ENDROOT
TORSDOF 0
ENDMDL
