MODEL 1
REMARK minimizedAffinity 17.7372265
REMARK minimizedRMSD -1
REMARK  0 active torsions:
REMARK  status: ('A' for Active; 'I' for Inactive)
ROOT
ATOM      1  O1  BZF d   1      -4.681   4.164   2.813  0.00  0.00    -0.204 OA
ATOM      2  C2  BZF d   1      -5.582   5.059   3.358  0.00  0.00     0.174 A 
ATOM      3  C3  BZF d   1      -5.999   5.943   2.429  0.00  0.00    -0.012 A 
ATOM      4  C3A BZF d   1      -5.388   5.521   1.206  0.00  0.00    -0.107 A 
ATOM      5  C4  BZF d   1      -5.432   5.989  -0.076  0.00  0.00     0.055 A 
ATOM      6  C5  BZF d   1      -4.660   5.394  -1.023  0.00  0.00    -0.016 A 
ATOM      7  C6  BZF d   1      -3.831   4.333  -0.722  0.00  0.00     0.022 A 
ATOM      8  C7  BZF d   1      -3.757   3.831   0.534  0.00  0.00     0.029 A 
ATOM      9  C7A BZF d   1      -4.560   4.409   1.487  0.00  0.00     0.058 A 
ENDROOT
TORSDOF 0
ENDMDL
