MODEL 1
REMARK minimizedAffinity 6.4888463
REMARK minimizedRMSD -1
REMARK  0 active torsions:
REMARK  status: ('A' for Active; 'I' for Inactive)
ROOT
ATOM      1  O1  BZF d   1       5.071   2.060   5.900  0.00  0.00    -0.204 OA
ATOM      2  C2  BZF d   1       3.790   1.549   5.984  0.00  0.00     0.174 A 
ATOM      3  C3  BZF d   1       2.879   2.543   5.992  0.00  0.00    -0.012 A 
ATOM      4  C3A BZF d   1       3.633   3.747   5.816  0.00  0.00    -0.107 A 
ATOM      5  C4  BZF d   1       3.289   5.065   5.725  0.00  0.00     0.055 A 
ATOM      6  C5  BZF d   1       4.272   5.999   5.628  0.00  0.00    -0.016 A 
ATOM      7  C6  BZF d   1       5.606   5.650   5.624  0.00  0.00     0.022 A 
ATOM      8  C7  BZF d   1       5.996   4.355   5.707  0.00  0.00     0.029 A 
ATOM      9  C7A BZF d   1       5.005   3.407   5.772  0.00  0.00     0.058 A 
ENDROOT
TORSDOF 0
ENDMDL
