MODEL 1
REMARK minimizedAffinity 11.7482691
REMARK minimizedRMSD -1
REMARK  0 active torsions:
REMARK  status: ('A' for Active; 'I' for Inactive)
ROOT
ATOM      1  O1  BZF d   1      -4.300  -1.168   0.695  0.00  0.00    -0.204 OA
ATOM      2  C2  BZF d   1      -4.877  -2.113   1.522  0.00  0.00     0.174 A 
ATOM      3  C3  BZF d   1      -3.973  -3.045   1.885  0.00  0.00    -0.012 A 
ATOM      4  C3A BZF d   1      -2.733  -2.608   1.320  0.00  0.00    -0.107 A 
ATOM      5  C4  BZF d   1      -1.462  -3.107   1.346  0.00  0.00     0.055 A 
ATOM      6  C5  BZF d   1      -0.492  -2.479   0.631  0.00  0.00    -0.016 A 
ATOM      7  C6  BZF d   1      -0.758  -1.355  -0.123  0.00  0.00     0.022 A 
ATOM      8  C7  BZF d   1      -2.002  -0.821  -0.175  0.00  0.00     0.029 A 
ATOM      9  C7A BZF d   1      -2.978  -1.434   0.572  0.00  0.00     0.058 A 
ENDROOT
TORSDOF 0
ENDMDL
