MODEL 1
REMARK minimizedAffinity 15.4618139
REMARK minimizedRMSD -1
REMARK  0 active torsions:
REMARK  status: ('A' for Active; 'I' for Inactive)
ROOT
ATOM      1  O1  BZF d   1       2.498   2.793   0.183  0.00  0.00    -0.204 OA
ATOM      2  C2  BZF d   1       3.783   3.279   0.329  0.00  0.00     0.174 A 
ATOM      3  C3  BZF d   1       4.651   2.570  -0.422  0.00  0.00    -0.012 A 
ATOM      4  C3A BZF d   1       3.845   1.638  -1.150  0.00  0.00    -0.107 A 
ATOM      5  C4  BZF d   1       4.128   0.673  -2.073  0.00  0.00     0.055 A 
ATOM      6  C5  BZF d   1       3.121  -0.113  -2.537  0.00  0.00    -0.016 A 
ATOM      7  C6  BZF d   1       1.822   0.034  -2.095  0.00  0.00     0.022 A 
ATOM      8  C7  BZF d   1       1.492   0.982  -1.184  0.00  0.00     0.029 A 
ATOM      9  C7A BZF d   1       2.501   1.800  -0.738  0.00  0.00     0.058 A 
ENDROOT
TORSDOF 0
ENDMDL
