MODEL 1
REMARK minimizedAffinity 8.89560986
REMARK minimizedRMSD -1
REMARK  0 active torsions:
REMARK  status: ('A' for Active; 'I' for Inactive)
ROOT
ATOM      1  O1  BZF d   1       4.457   1.980   5.853  0.00  0.00    -0.204 OA
ATOM      2  C2  BZF d   1       3.084   1.854   5.942  0.00  0.00     0.174 A 
ATOM      3  C3  BZF d   1       2.494   3.065   5.993  0.00  0.00    -0.012 A 
ATOM      4  C3A BZF d   1       3.559   4.009   5.840  0.00  0.00    -0.107 A 
ATOM      5  C4  BZF d   1       3.605   5.373   5.792  0.00  0.00     0.055 A 
ATOM      6  C5  BZF d   1       4.813   5.990   5.707  0.00  0.00    -0.016 A 
ATOM      7  C6  BZF d   1       5.993   5.276   5.672  0.00  0.00     0.022 A 
ATOM      8  C7  BZF d   1       5.997   3.921   5.712  0.00  0.00     0.029 A 
ATOM      9  C7A BZF d   1       4.777   3.294   5.764  0.00  0.00     0.058 A 
ENDROOT
TORSDOF 0
ENDMDL
