MODEL 1
REMARK minimizedAffinity 4.46520329
REMARK minimizedRMSD -1
REMARK  0 active torsions:
REMARK  status: ('A' for Active; 'I' for Inactive)
ROOT
ATOM      1  O1  BZF d   1       4.658   1.960   5.928  0.00  0.00    -0.204 OA
ATOM      2  C2  BZF d   1       3.315   1.635   5.918  0.00  0.00     0.174 A 
ATOM      3  C3  BZF d   1       2.553   2.746   5.968  0.00  0.00    -0.012 A 
ATOM      4  C3A BZF d   1       3.476   3.838   5.920  0.00  0.00    -0.107 A 
ATOM      5  C4  BZF d   1       3.326   5.196   5.921  0.00  0.00     0.055 A 
ATOM      6  C5  BZF d   1       4.434   5.983   5.940  0.00  0.00    -0.016 A 
ATOM      7  C6  BZF d   1       5.705   5.447   5.963  0.00  0.00     0.022 A 
ATOM      8  C7  BZF d   1       5.904   4.106   5.958  0.00  0.00     0.029 A 
ATOM      9  C7A BZF d   1       4.787   3.309   5.905  0.00  0.00     0.058 A 
ENDROOT
TORSDOF 0
ENDMDL
