MODEL 1
REMARK minimizedAffinity 8.26580429
REMARK minimizedRMSD -1
REMARK  0 active torsions:
REMARK  status: ('A' for Active; 'I' for Inactive)
ROOT
ATOM      1  O1  BZF d   1       3.443   2.297   5.968  0.00  0.00    -0.204 OA
ATOM      2  C2  BZF d   1       4.557   1.480   5.978  0.00  0.00     0.174 A 
ATOM      3  C3  BZF d   1       5.689   2.213   5.935  0.00  0.00    -0.012 A 
ATOM      4  C3A BZF d   1       5.256   3.576   5.989  0.00  0.00    -0.107 A 
ATOM      5  C4  BZF d   1       5.918   4.771   5.997  0.00  0.00     0.055 A 
ATOM      6  C5  BZF d   1       5.198   5.924   5.981  0.00  0.00    -0.016 A 
ATOM      7  C6  BZF d   1       3.819   5.918   5.953  0.00  0.00     0.022 A 
ATOM      8  C7  BZF d   1       3.119   4.758   5.950  0.00  0.00     0.029 A 
ATOM      9  C7A BZF d   1       3.843   3.591   5.999  0.00  0.00     0.058 A 
ENDROOT
TORSDOF 0
ENDMDL
