MODEL 1
REMARK minimizedAffinity -4.94426775
REMARK minimizedRMSD -1
REMARK  0 active torsions:
REMARK  status: ('A' for Active; 'I' for Inactive)
ROOT
ATOM      1  C2' OXE d   1       1.829   2.185   1.659  0.00  0.00     0.078 C 
ATOM      2  C1' OXE d   1       1.567  -0.468   0.778  0.00  0.00     0.078 C 
ATOM      3  C1  OXE d   1       0.735   0.586   0.092  0.00  0.00    -0.078 A 
ATOM      4  C2  OXE d   1       0.835   1.874   0.560  0.00  0.00    -0.078 A 
ATOM      5  C3  OXE d   1       0.130   2.895  -0.073  0.00  0.00     0.003 A 
ATOM      6  C4  OXE d   1      -0.794   2.598  -1.082  0.00  0.00    -0.002 A 
ATOM      7  C5  OXE d   1      -0.940   1.287  -1.547  0.00  0.00    -0.002 A 
ATOM      8  C6  OXE d   1      -0.154   0.278  -1.001  0.00  0.00     0.003 A 
ENDROOT
TORSDOF 0
ENDMDL
