MODEL 1
REMARK minimizedAffinity -6.24913168
REMARK minimizedRMSD -1
REMARK  0 active torsions:
REMARK  status: ('A' for Active; 'I' for Inactive)
ROOT
ATOM      1  C2' OXE d   1      -0.907   0.917  -2.676  0.00  0.00     0.078 C 
ATOM      2  C1' OXE d   1       0.449   0.113  -0.354  0.00  0.00     0.078 C 
ATOM      3  C1  OXE d   1      -1.026  -0.189  -0.448  0.00  0.00    -0.078 A 
ATOM      4  C2  OXE d   1      -1.691   0.249  -1.567  0.00  0.00    -0.078 A 
ATOM      5  C3  OXE d   1      -3.040  -0.051  -1.729  0.00  0.00     0.003 A 
ATOM      6  C4  OXE d   1      -3.760  -0.661  -0.695  0.00  0.00    -0.002 A 
ATOM      7  C5  OXE d   1      -3.110  -1.080   0.471  0.00  0.00    -0.002 A 
ATOM      8  C6  OXE d   1      -1.738  -0.890   0.592  0.00  0.00     0.003 A 
ENDROOT
TORSDOF 0
ENDMDL
