MODEL 1
REMARK minimizedAffinity 0.878100574
REMARK minimizedRMSD -1
REMARK  0 active torsions:
REMARK  status: ('A' for Active; 'I' for Inactive)
ROOT
ATOM      1  C2' OXE d   1      -0.267   2.030  -0.410  0.00  0.00     0.078 C 
ATOM      2  C1' OXE d   1       2.360   1.418   0.367  0.00  0.00     0.078 C 
ATOM      3  C1  OXE d   1       1.308   0.352   0.545  0.00  0.00    -0.078 A 
ATOM      4  C2  OXE d   1       0.016   0.676   0.206  0.00  0.00    -0.078 A 
ATOM      5  C3  OXE d   1      -0.984  -0.287   0.300  0.00  0.00     0.003 A 
ATOM      6  C4  OXE d   1      -0.715  -1.533   0.880  0.00  0.00    -0.002 A 
ATOM      7  C5  OXE d   1       0.586  -1.870   1.269  0.00  0.00    -0.002 A 
ATOM      8  C6  OXE d   1       1.614  -0.956   1.070  0.00  0.00     0.003 A 
ENDROOT
TORSDOF 0
ENDMDL
