MODEL 1
REMARK minimizedAffinity -3.22744393
REMARK minimizedRMSD -1
REMARK  0 active torsions:
REMARK  status: ('A' for Active; 'I' for Inactive)
ROOT
ATOM      1  C2' OXE d   1       0.501   1.012   0.075  0.00  0.00     0.078 C 
ATOM      2  C1' OXE d   1      -2.057   0.878   1.222  0.00  0.00     0.078 C 
ATOM      3  C1  OXE d   1      -1.833   0.154  -0.082  0.00  0.00    -0.078 A 
ATOM      4  C2  OXE d   1      -0.591   0.264  -0.660  0.00  0.00    -0.078 A 
ATOM      5  C3  OXE d   1      -0.314  -0.428  -1.835  0.00  0.00     0.003 A 
ATOM      6  C4  OXE d   1      -1.333  -1.109  -2.514  0.00  0.00    -0.002 A 
ATOM      7  C5  OXE d   1      -2.615  -1.200  -1.962  0.00  0.00    -0.002 A 
ATOM      8  C6  OXE d   1      -2.870  -0.611  -0.729  0.00  0.00     0.003 A 
ENDROOT
TORSDOF 0
ENDMDL
