MODEL 1
REMARK minimizedAffinity -3.54641628
REMARK minimizedRMSD -1
REMARK  0 active torsions:
REMARK  status: ('A' for Active; 'I' for Inactive)
ROOT
ATOM      1  C2' OXE d   1      -0.131  -1.632   1.498  0.00  0.00     0.078 C 
ATOM      2  C1' OXE d   1       0.707   0.877   0.559  0.00  0.00     0.078 C 
ATOM      3  C1  OXE d   1      -0.341   0.142  -0.238  0.00  0.00    -0.078 A 
ATOM      4  C2  OXE d   1      -0.711  -1.106   0.203  0.00  0.00    -0.078 A 
ATOM      5  C3  OXE d   1      -1.714  -1.803  -0.464  0.00  0.00     0.003 A 
ATOM      6  C4  OXE d   1      -2.238  -1.314  -1.667  0.00  0.00    -0.002 A 
ATOM      7  C5  OXE d   1      -1.846  -0.063  -2.155  0.00  0.00    -0.002 A 
ATOM      8  C6  OXE d   1      -0.932   0.695  -1.432  0.00  0.00     0.003 A 
ENDROOT
TORSDOF 0
ENDMDL
