MODEL 1
REMARK minimizedAffinity -4.8766613
REMARK minimizedRMSD -1
REMARK  0 active torsions:
REMARK  status: ('A' for Active; 'I' for Inactive)
ROOT
ATOM      1  C2' OXE d   1      -3.084  -0.724  -0.064  0.00  0.00     0.078 C 
ATOM      2  C1' OXE d   1      -1.054  -1.866   1.505  0.00  0.00     0.078 C 
ATOM      3  C1  OXE d   1      -0.660  -0.807   0.505  0.00  0.00    -0.078 A 
ATOM      4  C2  OXE d   1      -1.652  -0.288  -0.291  0.00  0.00    -0.078 A 
ATOM      5  C3  OXE d   1      -1.352   0.730  -1.191  0.00  0.00     0.003 A 
ATOM      6  C4  OXE d   1      -0.024   1.121  -1.402  0.00  0.00    -0.002 A 
ATOM      7  C5  OXE d   1       1.007   0.576  -0.630  0.00  0.00    -0.002 A 
ATOM      8  C6  OXE d   1       0.702  -0.357   0.355  0.00  0.00     0.003 A 
ENDROOT
TORSDOF 0
ENDMDL
