MODEL 1
REMARK minimizedAffinity 0.502654135
REMARK minimizedRMSD -1
REMARK  0 active torsions:
REMARK  status: ('A' for Active; 'I' for Inactive)
ROOT
ATOM      1  C2' OXE d   1       0.390  -0.197  -0.803  0.00  0.00     0.078 C 
ATOM      2  C1' OXE d   1       1.258  -1.603   1.466  0.00  0.00     0.078 C 
ATOM      3  C1  OXE d   1      -0.182  -1.157   1.424  0.00  0.00    -0.078 A 
ATOM      4  C2  OXE d   1      -0.586  -0.429   0.331  0.00  0.00    -0.078 A 
ATOM      5  C3  OXE d   1      -1.918  -0.039   0.216  0.00  0.00     0.003 A 
ATOM      6  C4  OXE d   1      -2.811  -0.249   1.273  0.00  0.00    -0.002 A 
ATOM      7  C5  OXE d   1      -2.409  -0.954   2.413  0.00  0.00    -0.002 A 
ATOM      8  C6  OXE d   1      -1.113  -1.451   2.485  0.00  0.00     0.003 A 
ENDROOT
TORSDOF 0
ENDMDL
