MODEL 1
REMARK minimizedAffinity -3.4013927
REMARK minimizedRMSD -1
REMARK  0 active torsions:
REMARK  status: ('A' for Active; 'I' for Inactive)
ROOT
ATOM      1  C2' OXE d   1      -1.132  -2.201   1.823  0.00  0.00     0.078 C 
ATOM      2  C1' OXE d   1      -3.017  -1.351  -0.076  0.00  0.00     0.078 C 
ATOM      3  C1  OXE d   1      -1.573  -0.973  -0.299  0.00  0.00    -0.078 A 
ATOM      4  C2  OXE d   1      -0.665  -1.353   0.660  0.00  0.00    -0.078 A 
ATOM      5  C3  OXE d   1       0.687  -1.077   0.476  0.00  0.00     0.003 A 
ATOM      6  C4  OXE d   1       1.109  -0.284  -0.597  0.00  0.00    -0.002 A 
ATOM      7  C5  OXE d   1       0.195   0.147  -1.564  0.00  0.00    -0.002 A 
ATOM      8  C6  OXE d   1      -1.141  -0.224  -1.453  0.00  0.00     0.003 A 
ENDROOT
TORSDOF 0
ENDMDL
