MODEL 1
REMARK minimizedAffinity -4.7562623
REMARK minimizedRMSD -1
REMARK  0 active torsions:
REMARK  status: ('A' for Active; 'I' for Inactive)
ROOT
ATOM      1  C2' OXE d   1       1.610  -0.716   0.885  0.00  0.00     0.078 C 
ATOM      2  C1' OXE d   1       1.879   2.015   0.293  0.00  0.00     0.078 C 
ATOM      3  C1  OXE d   1       0.541   1.368   0.035  0.00  0.00    -0.078 A 
ATOM      4  C2  OXE d   1       0.432   0.021   0.284  0.00  0.00    -0.078 A 
ATOM      5  C3  OXE d   1      -0.795  -0.614   0.116  0.00  0.00     0.003 A 
ATOM      6  C4  OXE d   1      -1.876   0.072  -0.450  0.00  0.00    -0.002 A 
ATOM      7  C5  OXE d   1      -1.775   1.435  -0.748  0.00  0.00    -0.002 A 
ATOM      8  C6  OXE d   1      -0.588   2.106  -0.472  0.00  0.00     0.003 A 
ENDROOT
TORSDOF 0
ENDMDL
