MODEL 1
REMARK minimizedAffinity -5.99100924
REMARK minimizedRMSD -1
REMARK  0 active torsions:
REMARK  status: ('A' for Active; 'I' for Inactive)
ROOT
ATOM      1  C2' OXE d   1      -0.937  -1.172   1.718  0.00  0.00     0.078 C 
ATOM      2  C1' OXE d   1       0.796  -0.013  -0.162  0.00  0.00     0.078 C 
ATOM      3  C1  OXE d   1      -0.658  -0.152  -0.537  0.00  0.00    -0.078 A 
ATOM      4  C2  OXE d   1      -1.490  -0.762   0.370  0.00  0.00    -0.078 A 
ATOM      5  C3  OXE d   1      -2.851  -0.866   0.097  0.00  0.00     0.003 A 
ATOM      6  C4  OXE d   1      -3.352  -0.493  -1.156  0.00  0.00    -0.002 A 
ATOM      7  C5  OXE d   1      -2.515   0.094  -2.110  0.00  0.00    -0.002 A 
ATOM      8  C6  OXE d   1      -1.177   0.311  -1.801  0.00  0.00     0.003 A 
ENDROOT
TORSDOF 0
ENDMDL
