MODEL 1
REMARK minimizedAffinity -4.94465399
REMARK minimizedRMSD -1
REMARK  0 active torsions:
REMARK  status: ('A' for Active; 'I' for Inactive)
ROOT
ATOM      1  C2' OXE d   1      -1.075   0.495  -2.590  0.00  0.00     0.078 C 
ATOM      2  C1' OXE d   1      -2.733  -1.027  -0.911  0.00  0.00     0.078 C 
ATOM      3  C1  OXE d   1      -1.371  -0.640  -0.392  0.00  0.00    -0.078 A 
ATOM      4  C2  OXE d   1      -0.548   0.065  -1.238  0.00  0.00    -0.078 A 
ATOM      5  C3  OXE d   1       0.698   0.494  -0.789  0.00  0.00     0.003 A 
ATOM      6  C4  OXE d   1       1.181   0.083   0.459  0.00  0.00    -0.002 A 
ATOM      7  C5  OXE d   1       0.375  -0.669   1.320  0.00  0.00    -0.002 A 
ATOM      8  C6  OXE d   1      -0.916  -1.001   0.928  0.00  0.00     0.003 A 
ENDROOT
TORSDOF 0
ENDMDL
