MODEL 1
REMARK minimizedAffinity -5.88140345
REMARK minimizedRMSD -1
REMARK  0 active torsions:
REMARK  status: ('A' for Active; 'I' for Inactive)
ROOT
ATOM      1  C2' OXE d   1      -2.390   0.289  -2.401  0.00  0.00     0.078 C 
ATOM      2  C1' OXE d   1      -3.158  -0.625   0.140  0.00  0.00     0.078 C 
ATOM      3  C1  OXE d   1      -1.694  -0.350  -0.096  0.00  0.00    -0.078 A 
ATOM      4  C2  OXE d   1      -1.321   0.052  -1.356  0.00  0.00    -0.078 A 
ATOM      5  C3  OXE d   1       0.009   0.372  -1.612  0.00  0.00     0.003 A 
ATOM      6  C4  OXE d   1       0.993   0.141  -0.643  0.00  0.00    -0.002 A 
ATOM      7  C5  OXE d   1       0.640  -0.306   0.635  0.00  0.00    -0.002 A 
ATOM      8  C6  OXE d   1      -0.701  -0.515   0.937  0.00  0.00     0.003 A 
ENDROOT
TORSDOF 0
ENDMDL
