MODEL 1
REMARK minimizedAffinity -2.29604721
REMARK minimizedRMSD -1
REMARK  0 active torsions:
REMARK  status: ('A' for Active; 'I' for Inactive)
ROOT
ATOM      1  C2' OXE d   1       0.606   0.563   0.669  0.00  0.00     0.078 C 
ATOM      2  C1' OXE d   1      -0.536  -1.820   1.615  0.00  0.00     0.078 C 
ATOM      3  C1  OXE d   1      -1.081  -1.239   0.334  0.00  0.00    -0.078 A 
ATOM      4  C2  OXE d   1      -0.548  -0.048  -0.097  0.00  0.00    -0.078 A 
ATOM      5  C3  OXE d   1      -0.976   0.503  -1.301  0.00  0.00     0.003 A 
ATOM      6  C4  OXE d   1      -2.050  -0.064  -1.998  0.00  0.00    -0.002 A 
ATOM      7  C5  OXE d   1      -2.634  -1.255  -1.555  0.00  0.00    -0.002 A 
ATOM      8  C6  OXE d   1      -2.134  -1.877  -0.416  0.00  0.00     0.003 A 
ENDROOT
TORSDOF 0
ENDMDL
