MODEL 1
REMARK minimizedAffinity -4.95514345
REMARK minimizedRMSD -1
REMARK  0 active torsions:
REMARK  status: ('A' for Active; 'I' for Inactive)
ROOT
ATOM      1  C2' OXE d   1       0.693   0.971   0.011  0.00  0.00     0.078 C 
ATOM      2  C1' OXE d   1      -0.028  -0.341  -2.363  0.00  0.00     0.078 C 
ATOM      3  C1  OXE d   1      -1.084  -0.183  -1.298  0.00  0.00    -0.078 A 
ATOM      4  C2  OXE d   1      -0.710   0.419  -0.121  0.00  0.00    -0.078 A 
ATOM      5  C3  OXE d   1      -1.659   0.639   0.873  0.00  0.00     0.003 A 
ATOM      6  C4  OXE d   1      -2.952   0.116   0.747  0.00  0.00    -0.002 A 
ATOM      7  C5  OXE d   1      -3.343  -0.536  -0.428  0.00  0.00    -0.002 A 
ATOM      8  C6  OXE d   1      -2.435  -0.656  -1.475  0.00  0.00     0.003 A 
ENDROOT
TORSDOF 0
ENDMDL
