MODEL 1
REMARK minimizedAffinity -3.30731416
REMARK minimizedRMSD -1
REMARK  0 active torsions:
REMARK  status: ('A' for Active; 'I' for Inactive)
ROOT
ATOM      1  C2' OXE d   1      -2.504  -0.451   0.508  0.00  0.00     0.078 C 
ATOM      2  C1' OXE d   1      -0.508  -1.594   2.118  0.00  0.00     0.078 C 
ATOM      3  C1  OXE d   1      -0.084  -0.578   1.086  0.00  0.00    -0.078 A 
ATOM      4  C2  OXE d   1      -1.061  -0.059   0.272  0.00  0.00    -0.078 A 
ATOM      5  C3  OXE d   1      -0.733   0.922  -0.660  0.00  0.00     0.003 A 
ATOM      6  C4  OXE d   1       0.605   1.272  -0.879  0.00  0.00    -0.002 A 
ATOM      7  C5  OXE d   1       1.620   0.726  -0.087  0.00  0.00    -0.002 A 
ATOM      8  C6  OXE d   1       1.289  -0.167   0.926  0.00  0.00     0.003 A 
ENDROOT
TORSDOF 0
ENDMDL
