MODEL 1
REMARK minimizedAffinity -4.75317574
REMARK minimizedRMSD -1
REMARK  0 active torsions:
REMARK  status: ('A' for Active; 'I' for Inactive)
ROOT
ATOM      1  C2' OXE d   1       0.264   0.070  -0.603  0.00  0.00     0.078 C 
ATOM      2  C1' OXE d   1       0.770  -1.369   1.754  0.00  0.00     0.078 C 
ATOM      3  C1  OXE d   1       1.226   0.067   1.695  0.00  0.00    -0.078 A 
ATOM      4  C2  OXE d   1       1.016   0.750   0.521  0.00  0.00    -0.078 A 
ATOM      5  C3  OXE d   1       1.368   2.093   0.433  0.00  0.00     0.003 A 
ATOM      6  C4  OXE d   1       2.072   2.712   1.474  0.00  0.00    -0.002 A 
ATOM      7  C5  OXE d   1       2.331   2.023   2.663  0.00  0.00    -0.002 A 
ATOM      8  C6  OXE d   1       1.878   0.716   2.806  0.00  0.00     0.003 A 
ENDROOT
TORSDOF 0
ENDMDL
