MODEL 1
REMARK minimizedAffinity -1.54077935
REMARK minimizedRMSD -1
REMARK  0 active torsions:
REMARK  status: ('A' for Active; 'I' for Inactive)
ROOT
ATOM      1  C2' OXE d   1      -1.531   1.708  -0.741  0.00  0.00     0.078 C 
ATOM      2  C1' OXE d   1      -0.223  -0.554   0.285  0.00  0.00     0.078 C 
ATOM      3  C1  OXE d   1      -1.150  -0.750  -0.889  0.00  0.00    -0.078 A 
ATOM      4  C2  OXE d   1      -1.822   0.355  -1.354  0.00  0.00    -0.078 A 
ATOM      5  C3  OXE d   1      -2.647   0.240  -2.469  0.00  0.00     0.003 A 
ATOM      6  C4  OXE d   1      -2.919  -1.016  -3.024  0.00  0.00    -0.002 A 
ATOM      7  C5  OXE d   1      -2.275  -2.160  -2.540  0.00  0.00    -0.002 A 
ATOM      8  C6  OXE d   1      -1.358  -2.038  -1.502  0.00  0.00     0.003 A 
ENDROOT
TORSDOF 0
ENDMDL
