MODEL 1
REMARK minimizedAffinity 10.9407663
REMARK minimizedRMSD -1
REMARK  3 active torsions:
REMARK  status: ('A' for Active; 'I' for Inactive)
REMARK    1  A    between atoms: C3'_2  and  C2'_3 
REMARK    2  A    between atoms: C2'_3  and  C1'_4 
REMARK    3  A    between atoms: C1'_4  and  C1_5 
ROOT
ATOM      1  C1  N4B d   1      -5.905   3.512  -1.524  0.00  0.00    -0.075 A 
ATOM      2  C2  N4B d   1      -5.988   3.177  -2.894  0.00  0.00     0.002 A 
ATOM      3  C3  N4B d   1      -5.996   4.168  -3.844  0.00  0.00     0.002 A 
ATOM      4  C4  N4B d   1      -5.941   5.497  -3.449  0.00  0.00    -0.004 A 
ATOM      5  C5  N4B d   1      -5.836   5.811  -2.126  0.00  0.00     0.002 A 
ATOM      6  C6  N4B d   1      -5.823   4.824  -1.160  0.00  0.00     0.002 A 
ENDROOT
BRANCH   1   7
ATOM      7  C1' N4B d   1      -5.980   2.466  -0.445  0.00  0.00     0.057 C 
BRANCH   7   8
ATOM      8  C2' N4B d   1      -5.955   3.151   0.918  0.00  0.00     0.009 C 
BRANCH   8   9
ATOM      9  C3' N4B d   1      -5.090   2.399   1.915  0.00  0.00     0.004 C 
ATOM     10  C4' N4B d   1      -3.787   1.946   1.329  0.00  0.00     0.003 C 
ENDBRANCH   8   9
ENDBRANCH   7   8
ENDBRANCH   1   7
TORSDOF 3
ENDMDL
