MODEL 1
REMARK minimizedAffinity 12.6235361
REMARK minimizedRMSD -1
REMARK  3 active torsions:
REMARK  status: ('A' for Active; 'I' for Inactive)
REMARK    1  A    between atoms: C3'_2  and  C2'_3 
REMARK    2  A    between atoms: C2'_3  and  C1'_4 
REMARK    3  A    between atoms: C1'_4  and  C1_5 
ROOT
ATOM      1  C1  N4B d   1       1.858  -2.013   4.390  0.00  0.00    -0.075 A 
ATOM      2  C2  N4B d   1       2.120  -2.793   3.242  0.00  0.00     0.002 A 
ATOM      3  C3  N4B d   1       2.037  -2.226   1.993  0.00  0.00     0.002 A 
ATOM      4  C4  N4B d   1       1.679  -0.893   1.868  0.00  0.00    -0.004 A 
ATOM      5  C5  N4B d   1       1.453  -0.140   2.983  0.00  0.00     0.002 A 
ATOM      6  C6  N4B d   1       1.536  -0.695   4.244  0.00  0.00     0.002 A 
ENDROOT
BRANCH   1   7
ATOM      7  C1' N4B d   1       1.852  -2.610   5.770  0.00  0.00     0.057 C 
BRANCH   7   8
ATOM      8  C2' N4B d   1       0.559  -3.396   5.971  0.00  0.00     0.009 C 
BRANCH   8   9
ATOM      9  C3' N4B d   1       0.804  -4.895   6.000  0.00  0.00     0.004 C 
ATOM     10  C4' N4B d   1      -0.467  -5.691   5.999  0.00  0.00     0.003 C 
ENDBRANCH   8   9
ENDBRANCH   7   8
ENDBRANCH   1   7
TORSDOF 3
ENDMDL
