MODEL 1
REMARK minimizedAffinity 9.82056522
REMARK minimizedRMSD -1
REMARK  3 active torsions:
REMARK  status: ('A' for Active; 'I' for Inactive)
REMARK    1  A    between atoms: C3'_2  and  C2'_3 
REMARK    2  A    between atoms: C2'_3  and  C1'_4 
REMARK    3  A    between atoms: C1'_4  and  C1_5 
ROOT
ATOM      1  C1  N4B d   1      -1.012   1.324   0.957  0.00  0.00    -0.075 A 
ATOM      2  C2  N4B d   1      -1.858   0.195   0.885  0.00  0.00     0.002 A 
ATOM      3  C3  N4B d   1      -1.424  -1.019   1.358  0.00  0.00     0.002 A 
ATOM      4  C4  N4B d   1      -0.147  -1.131   1.888  0.00  0.00    -0.004 A 
ATOM      5  C5  N4B d   1       0.653  -0.031   1.978  0.00  0.00     0.002 A 
ATOM      6  C6  N4B d   1       0.229   1.197   1.510  0.00  0.00     0.002 A 
ENDROOT
BRANCH   1   7
ATOM      7  C1' N4B d   1      -1.410   2.653   0.375  0.00  0.00     0.057 C 
BRANCH   7   8
ATOM      8  C2' N4B d   1      -0.202   3.585   0.382  0.00  0.00     0.009 C 
BRANCH   8   9
ATOM      9  C3' N4B d   1      -0.465   4.849   1.183  0.00  0.00     0.004 C 
ATOM     10  C4' N4B d   1      -0.902   5.999   0.326  0.00  0.00     0.003 C 
ENDBRANCH   8   9
ENDBRANCH   7   8
ENDBRANCH   1   7
TORSDOF 3
ENDMDL
