MODEL 1
REMARK minimizedAffinity -6.01052713
REMARK minimizedRMSD -1
REMARK  3 active torsions:
REMARK  status: ('A' for Active; 'I' for Inactive)
REMARK    1  A    between atoms: C3'_2  and  C2'_3 
REMARK    2  A    between atoms: C2'_3  and  C1'_4 
REMARK    3  A    between atoms: C1'_4  and  C1_5 
ROOT
ATOM      1  C1  N4B d   1       0.293  -0.180  -0.050  0.00  0.00    -0.075 A 
ATOM      2  C2  N4B d   1       1.384   0.133   0.791  0.00  0.00     0.002 A 
ATOM      3  C3  N4B d   1       2.321  -0.827   1.086  0.00  0.00     0.002 A 
ATOM      4  C4  N4B d   1       2.178  -2.106   0.570  0.00  0.00    -0.004 A 
ATOM      5  C5  N4B d   1       1.135  -2.394  -0.261  0.00  0.00     0.002 A 
ATOM      6  C6  N4B d   1       0.189  -1.438  -0.569  0.00  0.00     0.002 A 
ENDROOT
BRANCH   1   7
ATOM      7  C1' N4B d   1      -0.802   0.811  -0.332  0.00  0.00     0.057 C 
BRANCH   7   8
ATOM      8  C2' N4B d   1      -2.140   0.214   0.094  0.00  0.00     0.009 C 
BRANCH   8   9
ATOM      9  C3' N4B d   1      -2.623   0.787   1.415  0.00  0.00     0.004 C 
ATOM     10  C4' N4B d   1      -4.089   1.104   1.409  0.00  0.00     0.003 C 
ENDBRANCH   8   9
ENDBRANCH   7   8
ENDBRANCH   1   7
TORSDOF 3
ENDMDL
