MODEL 1
REMARK minimizedAffinity -6.5463171
REMARK minimizedRMSD -1
REMARK  3 active torsions:
REMARK  status: ('A' for Active; 'I' for Inactive)
REMARK    1  A    between atoms: C3'_2  and  C2'_3 
REMARK    2  A    between atoms: C2'_3  and  C1'_4 
REMARK    3  A    between atoms: C1'_4  and  C1_5 
ROOT
ATOM      1  C1  N4B d   1       0.774   0.047   0.153  0.00  0.00    -0.075 A 
ATOM      2  C2  N4B d   1       1.814   0.914   0.554  0.00  0.00     0.002 A 
ATOM      3  C3  N4B d   1       3.007   0.398   0.995  0.00  0.00     0.002 A 
ATOM      4  C4  N4B d   1       3.177  -0.977   1.060  0.00  0.00    -0.004 A 
ATOM      5  C5  N4B d   1       2.177  -1.808   0.646  0.00  0.00     0.002 A 
ATOM      6  C6  N4B d   1       0.974  -1.302   0.197  0.00  0.00     0.002 A 
ENDROOT
BRANCH   1   7
ATOM      7  C1' N4B d   1      -0.578   0.564  -0.255  0.00  0.00     0.057 C 
BRANCH   7   8
ATOM      8  C2' N4B d   1      -1.656  -0.178   0.530  0.00  0.00     0.009 C 
BRANCH   8   9
ATOM      9  C3' N4B d   1      -2.833   0.720   0.869  0.00  0.00     0.004 C 
ATOM     10  C4' N4B d   1      -3.250   0.614   2.305  0.00  0.00     0.003 C 
ENDBRANCH   8   9
ENDBRANCH   7   8
ENDBRANCH   1   7
TORSDOF 3
ENDMDL
