MODEL 1
REMARK minimizedAffinity -4.03275537
REMARK minimizedRMSD -1
REMARK  3 active torsions:
REMARK  status: ('A' for Active; 'I' for Inactive)
REMARK    1  A    between atoms: C3'_2  and  C2'_3 
REMARK    2  A    between atoms: C2'_3  and  C1'_4 
REMARK    3  A    between atoms: C1'_4  and  C1_5 
ROOT
ATOM      1  C1  N4B d   1      -0.071  -0.336  -0.340  0.00  0.00    -0.075 A 
ATOM      2  C2  N4B d   1       0.192  -1.671  -0.718  0.00  0.00     0.002 A 
ATOM      3  C3  N4B d   1       1.388  -2.257  -0.381  0.00  0.00     0.002 A 
ATOM      4  C4  N4B d   1       2.338  -1.525   0.315  0.00  0.00    -0.004 A 
ATOM      5  C5  N4B d   1       2.066  -0.245   0.698  0.00  0.00     0.002 A 
ATOM      6  C6  N4B d   1       0.868   0.356   0.370  0.00  0.00     0.002 A 
ENDROOT
BRANCH   1   7
ATOM      7  C1' N4B d   1      -1.328   0.375  -0.760  0.00  0.00     0.057 C 
BRANCH   7   8
ATOM      8  C2' N4B d   1      -1.874   1.168   0.423  0.00  0.00     0.009 C 
BRANCH   8   9
ATOM      9  C3' N4B d   1      -3.294   0.758   0.775  0.00  0.00     0.004 C 
ATOM     10  C4' N4B d   1      -3.700   1.191   2.152  0.00  0.00     0.003 C 
ENDBRANCH   8   9
ENDBRANCH   7   8
ENDBRANCH   1   7
TORSDOF 3
ENDMDL
