MODEL 1
REMARK minimizedAffinity -0.0652919114
REMARK minimizedRMSD -1
REMARK  1 active torsions:
REMARK  status: ('A' for Active; 'I' for Inactive)
REMARK    1  A    between atoms: C1_2  and  C2_3 
ROOT
ATOM      1  C2  UNL d   1       0.107  -2.724   1.864  0.00  0.00    -0.077 A 
ATOM      2  C3  UNL d   1      -1.294  -2.782   1.854  0.00  0.00     0.002 A 
ATOM      3  C4  UNL d   1      -1.958  -3.673   1.009  0.00  0.00     0.002 A 
ATOM      4  C5  UNL d   1      -1.230  -4.515   0.171  0.00  0.00    -0.004 A 
ATOM      5  C6  UNL d   1       0.164  -4.463   0.172  0.00  0.00     0.002 A 
ATOM      6  C7  UNL d   1       0.829  -3.572   1.015  0.00  0.00     0.002 A 
ENDROOT
BRANCH   1   7
ATOM      7  C1  UNL d   1       0.826  -1.798   2.810  0.00  0.00     0.055 C 
ATOM      8  C   UNL d   1       2.277  -2.216   2.998  0.00  0.00     0.019 C 
ENDBRANCH   1   7
TORSDOF 1
ENDMDL
