MODEL 1
REMARK minimizedAffinity 4.82287025
REMARK minimizedRMSD -1
REMARK  1 active torsions:
REMARK  status: ('A' for Active; 'I' for Inactive)
REMARK    1  A    between atoms: C1_2  and  C2_3 
ROOT
ATOM      1  C2  UNL d   1       0.762   4.259  -3.657  0.00  0.00    -0.077 A 
ATOM      2  C3  UNL d   1      -0.626   4.457  -3.629  0.00  0.00     0.002 A 
ATOM      3  C4  UNL d   1      -1.304   4.872  -4.776  0.00  0.00     0.002 A 
ATOM      4  C5  UNL d   1      -0.604   5.089  -5.961  0.00  0.00    -0.004 A 
ATOM      5  C6  UNL d   1       0.777   4.897  -5.999  0.00  0.00     0.002 A 
ATOM      6  C7  UNL d   1       1.456   4.483  -4.853  0.00  0.00     0.002 A 
ENDROOT
BRANCH   1   7
ATOM      7  C1  UNL d   1       1.487   3.764  -2.434  0.00  0.00     0.055 C 
ATOM      8  C   UNL d   1       1.234   2.282  -2.202  0.00  0.00     0.019 C 
ENDBRANCH   1   7
TORSDOF 1
ENDMDL
