MODEL 1
REMARK minimizedAffinity -1.7621907
REMARK minimizedRMSD -1
REMARK  1 active torsions:
REMARK  status: ('A' for Active; 'I' for Inactive)
REMARK    1  A    between atoms: C1_2  and  C2_3 
ROOT
ATOM      1  C2  UNL d   1      -3.933  -5.793  -4.956  0.00  0.00    -0.077 A 
ATOM      2  C3  UNL d   1      -3.857  -5.347  -3.629  0.00  0.00     0.002 A 
ATOM      3  C4  UNL d   1      -2.616  -5.111  -3.033  0.00  0.00     0.002 A 
ATOM      4  C5  UNL d   1      -1.444  -5.315  -3.758  0.00  0.00    -0.004 A 
ATOM      5  C6  UNL d   1      -1.509  -5.761  -5.078  0.00  0.00     0.002 A 
ATOM      6  C7  UNL d   1      -2.749  -5.998  -5.674  0.00  0.00     0.002 A 
ENDROOT
BRANCH   1   7
ATOM      7  C1  UNL d   1      -5.272  -6.000  -5.615  0.00  0.00     0.055 C 
ATOM      8  C   UNL d   1      -6.000  -4.679  -5.818  0.00  0.00     0.019 C 
ENDBRANCH   1   7
TORSDOF 1
ENDMDL
