MODEL 1
REMARK minimizedAffinity 1.28380096
REMARK minimizedRMSD -1
REMARK  1 active torsions:
REMARK  status: ('A' for Active; 'I' for Inactive)
REMARK    1  A    between atoms: C1_2  and  C2_3 
ROOT
ATOM      1  C2  UNL d   1       0.923   4.259  -3.845  0.00  0.00    -0.077 A 
ATOM      2  C3  UNL d   1       1.698   4.642  -4.949  0.00  0.00     0.002 A 
ATOM      3  C4  UNL d   1       1.125   5.366  -5.996  0.00  0.00     0.002 A 
ATOM      4  C5  UNL d   1      -0.222   5.717  -5.948  0.00  0.00    -0.004 A 
ATOM      5  C6  UNL d   1      -1.001   5.339  -4.855  0.00  0.00     0.002 A 
ATOM      6  C7  UNL d   1      -0.431   4.614  -3.808  0.00  0.00     0.002 A 
ENDROOT
BRANCH   1   7
ATOM      7  C1  UNL d   1       1.551   3.520  -2.692  0.00  0.00     0.055 C 
ATOM      8  C   UNL d   1       1.248   2.030  -2.758  0.00  0.00     0.019 C 
ENDBRANCH   1   7
TORSDOF 1
ENDMDL
