MODEL 1
REMARK minimizedAffinity 10.502512
REMARK minimizedRMSD -1
REMARK  1 active torsions:
REMARK  status: ('A' for Active; 'I' for Inactive)
REMARK    1  A    between atoms: C1_2  and  C2_3 
ROOT
ATOM      1  C2  UNL d   1       0.035   3.893  -3.825  0.00  0.00    -0.077 A 
ATOM      2  C3  UNL d   1      -1.268   4.411  -3.791  0.00  0.00     0.002 A 
ATOM      3  C4  UNL d   1      -1.750   5.182  -4.850  0.00  0.00     0.002 A 
ATOM      4  C5  UNL d   1      -0.938   5.438  -5.953  0.00  0.00    -0.004 A 
ATOM      5  C6  UNL d   1       0.360   4.930  -5.996  0.00  0.00     0.002 A 
ATOM      6  C7  UNL d   1       0.844   4.160  -4.937  0.00  0.00     0.002 A 
ENDROOT
BRANCH   1   7
ATOM      7  C1  UNL d   1       0.539   3.020  -2.706  0.00  0.00     0.055 C 
ATOM      8  C   UNL d   1       1.929   3.447  -2.255  0.00  0.00     0.019 C 
ENDBRANCH   1   7
TORSDOF 1
ENDMDL
