MODEL 1
REMARK minimizedAffinity 4.95179415
REMARK minimizedRMSD -1
REMARK  1 active torsions:
REMARK  status: ('A' for Active; 'I' for Inactive)
REMARK    1  A    between atoms: C1_2  and  C2_3 
ROOT
ATOM      1  C2  UNL d   1      -4.378  -3.815   2.985  0.00  0.00    -0.077 A 
ATOM      2  C3  UNL d   1      -5.306  -4.624   2.314  0.00  0.00     0.002 A 
ATOM      3  C4  UNL d   1      -5.999  -5.623   3.000  0.00  0.00     0.002 A 
ATOM      4  C5  UNL d   1      -5.773  -5.821   4.360  0.00  0.00    -0.004 A 
ATOM      5  C6  UNL d   1      -4.851  -5.024   5.036  0.00  0.00     0.002 A 
ATOM      6  C7  UNL d   1      -4.157  -4.025   4.352  0.00  0.00     0.002 A 
ENDROOT
BRANCH   1   7
ATOM      7  C1  UNL d   1      -3.666  -2.704   2.258  0.00  0.00     0.055 C 
ATOM      8  C   UNL d   1      -2.407  -3.211   1.570  0.00  0.00     0.019 C 
ENDBRANCH   1   7
TORSDOF 1
ENDMDL
