MODEL 1
REMARK minimizedAffinity 0.879882038
REMARK minimizedRMSD -1
REMARK  1 active torsions:
REMARK  status: ('A' for Active; 'I' for Inactive)
REMARK    1  A    between atoms: C1_2  and  C2_3 
ROOT
ATOM      1  C2  UNL d   1       0.782   3.389  -2.904  0.00  0.00    -0.077 A 
ATOM      2  C3  UNL d   1      -0.431   3.245  -3.592  0.00  0.00     0.002 A 
ATOM      3  C4  UNL d   1      -0.772   4.131  -4.616  0.00  0.00     0.002 A 
ATOM      4  C5  UNL d   1       0.096   5.163  -4.963  0.00  0.00    -0.004 A 
ATOM      5  C6  UNL d   1       1.304   5.316  -4.284  0.00  0.00     0.002 A 
ATOM      6  C7  UNL d   1       1.646   4.433  -3.259  0.00  0.00     0.002 A 
ENDROOT
BRANCH   1   7
ATOM      7  C1  UNL d   1       1.173   2.405  -1.832  0.00  0.00     0.055 C 
ATOM      8  C   UNL d   1       1.207   3.064  -0.461  0.00  0.00     0.019 C 
ENDBRANCH   1   7
TORSDOF 1
ENDMDL
