MODEL 1
REMARK minimizedAffinity 1.30388904
REMARK minimizedRMSD -1
REMARK  1 active torsions:
REMARK  status: ('A' for Active; 'I' for Inactive)
REMARK    1  A    between atoms: C1_2  and  C2_3 
ROOT
ATOM      1  C2  UNL d   1       1.003   4.262  -4.095  0.00  0.00    -0.077 A 
ATOM      2  C3  UNL d   1      -0.387   4.081  -4.083  0.00  0.00     0.002 A 
ATOM      3  C4  UNL d   1      -1.193   4.730  -5.021  0.00  0.00     0.002 A 
ATOM      4  C5  UNL d   1      -0.617   5.561  -5.980  0.00  0.00    -0.004 A 
ATOM      5  C6  UNL d   1       0.765   5.749  -5.999  0.00  0.00     0.002 A 
ATOM      6  C7  UNL d   1       1.571   5.102  -5.062  0.00  0.00     0.002 A 
ENDROOT
BRANCH   1   7
ATOM      7  C1  UNL d   1       1.878   3.524  -3.116  0.00  0.00     0.055 C 
ATOM      8  C   UNL d   1       1.151   2.330  -2.515  0.00  0.00     0.019 C 
ENDBRANCH   1   7
TORSDOF 1
ENDMDL
