MODEL 1
REMARK minimizedAffinity 4.82052183
REMARK minimizedRMSD -1
REMARK  1 active torsions:
REMARK  status: ('A' for Active; 'I' for Inactive)
REMARK    1  A    between atoms: C1_2  and  C2_3 
ROOT
ATOM      1  C2  UNL d   1       0.738   4.421  -3.848  0.00  0.00    -0.077 A 
ATOM      2  C3  UNL d   1       1.502   4.888  -4.927  0.00  0.00     0.002 A 
ATOM      3  C4  UNL d   1       0.888   5.539  -5.998  0.00  0.00     0.002 A 
ATOM      4  C5  UNL d   1      -0.492   5.732  -6.000  0.00  0.00    -0.004 A 
ATOM      5  C6  UNL d   1      -1.261   5.269  -4.933  0.00  0.00     0.002 A 
ATOM      6  C7  UNL d   1      -0.649   4.617  -3.861  0.00  0.00     0.002 A 
ENDROOT
BRANCH   1   7
ATOM      7  C1  UNL d   1       1.405   3.762  -2.669  0.00  0.00     0.055 C 
ATOM      8  C   UNL d   1       1.122   2.268  -2.636  0.00  0.00     0.019 C 
ENDBRANCH   1   7
TORSDOF 1
ENDMDL
