MODEL 1
REMARK minimizedAffinity 4.34438658
REMARK minimizedRMSD -1
REMARK  1 active torsions:
REMARK  status: ('A' for Active; 'I' for Inactive)
REMARK    1  A    between atoms: C1_2  and  C2_3 
ROOT
ATOM      1  C2  UNL d   1       0.266   3.656  -3.277  0.00  0.00    -0.077 A 
ATOM      2  C3  UNL d   1      -0.256   2.480  -2.719  0.00  0.00     0.002 A 
ATOM      3  C4  UNL d   1       0.568   1.615  -1.996  0.00  0.00     0.002 A 
ATOM      4  C5  UNL d   1       1.916   1.918  -1.822  0.00  0.00    -0.004 A 
ATOM      5  C6  UNL d   1       2.446   3.083  -2.375  0.00  0.00     0.002 A 
ATOM      6  C7  UNL d   1       1.624   3.949  -3.098  0.00  0.00     0.002 A 
ENDROOT
BRANCH   1   7
ATOM      7  C1  UNL d   1      -0.631   4.615  -4.015  0.00  0.00     0.055 C 
ATOM      8  C   UNL d   1      -0.047   4.989  -5.369  0.00  0.00     0.019 C 
ENDBRANCH   1   7
TORSDOF 1
ENDMDL
