MODEL 1
REMARK minimizedAffinity 8.33246613
REMARK minimizedRMSD -1
REMARK  1 active torsions:
REMARK  status: ('A' for Active; 'I' for Inactive)
REMARK    1  A    between atoms: C1_2  and  C2_3 
ROOT
ATOM      1  C2  UNL d   1       2.867   0.124   2.164  0.00  0.00    -0.077 A 
ATOM      2  C3  UNL d   1       1.894  -0.525   2.936  0.00  0.00     0.002 A 
ATOM      3  C4  UNL d   1       2.168  -1.760   3.526  0.00  0.00     0.002 A 
ATOM      4  C5  UNL d   1       3.416  -2.354   3.353  0.00  0.00    -0.004 A 
ATOM      5  C6  UNL d   1       4.391  -1.718   2.585  0.00  0.00     0.002 A 
ATOM      6  C7  UNL d   1       4.118  -0.484   1.994  0.00  0.00     0.002 A 
ENDROOT
BRANCH   1   7
ATOM      7  C1  UNL d   1       2.590   1.480   1.567  0.00  0.00     0.055 C 
ATOM      8  C   UNL d   1       1.237   1.512   0.872  0.00  0.00     0.019 C 
ENDBRANCH   1   7
TORSDOF 1
ENDMDL
