MODEL 1
REMARK minimizedAffinity -4.06674719
REMARK minimizedRMSD -1
REMARK  2 active torsions:
REMARK  status: ('A' for Active; 'I' for Inactive)
REMARK    1  A    between atoms: C2'_3  and  C1'_4 
REMARK    2  A    between atoms: C1'_4  and  C1_5 
ROOT
ATOM      1  C1  I4B d   1       0.406  -0.464  -2.579  0.00  0.00    -0.075 A 
ATOM      2  C2  I4B d   1       1.489   0.370  -2.708  0.00  0.00     0.003 A 
ATOM      3  C3  I4B d   1       1.855   0.871  -3.981  0.00  0.00     0.002 A 
ATOM      4  C4  I4B d   1       1.146   0.475  -5.097  0.00  0.00    -0.004 A 
ATOM      5  C5  I4B d   1       0.035  -0.352  -4.961  0.00  0.00     0.002 A 
ATOM      6  C6  I4B d   1      -0.345  -0.815  -3.693  0.00  0.00     0.003 A 
ENDROOT
BRANCH   1   7
ATOM      7  C1' I4B d   1       0.068  -1.001  -1.225  0.00  0.00     0.060 C 
BRANCH   7   8
ATOM      8  C2' I4B d   1      -1.434  -1.187  -1.158  0.00  0.00    -0.013 C 
ATOM      9  C4' I4B d   1      -1.794  -2.629  -0.912  0.00  0.00     0.013 C 
ATOM     10  C3' I4B d   1      -1.963  -0.303  -0.068  0.00  0.00     0.013 C 
ENDBRANCH   7   8
ENDBRANCH   1   7
TORSDOF 2
ENDMDL
