MODEL 1
REMARK minimizedAffinity -2.81556296
REMARK minimizedRMSD -1
REMARK  2 active torsions:
REMARK  status: ('A' for Active; 'I' for Inactive)
REMARK    1  A    between atoms: C2'_3  and  C1'_4 
REMARK    2  A    between atoms: C1'_4  and  C1_5 
ROOT
ATOM      1  C1  I4B d   1       0.487   0.312  -0.171  0.00  0.00    -0.075 A 
ATOM      2  C2  I4B d   1       1.242   0.923   0.798  0.00  0.00     0.003 A 
ATOM      3  C3  I4B d   1       0.637   1.368   1.999  0.00  0.00     0.002 A 
ATOM      4  C4  I4B d   1      -0.725   1.228   2.166  0.00  0.00    -0.004 A 
ATOM      5  C5  I4B d   1      -1.486   0.587   1.192  0.00  0.00     0.002 A 
ATOM      6  C6  I4B d   1      -0.874   0.114   0.021  0.00  0.00     0.003 A 
ENDROOT
BRANCH   1   7
ATOM      7  C1' I4B d   1       1.152  -0.116  -1.440  0.00  0.00     0.060 C 
BRANCH   7   8
ATOM      8  C2' I4B d   1       1.204   1.081  -2.367  0.00  0.00    -0.013 C 
ATOM      9  C4' I4B d   1       2.626   1.474  -2.672  0.00  0.00     0.013 C 
ATOM     10  C3' I4B d   1       0.459   0.730  -3.620  0.00  0.00     0.013 C 
ENDBRANCH   7   8
ENDBRANCH   1   7
TORSDOF 2
ENDMDL
