MODEL 1
REMARK minimizedAffinity -2.10010576
REMARK minimizedRMSD -1
REMARK  2 active torsions:
REMARK  status: ('A' for Active; 'I' for Inactive)
REMARK    1  A    between atoms: C2'_3  and  C1'_4 
REMARK    2  A    between atoms: C1'_4  and  C1_5 
ROOT
ATOM      1  C1  I4B d   1       0.852  -0.268  -0.928  0.00  0.00    -0.075 A 
ATOM      2  C2  I4B d   1       1.630  -0.930  -0.012  0.00  0.00     0.003 A 
ATOM      3  C3  I4B d   1       1.518  -0.631   1.367  0.00  0.00     0.002 A 
ATOM      4  C4  I4B d   1       0.657   0.365   1.779  0.00  0.00    -0.004 A 
ATOM      5  C5  I4B d   1      -0.148   1.020   0.851  0.00  0.00     0.002 A 
ATOM      6  C6  I4B d   1      -0.060   0.693  -0.510  0.00  0.00     0.003 A 
ENDROOT
BRANCH   1   7
ATOM      7  C1' I4B d   1       1.019  -0.585  -2.380  0.00  0.00     0.060 C 
BRANCH   7   8
ATOM      8  C2' I4B d   1       1.997   0.413  -2.966  0.00  0.00    -0.013 C 
ATOM      9  C4' I4B d   1       3.206  -0.279  -3.538  0.00  0.00     0.013 C 
ATOM     10  C3' I4B d   1       1.278   1.203  -4.018  0.00  0.00     0.013 C 
ENDBRANCH   7   8
ENDBRANCH   1   7
TORSDOF 2
ENDMDL
