MODEL 1
REMARK minimizedAffinity -2.5969162
REMARK minimizedRMSD -1
REMARK  2 active torsions:
REMARK  status: ('A' for Active; 'I' for Inactive)
REMARK    1  A    between atoms: C2'_3  and  C1'_4 
REMARK    2  A    between atoms: C1'_4  and  C1_5 
ROOT
ATOM      1  C1  I4B d   1      -0.115   0.115   0.098  0.00  0.00    -0.075 A 
ATOM      2  C2  I4B d   1      -1.269  -0.368   0.663  0.00  0.00     0.003 A 
ATOM      3  C3  I4B d   1      -1.687   0.092   1.935  0.00  0.00     0.002 A 
ATOM      4  C4  I4B d   1      -0.900   0.991   2.625  0.00  0.00    -0.004 A 
ATOM      5  C5  I4B d   1       0.258   1.497   2.041  0.00  0.00     0.002 A 
ATOM      6  C6  I4B d   1       0.647   1.066   0.765  0.00  0.00     0.003 A 
ENDROOT
BRANCH   1   7
ATOM      7  C1' I4B d   1       0.315  -0.417  -1.232  0.00  0.00     0.060 C 
BRANCH   7   8
ATOM      8  C2' I4B d   1       0.599   0.764  -2.138  0.00  0.00    -0.013 C 
ATOM      9  C4' I4B d   1       1.406   0.348  -3.339  0.00  0.00     0.013 C 
ATOM     10  C3' I4B d   1      -0.714   1.360  -2.547  0.00  0.00     0.013 C 
ENDBRANCH   7   8
ENDBRANCH   1   7
TORSDOF 2
ENDMDL
