MODEL 1
REMARK minimizedAffinity -0.138694882
REMARK minimizedRMSD -1
REMARK  2 active torsions:
REMARK  status: ('A' for Active; 'I' for Inactive)
REMARK    1  A    between atoms: C2'_3  and  C1'_4 
REMARK    2  A    between atoms: C1'_4  and  C1_5 
ROOT
ATOM      1  C1  I4B d   1      -0.141  -0.791  -0.203  0.00  0.00    -0.075 A 
ATOM      2  C2  I4B d   1       1.132  -1.190   0.120  0.00  0.00     0.003 A 
ATOM      3  C3  I4B d   1       1.873  -0.484   1.098  0.00  0.00     0.002 A 
ATOM      4  C4  I4B d   1       1.326   0.638   1.687  0.00  0.00    -0.004 A 
ATOM      5  C5  I4B d   1       0.027   1.027   1.375  0.00  0.00     0.002 A 
ATOM      6  C6  I4B d   1      -0.717   0.301   0.433  0.00  0.00     0.003 A 
ENDROOT
BRANCH   1   7
ATOM      7  C1' I4B d   1      -0.884  -1.540  -1.264  0.00  0.00     0.060 C 
BRANCH   7   8
ATOM      8  C2' I4B d   1      -1.694  -2.627  -0.588  0.00  0.00    -0.013 C 
ATOM      9  C4' I4B d   1      -3.148  -2.244  -0.494  0.00  0.00     0.013 C 
ATOM     10  C3' I4B d   1      -1.518  -3.892  -1.373  0.00  0.00     0.013 C 
ENDBRANCH   7   8
ENDBRANCH   1   7
TORSDOF 2
ENDMDL
