MODEL 1
REMARK minimizedAffinity 6.69397688
REMARK minimizedRMSD -1
REMARK  1 active torsions:
REMARK  status: ('A' for Active; 'I' for Inactive)
REMARK    1  A    between atoms: N_2  and  C1_3 
ROOT
ATOM      1  C1  UNL d   1       1.562  -2.100   3.998  0.00  0.00     0.143 A 
ATOM      2  C2  UNL d   1       1.143  -0.925   3.366  0.00  0.00    -0.057 A 
ATOM      3  C3  UNL d   1       1.353  -0.724   1.996  0.00  0.00     0.033 A 
ATOM      4  C4  UNL d   1       2.013  -1.685   1.238  0.00  0.00    -0.042 A 
ATOM      5  C5  UNL d   1       2.461  -2.850   1.852  0.00  0.00     0.033 A 
ATOM      6  C6  UNL d   1       2.243  -3.048   3.218  0.00  0.00    -0.057 A 
ENDROOT
BRANCH   1   7
ATOM      7  N   UNL d   1       1.471  -2.317   5.376  0.00  0.00    -0.732 N 
ATOM      8  C   UNL d   1       2.192  -3.406   6.000  0.00  0.00     0.284 C 
ATOM      9  H3  UNL d   1       1.486  -1.450   5.907  0.00  0.00     0.395 HD
ENDBRANCH   1   7
TORSDOF 1
ENDMDL
