MODEL 1
REMARK minimizedAffinity 5.42187977
REMARK minimizedRMSD -1
REMARK  1 active torsions:
REMARK  status: ('A' for Active; 'I' for Inactive)
REMARK    1  A    between atoms: N_2  and  C1_3 
ROOT
ATOM      1  C1  UNL d   1      -2.370  -2.600  -0.260  0.00  0.00     0.143 A 
ATOM      2  C2  UNL d   1      -3.067  -3.759   0.100  0.00  0.00    -0.057 A 
ATOM      3  C3  UNL d   1      -2.625  -5.026  -0.299  0.00  0.00     0.033 A 
ATOM      4  C4  UNL d   1      -1.490  -5.155  -1.093  0.00  0.00    -0.042 A 
ATOM      5  C5  UNL d   1      -0.796  -4.016  -1.485  0.00  0.00     0.033 A 
ATOM      6  C6  UNL d   1      -1.239  -2.754  -1.077  0.00  0.00    -0.057 A 
ENDROOT
BRANCH   1   7
ATOM      7  N   UNL d   1      -2.813  -1.306   0.023  0.00  0.00    -0.732 N 
ATOM      8  C   UNL d   1      -2.747  -0.268  -0.983  0.00  0.00     0.284 C 
ATOM      9  H3  UNL d   1      -3.671  -1.300   0.570  0.00  0.00     0.395 HD
ENDBRANCH   1   7
TORSDOF 1
ENDMDL
