MODEL 1
REMARK minimizedAffinity 10.0709667
REMARK minimizedRMSD -1
REMARK  1 active torsions:
REMARK  status: ('A' for Active; 'I' for Inactive)
REMARK    1  A    between atoms: N_2  and  C1_3 
ROOT
ATOM      1  C1  UNL d   1       5.885  -4.787  -3.156  0.00  0.00     0.143 A 
ATOM      2  C2  UNL d   1       5.941  -3.593  -3.882  0.00  0.00    -0.057 A 
ATOM      3  C3  UNL d   1       5.938  -3.593  -5.282  0.00  0.00     0.033 A 
ATOM      4  C4  UNL d   1       5.907  -4.794  -5.984  0.00  0.00    -0.042 A 
ATOM      5  C5  UNL d   1       5.876  -5.994  -5.283  0.00  0.00     0.033 A 
ATOM      6  C6  UNL d   1       5.873  -5.987  -3.885  0.00  0.00    -0.057 A 
ENDROOT
BRANCH   1   7
ATOM      7  N   UNL d   1       5.985  -4.857  -1.765  0.00  0.00    -0.732 N 
ATOM      8  C   UNL d   1       5.793  -3.676  -0.952  0.00  0.00     0.284 C 
ATOM      9  H3  UNL d   1       5.553  -5.697  -1.386  0.00  0.00     0.395 HD
ENDBRANCH   1   7
TORSDOF 1
ENDMDL
