MODEL 1
REMARK minimizedAffinity 11.5528336
REMARK minimizedRMSD -1
REMARK  1 active torsions:
REMARK  status: ('A' for Active; 'I' for Inactive)
REMARK    1  A    between atoms: N_2  and  C1_3 
ROOT
ATOM      1  C1  UNL d   1       3.213   5.352  -0.093  0.00  0.00     0.143 A 
ATOM      2  C2  UNL d   1       3.853   5.369  -1.337  0.00  0.00    -0.057 A 
ATOM      3  C3  UNL d   1       5.229   5.606  -1.442  0.00  0.00     0.033 A 
ATOM      4  C4  UNL d   1       5.987   5.860  -0.304  0.00  0.00    -0.042 A 
ATOM      5  C5  UNL d   1       5.367   5.873   0.941  0.00  0.00     0.033 A 
ATOM      6  C6  UNL d   1       3.994   5.629   1.041  0.00  0.00    -0.057 A 
ENDROOT
BRANCH   1   7
ATOM      7  N   UNL d   1       1.832   5.221   0.070  0.00  0.00    -0.732 N 
ATOM      8  C   UNL d   1       1.199   3.923  -0.031  0.00  0.00     0.284 C 
ATOM      9  H3  UNL d   1       1.473   5.801   0.824  0.00  0.00     0.395 HD
ENDBRANCH   1   7
TORSDOF 1
ENDMDL
