MODEL 1
REMARK minimizedAffinity 7.96673775
REMARK minimizedRMSD -1
REMARK  1 active torsions:
REMARK  status: ('A' for Active; 'I' for Inactive)
REMARK    1  A    between atoms: N_2  and  C1_3 
ROOT
ATOM      1  C1  UNL d   1      -0.824  -0.773   0.791  0.00  0.00     0.143 A 
ATOM      2  C2  UNL d   1      -2.117  -0.444   0.370  0.00  0.00    -0.057 A 
ATOM      3  C3  UNL d   1      -2.958  -1.402  -0.209  0.00  0.00     0.033 A 
ATOM      4  C4  UNL d   1      -2.508  -2.704  -0.405  0.00  0.00    -0.042 A 
ATOM      5  C5  UNL d   1      -1.217  -3.047  -0.017  0.00  0.00     0.033 A 
ATOM      6  C6  UNL d   1      -0.385  -2.088   0.566  0.00  0.00    -0.057 A 
ENDROOT
BRANCH   1   7
ATOM      7  N   UNL d   1       0.094   0.158   1.283  0.00  0.00    -0.732 N 
ATOM      8  C   UNL d   1       1.078  -0.229   2.271  0.00  0.00     0.284 C 
ATOM      9  H3  UNL d   1       0.456   0.770   0.554  0.00  0.00     0.395 HD
ENDBRANCH   1   7
TORSDOF 1
ENDMDL
