MODEL 1
REMARK minimizedAffinity -1.14842331
REMARK minimizedRMSD -1
REMARK  1 active torsions:
REMARK  status: ('A' for Active; 'I' for Inactive)
REMARK    1  A    between atoms: N_2  and  C1_3 
ROOT
ATOM      1  C1  UNL d   1      -0.288  -1.671   1.407  0.00  0.00     0.143 A 
ATOM      2  C2  UNL d   1      -0.718  -2.985   1.191  0.00  0.00    -0.057 A 
ATOM      3  C3  UNL d   1      -1.723  -3.276   0.261  0.00  0.00     0.033 A 
ATOM      4  C4  UNL d   1      -2.338  -2.252  -0.451  0.00  0.00    -0.042 A 
ATOM      5  C5  UNL d   1      -1.944  -0.936  -0.235  0.00  0.00     0.033 A 
ATOM      6  C6  UNL d   1      -0.936  -0.652   0.691  0.00  0.00    -0.057 A 
ENDROOT
BRANCH   1   7
ATOM      7  N   UNL d   1       0.637  -1.307   2.389  0.00  0.00    -0.732 N 
ATOM      8  C   UNL d   1       1.131  -2.284   3.335  0.00  0.00     0.284 C 
ATOM      9  H3  UNL d   1       1.350  -0.674   2.035  0.00  0.00     0.395 HD
ENDBRANCH   1   7
TORSDOF 1
ENDMDL
