MODEL 1
REMARK minimizedAffinity -5.11497831
REMARK minimizedRMSD -1
REMARK  0 active torsions:
REMARK  status: ('A' for Active; 'I' for Inactive)
ROOT
ATOM      1  C4' PXY d   1      -2.338   1.767   1.585  0.00  0.00     0.077 C 
ATOM      2  C1' PXY d   1       1.833  -1.380  -0.888  0.00  0.00     0.077 C 
ATOM      3  C1  PXY d   1       0.736  -0.565  -0.232  0.00  0.00    -0.082 A 
ATOM      4  C2  PXY d   1       0.234   0.484  -0.863  0.00  0.00     0.003 A 
ATOM      5  C3  PXY d   1      -0.736   1.251  -0.271  0.00  0.00     0.003 A 
ATOM      6  C4  PXY d   1      -1.236   0.910   0.957  0.00  0.00    -0.082 A 
ATOM      7  C5  PXY d   1      -0.736  -0.165   1.603  0.00  0.00     0.003 A 
ATOM      8  C6  PXY d   1       0.277  -0.907   1.002  0.00  0.00     0.003 A 
ENDROOT
TORSDOF 0
ENDMDL
