MODEL 1
REMARK minimizedAffinity -0.463668346
REMARK minimizedRMSD -1
REMARK  0 active torsions:
REMARK  status: ('A' for Active; 'I' for Inactive)
ROOT
ATOM      1  C4' PXY d   1       0.675  -2.204  -2.247  0.00  0.00     0.077 C 
ATOM      2  C1' PXY d   1      -1.085   1.433   1.887  0.00  0.00     0.077 C 
ATOM      3  C1  PXY d   1      -0.620   0.489   0.795  0.00  0.00    -0.082 A 
ATOM      4  C2  PXY d   1      -1.071  -0.755   0.770  0.00  0.00     0.003 A 
ATOM      5  C3  PXY d   1      -0.637  -1.631  -0.191  0.00  0.00     0.003 A 
ATOM      6  C4  PXY d   1       0.226  -1.214  -1.169  0.00  0.00    -0.082 A 
ATOM      7  C5  PXY d   1       0.682   0.057  -1.157  0.00  0.00     0.003 A 
ATOM      8  C6  PXY d   1       0.261   0.918  -0.149  0.00  0.00     0.003 A 
ENDROOT
TORSDOF 0
ENDMDL
