MODEL 1
REMARK minimizedAffinity -5.22999334
REMARK minimizedRMSD -1
REMARK  0 active torsions:
REMARK  status: ('A' for Active; 'I' for Inactive)
ROOT
ATOM      1  C4' PXY d   1       0.997  -2.023  -1.309  0.00  0.00     0.077 C 
ATOM      2  C1' PXY d   1      -1.991   1.947   1.645  0.00  0.00     0.077 C 
ATOM      3  C1  PXY d   1      -1.207   0.898   0.881  0.00  0.00    -0.082 A 
ATOM      4  C2  PXY d   1      -0.499   1.254  -0.178  0.00  0.00     0.003 A 
ATOM      5  C3  PXY d   1       0.190   0.313  -0.900  0.00  0.00     0.003 A 
ATOM      6  C4  PXY d   1       0.197  -0.997  -0.502  0.00  0.00    -0.082 A 
ATOM      7  C5  PXY d   1      -0.514  -1.366   0.585  0.00  0.00     0.003 A 
ATOM      8  C6  PXY d   1      -1.240  -0.402   1.279  0.00  0.00     0.003 A 
ENDROOT
TORSDOF 0
ENDMDL
