MODEL 1
REMARK minimizedAffinity -4.77256966
REMARK minimizedRMSD -1
REMARK  0 active torsions:
REMARK  status: ('A' for Active; 'I' for Inactive)
ROOT
ATOM      1  C4' PXY d   1       1.460  -2.280  -1.358  0.00  0.00     0.077 C 
ATOM      2  C1' PXY d   1      -1.901   1.595   1.308  0.00  0.00     0.077 C 
ATOM      3  C1  PXY d   1      -1.016   0.588   0.601  0.00  0.00    -0.082 A 
ATOM      4  C2  PXY d   1      -1.315  -0.700   0.657  0.00  0.00     0.003 A 
ATOM      5  C3  PXY d   1      -0.507  -1.627   0.050  0.00  0.00     0.003 A 
ATOM      6  C4  PXY d   1       0.589  -1.227  -0.667  0.00  0.00    -0.082 A 
ATOM      7  C5  PXY d   1       0.895   0.086  -0.738  0.00  0.00     0.003 A 
ATOM      8  C6  PXY d   1       0.085   1.007  -0.080  0.00  0.00     0.003 A 
ENDROOT
TORSDOF 0
ENDMDL
