MODEL 1
REMARK minimizedAffinity -4.34822512
REMARK minimizedRMSD -1
REMARK  0 active torsions:
REMARK  status: ('A' for Active; 'I' for Inactive)
ROOT
ATOM      1  C4' PXY d   1      -2.815   3.457   1.567  0.00  0.00     0.077 C 
ATOM      2  C1' PXY d   1       1.044  -0.814   1.035  0.00  0.00     0.077 C 
ATOM      3  C1  PXY d   1       0.039   0.313   1.166  0.00  0.00    -0.082 A 
ATOM      4  C2  PXY d   1      -0.757   0.360   2.222  0.00  0.00     0.003 A 
ATOM      5  C3  PXY d   1      -1.693   1.355   2.341  0.00  0.00     0.003 A 
ATOM      6  C4  PXY d   1      -1.779   2.342   1.397  0.00  0.00    -0.082 A 
ATOM      7  C5  PXY d   1      -0.963   2.308   0.322  0.00  0.00     0.003 A 
ATOM      8  C6  PXY d   1      -0.048   1.266   0.199  0.00  0.00     0.003 A 
ENDROOT
TORSDOF 0
ENDMDL
