MODEL 1
REMARK minimizedAffinity -1.56089878
REMARK minimizedRMSD -1
REMARK  0 active torsions:
REMARK  status: ('A' for Active; 'I' for Inactive)
ROOT
ATOM      1  C4' PXY d   1      -1.486   2.813  -1.467  0.00  0.00     0.077 C 
ATOM      2  C1' PXY d   1      -0.202  -1.116   2.574  0.00  0.00     0.077 C 
ATOM      3  C1  PXY d   1      -0.547  -0.080   1.523  0.00  0.00    -0.082 A 
ATOM      4  C2  PXY d   1      -0.342  -0.352   0.244  0.00  0.00     0.003 A 
ATOM      5  C3  PXY d   1      -0.619   0.585  -0.718  0.00  0.00     0.003 A 
ATOM      6  C4  PXY d   1      -1.161   1.794  -0.371  0.00  0.00    -0.082 A 
ATOM      7  C5  PXY d   1      -1.383   2.075   0.930  0.00  0.00     0.003 A 
ATOM      8  C6  PXY d   1      -1.057   1.126   1.894  0.00  0.00     0.003 A 
ENDROOT
TORSDOF 0
ENDMDL
