MODEL 1
REMARK minimizedAffinity -5.4770112
REMARK minimizedRMSD -1
REMARK  0 active torsions:
REMARK  status: ('A' for Active; 'I' for Inactive)
ROOT
ATOM      1  C4' PXY d   1       0.031  -0.783   2.455  0.00  0.00     0.077 C 
ATOM      2  C1' PXY d   1      -0.513   3.684  -1.173  0.00  0.00     0.077 C 
ATOM      3  C1  PXY d   1      -0.372   2.521  -0.211  0.00  0.00    -0.082 A 
ATOM      4  C2  PXY d   1       0.320   1.453  -0.573  0.00  0.00     0.003 A 
ATOM      5  C3  PXY d   1       0.430   0.378   0.271  0.00  0.00     0.003 A 
ATOM      6  C4  PXY d   1      -0.129   0.419   1.521  0.00  0.00    -0.082 A 
ATOM      7  C5  PXY d   1      -0.828   1.510   1.902  0.00  0.00     0.003 A 
ATOM      8  C6  PXY d   1      -0.962   2.573   1.014  0.00  0.00     0.003 A 
ENDROOT
TORSDOF 0
ENDMDL
