MODEL 1
REMARK minimizedAffinity -5.5967803
REMARK minimizedRMSD -1
REMARK  0 active torsions:
REMARK  status: ('A' for Active; 'I' for Inactive)
ROOT
ATOM      1  C4' PXY d   1       0.507  -2.441  -1.849  0.00  0.00     0.077 C 
ATOM      2  C1' PXY d   1      -1.432   2.240   0.934  0.00  0.00     0.077 C 
ATOM      3  C1  PXY d   1      -0.915   1.020   0.198  0.00  0.00    -0.082 A 
ATOM      4  C2  PXY d   1      -1.699  -0.036   0.049  0.00  0.00     0.003 A 
ATOM      5  C3  PXY d   1      -1.237  -1.159  -0.587  0.00  0.00     0.003 A 
ATOM      6  C4  PXY d   1       0.024  -1.184  -1.121  0.00  0.00    -0.082 A 
ATOM      7  C5  PXY d   1       0.826  -0.107  -0.982  0.00  0.00     0.003 A 
ATOM      8  C6  PXY d   1       0.352   1.008  -0.298  0.00  0.00     0.003 A 
ENDROOT
TORSDOF 0
ENDMDL
