MODEL 1
REMARK minimizedAffinity -3.89124537
REMARK minimizedRMSD -1
REMARK  0 active torsions:
REMARK  status: ('A' for Active; 'I' for Inactive)
ROOT
ATOM      1  C4' PXY d   1       1.108  -1.211  -1.134  0.00  0.00     0.077 C 
ATOM      2  C1' PXY d   1      -1.147   3.092   1.999  0.00  0.00     0.077 C 
ATOM      3  C1  PXY d   1      -0.557   1.971   1.167  0.00  0.00    -0.082 A 
ATOM      4  C2  PXY d   1      -0.615   0.726   1.611  0.00  0.00     0.003 A 
ATOM      5  C3  PXY d   1      -0.058  -0.296   0.886  0.00  0.00     0.003 A 
ATOM      6  C4  PXY d   1       0.517  -0.048  -0.331  0.00  0.00    -0.082 A 
ATOM      7  C5  PXY d   1       0.571   1.218  -0.797  0.00  0.00     0.003 A 
ATOM      8  C6  PXY d   1       0.036   2.247  -0.027  0.00  0.00     0.003 A 
ENDROOT
TORSDOF 0
ENDMDL
