MODEL 1
REMARK minimizedAffinity -4.50261927
REMARK minimizedRMSD -1
REMARK  0 active torsions:
REMARK  status: ('A' for Active; 'I' for Inactive)
ROOT
ATOM      1  C4' PXY d   1       0.672  -1.938  -0.921  0.00  0.00     0.077 C 
ATOM      2  C1' PXY d   1      -1.404   3.292   0.403  0.00  0.00     0.077 C 
ATOM      3  C1  PXY d   1      -0.868   1.915   0.064  0.00  0.00    -0.082 A 
ATOM      4  C2  PXY d   1       0.383   1.782  -0.346  0.00  0.00     0.003 A 
ATOM      5  C3  PXY d   1       0.874   0.548  -0.688  0.00  0.00     0.003 A 
ATOM      6  C4  PXY d   1       0.092  -0.568  -0.558  0.00  0.00    -0.082 A 
ATOM      7  C5  PXY d   1      -1.182  -0.443  -0.130  0.00  0.00     0.003 A 
ATOM      8  C6  PXY d   1      -1.674   0.823   0.172  0.00  0.00     0.003 A 
ENDROOT
TORSDOF 0
ENDMDL
