MODEL 1
REMARK minimizedAffinity -4.88359165
REMARK minimizedRMSD -1
REMARK  0 active torsions:
REMARK  status: ('A' for Active; 'I' for Inactive)
ROOT
ATOM      1  C4' PXY d   1       1.049  -0.738  -0.263  0.00  0.00     0.077 C 
ATOM      2  C1' PXY d   1      -2.772   3.265   1.407  0.00  0.00     0.077 C 
ATOM      3  C1  PXY d   1      -1.771   2.209   0.980  0.00  0.00    -0.082 A 
ATOM      4  C2  PXY d   1      -0.855   2.505   0.073  0.00  0.00     0.003 A 
ATOM      5  C3  PXY d   1       0.037   1.552  -0.348  0.00  0.00     0.003 A 
ATOM      6  C4  PXY d   1       0.025   0.299   0.204  0.00  0.00    -0.082 A 
ATOM      7  C5  PXY d   1      -0.900  -0.007   1.139  0.00  0.00     0.003 A 
ATOM      8  C6  PXY d   1      -1.823   0.962   1.522  0.00  0.00     0.003 A 
ENDROOT
TORSDOF 0
ENDMDL
