MODEL 1
REMARK minimizedAffinity -6.07818174
REMARK minimizedRMSD -1
REMARK  0 active torsions:
REMARK  status: ('A' for Active; 'I' for Inactive)
ROOT
ATOM      1  C4' PXY d   1       1.092  -1.394   3.338  0.00  0.00     0.077 C 
ATOM      2  C1' PXY d   1      -1.440   2.217  -0.399  0.00  0.00     0.077 C 
ATOM      3  C1  PXY d   1      -0.775   1.261   0.571  0.00  0.00    -0.082 A 
ATOM      4  C2  PXY d   1      -1.010   1.376   1.868  0.00  0.00     0.003 A 
ATOM      5  C3  PXY d   1      -0.392   0.541   2.763  0.00  0.00     0.003 A 
ATOM      6  C4  PXY d   1       0.435  -0.457   2.321  0.00  0.00    -0.082 A 
ATOM      7  C5  PXY d   1       0.672  -0.588   0.998  0.00  0.00     0.003 A 
ATOM      8  C6  PXY d   1       0.067   0.296   0.110  0.00  0.00     0.003 A 
ENDROOT
TORSDOF 0
ENDMDL
