MODEL 1
REMARK minimizedAffinity -4.80943203
REMARK minimizedRMSD -1
REMARK  0 active torsions:
REMARK  status: ('A' for Active; 'I' for Inactive)
ROOT
ATOM      1  C4' PXY d   1      -0.330   3.496  -0.802  0.00  0.00     0.077 C 
ATOM      2  C1' PXY d   1      -0.947  -1.039   2.728  0.00  0.00     0.077 C 
ATOM      3  C1  PXY d   1      -0.795   0.156   1.808  0.00  0.00    -0.082 A 
ATOM      4  C2  PXY d   1      -0.199   0.008   0.636  0.00  0.00     0.003 A 
ATOM      5  C3  PXY d   1      -0.025   1.085  -0.194  0.00  0.00     0.003 A 
ATOM      6  C4  PXY d   1      -0.513   2.315   0.155  0.00  0.00    -0.082 A 
ATOM      7  C5  PXY d   1      -1.132   2.472   1.344  0.00  0.00     0.003 A 
ATOM      8  C6  PXY d   1      -1.262   1.375   2.191  0.00  0.00     0.003 A 
ENDROOT
TORSDOF 0
ENDMDL
