MODEL 1
REMARK minimizedAffinity -5.43130541
REMARK minimizedRMSD -1
REMARK  0 active torsions:
REMARK  status: ('A' for Active; 'I' for Inactive)
ROOT
ATOM      1  C4' PXY d   1       0.482  -1.315  -0.685  0.00  0.00     0.077 C 
ATOM      2  C1' PXY d   1      -2.324   3.330   1.307  0.00  0.00     0.077 C 
ATOM      3  C1  PXY d   1      -1.597   2.104   0.791  0.00  0.00    -0.082 A 
ATOM      4  C2  PXY d   1      -0.319   2.193   0.460  0.00  0.00     0.003 A 
ATOM      5  C3  PXY d   1       0.346   1.102  -0.039  0.00  0.00     0.003 A 
ATOM      6  C4  PXY d   1      -0.290  -0.105  -0.150  0.00  0.00    -0.082 A 
ATOM      7  C5  PXY d   1      -1.591  -0.207   0.195  0.00  0.00     0.003 A 
ATOM      8  C6  PXY d   1      -2.259   0.922   0.660  0.00  0.00     0.003 A 
ENDROOT
TORSDOF 0
ENDMDL
