MODEL 1
REMARK minimizedAffinity -5.10753536
REMARK minimizedRMSD -1
REMARK  0 active torsions:
REMARK  status: ('A' for Active; 'I' for Inactive)
ROOT
ATOM      1  C4' PXY d   1       0.849  -1.990  -0.814  0.00  0.00     0.077 C 
ATOM      2  C1' PXY d   1      -1.897   2.464   1.644  0.00  0.00     0.077 C 
ATOM      3  C1  PXY d   1      -1.167   1.298   1.008  0.00  0.00    -0.082 A 
ATOM      4  C2  PXY d   1      -1.462   0.939  -0.232  0.00  0.00     0.003 A 
ATOM      5  C3  PXY d   1      -0.834  -0.133  -0.811  0.00  0.00     0.003 A 
ATOM      6  C4  PXY d   1       0.144  -0.812  -0.134  0.00  0.00    -0.082 A 
ATOM      7  C5  PXY d   1       0.457  -0.446   1.126  0.00  0.00     0.003 A 
ATOM      8  C6  PXY d   1      -0.221   0.619   1.712  0.00  0.00     0.003 A 
ENDROOT
TORSDOF 0
ENDMDL
