MODEL 1
REMARK minimizedAffinity -4.70554638
REMARK minimizedRMSD -1
REMARK  0 active torsions:
REMARK  status: ('A' for Active; 'I' for Inactive)
ROOT
ATOM      1  C4' PXY d   1       0.686  -1.357  -0.630  0.00  0.00     0.077 C 
ATOM      2  C1' PXY d   1      -1.227   3.880   0.893  0.00  0.00     0.077 C 
ATOM      3  C1  PXY d   1      -0.724   2.511   0.481  0.00  0.00    -0.082 A 
ATOM      4  C2  PXY d   1      -1.070   1.447   1.188  0.00  0.00     0.003 A 
ATOM      5  C3  PXY d   1      -0.598   0.205   0.849  0.00  0.00     0.003 A 
ATOM      6  C4  PXY d   1       0.194   0.044  -0.257  0.00  0.00    -0.082 A 
ATOM      7  C5  PXY d   1       0.542   1.122  -0.989  0.00  0.00     0.003 A 
ATOM      8  C6  PXY d   1       0.086   2.380  -0.604  0.00  0.00     0.003 A 
ENDROOT
TORSDOF 0
ENDMDL
