MODEL 1
REMARK minimizedAffinity -4.72078371
REMARK minimizedRMSD -1
REMARK  0 active torsions:
REMARK  status: ('A' for Active; 'I' for Inactive)
ROOT
ATOM      1  C4' PXY d   1      -0.919   3.196  -0.967  0.00  0.00     0.077 C 
ATOM      2  C1' PXY d   1       0.608  -1.059   2.635  0.00  0.00     0.077 C 
ATOM      3  C1  PXY d   1       0.197   0.059   1.698  0.00  0.00    -0.082 A 
ATOM      4  C2  PXY d   1       0.629   0.056   0.447  0.00  0.00     0.003 A 
ATOM      5  C3  PXY d   1       0.293   1.076  -0.405  0.00  0.00     0.003 A 
ATOM      6  C4  PXY d   1      -0.537   2.082   0.012  0.00  0.00    -0.082 A 
ATOM      7  C5  PXY d   1      -0.991   2.087   1.283  0.00  0.00     0.003 A 
ATOM      8  C6  PXY d   1      -0.605   1.064   2.144  0.00  0.00     0.003 A 
ENDROOT
TORSDOF 0
ENDMDL
