MODEL 1
REMARK minimizedAffinity -4.67650032
REMARK minimizedRMSD -1
REMARK  0 active torsions:
REMARK  status: ('A' for Active; 'I' for Inactive)
ROOT
ATOM      1  C4' PXY d   1      -0.847   3.823   0.173  0.00  0.00     0.077 C 
ATOM      2  C1' PXY d   1      -1.728  -1.649   1.816  0.00  0.00     0.077 C 
ATOM      3  C1  PXY d   1      -1.485  -0.217   1.379  0.00  0.00    -0.082 A 
ATOM      4  C2  PXY d   1      -2.054   0.775   2.045  0.00  0.00     0.003 A 
ATOM      5  C3  PXY d   1      -1.872   2.073   1.644  0.00  0.00     0.003 A 
ATOM      6  C4  PXY d   1      -1.056   2.363   0.584  0.00  0.00    -0.082 A 
ATOM      7  C5  PXY d   1      -0.463   1.357  -0.094  0.00  0.00     0.003 A 
ATOM      8  C6  PXY d   1      -0.694   0.043   0.304  0.00  0.00     0.003 A 
ENDROOT
TORSDOF 0
ENDMDL
