MODEL 1
REMARK minimizedAffinity -4.95051193
REMARK minimizedRMSD -1
REMARK  0 active torsions:
REMARK  status: ('A' for Active; 'I' for Inactive)
ROOT
ATOM      1  C4' PXY d   1       0.768  -2.267  -0.767  0.00  0.00     0.077 C 
ATOM      2  C1' PXY d   1      -2.053   2.445   1.036  0.00  0.00     0.077 C 
ATOM      3  C1  PXY d   1      -1.307   1.217   0.554  0.00  0.00    -0.082 A 
ATOM      4  C2  PXY d   1      -1.850   0.020   0.706  0.00  0.00     0.003 A 
ATOM      5  C3  PXY d   1      -1.175  -1.104   0.305  0.00  0.00     0.003 A 
ATOM      6  C4  PXY d   1       0.046  -0.998  -0.305  0.00  0.00    -0.082 A 
ATOM      7  C5  PXY d   1       0.602   0.220  -0.473  0.00  0.00     0.003 A 
ATOM      8  C6  PXY d   1      -0.081   1.346  -0.022  0.00  0.00     0.003 A 
ENDROOT
TORSDOF 0
ENDMDL
