MODEL 1
REMARK minimizedAffinity -3.78731537
REMARK minimizedRMSD -1
REMARK  0 active torsions:
REMARK  status: ('A' for Active; 'I' for Inactive)
ROOT
ATOM      1  C4' PXY d   1       1.647   2.734  -2.296  0.00  0.00     0.077 C 
ATOM      2  C1' PXY d   1      -1.333   1.589   2.523  0.00  0.00     0.077 C 
ATOM      3  C1  PXY d   1      -0.559   1.900   1.257  0.00  0.00    -0.082 A 
ATOM      4  C2  PXY d   1       0.098   0.932   0.638  0.00  0.00     0.003 A 
ATOM      5  C3  PXY d   1       0.829   1.202  -0.490  0.00  0.00     0.003 A 
ATOM      6  C4  PXY d   1       0.844   2.464  -1.020  0.00  0.00    -0.082 A 
ATOM      7  C5  PXY d   1       0.167   3.455  -0.401  0.00  0.00     0.003 A 
ATOM      8  C6  PXY d   1      -0.535   3.168   0.766  0.00  0.00     0.003 A 
ENDROOT
TORSDOF 0
ENDMDL
