MODEL 1
REMARK minimizedAffinity -4.45216179
REMARK minimizedRMSD -1
REMARK  0 active torsions:
REMARK  status: ('A' for Active; 'I' for Inactive)
ROOT
ATOM      1  C   UNL d   1       1.140  -0.447   3.423  0.00  0.00    -0.002 A 
ATOM      2  C1  UNL d   1       2.186  -1.068   2.754  0.00  0.00     0.010 A 
ATOM      3  C2  UNL d   1       2.117  -1.289   1.377  0.00  0.00     0.041 A 
ATOM      4  C3  UNL d   1       0.968  -0.870   0.677  0.00  0.00    -0.075 A 
ATOM      5  S   UNL d   1       0.663  -1.035  -1.012  0.00  0.00     0.015 SA
ATOM      6  C4  UNL d   1      -0.862  -0.285  -0.886  0.00  0.00     0.022 A 
ATOM      7  C5  UNL d   1      -1.147   0.089   0.406  0.00  0.00     0.026 A 
ATOM      8  C6  UNL d   1      -0.097  -0.242   1.328  0.00  0.00    -0.082 A 
ATOM      9  C7  UNL d   1       0.003  -0.033   2.725  0.00  0.00     0.045 A 
ENDROOT
TORSDOF 0
ENDMDL
