MODEL 1
REMARK minimizedAffinity -1.95505536
REMARK minimizedRMSD -1
REMARK  0 active torsions:
REMARK  status: ('A' for Active; 'I' for Inactive)
ROOT
ATOM      1  C   UNL d   1       0.469  -0.838   2.739  0.00  0.00    -0.002 A 
ATOM      2  C1  UNL d   1       1.582  -0.086   2.391  0.00  0.00     0.010 A 
ATOM      3  C2  UNL d   1       1.641   0.567   1.159  0.00  0.00     0.041 A 
ATOM      4  C3  UNL d   1       0.551   0.453   0.274  0.00  0.00    -0.075 A 
ATOM      5  S   UNL d   1       0.401   1.167  -1.288  0.00  0.00     0.015 SA
ATOM      6  C4  UNL d   1      -1.145   0.492  -1.530  0.00  0.00     0.022 A 
ATOM      7  C5  UNL d   1      -1.552  -0.263  -0.456  0.00  0.00     0.026 A 
ATOM      8  C6  UNL d   1      -0.582  -0.297   0.602  0.00  0.00    -0.082 A 
ATOM      9  C7  UNL d   1      -0.611  -0.949   1.859  0.00  0.00     0.045 A 
ENDROOT
TORSDOF 0
ENDMDL
