MODEL 1
REMARK minimizedAffinity -4.74457312
REMARK minimizedRMSD -1
REMARK  0 active torsions:
REMARK  status: ('A' for Active; 'I' for Inactive)
ROOT
ATOM      1  C   UNL d   1       0.234  -0.204   2.728  0.00  0.00    -0.002 A 
ATOM      2  C1  UNL d   1       1.476  -0.746   2.427  0.00  0.00     0.010 A 
ATOM      3  C2  UNL d   1       1.825  -1.034   1.106  0.00  0.00     0.041 A 
ATOM      4  C3  UNL d   1       0.896  -0.763   0.082  0.00  0.00    -0.075 A 
ATOM      5  S   UNL d   1       1.105  -1.033  -1.608  0.00  0.00     0.015 SA
ATOM      6  C4  UNL d   1      -0.449  -0.434  -1.971  0.00  0.00     0.022 A 
ATOM      7  C5  UNL d   1      -1.124  -0.034  -0.843  0.00  0.00     0.026 A 
ATOM      8  C6  UNL d   1      -0.360  -0.217   0.359  0.00  0.00    -0.082 A 
ATOM      9  C7  UNL d   1      -0.684   0.063   1.709  0.00  0.00     0.045 A 
ENDROOT
TORSDOF 0
ENDMDL
