MODEL 1
REMARK minimizedAffinity -2.93364692
REMARK minimizedRMSD -1
REMARK  0 active torsions:
REMARK  status: ('A' for Active; 'I' for Inactive)
ROOT
ATOM      1  C1  BNZ d   1       0.583  -0.572  -0.890  0.00  0.00     0.000 A 
ATOM      2  C2  BNZ d   1      -0.111   0.576  -0.618  0.00  0.00     0.000 A 
ATOM      3  C3  BNZ d   1       0.067   1.239   0.564  0.00  0.00     0.000 A 
ATOM      4  C4  BNZ d   1       0.909   0.731   1.488  0.00  0.00     0.000 A 
ATOM      5  C5  BNZ d   1       1.609  -0.431   1.233  0.00  0.00     0.000 A 
ATOM      6  C6  BNZ d   1       1.456  -1.074   0.026  0.00  0.00     0.000 A 
ENDROOT
TORSDOF 0
ENDMDL
