MODEL 1
REMARK minimizedAffinity -2.77212763
REMARK minimizedRMSD -1
REMARK  0 active torsions:
REMARK  status: ('A' for Active; 'I' for Inactive)
ROOT
ATOM      1  C1  BNZ d   1       0.181   0.225   0.355  0.00  0.00     0.000 A 
ATOM      2  C2  BNZ d   1      -0.933   0.482  -0.399  0.00  0.00     0.000 A 
ATOM      3  C3  BNZ d   1      -2.127   0.781   0.195  0.00  0.00     0.000 A 
ATOM      4  C4  BNZ d   1      -2.215   0.782   1.541  0.00  0.00     0.000 A 
ATOM      5  C5  BNZ d   1      -1.104   0.515   2.315  0.00  0.00     0.000 A 
ATOM      6  C6  BNZ d   1       0.106   0.253   1.713  0.00  0.00     0.000 A 
ENDROOT
TORSDOF 0
ENDMDL
