MODEL 1
REMARK minimizedAffinity -2.91845894
REMARK minimizedRMSD -1
REMARK  0 active torsions:
REMARK  status: ('A' for Active; 'I' for Inactive)
ROOT
ATOM      1  C1  BNZ d   1      -1.723   0.320   1.036  0.00  0.00     0.000 A 
ATOM      2  C2  BNZ d   1      -1.482   0.105  -0.295  0.00  0.00     0.000 A 
ATOM      3  C3  BNZ d   1      -0.270  -0.366  -0.719  0.00  0.00     0.000 A 
ATOM      4  C4  BNZ d   1       0.710  -0.581   0.182  0.00  0.00     0.000 A 
ATOM      5  C5  BNZ d   1       0.485  -0.360   1.526  0.00  0.00     0.000 A 
ATOM      6  C6  BNZ d   1      -0.748   0.076   1.953  0.00  0.00     0.000 A 
ENDROOT
TORSDOF 0
ENDMDL
