MODEL 1
REMARK minimizedAffinity -3.55622578
REMARK minimizedRMSD -1
REMARK  0 active torsions:
REMARK  status: ('A' for Active; 'I' for Inactive)
ROOT
ATOM      1  C1  BNZ d   1       3.904   3.017   3.722  0.00  0.00     0.000 A 
ATOM      2  C2  BNZ d   1       4.975   3.167   4.562  0.00  0.00     0.000 A 
ATOM      3  C3  BNZ d   1       5.998   2.260   4.561  0.00  0.00     0.000 A 
ATOM      4  C4  BNZ d   1       5.929   1.184   3.751  0.00  0.00     0.000 A 
ATOM      5  C5  BNZ d   1       4.851   1.014   2.905  0.00  0.00     0.000 A 
ATOM      6  C6  BNZ d   1       3.843   1.949   2.880  0.00  0.00     0.000 A 
ENDROOT
TORSDOF 0
ENDMDL
