MODEL 1
REMARK minimizedAffinity -4.47614527
REMARK minimizedRMSD -1
REMARK  0 active torsions:
REMARK  status: ('A' for Active; 'I' for Inactive)
ROOT
ATOM      1  C1  BNZ d   1      -1.664  -0.094   0.819  0.00  0.00     0.000 A 
ATOM      2  C2  BNZ d   1      -1.789   0.537   2.028  0.00  0.00     0.000 A 
ATOM      3  C3  BNZ d   1      -0.761   1.277   2.542  0.00  0.00     0.000 A 
ATOM      4  C4  BNZ d   1       0.404   1.352   1.866  0.00  0.00     0.000 A 
ATOM      5  C5  BNZ d   1       0.549   0.714   0.650  0.00  0.00     0.000 A 
ATOM      6  C6  BNZ d   1      -0.501   0.002   0.118  0.00  0.00     0.000 A 
ENDROOT
TORSDOF 0
ENDMDL
