MODEL 1
REMARK minimizedAffinity -4.30072784
REMARK minimizedRMSD -1
REMARK  0 active torsions:
REMARK  status: ('A' for Active; 'I' for Inactive)
ROOT
ATOM      1  C1  BNZ d   1      -1.708   1.375   1.724  0.00  0.00     0.000 A 
ATOM      2  C2  BNZ d   1      -1.873   0.779   0.502  0.00  0.00     0.000 A 
ATOM      3  C3  BNZ d   1      -0.861   0.056  -0.066  0.00  0.00     0.000 A 
ATOM      4  C4  BNZ d   1       0.325  -0.037   0.569  0.00  0.00     0.000 A 
ATOM      5  C5  BNZ d   1       0.509   0.567   1.797  0.00  0.00     0.000 A 
ATOM      6  C6  BNZ d   1      -0.524   1.261   2.384  0.00  0.00     0.000 A 
ENDROOT
TORSDOF 0
ENDMDL
