MODEL 1
REMARK minimizedAffinity -4.91016245
REMARK minimizedRMSD -1
REMARK  0 active torsions:
REMARK  status: ('A' for Active; 'I' for Inactive)
ROOT
ATOM      1  C1  BNZ d   1      -1.696   0.036   0.543  0.00  0.00     0.000 A 
ATOM      2  C2  BNZ d   1      -0.503  -0.447   0.075  0.00  0.00     0.000 A 
ATOM      3  C3  BNZ d   1       0.673  -0.126   0.694  0.00  0.00     0.000 A 
ATOM      4  C4  BNZ d   1       0.659   0.708   1.753  0.00  0.00     0.000 A 
ATOM      5  C5  BNZ d   1      -0.535   1.211   2.231  0.00  0.00     0.000 A 
ATOM      6  C6  BNZ d   1      -1.720   0.855   1.629  0.00  0.00     0.000 A 
ENDROOT
TORSDOF 0
ENDMDL
