MODEL 1
REMARK minimizedAffinity -4.89615297
REMARK minimizedRMSD -1
REMARK  0 active torsions:
REMARK  status: ('A' for Active; 'I' for Inactive)
ROOT
ATOM      1  C1  BNZ d   1      -1.596   0.311   2.196  0.00  0.00     0.000 A 
ATOM      2  C2  BNZ d   1      -1.403  -0.049   0.889  0.00  0.00     0.000 A 
ATOM      3  C3  BNZ d   1      -0.395   0.507   0.152  0.00  0.00     0.000 A 
ATOM      4  C4  BNZ d   1       0.392   1.450   0.709  0.00  0.00     0.000 A 
ATOM      5  C5  BNZ d   1       0.204   1.830   2.022  0.00  0.00     0.000 A 
ATOM      6  C6  BNZ d   1      -0.787   1.241   2.774  0.00  0.00     0.000 A 
ENDROOT
TORSDOF 0
ENDMDL
