MODEL 1
REMARK minimizedAffinity -1.77094603
REMARK minimizedRMSD -1
REMARK  0 active torsions:
REMARK  status: ('A' for Active; 'I' for Inactive)
ROOT
ATOM      1  O1  BZF d   1       0.478   2.250   2.584  0.00  0.00    -0.204 OA
ATOM      2  C2  BZF d   1       1.194   3.076   1.739  0.00  0.00     0.174 A 
ATOM      3  C3  BZF d   1       1.375   2.491   0.537  0.00  0.00    -0.012 A 
ATOM      4  C3A BZF d   1       0.652   1.258   0.606  0.00  0.00    -0.107 A 
ATOM      5  C4  BZF d   1       0.440   0.243  -0.282  0.00  0.00     0.055 A 
ATOM      6  C5  BZF d   1      -0.252  -0.855   0.122  0.00  0.00    -0.016 A 
ATOM      7  C6  BZF d   1      -0.740  -0.973   1.406  0.00  0.00     0.022 A 
ATOM      8  C7  BZF d   1      -0.559   0.010   2.322  0.00  0.00     0.029 A 
ATOM      9  C7A BZF d   1       0.111   1.135   1.907  0.00  0.00     0.058 A 
ENDROOT
TORSDOF 0
ENDMDL
