MODEL 1
REMARK minimizedAffinity -3.41657639
REMARK minimizedRMSD -1
REMARK  0 active torsions:
REMARK  status: ('A' for Active; 'I' for Inactive)
ROOT
ATOM      1  O1  BZF d   1      -0.788  -0.335  -2.687  0.00  0.00    -0.204 OA
ATOM      2  C2  BZF d   1      -1.456  -1.544  -2.651  0.00  0.00     0.174 A 
ATOM      3  C3  BZF d   1      -1.470  -2.046  -1.399  0.00  0.00    -0.012 A 
ATOM      4  C3A BZF d   1      -0.847  -1.047  -0.586  0.00  0.00    -0.107 A 
ATOM      5  C4  BZF d   1      -0.580  -0.956   0.750  0.00  0.00     0.055 A 
ATOM      6  C5  BZF d   1       0.107   0.121   1.215  0.00  0.00    -0.016 A 
ATOM      7  C6  BZF d   1       0.546   1.121   0.372  0.00  0.00     0.022 A 
ATOM      8  C7  BZF d   1       0.300   1.078  -0.960  0.00  0.00     0.029 A 
ATOM      9  C7A BZF d   1      -0.423   0.007  -1.428  0.00  0.00     0.058 A 
ENDROOT
TORSDOF 0
ENDMDL
