MODEL 1
REMARK minimizedAffinity -5.27338648
REMARK minimizedRMSD -1
REMARK  0 active torsions:
REMARK  status: ('A' for Active; 'I' for Inactive)
ROOT
ATOM      1  O1  BZF d   1       2.251  -0.155  -0.372  0.00  0.00    -0.204 OA
ATOM      2  C2  BZF d   1       1.255  -1.083  -0.603  0.00  0.00     0.174 A 
ATOM      3  C3  BZF d   1       0.119  -0.736   0.036  0.00  0.00    -0.012 A 
ATOM      4  C3A BZF d   1       0.397   0.534   0.634  0.00  0.00    -0.107 A 
ATOM      5  C4  BZF d   1      -0.343   1.399   1.388  0.00  0.00     0.055 A 
ATOM      6  C5  BZF d   1       0.248   2.521   1.877  0.00  0.00    -0.016 A 
ATOM      7  C6  BZF d   1       1.576   2.806   1.636  0.00  0.00     0.022 A 
ATOM      8  C7  BZF d   1       2.349   1.981   0.889  0.00  0.00     0.029 A 
ATOM      9  C7A BZF d   1       1.746   0.863   0.366  0.00  0.00     0.058 A 
ENDROOT
TORSDOF 0
ENDMDL
