MODEL 1
REMARK minimizedAffinity -4.84672737
REMARK minimizedRMSD -1
REMARK  0 active torsions:
REMARK  status: ('A' for Active; 'I' for Inactive)
ROOT
ATOM      1  O1  BZF d   1       0.238   2.315   1.883  0.00  0.00    -0.204 OA
ATOM      2  C2  BZF d   1       1.405   2.792   1.318  0.00  0.00     0.174 A 
ATOM      3  C3  BZF d   1       1.865   1.940   0.380  0.00  0.00    -0.012 A 
ATOM      4  C3A BZF d   1       0.878   0.908   0.293  0.00  0.00    -0.107 A 
ATOM      5  C4  BZF d   1       0.761  -0.217  -0.473  0.00  0.00     0.055 A 
ATOM      6  C5  BZF d   1      -0.289  -1.053  -0.262  0.00  0.00    -0.016 A 
ATOM      7  C6  BZF d   1      -1.236  -0.800   0.708  0.00  0.00     0.022 A 
ATOM      8  C7  BZF d   1      -1.165   0.306   1.490  0.00  0.00     0.029 A 
ATOM      9  C7A BZF d   1      -0.123   1.170   1.256  0.00  0.00     0.058 A 
ENDROOT
TORSDOF 0
ENDMDL
