MODEL 1
REMARK minimizedAffinity -3.00914979
REMARK minimizedRMSD -1
REMARK  0 active torsions:
REMARK  status: ('A' for Active; 'I' for Inactive)
ROOT
ATOM      1  O1  BZF d   1       1.009  -1.071   0.790  0.00  0.00    -0.204 OA
ATOM      2  C2  BZF d   1       0.022  -1.711   0.065  0.00  0.00     0.174 A 
ATOM      3  C3  BZF d   1      -0.617  -0.842  -0.744  0.00  0.00    -0.012 A 
ATOM      4  C3A BZF d   1       0.072   0.401  -0.580  0.00  0.00    -0.107 A 
ATOM      5  C4  BZF d   1      -0.083   1.641  -1.131  0.00  0.00     0.055 A 
ATOM      6  C5  BZF d   1       0.708   2.659  -0.701  0.00  0.00    -0.016 A 
ATOM      7  C6  BZF d   1       1.661   2.474   0.279  0.00  0.00     0.022 A 
ATOM      8  C7  BZF d   1       1.855   1.261   0.852  0.00  0.00     0.029 A 
ATOM      9  C7A BZF d   1       1.079   0.223   0.397  0.00  0.00     0.058 A 
ENDROOT
TORSDOF 0
ENDMDL
