MODEL 1
REMARK minimizedAffinity -4.43810892
REMARK minimizedRMSD -1
REMARK  0 active torsions:
REMARK  status: ('A' for Active; 'I' for Inactive)
ROOT
ATOM      1  O1  BZF d   1       1.642   0.755  -0.659  0.00  0.00    -0.204 OA
ATOM      2  C2  BZF d   1       2.810   1.462  -0.876  0.00  0.00     0.174 A 
ATOM      3  C3  BZF d   1       3.106   2.235   0.188  0.00  0.00    -0.012 A 
ATOM      4  C3A BZF d   1       2.108   1.927   1.166  0.00  0.00    -0.107 A 
ATOM      5  C4  BZF d   1       1.876   2.362   2.440  0.00  0.00     0.055 A 
ATOM      6  C5  BZF d   1       0.773   1.919   3.098  0.00  0.00    -0.016 A 
ATOM      7  C6  BZF d   1      -0.121   1.046   2.513  0.00  0.00     0.022 A 
ATOM      8  C7  BZF d   1       0.070   0.583   1.253  0.00  0.00     0.029 A 
ATOM      9  C7A BZF d   1       1.201   1.003   0.597  0.00  0.00     0.058 A 
ENDROOT
TORSDOF 0
ENDMDL
