MODEL 1
REMARK minimizedAffinity -5.42260981
REMARK minimizedRMSD -1
REMARK  0 active torsions:
REMARK  status: ('A' for Active; 'I' for Inactive)
ROOT
ATOM      1  O1  BZF d   1      -0.605   1.405   1.637  0.00  0.00    -0.204 OA
ATOM      2  C2  BZF d   1      -0.048   2.667   1.721  0.00  0.00     0.174 A 
ATOM      3  C3  BZF d   1       1.061   2.752   0.959  0.00  0.00    -0.012 A 
ATOM      4  C3A BZF d   1       1.155   1.491   0.289  0.00  0.00    -0.107 A 
ATOM      5  C4  BZF d   1       2.037   0.973  -0.616  0.00  0.00     0.055 A 
ATOM      6  C5  BZF d   1       1.888  -0.317  -1.019  0.00  0.00    -0.016 A 
ATOM      7  C6  BZF d   1       0.874  -1.116  -0.534  0.00  0.00     0.022 A 
ATOM      8  C7  BZF d   1      -0.028  -0.645   0.361  0.00  0.00     0.029 A 
ATOM      9  C7A BZF d   1       0.100   0.668   0.745  0.00  0.00     0.058 A 
ENDROOT
TORSDOF 0
ENDMDL
