MODEL 1
REMARK minimizedAffinity -0.553015769
REMARK minimizedRMSD -1
REMARK  0 active torsions:
REMARK  status: ('A' for Active; 'I' for Inactive)
ROOT
ATOM      1  O1  BZF d   1      -0.295  -0.772   0.900  0.00  0.00    -0.204 OA
ATOM      2  C2  BZF d   1      -1.209  -0.331   1.838  0.00  0.00     0.174 A 
ATOM      3  C3  BZF d   1      -0.979   0.959   2.159  0.00  0.00    -0.012 A 
ATOM      4  C3A BZF d   1       0.090   1.375   1.304  0.00  0.00    -0.107 A 
ATOM      5  C4  BZF d   1       0.755   2.556   1.139  0.00  0.00     0.055 A 
ATOM      6  C5  BZF d   1       1.799   2.611   0.272  0.00  0.00    -0.016 A 
ATOM      7  C6  BZF d   1       2.209   1.504  -0.442  0.00  0.00     0.022 A 
ATOM      8  C7  BZF d   1       1.578   0.311  -0.316  0.00  0.00     0.029 A 
ATOM      9  C7A BZF d   1       0.501   0.261   0.535  0.00  0.00     0.058 A 
ENDROOT
TORSDOF 0
ENDMDL
