MODEL 1
REMARK minimizedAffinity -5.15877962
REMARK minimizedRMSD -1
REMARK  0 active torsions:
REMARK  status: ('A' for Active; 'I' for Inactive)
ROOT
ATOM      1  O1  BZF d   1       2.351   1.421  -0.264  0.00  0.00    -0.204 OA
ATOM      2  C2  BZF d   1       1.773   2.577   0.224  0.00  0.00     0.174 A 
ATOM      3  C3  BZF d   1       0.491   2.357   0.581  0.00  0.00    -0.012 A 
ATOM      4  C3A BZF d   1       0.280   0.956   0.383  0.00  0.00    -0.107 A 
ATOM      5  C4  BZF d   1      -0.791   0.131   0.576  0.00  0.00     0.055 A 
ATOM      6  C5  BZF d   1      -0.691  -1.176   0.215  0.00  0.00    -0.016 A 
ATOM      7  C6  BZF d   1       0.460  -1.689  -0.345  0.00  0.00     0.022 A 
ATOM      8  C7  BZF d   1       1.551  -0.910  -0.551  0.00  0.00     0.029 A 
ATOM      9  C7A BZF d   1       1.464   0.403  -0.157  0.00  0.00     0.058 A 
ENDROOT
TORSDOF 0
ENDMDL
