MODEL 1
REMARK minimizedAffinity -1.68320489
REMARK minimizedRMSD -1
REMARK  0 active torsions:
REMARK  status: ('A' for Active; 'I' for Inactive)
ROOT
ATOM      1  O1  BZF d   1       1.416  -1.653  -0.331  0.00  0.00    -0.204 OA
ATOM      2  C2  BZF d   1       0.107  -1.797   0.086  0.00  0.00     0.174 A 
ATOM      3  C3  BZF d   1      -0.481  -0.593   0.243  0.00  0.00    -0.012 A 
ATOM      4  C3A BZF d   1       0.496   0.361  -0.186  0.00  0.00    -0.107 A 
ATOM      5  C4  BZF d   1       0.499   1.723  -0.280  0.00  0.00     0.055 A 
ATOM      6  C5  BZF d   1       1.638   2.356  -0.668  0.00  0.00    -0.016 A 
ATOM      7  C6  BZF d   1       2.791   1.659  -0.963  0.00  0.00     0.022 A 
ATOM      8  C7  BZF d   1       2.835   0.306  -0.889  0.00  0.00     0.029 A 
ATOM      9  C7A BZF d   1       1.676  -0.338  -0.529  0.00  0.00     0.058 A 
ENDROOT
TORSDOF 0
ENDMDL
