MODEL 1
REMARK minimizedAffinity -2.81421757
REMARK minimizedRMSD -1
REMARK  0 active torsions:
REMARK  status: ('A' for Active; 'I' for Inactive)
ROOT
ATOM      1  O1  BZF d   1      -0.792   0.407  -1.262  0.00  0.00    -0.204 OA
ATOM      2  C2  BZF d   1      -0.629  -0.922  -0.922  0.00  0.00     0.174 A 
ATOM      3  C3  BZF d   1       0.101  -1.042   0.206  0.00  0.00    -0.012 A 
ATOM      4  C3A BZF d   1       0.335   0.300   0.646  0.00  0.00    -0.107 A 
ATOM      5  C4  BZF d   1       0.987   0.835   1.720  0.00  0.00     0.055 A 
ATOM      6  C5  BZF d   1       1.097   2.186   1.820  0.00  0.00    -0.016 A 
ATOM      7  C6  BZF d   1       0.571   3.030   0.863  0.00  0.00     0.022 A 
ATOM      8  C7  BZF d   1      -0.089   2.545  -0.217  0.00  0.00     0.029 A 
ATOM      9  C7A BZF d   1      -0.230   1.182  -0.304  0.00  0.00     0.058 A 
ENDROOT
TORSDOF 0
ENDMDL
