MODEL 1
REMARK minimizedAffinity -2.2266221
REMARK minimizedRMSD -1
REMARK  0 active torsions:
REMARK  status: ('A' for Active; 'I' for Inactive)
ROOT
ATOM      1  O1  BZF d   1      -0.239   0.613  -1.080  0.00  0.00    -0.204 OA
ATOM      2  C2  BZF d   1       0.242  -0.027   0.046  0.00  0.00     0.174 A 
ATOM      3  C3  BZF d   1      -0.286  -1.263   0.155  0.00  0.00    -0.012 A 
ATOM      4  C3A BZF d   1      -1.078  -1.440  -1.023  0.00  0.00    -0.107 A 
ATOM      5  C4  BZF d   1      -1.838  -2.470  -1.498  0.00  0.00     0.055 A 
ATOM      6  C5  BZF d   1      -2.545  -2.295  -2.645  0.00  0.00    -0.016 A 
ATOM      7  C6  BZF d   1      -2.518  -1.104  -3.340  0.00  0.00     0.022 A 
ATOM      8  C7  BZF d   1      -1.775  -0.055  -2.911  0.00  0.00     0.029 A 
ATOM      9  C7A BZF d   1      -1.034  -0.239  -1.770  0.00  0.00     0.058 A 
ENDROOT
TORSDOF 0
ENDMDL
