MODEL 1
REMARK minimizedAffinity -6.11546612
REMARK minimizedRMSD -1
REMARK  0 active torsions:
REMARK  status: ('A' for Active; 'I' for Inactive)
ROOT
ATOM      1  O1  BZF d   1       0.377  -0.946  -0.425  0.00  0.00    -0.204 OA
ATOM      2  C2  BZF d   1      -0.645  -1.527   0.300  0.00  0.00     0.174 A 
ATOM      3  C3  BZF d   1      -1.068  -0.700   1.278  0.00  0.00    -0.012 A 
ATOM      4  C3A BZF d   1      -0.322   0.508   1.098  0.00  0.00    -0.107 A 
ATOM      5  C4  BZF d   1      -0.306   1.708   1.750  0.00  0.00     0.055 A 
ATOM      6  C5  BZF d   1       0.592   2.654   1.371  0.00  0.00    -0.016 A 
ATOM      7  C6  BZF d   1       1.491   2.433   0.348  0.00  0.00     0.022 A 
ATOM      8  C7  BZF d   1       1.510   1.261  -0.332  0.00  0.00     0.029 A 
ATOM      9  C7A BZF d   1       0.582   0.315   0.028  0.00  0.00     0.058 A 
ENDROOT
TORSDOF 0
ENDMDL
