MODEL 1
REMARK minimizedAffinity -3.45168638
REMARK minimizedRMSD -1
REMARK  0 active torsions:
REMARK  status: ('A' for Active; 'I' for Inactive)
ROOT
ATOM      1  O1  BZF d   1       0.369  -1.558  -0.235  0.00  0.00    -0.204 OA
ATOM      2  C2  BZF d   1      -0.649  -1.405  -1.157  0.00  0.00     0.174 A 
ATOM      3  C3  BZF d   1      -1.092  -0.132  -1.174  0.00  0.00    -0.012 A 
ATOM      4  C3A BZF d   1      -0.241   0.575  -0.267  0.00  0.00    -0.107 A 
ATOM      5  C4  BZF d   1      -0.172   1.879   0.133  0.00  0.00     0.055 A 
ATOM      6  C5  BZF d   1       0.730   2.230   1.087  0.00  0.00    -0.016 A 
ATOM      7  C6  BZF d   1       1.572   1.304   1.666  0.00  0.00     0.022 A 
ATOM      8  C7  BZF d   1       1.544  -0.000   1.299  0.00  0.00     0.029 A 
ATOM      9  C7A BZF d   1       0.657  -0.352   0.310  0.00  0.00     0.058 A 
ENDROOT
TORSDOF 0
ENDMDL
