MODEL 1
REMARK minimizedAffinity -4.6159091
REMARK minimizedRMSD -1
REMARK  0 active torsions:
REMARK  status: ('A' for Active; 'I' for Inactive)
ROOT
ATOM      1  O1  BZF d   1      -0.151  -0.367   1.657  0.00  0.00    -0.204 OA
ATOM      2  C2  BZF d   1      -0.031  -1.271   0.619  0.00  0.00     0.174 A 
ATOM      3  C3  BZF d   1       0.637  -0.724  -0.417  0.00  0.00    -0.012 A 
ATOM      4  C3A BZF d   1       1.035   0.574   0.035  0.00  0.00    -0.107 A 
ATOM      5  C4  BZF d   1       1.743   1.591  -0.538  0.00  0.00     0.055 A 
ATOM      6  C5  BZF d   1       1.894   2.757   0.144  0.00  0.00    -0.016 A 
ATOM      7  C6  BZF d   1       1.347   2.941   1.397  0.00  0.00     0.022 A 
ATOM      8  C7  BZF d   1       0.642   1.959   2.009  0.00  0.00     0.029 A 
ATOM      9  C7A BZF d   1       0.515   0.768   1.336  0.00  0.00     0.058 A 
ENDROOT
TORSDOF 0
ENDMDL
