MODEL 1
REMARK minimizedAffinity -2.58161378
REMARK minimizedRMSD -1
REMARK  0 active torsions:
REMARK  status: ('A' for Active; 'I' for Inactive)
ROOT
ATOM      1  O1  BZF d   1      -0.004  -0.599  -1.338  0.00  0.00    -0.204 OA
ATOM      2  C2  BZF d   1       0.442  -0.931  -0.073  0.00  0.00     0.174 A 
ATOM      3  C3  BZF d   1      -0.492  -1.642   0.591  0.00  0.00    -0.012 A 
ATOM      4  C3A BZF d   1      -1.553  -1.841  -0.348  0.00  0.00    -0.107 A 
ATOM      5  C4  BZF d   1      -2.754  -2.488  -0.285  0.00  0.00     0.055 A 
ATOM      6  C5  BZF d   1      -3.591  -2.433  -1.354  0.00  0.00    -0.016 A 
ATOM      7  C6  BZF d   1      -3.262  -1.737  -2.498  0.00  0.00     0.022 A 
ATOM      8  C7  BZF d   1      -2.080  -1.083  -2.610  0.00  0.00     0.029 A 
ATOM      9  C7A BZF d   1      -1.218  -1.164  -1.544  0.00  0.00     0.058 A 
ENDROOT
TORSDOF 0
ENDMDL
