MODEL 1
REMARK minimizedAffinity -5.15852308
REMARK minimizedRMSD -1
REMARK  0 active torsions:
REMARK  status: ('A' for Active; 'I' for Inactive)
ROOT
ATOM      1  O1  BZF d   1       0.147   2.357   1.369  0.00  0.00    -0.204 OA
ATOM      2  C2  BZF d   1       1.200   2.770   0.576  0.00  0.00     0.174 A 
ATOM      3  C3  BZF d   1       1.593   1.781  -0.251  0.00  0.00    -0.012 A 
ATOM      4  C3A BZF d   1       0.673   0.710  -0.021  0.00  0.00    -0.107 A 
ATOM      5  C4  BZF d   1       0.534  -0.540  -0.555  0.00  0.00     0.055 A 
ATOM      6  C5  BZF d   1      -0.424  -1.366  -0.059  0.00  0.00    -0.016 A 
ATOM      7  C6  BZF d   1      -1.256  -0.979   0.971  0.00  0.00     0.022 A 
ATOM      8  C7  BZF d   1      -1.160   0.252   1.529  0.00  0.00     0.029 A 
ATOM      9  C7A BZF d   1      -0.214   1.102   1.008  0.00  0.00     0.058 A 
ENDROOT
TORSDOF 0
ENDMDL
