MODEL 1
REMARK minimizedAffinity -4.27171183
REMARK minimizedRMSD -1
REMARK  0 active torsions:
REMARK  status: ('A' for Active; 'I' for Inactive)
ROOT
ATOM      1  O1  BZF d   1      -0.210  -0.818   1.333  0.00  0.00    -0.204 OA
ATOM      2  C2  BZF d   1      -1.169  -0.213   2.122  0.00  0.00     0.174 A 
ATOM      3  C3  BZF d   1      -0.991   1.124   2.150  0.00  0.00    -0.012 A 
ATOM      4  C3A BZF d   1       0.094   1.378   1.253  0.00  0.00    -0.107 A 
ATOM      5  C4  BZF d   1       0.727   2.517   0.844  0.00  0.00     0.055 A 
ATOM      6  C5  BZF d   1       1.800   2.416   0.016  0.00  0.00    -0.016 A 
ATOM      7  C6  BZF d   1       2.269   1.194  -0.418  0.00  0.00     0.022 A 
ATOM      8  C7  BZF d   1       1.671   0.036  -0.044  0.00  0.00     0.029 A 
ATOM      9  C7A BZF d   1       0.566   0.137   0.767  0.00  0.00     0.058 A 
ENDROOT
TORSDOF 0
ENDMDL
