MODEL 1
REMARK minimizedAffinity 10.0819569
REMARK minimizedRMSD -1
REMARK  1 active torsions:
REMARK  status: ('A' for Active; 'I' for Inactive)
REMARK    1  A    between atoms: C1_2  and  C2_3 
ROOT
ATOM      1  C2  UNL d   1      -0.250   2.144   0.015  0.00  0.00    -0.077 A 
ATOM      2  C3  UNL d   1      -0.242   2.385   1.396  0.00  0.00     0.002 A 
ATOM      3  C4  UNL d   1      -0.002   3.670   1.887  0.00  0.00     0.002 A 
ATOM      4  C5  UNL d   1       0.228   4.723   1.004  0.00  0.00    -0.004 A 
ATOM      5  C6  UNL d   1       0.224   4.493  -0.371  0.00  0.00     0.002 A 
ATOM      6  C7  UNL d   1      -0.014   3.209  -0.864  0.00  0.00     0.002 A 
ENDROOT
BRANCH   1   7
ATOM      7  C1  UNL d   1      -0.557   0.769  -0.518  0.00  0.00     0.055 C 
ATOM      8  C   UNL d   1       0.637   0.181  -1.256  0.00  0.00     0.019 C 
ENDBRANCH   1   7
TORSDOF 1
ENDMDL
