MODEL 1
REMARK minimizedAffinity 9.55341339
REMARK minimizedRMSD -1
REMARK  1 active torsions:
REMARK  status: ('A' for Active; 'I' for Inactive)
REMARK    1  A    between atoms: C1_2  and  C2_3 
ROOT
ATOM      1  C2  UNL d   1      -3.875   0.220   3.665  0.00  0.00    -0.077 A 
ATOM      2  C3  UNL d   1      -3.743  -1.173   3.583  0.00  0.00     0.002 A 
ATOM      3  C4  UNL d   1      -4.630  -2.008   4.265  0.00  0.00     0.002 A 
ATOM      4  C5  UNL d   1      -5.657  -1.460   5.030  0.00  0.00    -0.004 A 
ATOM      5  C6  UNL d   1      -5.796  -0.075   5.120  0.00  0.00     0.002 A 
ATOM      6  C7  UNL d   1      -4.909   0.761   4.440  0.00  0.00     0.002 A 
ENDROOT
BRANCH   1   7
ATOM      7  C1  UNL d   1      -2.949   1.122   2.891  0.00  0.00     0.055 C 
ATOM      8  C   UNL d   1      -1.887   1.731   3.794  0.00  0.00     0.019 C 
ENDBRANCH   1   7
TORSDOF 1
ENDMDL
