MODEL 1
REMARK minimizedAffinity 10.6596661
REMARK minimizedRMSD -1
REMARK  1 active torsions:
REMARK  status: ('A' for Active; 'I' for Inactive)
REMARK    1  A    between atoms: C1_2  and  C2_3 
ROOT
ATOM      1  C2  UNL d   1       0.736   3.200   1.781  0.00  0.00    -0.077 A 
ATOM      2  C3  UNL d   1       1.972   3.816   1.539  0.00  0.00     0.002 A 
ATOM      3  C4  UNL d   1       2.084   4.817   0.573  0.00  0.00     0.002 A 
ATOM      4  C5  UNL d   1       0.965   5.214  -0.156  0.00  0.00    -0.004 A 
ATOM      5  C6  UNL d   1      -0.268   4.606   0.076  0.00  0.00     0.002 A 
ATOM      6  C7  UNL d   1      -0.382   3.604   1.041  0.00  0.00     0.002 A 
ENDROOT
BRANCH   1   7
ATOM      7  C1  UNL d   1       0.602   2.154   2.858  0.00  0.00     0.055 C 
ATOM      8  C   UNL d   1      -0.855   1.932   3.235  0.00  0.00     0.019 C 
ENDBRANCH   1   7
TORSDOF 1
ENDMDL
