MODEL 1
REMARK minimizedAffinity 3.76210022
REMARK minimizedRMSD -1
REMARK  1 active torsions:
REMARK  status: ('A' for Active; 'I' for Inactive)
REMARK    1  A    between atoms: C1_2  and  C2_3 
ROOT
ATOM      1  C2  UNL d   1       0.255   3.648   1.258  0.00  0.00    -0.077 A 
ATOM      2  C3  UNL d   1       0.821   3.702  -0.023  0.00  0.00     0.002 A 
ATOM      3  C4  UNL d   1       0.745   4.873  -0.780  0.00  0.00     0.002 A 
ATOM      4  C5  UNL d   1       0.110   6.000  -0.261  0.00  0.00    -0.004 A 
ATOM      5  C6  UNL d   1      -0.457   5.956   1.012  0.00  0.00     0.002 A 
ATOM      6  C7  UNL d   1      -0.384   4.785   1.769  0.00  0.00     0.002 A 
ENDROOT
BRANCH   1   7
ATOM      7  C1  UNL d   1       0.378   2.402   2.095  0.00  0.00     0.055 C 
ATOM      8  C   UNL d   1       1.132   2.675   3.388  0.00  0.00     0.019 C 
ENDBRANCH   1   7
TORSDOF 1
ENDMDL
