MODEL 1
REMARK minimizedAffinity 3.1168263
REMARK minimizedRMSD -1
REMARK  0 active torsions:
REMARK  status: ('A' for Active; 'I' for Inactive)
ROOT
ATOM      1  C   UNL d   1       1.965   4.147  -4.722  0.00  0.00     0.020 A 
ATOM      2  C1  UNL d   1       2.001   5.396  -5.339  0.00  0.00     0.020 A 
ATOM      3  C2  UNL d   1       3.223   5.950  -5.725  0.00  0.00     0.034 A 
ATOM      4  C3  UNL d   1       4.415   5.254  -5.494  0.00  0.00     0.017 A 
ATOM      5  C4  UNL d   1       4.379   3.999  -4.874  0.00  0.00     0.017 A 
ATOM      6  C5  UNL d   1       3.152   3.450  -4.491  0.00  0.00     0.034 A 
ATOM      7 Cl   UNL d   1       5.807   3.081  -4.556  0.00  0.00    -0.070 Cl
ATOM      8 Cl1  UNL d   1       5.891   5.999  -5.997  0.00  0.00    -0.070 Cl
ENDROOT
TORSDOF 0
ENDMDL
