MODEL 1
REMARK minimizedAffinity 0.127871543
REMARK minimizedRMSD -1
REMARK  0 active torsions:
REMARK  status: ('A' for Active; 'I' for Inactive)
ROOT
ATOM      1  C   UNL d   1      -3.656   5.987  -3.729  0.00  0.00     0.020 A 
ATOM      2  C1  UNL d   1      -3.510   5.996  -2.342  0.00  0.00     0.020 A 
ATOM      3  C2  UNL d   1      -2.234   6.000  -1.775  0.00  0.00     0.034 A 
ATOM      4  C3  UNL d   1      -1.099   5.994  -2.594  0.00  0.00     0.017 A 
ATOM      5  C4  UNL d   1      -1.247   5.985  -3.986  0.00  0.00     0.017 A 
ATOM      6  C5  UNL d   1      -2.527   5.981  -4.549  0.00  0.00     0.034 A 
ATOM      7 Cl   UNL d   1       0.106   5.977  -5.062  0.00  0.00    -0.070 Cl
ATOM      8 Cl1  UNL d   1       0.448   5.999  -1.824  0.00  0.00    -0.070 Cl
ENDROOT
TORSDOF 0
ENDMDL
