MODEL 1
REMARK minimizedAffinity 9.34824562
REMARK minimizedRMSD -1
REMARK  0 active torsions:
REMARK  status: ('A' for Active; 'I' for Inactive)
ROOT
ATOM      1  C   UNL d   1      -0.481   0.239  -0.024  0.00  0.00     0.020 A 
ATOM      2  C1  UNL d   1       0.699   0.736   0.528  0.00  0.00     0.020 A 
ATOM      3  C2  UNL d   1       0.929   0.625   1.900  0.00  0.00     0.034 A 
ATOM      4  C3  UNL d   1      -0.022   0.016   2.727  0.00  0.00     0.017 A 
ATOM      5  C4  UNL d   1      -1.206  -0.484   2.172  0.00  0.00     0.017 A 
ATOM      6  C5  UNL d   1      -1.432  -0.370   0.797  0.00  0.00     0.034 A 
ATOM      7 Cl   UNL d   1      -2.427  -1.249   3.127  0.00  0.00    -0.070 Cl
ATOM      8 Cl1  UNL d   1       0.328  -0.088   4.415  0.00  0.00    -0.070 Cl
ENDROOT
TORSDOF 0
ENDMDL
