MODEL 1
REMARK minimizedAffinity 2.13220739
REMARK minimizedRMSD -1
REMARK  0 active torsions:
REMARK  status: ('A' for Active; 'I' for Inactive)
ROOT
ATOM      1  C   UNL d   1       1.117  -0.836  -0.986  0.00  0.00     0.020 A 
ATOM      2  C1  UNL d   1       1.556   0.235  -1.763  0.00  0.00     0.020 A 
ATOM      3  C2  UNL d   1       1.678   1.505  -1.196  0.00  0.00     0.034 A 
ATOM      4  C3  UNL d   1       1.360   1.708   0.152  0.00  0.00     0.017 A 
ATOM      5  C4  UNL d   1       0.919   0.632   0.931  0.00  0.00     0.017 A 
ATOM      6  C5  UNL d   1       0.799  -0.638   0.358  0.00  0.00     0.034 A 
ATOM      7 Cl   UNL d   1       0.508   0.804   2.601  0.00  0.00    -0.070 Cl
ATOM      8 Cl1  UNL d   1       1.535   3.305   0.787  0.00  0.00    -0.070 Cl
ENDROOT
TORSDOF 0
ENDMDL
