MODEL 1
REMARK minimizedAffinity 5.58487654
REMARK minimizedRMSD -1
REMARK  0 active torsions:
REMARK  status: ('A' for Active; 'I' for Inactive)
ROOT
ATOM      1  C   UNL d   1       0.700   4.147  -5.400  0.00  0.00     0.020 A 
ATOM      2  C1  UNL d   1       0.863   5.438  -5.899  0.00  0.00     0.020 A 
ATOM      3  C2  UNL d   1       2.142   5.991  -6.000  0.00  0.00     0.034 A 
ATOM      4  C3  UNL d   1       3.261   5.253  -5.601  0.00  0.00     0.017 A 
ATOM      5  C4  UNL d   1       3.096   3.956  -5.100  0.00  0.00     0.017 A 
ATOM      6  C5  UNL d   1       1.814   3.408  -5.001  0.00  0.00     0.034 A 
ATOM      7 Cl   UNL d   1       4.430   2.984  -4.587  0.00  0.00    -0.070 Cl
ATOM      8 Cl1  UNL d   1       4.812   5.999  -5.753  0.00  0.00    -0.070 Cl
ENDROOT
TORSDOF 0
ENDMDL
