MODEL 1
REMARK minimizedAffinity 5.03334904
REMARK minimizedRMSD -1
REMARK  0 active torsions:
REMARK  status: ('A' for Active; 'I' for Inactive)
ROOT
ATOM      1  C   UNL d   1      -1.697  -1.337  -4.536  0.00  0.00     0.020 A 
ATOM      2  C1  UNL d   1      -2.757  -1.282  -3.632  0.00  0.00     0.020 A 
ATOM      3  C2  UNL d   1      -2.502  -1.219  -2.260  0.00  0.00     0.034 A 
ATOM      4  C3  UNL d   1      -1.185  -1.210  -1.789  0.00  0.00     0.017 A 
ATOM      5  C4  UNL d   1      -0.121  -1.265  -2.697  0.00  0.00     0.017 A 
ATOM      6  C5  UNL d   1      -0.382  -1.328  -4.069  0.00  0.00     0.034 A 
ATOM      7 Cl   UNL d   1       1.531  -1.258  -2.191  0.00  0.00    -0.070 Cl
ATOM      8 Cl1  UNL d   1      -0.943  -1.131  -0.080  0.00  0.00    -0.070 Cl
ENDROOT
TORSDOF 0
ENDMDL
