MODEL 1
REMARK minimizedAffinity 2.84235501
REMARK minimizedRMSD -1
REMARK  0 active torsions:
REMARK  status: ('A' for Active; 'I' for Inactive)
ROOT
ATOM      1  C   UNL d   1      -3.746   5.995  -2.128  0.00  0.00     0.020 A 
ATOM      2  C1  UNL d   1      -3.641   5.998  -3.518  0.00  0.00     0.020 A 
ATOM      3  C2  UNL d   1      -2.382   5.999  -4.124  0.00  0.00     0.034 A 
ATOM      4  C3  UNL d   1      -1.224   5.997  -3.339  0.00  0.00     0.017 A 
ATOM      5  C4  UNL d   1      -1.330   5.994  -1.943  0.00  0.00     0.017 A 
ATOM      6  C5  UNL d   1      -2.593   5.993  -1.342  0.00  0.00     0.034 A 
ATOM      7 Cl   UNL d   1       0.054   5.991  -0.908  0.00  0.00    -0.070 Cl
ATOM      8 Cl1  UNL d   1       0.299   5.998  -4.154  0.00  0.00    -0.070 Cl
ENDROOT
TORSDOF 0
ENDMDL
