MODEL 1
REMARK minimizedAffinity 0.237925291
REMARK minimizedRMSD -1
REMARK  0 active torsions:
REMARK  status: ('A' for Active; 'I' for Inactive)
ROOT
ATOM      1  C   UNL d   1      -3.990   5.989  -0.580  0.00  0.00     0.020 A 
ATOM      2  C1  UNL d   1      -4.248   5.998  -1.950  0.00  0.00     0.020 A 
ATOM      3  C2  UNL d   1      -3.189   6.000  -2.860  0.00  0.00     0.034 A 
ATOM      4  C3  UNL d   1      -1.867   5.993  -2.401  0.00  0.00     0.017 A 
ATOM      5  C4  UNL d   1      -1.609   5.984  -1.026  0.00  0.00     0.017 A 
ATOM      6  C5  UNL d   1      -2.673   5.982  -0.119  0.00  0.00     0.034 A 
ATOM      7 Cl   UNL d   1      -0.004   5.975  -0.384  0.00  0.00    -0.070 Cl
ATOM      8 Cl1  UNL d   1      -0.607   5.995  -3.583  0.00  0.00    -0.070 Cl
ENDROOT
TORSDOF 0
ENDMDL
