MODEL 1
REMARK minimizedAffinity 1.80254543
REMARK minimizedRMSD -1
REMARK  0 active torsions:
REMARK  status: ('A' for Active; 'I' for Inactive)
ROOT
ATOM      1  C   UNL d   1       1.686   2.597  -0.372  0.00  0.00     0.020 A 
ATOM      2  C1  UNL d   1       1.620   3.408   0.760  0.00  0.00     0.020 A 
ATOM      3  C2  UNL d   1       1.106   2.900   1.955  0.00  0.00     0.034 A 
ATOM      4  C3  UNL d   1       0.656   1.576   2.021  0.00  0.00     0.017 A 
ATOM      5  C4  UNL d   1       0.722   0.763   0.884  0.00  0.00     0.017 A 
ATOM      6  C5  UNL d   1       1.238   1.277  -0.310  0.00  0.00     0.034 A 
ATOM      7 Cl   UNL d   1       0.186  -0.881   0.888  0.00  0.00    -0.070 Cl
ATOM      8 Cl1  UNL d   1       0.032   1.014   3.531  0.00  0.00    -0.070 Cl
ENDROOT
TORSDOF 0
ENDMDL
