MODEL 1
REMARK minimizedAffinity -1.80742967
REMARK minimizedRMSD -1
REMARK  0 active torsions:
REMARK  status: ('A' for Active; 'I' for Inactive)
ROOT
ATOM      1  C   UNL d   1      -3.871   5.990  -2.622  0.00  0.00     0.020 A 
ATOM      2  C1  UNL d   1      -3.305   5.995  -3.896  0.00  0.00     0.020 A 
ATOM      3  C2  UNL d   1      -1.916   5.998  -4.043  0.00  0.00     0.034 A 
ATOM      4  C3  UNL d   1      -1.088   5.996  -2.915  0.00  0.00     0.017 A 
ATOM      5  C4  UNL d   1      -1.657   5.990  -1.636  0.00  0.00     0.017 A 
ATOM      6  C5  UNL d   1      -3.048   5.987  -1.494  0.00  0.00     0.034 A 
ATOM      7 Cl   UNL d   1      -0.701   5.988  -0.196  0.00  0.00    -0.070 Cl
ATOM      8 Cl1  UNL d   1       0.620   5.999  -3.171  0.00  0.00    -0.070 Cl
ENDROOT
TORSDOF 0
ENDMDL
