MODEL 1
REMARK minimizedAffinity 5.6351018
REMARK minimizedRMSD -1
REMARK  0 active torsions:
REMARK  status: ('A' for Active; 'I' for Inactive)
ROOT
ATOM      1  C   UNL d   1      -4.339   6.000  -3.078  0.00  0.00     0.020 A 
ATOM      2  C1  UNL d   1      -4.206   5.998  -1.690  0.00  0.00     0.020 A 
ATOM      3  C2  UNL d   1      -2.935   5.997  -1.111  0.00  0.00     0.034 A 
ATOM      4  C3  UNL d   1      -1.793   5.996  -1.920  0.00  0.00     0.017 A 
ATOM      5  C4  UNL d   1      -1.928   5.998  -3.313  0.00  0.00     0.017 A 
ATOM      6  C5  UNL d   1      -3.203   6.000  -3.887  0.00  0.00     0.034 A 
ATOM      7 Cl   UNL d   1      -0.566   5.998  -4.376  0.00  0.00    -0.070 Cl
ATOM      8 Cl1  UNL d   1      -0.253   5.994  -1.136  0.00  0.00    -0.070 Cl
ENDROOT
TORSDOF 0
ENDMDL
