MODEL 1
REMARK minimizedAffinity 0.56085211
REMARK minimizedRMSD -1
REMARK  0 active torsions:
REMARK  status: ('A' for Active; 'I' for Inactive)
ROOT
ATOM      1  C   UNL d   1      -0.103   5.950  -5.641  0.00  0.00     0.020 A 
ATOM      2  C1  UNL d   1       0.636   5.948  -4.459  0.00  0.00     0.020 A 
ATOM      3  C2  UNL d   1      -0.020   5.963  -3.226  0.00  0.00     0.034 A 
ATOM      4  C3  UNL d   1      -1.418   5.979  -3.173  0.00  0.00     0.017 A 
ATOM      5  C4  UNL d   1      -2.159   5.980  -4.360  0.00  0.00     0.017 A 
ATOM      6  C5  UNL d   1      -1.498   5.966  -5.592  0.00  0.00     0.034 A 
ATOM      7 Cl   UNL d   1      -3.887   6.000  -4.374  0.00  0.00    -0.070 Cl
ATOM      8 Cl1  UNL d   1      -2.162   5.996  -1.613  0.00  0.00    -0.070 Cl
ENDROOT
TORSDOF 0
ENDMDL
