MODEL 1
REMARK minimizedAffinity 1.50734591
REMARK minimizedRMSD -1
REMARK  0 active torsions:
REMARK  status: ('A' for Active; 'I' for Inactive)
ROOT
ATOM      1  C   UNL d   1      -3.697   5.990  -2.639  0.00  0.00     0.020 A 
ATOM      2  C1  UNL d   1      -3.278   5.996  -3.968  0.00  0.00     0.020 A 
ATOM      3  C2  UNL d   1      -1.915   5.985  -4.271  0.00  0.00     0.034 A 
ATOM      4  C3  UNL d   1      -0.966   5.967  -3.243  0.00  0.00     0.017 A 
ATOM      5  C4  UNL d   1      -1.387   5.960  -1.908  0.00  0.00     0.017 A 
ATOM      6  C5  UNL d   1      -2.753   5.972  -1.611  0.00  0.00     0.034 A 
ATOM      7 Cl   UNL d   1      -0.275   5.938  -0.585  0.00  0.00    -0.070 Cl
ATOM      8 Cl1  UNL d   1       0.703   5.953  -3.690  0.00  0.00    -0.070 Cl
ENDROOT
TORSDOF 0
ENDMDL
