MODEL 1
REMARK minimizedAffinity 3.38940549
REMARK minimizedRMSD -1
REMARK  0 active torsions:
REMARK  status: ('A' for Active; 'I' for Inactive)
ROOT
ATOM      1  C   UNL d   1       1.633   1.893   0.042  0.00  0.00     0.020 A 
ATOM      2  C1  UNL d   1       1.189   2.893   0.906  0.00  0.00     0.020 A 
ATOM      3  C2  UNL d   1       0.393   2.563   2.005  0.00  0.00     0.034 A 
ATOM      4  C3  UNL d   1       0.039   1.230   2.243  0.00  0.00     0.017 A 
ATOM      5  C4  UNL d   1       0.485   0.227   1.375  0.00  0.00     0.017 A 
ATOM      6  C5  UNL d   1       1.282   0.563   0.276  0.00  0.00     0.034 A 
ATOM      7 Cl   UNL d   1       0.089  -1.440   1.604  0.00  0.00    -0.070 Cl
ATOM      8 Cl1  UNL d   1      -0.948   0.895   3.622  0.00  0.00    -0.070 Cl
ENDROOT
TORSDOF 0
ENDMDL
