MODEL 1
REMARK minimizedAffinity 3.41440368
REMARK minimizedRMSD -1
REMARK  0 active torsions:
REMARK  status: ('A' for Active; 'I' for Inactive)
ROOT
ATOM      1  C   UNL d   1      -1.339   0.377   2.106  0.00  0.00     0.020 A 
ATOM      2  C1  UNL d   1      -0.630   0.232   0.914  0.00  0.00     0.020 A 
ATOM      3  C2  UNL d   1       0.766   0.228   0.929  0.00  0.00     0.034 A 
ATOM      4  C3  UNL d   1       1.458   0.368   2.138  0.00  0.00     0.017 A 
ATOM      5  C4  UNL d   1       0.745   0.514   3.333  0.00  0.00     0.017 A 
ATOM      6  C5  UNL d   1      -0.653   0.518   3.313  0.00  0.00     0.034 A 
ATOM      7 Cl   UNL d   1       1.529   0.693   4.863  0.00  0.00    -0.070 Cl
ATOM      8 Cl1  UNL d   1       3.185   0.353   2.081  0.00  0.00    -0.070 Cl
ENDROOT
TORSDOF 0
ENDMDL
