MODEL 1
REMARK minimizedAffinity 4.42948341
REMARK minimizedRMSD -1
REMARK  0 active torsions:
REMARK  status: ('A' for Active; 'I' for Inactive)
ROOT
ATOM      1  C   UNL d   1       1.810   2.182  -0.324  0.00  0.00     0.020 A 
ATOM      2  C1  UNL d   1       1.351   2.909   0.774  0.00  0.00     0.020 A 
ATOM      3  C2  UNL d   1       0.465   2.321   1.679  0.00  0.00     0.034 A 
ATOM      4  C3  UNL d   1       0.036   1.002   1.488  0.00  0.00     0.017 A 
ATOM      5  C4  UNL d   1       0.498   0.274   0.386  0.00  0.00     0.017 A 
ATOM      6  C5  UNL d   1       1.384   0.868  -0.517  0.00  0.00     0.034 A 
ATOM      7 Cl   UNL d   1       0.013  -1.358   0.084  0.00  0.00    -0.070 Cl
ATOM      8 Cl1  UNL d   1      -1.059   0.338   2.648  0.00  0.00    -0.070 Cl
ENDROOT
TORSDOF 0
ENDMDL
