MODEL 1
REMARK minimizedAffinity 1.64116871
REMARK minimizedRMSD -1
REMARK  0 active torsions:
REMARK  status: ('A' for Active; 'I' for Inactive)
ROOT
ATOM      1  C   UNL d   1      -4.888   5.995  -1.954  0.00  0.00     0.020 A 
ATOM      2  C1  UNL d   1      -5.063   5.995  -3.337  0.00  0.00     0.020 A 
ATOM      3  C2  UNL d   1      -3.950   5.996  -4.181  0.00  0.00     0.034 A 
ATOM      4  C3  UNL d   1      -2.658   5.996  -3.643  0.00  0.00     0.017 A 
ATOM      5  C4  UNL d   1      -2.484   5.995  -2.254  0.00  0.00     0.017 A 
ATOM      6  C5  UNL d   1      -3.602   5.994  -1.414  0.00  0.00     0.034 A 
ATOM      7 Cl   UNL d   1      -0.921   5.995  -1.516  0.00  0.00    -0.070 Cl
ATOM      8 Cl1  UNL d   1      -1.328   5.996  -4.746  0.00  0.00    -0.070 Cl
ENDROOT
TORSDOF 0
ENDMDL
