MODEL 1
REMARK minimizedAffinity 0.994728744
REMARK minimizedRMSD -1
REMARK  0 active torsions:
REMARK  status: ('A' for Active; 'I' for Inactive)
ROOT
ATOM      1  C   UNL d   1       1.155   0.958   1.319  0.00  0.00     0.020 A 
ATOM      2  C1  UNL d   1       1.610   2.259   1.105  0.00  0.00     0.020 A 
ATOM      3  C2  UNL d   1       2.029   2.651  -0.168  0.00  0.00     0.034 A 
ATOM      4  C3  UNL d   1       1.994   1.742  -1.232  0.00  0.00     0.017 A 
ATOM      5  C4  UNL d   1       1.537   0.437  -1.016  0.00  0.00     0.017 A 
ATOM      6  C5  UNL d   1       1.119   0.049   0.261  0.00  0.00     0.034 A 
ATOM      7 Cl   UNL d   1       1.465  -0.741  -2.279  0.00  0.00    -0.070 Cl
ATOM      8 Cl1  UNL d   1       2.527   2.295  -2.780  0.00  0.00    -0.070 Cl
ENDROOT
TORSDOF 0
ENDMDL
