MODEL 1
REMARK minimizedAffinity 10.965477
REMARK minimizedRMSD -1
REMARK  0 active torsions:
REMARK  status: ('A' for Active; 'I' for Inactive)
ROOT
ATOM      1  N1  IND d   1       3.873   6.000   2.063  0.00  0.00    -0.196 N 
ATOM      2  C2  IND d   1       4.663   5.310   2.941  0.00  0.00     0.054 A 
ATOM      3  C3  IND d   1       3.943   4.353   3.569  0.00  0.00    -0.031 A 
ATOM      4  C4  IND d   1       1.482   3.676   3.238  0.00  0.00     0.051 A 
ATOM      5  C5  IND d   1       0.345   4.039   2.573  0.00  0.00    -0.031 A 
ATOM      6  C6  IND d   1       0.326   5.094   1.683  0.00  0.00     0.015 A 
ATOM      7  C7  IND d   1       1.452   5.821   1.417  0.00  0.00    -0.016 A 
ATOM      8  C8  IND d   1       2.606   5.460   2.096  0.00  0.00    -0.047 A 
ATOM      9  C9  IND d   1       2.621   4.417   3.032  0.00  0.00    -0.096 A 
ATOM     10  HN1 IND d   1       4.126   6.660   1.574  0.00  0.00     0.298 HD
ENDROOT
TORSDOF 0
ENDMDL
