MODEL 1
REMARK minimizedAffinity 2.7880826
REMARK minimizedRMSD -1
REMARK  0 active torsions:
REMARK  status: ('A' for Active; 'I' for Inactive)
ROOT
ATOM      1  N1  IND d   1       3.713   1.293  -3.057  0.00  0.00    -0.196 N 
ATOM      2  C2  IND d   1       4.828   2.083  -3.079  0.00  0.00     0.054 A 
ATOM      3  C3  IND d   1       5.193   2.417  -1.821  0.00  0.00    -0.031 A 
ATOM      4  C4  IND d   1       4.167   1.695   0.426  0.00  0.00     0.051 A 
ATOM      5  C5  IND d   1       3.113   1.005   0.957  0.00  0.00    -0.031 A 
ATOM      6  C6  IND d   1       2.188   0.361   0.161  0.00  0.00     0.015 A 
ATOM      7  C7  IND d   1       2.290   0.373  -1.201  0.00  0.00    -0.016 A 
ATOM      8  C8  IND d   1       3.354   1.078  -1.744  0.00  0.00    -0.047 A 
ATOM      9  C9  IND d   1       4.272   1.769  -0.943  0.00  0.00    -0.096 A 
ATOM     10  HN1 IND d   1       3.304   0.982  -3.746  0.00  0.00     0.298 HD
ENDROOT
TORSDOF 0
ENDMDL
