MODEL 1
REMARK minimizedAffinity 3.26367736
REMARK minimizedRMSD -1
REMARK  0 active torsions:
REMARK  status: ('A' for Active; 'I' for Inactive)
ROOT
ATOM      1  N1  IND d   1       4.298   1.861  -3.074  0.00  0.00    -0.196 N 
ATOM      2  C2  IND d   1       5.353   2.697  -2.830  0.00  0.00     0.054 A 
ATOM      3  C3  IND d   1       5.633   2.726  -1.508  0.00  0.00    -0.031 A 
ATOM      4  C4  IND d   1       4.558   1.404   0.422  0.00  0.00     0.051 A 
ATOM      5  C5  IND d   1       3.533   0.543   0.698  0.00  0.00    -0.031 A 
ATOM      6  C6  IND d   1       2.696   0.065  -0.289  0.00  0.00     0.015 A 
ATOM      7  C7  IND d   1       2.860   0.424  -1.597  0.00  0.00    -0.016 A 
ATOM      8  C8  IND d   1       3.895   1.304  -1.880  0.00  0.00    -0.047 A 
ATOM      9  C9  IND d   1       4.721   1.825  -0.876  0.00  0.00    -0.096 A 
ATOM     10  HN1 IND d   1       3.946   1.710  -3.844  0.00  0.00     0.298 HD
ENDROOT
TORSDOF 0
ENDMDL
