MODEL 1
REMARK minimizedAffinity 7.15028858
REMARK minimizedRMSD -1
REMARK  0 active torsions:
REMARK  status: ('A' for Active; 'I' for Inactive)
ROOT
ATOM      1  N1  IND d   1       5.621   2.442  -0.906  0.00  0.00    -0.196 N 
ATOM      2  C2  IND d   1       5.836   2.633  -2.243  0.00  0.00     0.054 A 
ATOM      3  C3  IND d   1       4.983   1.878  -2.970  0.00  0.00    -0.031 A 
ATOM      4  C4  IND d   1       3.082   0.334  -2.176  0.00  0.00     0.051 A 
ATOM      5  C5  IND d   1       2.522  -0.192  -1.045  0.00  0.00    -0.031 A 
ATOM      6  C6  IND d   1       2.974   0.143   0.215  0.00  0.00     0.015 A 
ATOM      7  C7  IND d   1       4.000   1.028   0.393  0.00  0.00    -0.016 A 
ATOM      8  C8  IND d   1       4.575   1.558  -0.753  0.00  0.00    -0.047 A 
ATOM      9  C9  IND d   1       4.149   1.190  -2.036  0.00  0.00    -0.096 A 
ATOM     10  HN1 IND d   1       6.064   2.811  -0.269  0.00  0.00     0.298 HD
ENDROOT
TORSDOF 0
ENDMDL
