MODEL 1
REMARK minimizedAffinity 6.60186338
REMARK minimizedRMSD -1
REMARK  0 active torsions:
REMARK  status: ('A' for Active; 'I' for Inactive)
ROOT
ATOM      1  N1  IND d   1      -0.378   2.064  -1.110  0.00  0.00    -0.196 N 
ATOM      2  C2  IND d   1      -0.668   3.188  -0.387  0.00  0.00     0.054 A 
ATOM      3  C3  IND d   1       0.225   3.344   0.616  0.00  0.00    -0.031 A 
ATOM      4  C4  IND d   1       2.300   1.934   1.193  0.00  0.00     0.051 A 
ATOM      5  C5  IND d   1       2.956   0.788   0.840  0.00  0.00    -0.031 A 
ATOM      6  C6  IND d   1       2.527  -0.006  -0.204  0.00  0.00     0.015 A 
ATOM      7  C7  IND d   1       1.427   0.325  -0.944  0.00  0.00    -0.016 A 
ATOM      8  C8  IND d   1       0.755   1.484  -0.584  0.00  0.00    -0.047 A 
ATOM      9  C9  IND d   1       1.161   2.271   0.501  0.00  0.00    -0.096 A 
ATOM     10  HN1 IND d   1      -0.828   1.770  -1.781  0.00  0.00     0.298 HD
ENDROOT
TORSDOF 0
ENDMDL
