MODEL 1
REMARK minimizedAffinity 4.44661665
REMARK minimizedRMSD -1
REMARK  0 active torsions:
REMARK  status: ('A' for Active; 'I' for Inactive)
ROOT
ATOM      1  N1  IND d   1       1.901  -2.299  -4.322  0.00  0.00    -0.196 N 
ATOM      2  C2  IND d   1       0.994  -2.904  -3.497  0.00  0.00     0.054 A 
ATOM      3  C3  IND d   1       0.936  -2.262  -2.309  0.00  0.00    -0.031 A 
ATOM      4  C4  IND d   1       2.168  -0.137  -1.537  0.00  0.00     0.051 A 
ATOM      5  C5  IND d   1       3.128   0.754  -1.928  0.00  0.00    -0.031 A 
ATOM      6  C6  IND d   1       3.739   0.672  -3.163  0.00  0.00     0.015 A 
ATOM      7  C7  IND d   1       3.402  -0.300  -4.061  0.00  0.00    -0.016 A 
ATOM      8  C8  IND d   1       2.433  -1.211  -3.665  0.00  0.00    -0.047 A 
ATOM      9  C9  IND d   1       1.840  -1.159  -2.396  0.00  0.00    -0.096 A 
ATOM     10  HN1 IND d   1       2.106  -2.555  -5.116  0.00  0.00     0.298 HD
ENDROOT
TORSDOF 0
ENDMDL
