MODEL 1
REMARK minimizedAffinity 8.71804333
REMARK minimizedRMSD -1
REMARK  0 active torsions:
REMARK  status: ('A' for Active; 'I' for Inactive)
ROOT
ATOM      1  N1  IND d   1       2.505   0.252  -2.034  0.00  0.00    -0.196 N 
ATOM      2  C2  IND d   1       2.135  -0.088  -0.763  0.00  0.00     0.054 A 
ATOM      3  C3  IND d   1       3.064   0.333   0.125  0.00  0.00    -0.031 A 
ATOM      4  C4  IND d   1       5.215   1.688  -0.277  0.00  0.00     0.051 A 
ATOM      5  C5  IND d   1       5.995   2.201  -1.275  0.00  0.00    -0.031 A 
ATOM      6  C6  IND d   1       5.642   2.091  -2.605  0.00  0.00     0.015 A 
ATOM      7  C7  IND d   1       4.486   1.471  -2.986  0.00  0.00    -0.016 A 
ATOM      8  C8  IND d   1       3.696   0.942  -1.975  0.00  0.00    -0.047 A 
ATOM      9  C9  IND d   1       4.070   1.014  -0.627  0.00  0.00    -0.096 A 
ATOM     10  HN1 IND d   1       2.067   0.066  -2.751  0.00  0.00     0.298 HD
ENDROOT
TORSDOF 0
ENDMDL
