MODEL 1
REMARK minimizedAffinity 9.87479973
REMARK minimizedRMSD -1
REMARK  0 active torsions:
REMARK  status: ('A' for Active; 'I' for Inactive)
ROOT
ATOM      1  N1  IND d   1       2.297   0.069  -1.394  0.00  0.00    -0.196 N 
ATOM      2  C2  IND d   1       2.102  -0.099  -0.052  0.00  0.00     0.054 A 
ATOM      3  C3  IND d   1       3.105   0.483   0.645  0.00  0.00    -0.031 A 
ATOM      4  C4  IND d   1       5.110   1.852  -0.209  0.00  0.00     0.051 A 
ATOM      5  C5  IND d   1       5.733   2.247  -1.360  0.00  0.00    -0.031 A 
ATOM      6  C6  IND d   1       5.231   1.932  -2.606  0.00  0.00     0.015 A 
ATOM      7  C7  IND d   1       4.075   1.217  -2.748  0.00  0.00    -0.016 A 
ATOM      8  C8  IND d   1       3.444   0.809  -1.582  0.00  0.00    -0.047 A 
ATOM      9  C9  IND d   1       3.972   1.088  -0.315  0.00  0.00    -0.096 A 
ATOM     10  HN1 IND d   1       1.788  -0.235  -2.017  0.00  0.00     0.298 HD
ENDROOT
TORSDOF 0
ENDMDL
