MODEL 1
REMARK minimizedAffinity 17.3353195
REMARK minimizedRMSD -1
REMARK  0 active torsions:
REMARK  status: ('A' for Active; 'I' for Inactive)
ROOT
ATOM      1  N1  IND d   1       5.532  -1.551   3.905  0.00  0.00    -0.196 N 
ATOM      2  C2  IND d   1       5.999  -1.583   5.190  0.00  0.00     0.054 A 
ATOM      3  C3  IND d   1       5.203  -0.847   5.998  0.00  0.00    -0.031 A 
ATOM      4  C4  IND d   1       3.027   0.412   5.445  0.00  0.00     0.051 A 
ATOM      5  C5  IND d   1       2.221   0.761   4.398  0.00  0.00    -0.031 A 
ATOM      6  C6  IND d   1       2.481   0.347   3.108  0.00  0.00     0.015 A 
ATOM      7  C7  IND d   1       3.555  -0.445   2.817  0.00  0.00    -0.016 A 
ATOM      8  C8  IND d   1       4.380  -0.796   3.876  0.00  0.00    -0.047 A 
ATOM      9  C9  IND d   1       4.145  -0.343   5.181  0.00  0.00    -0.096 A 
ATOM     10  HN1 IND d   1       5.896  -1.938   3.229  0.00  0.00     0.298 HD
ENDROOT
TORSDOF 0
ENDMDL
