MODEL 1
REMARK minimizedAffinity 21.8330841
REMARK minimizedRMSD -1
REMARK  0 active torsions:
REMARK  status: ('A' for Active; 'I' for Inactive)
ROOT
ATOM      1  N1  IND d   1      -4.662  -2.410  -5.964  0.00  0.00    -0.196 N 
ATOM      2  C2  IND d   1      -3.471  -2.764  -5.395  0.00  0.00     0.054 A 
ATOM      3  C3  IND d   1      -2.933  -1.714  -4.736  0.00  0.00    -0.031 A 
ATOM      4  C4  IND d   1      -3.884   0.651  -4.374  0.00  0.00     0.051 A 
ATOM      5  C5  IND d   1      -4.927   1.459  -4.732  0.00  0.00    -0.031 A 
ATOM      6  C6  IND d   1      -5.956   1.009  -5.533  0.00  0.00     0.015 A 
ATOM      7  C7  IND d   1      -5.988  -0.275  -5.999  0.00  0.00    -0.016 A 
ATOM      8  C8  IND d   1      -4.927  -1.097  -5.643  0.00  0.00    -0.047 A 
ATOM      9  C9  IND d   1      -3.858  -0.633  -4.865  0.00  0.00    -0.096 A 
ATOM     10  HN1 IND d   1      -5.162  -2.921  -6.441  0.00  0.00     0.298 HD
ENDROOT
TORSDOF 0
ENDMDL
