MODEL 1
REMARK minimizedAffinity -1.93405616
REMARK minimizedRMSD -1
REMARK  0 active torsions:
REMARK  status: ('A' for Active; 'I' for Inactive)
ROOT
ATOM      1  C   UNL d   1       1.905  -1.673  -0.467  0.00  0.00     0.023 A 
ATOM      2  C1  UNL d   1       1.942  -0.388   0.073  0.00  0.00     0.003 A 
ATOM      3  C2  UNL d   1       0.756   0.318   0.281  0.00  0.00     0.048 A 
ATOM      4  C3  UNL d   1      -0.465  -0.267  -0.053  0.00  0.00     0.023 A 
ATOM      5  C4  UNL d   1      -0.507  -1.554  -0.593  0.00  0.00     0.048 A 
ATOM      6  C5  UNL d   1       0.682  -2.255  -0.800  0.00  0.00     0.003 A 
ATOM      7  I   UNL d   1      -2.233   0.782   0.255  0.00  0.00    -0.146 I 
ENDROOT
TORSDOF 0
ENDMDL
