MODEL 1
REMARK minimizedAffinity -4.72122765
REMARK minimizedRMSD -1
REMARK  0 active torsions:
REMARK  status: ('A' for Active; 'I' for Inactive)
ROOT
ATOM      1  C   UNL d   1       3.331  -0.555   0.491  0.00  0.00     0.023 A 
ATOM      2  C1  UNL d   1       2.429  -1.506   0.012  0.00  0.00     0.003 A 
ATOM      3  C2  UNL d   1       1.102  -1.150  -0.234  0.00  0.00     0.048 A 
ATOM      4  C3  UNL d   1       0.682   0.160  -0.001  0.00  0.00     0.023 A 
ATOM      5  C4  UNL d   1       1.581   1.115   0.477  0.00  0.00     0.048 A 
ATOM      6  C5  UNL d   1       2.907   0.754   0.723  0.00  0.00     0.003 A 
ATOM      7  I   UNL d   1      -1.293   0.692  -0.367  0.00  0.00    -0.146 I 
ENDROOT
TORSDOF 0
ENDMDL
