MODEL 1
REMARK minimizedAffinity 0.269271553
REMARK minimizedRMSD -1
REMARK  0 active torsions:
REMARK  status: ('A' for Active; 'I' for Inactive)
ROOT
ATOM      1  C   UNL d   1       1.353  -0.746  -0.508  0.00  0.00     0.023 A 
ATOM      2  C1  UNL d   1       1.075   0.616  -0.391  0.00  0.00     0.003 A 
ATOM      3  C2  UNL d   1      -0.231   1.045  -0.145  0.00  0.00     0.048 A 
ATOM      4  C3  UNL d   1      -1.254   0.106  -0.018  0.00  0.00     0.023 A 
ATOM      5  C4  UNL d   1      -0.981  -1.258  -0.134  0.00  0.00     0.048 A 
ATOM      6  C5  UNL d   1       0.327  -1.682  -0.380  0.00  0.00     0.003 A 
ATOM      7  I   UNL d   1      -3.199   0.741   0.347  0.00  0.00    -0.146 I 
ENDROOT
TORSDOF 0
ENDMDL
