MODEL 1
REMARK minimizedAffinity -2.8899107
REMARK minimizedRMSD -1
REMARK  0 active torsions:
REMARK  status: ('A' for Active; 'I' for Inactive)
ROOT
ATOM      1  C   UNL d   1       3.498  -0.132   0.680  0.00  0.00     0.023 A 
ATOM      2  C1  UNL d   1       2.796  -1.147   0.029  0.00  0.00     0.003 A 
ATOM      3  C2  UNL d   1       1.437  -0.988  -0.252  0.00  0.00     0.048 A 
ATOM      4  C3  UNL d   1       0.787   0.188   0.120  0.00  0.00     0.023 A 
ATOM      5  C4  UNL d   1       1.486   1.206   0.771  0.00  0.00     0.048 A 
ATOM      6  C5  UNL d   1       2.844   1.043   1.050  0.00  0.00     0.003 A 
ATOM      7  I   UNL d   1      -1.235   0.427  -0.297  0.00  0.00    -0.146 I 
ENDROOT
TORSDOF 0
ENDMDL
