MODEL 1
REMARK minimizedAffinity -3.99983716
REMARK minimizedRMSD -1
REMARK  0 active torsions:
REMARK  status: ('A' for Active; 'I' for Inactive)
ROOT
ATOM      1  C   UNL d   1       3.439  -0.495   0.679  0.00  0.00     0.023 A 
ATOM      2  C1  UNL d   1       3.062   0.837   0.508  0.00  0.00     0.003 A 
ATOM      3  C2  UNL d   1       1.716   1.165   0.328  0.00  0.00     0.048 A 
ATOM      4  C3  UNL d   1       0.753   0.157   0.323  0.00  0.00     0.023 A 
ATOM      5  C4  UNL d   1       1.126  -1.177   0.495  0.00  0.00     0.048 A 
ATOM      6  C5  UNL d   1       2.473  -1.501   0.673  0.00  0.00     0.003 A 
ATOM      7  I   UNL d   1      -1.250   0.643   0.056  0.00  0.00    -0.146 I 
ENDROOT
TORSDOF 0
ENDMDL
