MODEL 1
REMARK minimizedAffinity 2.03533387
REMARK minimizedRMSD -1
REMARK  0 active torsions:
REMARK  status: ('A' for Active; 'I' for Inactive)
ROOT
ATOM      1  C   UNL d   1       0.493  -2.451  -0.783  0.00  0.00     0.023 A 
ATOM      2  C1  UNL d   1      -0.638  -1.676  -0.523  0.00  0.00     0.003 A 
ATOM      3  C2  UNL d   1      -0.507  -0.308  -0.276  0.00  0.00     0.048 A 
ATOM      4  C3  UNL d   1       0.758   0.280  -0.293  0.00  0.00     0.023 A 
ATOM      5  C4  UNL d   1       1.892  -0.491  -0.554  0.00  0.00     0.048 A 
ATOM      6  C5  UNL d   1       1.756  -1.859  -0.798  0.00  0.00     0.003 A 
ATOM      7  I   UNL d   1       0.955   2.316   0.073  0.00  0.00    -0.146 I 
ENDROOT
TORSDOF 0
ENDMDL
