MODEL 1
REMARK minimizedAffinity -4.56758928
REMARK minimizedRMSD -1
REMARK  0 active torsions:
REMARK  status: ('A' for Active; 'I' for Inactive)
ROOT
ATOM      1  C   UNL d   1       3.788   0.400   0.391  0.00  0.00     0.023 A 
ATOM      2  C1  UNL d   1       3.207   1.644   0.145  0.00  0.00     0.003 A 
ATOM      3  C2  UNL d   1       1.829   1.745  -0.060  0.00  0.00     0.048 A 
ATOM      4  C3  UNL d   1       1.038   0.598  -0.016  0.00  0.00     0.023 A 
ATOM      5  C4  UNL d   1       1.615  -0.649   0.232  0.00  0.00     0.048 A 
ATOM      6  C5  UNL d   1       2.993  -0.745   0.435  0.00  0.00     0.003 A 
ATOM      7  I   UNL d   1      -1.013   0.745  -0.320  0.00  0.00    -0.146 I 
ENDROOT
TORSDOF 0
ENDMDL
