MODEL 1
REMARK minimizedAffinity 0.622517049
REMARK minimizedRMSD -1
REMARK  0 active torsions:
REMARK  status: ('A' for Active; 'I' for Inactive)
ROOT
ATOM      1  C   UNL d   1       0.128   2.253  -0.075  0.00  0.00     0.023 A 
ATOM      2  C1  UNL d   1      -0.699   1.175  -0.392  0.00  0.00     0.003 A 
ATOM      3  C2  UNL d   1      -0.167  -0.114  -0.473  0.00  0.00     0.048 A 
ATOM      4  C3  UNL d   1       1.191  -0.317  -0.235  0.00  0.00     0.023 A 
ATOM      5  C4  UNL d   1       2.022   0.758   0.084  0.00  0.00     0.048 A 
ATOM      6  C5  UNL d   1       1.486   2.045   0.162  0.00  0.00     0.003 A 
ATOM      7  I   UNL d   1       1.985  -2.235  -0.354  0.00  0.00    -0.146 I 
ENDROOT
TORSDOF 0
ENDMDL
