MODEL 1
REMARK minimizedAffinity -5.41463327
REMARK minimizedRMSD -1
REMARK  0 active torsions:
REMARK  status: ('A' for Active; 'I' for Inactive)
ROOT
ATOM      1  C   UNL d   1       0.000  -0.766  -0.367  0.00  0.00     0.078 C 
ATOM      2  C1  UNL d   1      -0.218   0.694  -0.104  0.00  0.00    -0.077 A 
ATOM      3  C2  UNL d   1      -1.144   1.123   0.855  0.00  0.00    -0.001 A 
ATOM      4  C3  UNL d   1      -1.344   2.485   1.083  0.00  0.00     0.003 A 
ATOM      5  C4  UNL d   1      -0.622   3.430   0.356  0.00  0.00    -0.005 A 
ATOM      6  C5  UNL d   1       0.300   3.012  -0.602  0.00  0.00     0.003 A 
ATOM      7  C6  UNL d   1       0.501   1.650  -0.831  0.00  0.00    -0.001 A 
ENDROOT
TORSDOF 0
ENDMDL
