MODEL 1
REMARK minimizedAffinity -1.27066362
REMARK minimizedRMSD -1
REMARK  0 active torsions:
REMARK  status: ('A' for Active; 'I' for Inactive)
ROOT
ATOM      1  C   UNL d   1      -0.780   3.255   1.957  0.00  0.00     0.078 C 
ATOM      2  C1  UNL d   1      -0.575   1.981   1.193  0.00  0.00    -0.077 A 
ATOM      3  C2  UNL d   1      -1.486   0.923   1.299  0.00  0.00    -0.001 A 
ATOM      4  C3  UNL d   1      -1.278  -0.261   0.590  0.00  0.00     0.003 A 
ATOM      5  C4  UNL d   1      -0.158  -0.400  -0.228  0.00  0.00    -0.005 A 
ATOM      6  C5  UNL d   1       0.755   0.647  -0.337  0.00  0.00     0.003 A 
ATOM      7  C6  UNL d   1       0.549   1.832   0.370  0.00  0.00    -0.001 A 
ENDROOT
TORSDOF 0
ENDMDL
