MODEL 1
REMARK minimizedAffinity -2.87548804
REMARK minimizedRMSD -1
REMARK  0 active torsions:
REMARK  status: ('A' for Active; 'I' for Inactive)
ROOT
ATOM      1  C   UNL d   1       1.903   0.242  -0.396  0.00  0.00     0.078 C 
ATOM      2  C1  UNL d   1       0.652   0.979  -0.023  0.00  0.00    -0.077 A 
ATOM      3  C2  UNL d   1       0.503   2.341  -0.313  0.00  0.00    -0.001 A 
ATOM      4  C3  UNL d   1      -0.664   3.016   0.049  0.00  0.00     0.003 A 
ATOM      5  C4  UNL d   1      -1.690   2.338   0.703  0.00  0.00    -0.005 A 
ATOM      6  C5  UNL d   1      -1.551   0.983   0.998  0.00  0.00     0.003 A 
ATOM      7  C6  UNL d   1      -0.385   0.306   0.637  0.00  0.00    -0.001 A 
ENDROOT
TORSDOF 0
ENDMDL
