MODEL 1
REMARK minimizedAffinity -3.4409132
REMARK minimizedRMSD -1
REMARK  0 active torsions:
REMARK  status: ('A' for Active; 'I' for Inactive)
ROOT
ATOM      1  C   UNL d   1      -0.666  -2.380   0.483  0.00  0.00     0.078 C 
ATOM      2  C1  UNL d   1       0.178  -1.185   0.153  0.00  0.00    -0.077 A 
ATOM      3  C2  UNL d   1       1.575  -1.277   0.115  0.00  0.00    -0.001 A 
ATOM      4  C3  UNL d   1       2.348  -0.154  -0.184  0.00  0.00     0.003 A 
ATOM      5  C4  UNL d   1       1.734   1.069  -0.447  0.00  0.00    -0.005 A 
ATOM      6  C5  UNL d   1       0.345   1.170  -0.410  0.00  0.00     0.003 A 
ATOM      7  C6  UNL d   1      -0.430   0.049  -0.111  0.00  0.00    -0.001 A 
ENDROOT
TORSDOF 0
ENDMDL
