MODEL 1
REMARK minimizedAffinity -5.09720802
REMARK minimizedRMSD -1
REMARK  0 active torsions:
REMARK  status: ('A' for Active; 'I' for Inactive)
ROOT
ATOM      1  C   UNL d   1       0.425   3.415  -0.403  0.00  0.00     0.078 C 
ATOM      2  C1  UNL d   1       0.441   1.929  -0.200  0.00  0.00    -0.077 A 
ATOM      3  C2  UNL d   1      -0.743   1.221   0.041  0.00  0.00    -0.001 A 
ATOM      4  C3  UNL d   1      -0.712  -0.160   0.238  0.00  0.00     0.003 A 
ATOM      5  C4  UNL d   1       0.501  -0.846   0.197  0.00  0.00    -0.005 A 
ATOM      6  C5  UNL d   1       1.684  -0.149  -0.040  0.00  0.00     0.003 A 
ATOM      7  C6  UNL d   1       1.655   1.232  -0.237  0.00  0.00    -0.001 A 
ENDROOT
TORSDOF 0
ENDMDL
