MODEL 1
REMARK minimizedAffinity -2.55771542
REMARK minimizedRMSD -1
REMARK  0 active torsions:
REMARK  status: ('A' for Active; 'I' for Inactive)
ROOT
ATOM      1  C   UNL d   1      -1.435   3.239   2.351  0.00  0.00     0.078 C 
ATOM      2  C1  UNL d   1      -0.706   2.610   1.201  0.00  0.00    -0.077 A 
ATOM      3  C2  UNL d   1      -0.748   1.227   0.990  0.00  0.00    -0.001 A 
ATOM      4  C3  UNL d   1      -0.057   0.654  -0.078  0.00  0.00     0.003 A 
ATOM      5  C4  UNL d   1       0.682   1.457  -0.944  0.00  0.00    -0.005 A 
ATOM      6  C5  UNL d   1       0.732   2.834  -0.742  0.00  0.00     0.003 A 
ATOM      7  C6  UNL d   1       0.042   3.409   0.326  0.00  0.00    -0.001 A 
ENDROOT
TORSDOF 0
ENDMDL
