MODEL 1
REMARK minimizedAffinity -4.67390394
REMARK minimizedRMSD -1
REMARK  0 active torsions:
REMARK  status: ('A' for Active; 'I' for Inactive)
ROOT
ATOM      1  C   UNL d   1      -0.061  -1.661  -0.108  0.00  0.00     0.078 C 
ATOM      2  C1  UNL d   1      -0.232  -0.184   0.088  0.00  0.00    -0.077 A 
ATOM      3  C2  UNL d   1      -1.268   0.323   0.882  0.00  0.00    -0.001 A 
ATOM      4  C3  UNL d   1      -1.421   1.701   1.047  0.00  0.00     0.003 A 
ATOM      5  C4  UNL d   1      -0.542   2.582   0.420  0.00  0.00    -0.005 A 
ATOM      6  C5  UNL d   1       0.490   2.087  -0.373  0.00  0.00     0.003 A 
ATOM      7  C6  UNL d   1       0.645   0.710  -0.540  0.00  0.00    -0.001 A 
ENDROOT
TORSDOF 0
ENDMDL
