MODEL 1
REMARK minimizedAffinity 6.05537033
REMARK minimizedRMSD -1
REMARK  0 active torsions:
REMARK  status: ('A' for Active; 'I' for Inactive)
ROOT
ATOM      1  C   UNL d   1       2.257   1.120  -4.879  0.00  0.00     0.078 C 
ATOM      2  C1  UNL d   1       3.360   2.135  -4.901  0.00  0.00    -0.077 A 
ATOM      3  C2  UNL d   1       4.225   2.238  -5.998  0.00  0.00    -0.001 A 
ATOM      4  C3  UNL d   1       5.253   3.182  -6.000  0.00  0.00     0.003 A 
ATOM      5  C4  UNL d   1       5.427   4.029  -4.908  0.00  0.00    -0.005 A 
ATOM      6  C5  UNL d   1       4.573   3.933  -3.811  0.00  0.00     0.003 A 
ATOM      7  C6  UNL d   1       3.544   2.990  -3.807  0.00  0.00    -0.001 A 
ENDROOT
TORSDOF 0
ENDMDL
