MODEL 1
REMARK minimizedAffinity -4.3422718
REMARK minimizedRMSD -1
REMARK  0 active torsions:
REMARK  status: ('A' for Active; 'I' for Inactive)
ROOT
ATOM      1  C   UNL d   1      -3.054  -4.387  -0.757  0.00  0.00     0.078 C 
ATOM      2  C1  UNL d   1      -1.846  -3.559  -1.080  0.00  0.00    -0.077 A 
ATOM      3  C2  UNL d   1      -1.133  -2.900  -0.071  0.00  0.00    -0.001 A 
ATOM      4  C3  UNL d   1      -0.016  -2.125  -0.388  0.00  0.00     0.003 A 
ATOM      5  C4  UNL d   1       0.397  -2.000  -1.713  0.00  0.00    -0.005 A 
ATOM      6  C5  UNL d   1      -0.308  -2.651  -2.724  0.00  0.00     0.003 A 
ATOM      7  C6  UNL d   1      -1.425  -3.426  -2.409  0.00  0.00    -0.001 A 
ENDROOT
TORSDOF 0
ENDMDL
