MODEL 1
REMARK minimizedAffinity -3.42224765
REMARK minimizedRMSD -1
REMARK  0 active torsions:
REMARK  status: ('A' for Active; 'I' for Inactive)
ROOT
ATOM      1  C   UNL d   1      -0.298  -1.768  -0.069  0.00  0.00     0.078 C 
ATOM      2  C1  UNL d   1      -0.359  -0.272   0.018  0.00  0.00    -0.077 A 
ATOM      3  C2  UNL d   1      -1.504   0.377   0.495  0.00  0.00    -0.001 A 
ATOM      4  C3  UNL d   1      -1.550   1.770   0.561  0.00  0.00     0.003 A 
ATOM      5  C4  UNL d   1      -0.454   2.527   0.152  0.00  0.00    -0.005 A 
ATOM      6  C5  UNL d   1       0.690   1.890  -0.326  0.00  0.00     0.003 A 
ATOM      7  C6  UNL d   1       0.737   0.496  -0.393  0.00  0.00    -0.001 A 
ENDROOT
TORSDOF 0
ENDMDL
