MODEL 1
REMARK minimizedAffinity -3.54298091
REMARK minimizedRMSD -1
REMARK  0 active torsions:
REMARK  status: ('A' for Active; 'I' for Inactive)
ROOT
ATOM      1  C   UNL d   1      -0.119  -0.932   0.219  0.00  0.00     0.078 C 
ATOM      2  C1  UNL d   1      -0.856   0.341   0.512  0.00  0.00    -0.077 A 
ATOM      3  C2  UNL d   1      -0.176   1.482   0.955  0.00  0.00    -0.001 A 
ATOM      4  C3  UNL d   1      -0.876   2.657   1.233  0.00  0.00     0.003 A 
ATOM      5  C4  UNL d   1      -2.260   2.702   1.071  0.00  0.00    -0.005 A 
ATOM      6  C5  UNL d   1      -2.945   1.571   0.632  0.00  0.00     0.003 A 
ATOM      7  C6  UNL d   1      -2.246   0.395   0.354  0.00  0.00    -0.001 A 
ENDROOT
TORSDOF 0
ENDMDL
