MODEL 1
REMARK minimizedAffinity -4.07150173
REMARK minimizedRMSD -1
REMARK  0 active torsions:
REMARK  status: ('A' for Active; 'I' for Inactive)
ROOT
ATOM      1  C   UNL d   1       2.741   1.721  -0.390  0.00  0.00     0.078 C 
ATOM      2  C1  UNL d   1       1.524   0.884  -0.134  0.00  0.00    -0.077 A 
ATOM      3  C2  UNL d   1       1.598  -0.515  -0.125  0.00  0.00    -0.001 A 
ATOM      4  C3  UNL d   1       0.455  -1.281   0.105  0.00  0.00     0.003 A 
ATOM      5  C4  UNL d   1      -0.772  -0.659   0.327  0.00  0.00    -0.005 A 
ATOM      6  C5  UNL d   1      -0.856   0.732   0.318  0.00  0.00     0.003 A 
ATOM      7  C6  UNL d   1       0.286   1.500   0.088  0.00  0.00    -0.001 A 
ENDROOT
TORSDOF 0
ENDMDL
