MODEL 1
REMARK minimizedAffinity -4.79788065
REMARK minimizedRMSD -1
REMARK  0 active torsions:
REMARK  status: ('A' for Active; 'I' for Inactive)
ROOT
ATOM      1  C   UNL d   1      -0.110  -1.158  -0.078  0.00  0.00     0.078 C 
ATOM      2  C1  UNL d   1      -0.054   0.340  -0.058  0.00  0.00    -0.077 A 
ATOM      3  C2  UNL d   1       0.746   1.044  -0.967  0.00  0.00    -0.001 A 
ATOM      4  C3  UNL d   1       0.796   2.438  -0.931  0.00  0.00     0.003 A 
ATOM      5  C4  UNL d   1       0.050   3.141   0.013  0.00  0.00    -0.005 A 
ATOM      6  C5  UNL d   1      -0.747   2.449   0.922  0.00  0.00     0.003 A 
ATOM      7  C6  UNL d   1      -0.799   1.055   0.888  0.00  0.00    -0.001 A 
ENDROOT
TORSDOF 0
ENDMDL
