MODEL 1
REMARK minimizedAffinity 0.467956603
REMARK minimizedRMSD -1
REMARK  0 active torsions:
REMARK  status: ('A' for Active; 'I' for Inactive)
ROOT
ATOM      1  C   UNL d   1      -0.402  -2.481   0.270  0.00  0.00     0.124 A 
ATOM      2  C1  UNL d   1      -1.411  -1.751   0.882  0.00  0.00     0.062 A 
ATOM      3  C2  UNL d   1      -1.262  -0.382   1.082  0.00  0.00     0.162 A 
ATOM      4  C3  UNL d   1      -0.099   0.267   0.668  0.00  0.00    -0.034 A 
ATOM      5  C4  UNL d   1       0.912  -0.474   0.053  0.00  0.00     0.162 A 
ATOM      6  C5  UNL d   1       0.758  -1.842  -0.144  0.00  0.00     0.062 A 
ATOM      7  F   UNL d   1       1.734  -2.546  -0.736  0.00  0.00    -0.097 F 
ATOM      8  F1  UNL d   1       2.043   0.119  -0.357  0.00  0.00    -0.096 F 
ATOM      9  I   UNL d   1       0.127   2.315   0.964  0.00  0.00    -0.060 I 
ATOM     10  F2  UNL d   1      -2.254   0.298   1.676  0.00  0.00    -0.096 F 
ATOM     11  F3  UNL d   1      -2.533  -2.367   1.284  0.00  0.00    -0.097 F 
ATOM     12  F4  UNL d   1      -0.547  -3.799   0.080  0.00  0.00    -0.092 F 
ENDROOT
TORSDOF 0
ENDMDL
