MODEL 1
REMARK minimizedAffinity -0.512482464
REMARK minimizedRMSD -1
REMARK  0 active torsions:
REMARK  status: ('A' for Active; 'I' for Inactive)
ROOT
ATOM      1  C   UNL d   1      -0.407  -2.224  -0.232  0.00  0.00     0.124 A 
ATOM      2  C1  UNL d   1       0.595  -1.473  -0.831  0.00  0.00     0.062 A 
ATOM      3  C2  UNL d   1       0.698  -0.110  -0.572  0.00  0.00     0.162 A 
ATOM      4  C3  UNL d   1      -0.202   0.512   0.293  0.00  0.00    -0.034 A 
ATOM      5  C4  UNL d   1      -1.208  -0.249   0.891  0.00  0.00     0.162 A 
ATOM      6  C5  UNL d   1      -1.307  -1.611   0.629  0.00  0.00     0.062 A 
ATOM      7  F   UNL d   1      -2.276  -2.335   1.209  0.00  0.00    -0.097 F 
ATOM      8  F1  UNL d   1      -2.090   0.318   1.728  0.00  0.00    -0.096 F 
ATOM      9  I   UNL d   1      -0.051   2.551   0.683  0.00  0.00    -0.060 I 
ATOM     10  F2  UNL d   1       1.676   0.591  -1.165  0.00  0.00    -0.096 F 
ATOM     11  F3  UNL d   1       1.465  -2.063  -1.664  0.00  0.00    -0.097 F 
ATOM     12  F4  UNL d   1      -0.505  -3.536  -0.484  0.00  0.00    -0.092 F 
ENDROOT
TORSDOF 0
ENDMDL
