MODEL 1
REMARK minimizedAffinity 1.68891037
REMARK minimizedRMSD -1
REMARK  0 active torsions:
REMARK  status: ('A' for Active; 'I' for Inactive)
ROOT
ATOM      1  C   UNL d   1       0.139  -0.778  -0.702  0.00  0.00     0.124 A 
ATOM      2  C1  UNL d   1       0.067   0.486  -1.271  0.00  0.00     0.062 A 
ATOM      3  C2  UNL d   1       0.448   1.607  -0.539  0.00  0.00     0.162 A 
ATOM      4  C3  UNL d   1       0.907   1.469   0.771  0.00  0.00    -0.034 A 
ATOM      5  C4  UNL d   1       0.976   0.195   1.337  0.00  0.00     0.162 A 
ATOM      6  C5  UNL d   1       0.593  -0.922   0.602  0.00  0.00     0.062 A 
ATOM      7  F   UNL d   1       0.664  -2.142   1.154  0.00  0.00    -0.097 F 
ATOM      8  F1  UNL d   1       1.412   0.026   2.594  0.00  0.00    -0.096 F 
ATOM      9  I   UNL d   1       1.479   3.142   1.869  0.00  0.00    -0.060 I 
ATOM     10  F2  UNL d   1       0.368   2.816  -1.115  0.00  0.00    -0.096 F 
ATOM     11  F3  UNL d   1      -0.373   0.628  -2.530  0.00  0.00    -0.097 F 
ATOM     12  F4  UNL d   1      -0.230  -1.854  -1.408  0.00  0.00    -0.092 F 
ENDROOT
TORSDOF 0
ENDMDL
