MODEL 1
REMARK minimizedAffinity -3.32594538
REMARK minimizedRMSD -1
REMARK  0 active torsions:
REMARK  status: ('A' for Active; 'I' for Inactive)
ROOT
ATOM      1  C   UNL d   1       0.785  -1.292  -0.611  0.00  0.00     0.124 A 
ATOM      2  C1  UNL d   1       0.989  -0.919   0.710  0.00  0.00     0.062 A 
ATOM      3  C2  UNL d   1       0.705   0.380   1.122  0.00  0.00     0.162 A 
ATOM      4  C3  UNL d   1       0.212   1.315   0.211  0.00  0.00    -0.034 A 
ATOM      5  C4  UNL d   1       0.010   0.932  -1.116  0.00  0.00     0.162 A 
ATOM      6  C5  UNL d   1       0.296  -0.367  -1.523  0.00  0.00     0.062 A 
ATOM      7  F   UNL d   1       0.098  -0.726  -2.799  0.00  0.00    -0.097 F 
ATOM      8  F1  UNL d   1      -0.462   1.806  -2.017  0.00  0.00    -0.096 F 
ATOM      9  I   UNL d   1      -0.214   3.258   0.823  0.00  0.00    -0.060 I 
ATOM     10  F2  UNL d   1       0.911   0.714   2.404  0.00  0.00    -0.096 F 
ATOM     11  F3  UNL d   1       1.462  -1.811   1.592  0.00  0.00    -0.097 F 
ATOM     12  F4  UNL d   1       1.060  -2.542  -1.005  0.00  0.00    -0.092 F 
ENDROOT
TORSDOF 0
ENDMDL
