MODEL 1
REMARK minimizedAffinity -0.530001283
REMARK minimizedRMSD -1
REMARK  0 active torsions:
REMARK  status: ('A' for Active; 'I' for Inactive)
ROOT
ATOM      1  C   UNL d   1      -0.261  -2.884   0.391  0.00  0.00     0.124 A 
ATOM      2  C1  UNL d   1      -1.310  -2.050   0.752  0.00  0.00     0.062 A 
ATOM      3  C2  UNL d   1      -1.150  -0.668   0.717  0.00  0.00     0.162 A 
ATOM      4  C3  UNL d   1       0.064  -0.110   0.318  0.00  0.00    -0.034 A 
ATOM      5  C4  UNL d   1       1.116  -0.955  -0.042  0.00  0.00     0.162 A 
ATOM      6  C5  UNL d   1       0.951  -2.336  -0.006  0.00  0.00     0.062 A 
ATOM      7  F   UNL d   1       1.966  -3.140  -0.355  0.00  0.00    -0.097 F 
ATOM      8  F1  UNL d   1       2.297  -0.452  -0.430  0.00  0.00    -0.096 F 
ATOM      9  I   UNL d   1       0.308   1.956   0.265  0.00  0.00    -0.060 I 
ATOM     10  F2  UNL d   1      -2.181   0.113   1.071  0.00  0.00    -0.096 F 
ATOM     11  F3  UNL d   1      -2.482  -2.577   1.136  0.00  0.00    -0.097 F 
ATOM     12  F4  UNL d   1      -0.418  -4.214   0.426  0.00  0.00    -0.092 F 
ENDROOT
TORSDOF 0
ENDMDL
