MODEL 1
REMARK minimizedAffinity -2.25146985
REMARK minimizedRMSD -1
REMARK  0 active torsions:
REMARK  status: ('A' for Active; 'I' for Inactive)
ROOT
ATOM      1  C   UNL d   1      -0.303  -3.025  -0.620  0.00  0.00     0.124 A 
ATOM      2  C1  UNL d   1       0.359  -2.458  -1.701  0.00  0.00     0.062 A 
ATOM      3  C2  UNL d   1       0.533  -1.079  -1.770  0.00  0.00     0.162 A 
ATOM      4  C3  UNL d   1       0.046  -0.256  -0.754  0.00  0.00    -0.034 A 
ATOM      5  C4  UNL d   1      -0.619  -0.833   0.329  0.00  0.00     0.162 A 
ATOM      6  C5  UNL d   1      -0.791  -2.212   0.394  0.00  0.00     0.062 A 
ATOM      7  F   UNL d   1      -1.430  -2.758   1.439  0.00  0.00    -0.097 F 
ATOM      8  F1  UNL d   1      -1.100  -0.072   1.323  0.00  0.00    -0.096 F 
ATOM      9  I   UNL d   1       0.305   1.807  -0.853  0.00  0.00    -0.060 I 
ATOM     10  F2  UNL d   1       1.176  -0.558  -2.825  0.00  0.00    -0.096 F 
ATOM     11  F3  UNL d   1       0.831  -3.240  -2.682  0.00  0.00    -0.097 F 
ATOM     12  F4  UNL d   1      -0.470  -4.352  -0.557  0.00  0.00    -0.092 F 
ENDROOT
TORSDOF 0
ENDMDL
