MODEL 1
REMARK minimizedAffinity -2.7964499
REMARK minimizedRMSD -1
REMARK  0 active torsions:
REMARK  status: ('A' for Active; 'I' for Inactive)
ROOT
ATOM      1  C   UNL d   1      -0.704  -0.543   1.046  0.00  0.00     0.124 A 
ATOM      2  C1  UNL d   1      -0.862   0.471   0.111  0.00  0.00     0.062 A 
ATOM      3  C2  UNL d   1      -0.454   0.279  -1.205  0.00  0.00     0.162 A 
ATOM      4  C3  UNL d   1       0.115  -0.933  -1.597  0.00  0.00    -0.034 A 
ATOM      5  C4  UNL d   1       0.271  -1.948  -0.651  0.00  0.00     0.162 A 
ATOM      6  C5  UNL d   1      -0.138  -1.751   0.664  0.00  0.00     0.062 A 
ATOM      7  F   UNL d   1       0.015  -2.732   1.565  0.00  0.00    -0.097 F 
ATOM      8  F1  UNL d   1       0.814  -3.126  -0.993  0.00  0.00    -0.096 F 
ATOM      9  I   UNL d   1       0.726  -1.224  -3.565  0.00  0.00    -0.060 I 
ATOM     10  F2  UNL d   1      -0.618   1.277  -2.087  0.00  0.00    -0.096 F 
ATOM     11  F3  UNL d   1      -1.408   1.640   0.478  0.00  0.00    -0.097 F 
ATOM     12  F4  UNL d   1      -1.097  -0.356   2.312  0.00  0.00    -0.092 F 
ENDROOT
TORSDOF 0
ENDMDL
