MODEL 1
REMARK minimizedAffinity 0.694770217
REMARK minimizedRMSD -1
REMARK  0 active torsions:
REMARK  status: ('A' for Active; 'I' for Inactive)
ROOT
ATOM      1  C   UNL d   1      -1.074  -1.754   0.740  0.00  0.00     0.124 A 
ATOM      2  C1  UNL d   1       0.289  -1.934   0.934  0.00  0.00     0.062 A 
ATOM      3  C2  UNL d   1       1.168  -0.871   0.746  0.00  0.00     0.162 A 
ATOM      4  C3  UNL d   1       0.688   0.381   0.364  0.00  0.00    -0.034 A 
ATOM      5  C4  UNL d   1      -0.684   0.554   0.170  0.00  0.00     0.162 A 
ATOM      6  C5  UNL d   1      -1.559  -0.511   0.358  0.00  0.00     0.062 A 
ATOM      7  F   UNL d   1      -2.875  -0.336   0.171  0.00  0.00    -0.097 F 
ATOM      8  F1  UNL d   1      -1.180   1.744  -0.198  0.00  0.00    -0.096 F 
ATOM      9  I   UNL d   1       2.000   1.972   0.083  0.00  0.00    -0.060 I 
ATOM     10  F2  UNL d   1       2.480  -1.073   0.941  0.00  0.00    -0.096 F 
ATOM     11  F3  UNL d   1       0.760  -3.134   1.302  0.00  0.00    -0.097 F 
ATOM     12  F4  UNL d   1      -1.918  -2.778   0.920  0.00  0.00    -0.092 F 
ENDROOT
TORSDOF 0
ENDMDL
