MODEL 1
REMARK minimizedAffinity 0.859034061
REMARK minimizedRMSD -1
REMARK  0 active torsions:
REMARK  status: ('A' for Active; 'I' for Inactive)
ROOT
ATOM      1  C   UNL d   1      -0.982  -1.316   0.481  0.00  0.00     0.124 A 
ATOM      2  C1  UNL d   1       0.382  -1.569   0.425  0.00  0.00     0.062 A 
ATOM      3  C2  UNL d   1       1.277  -0.530   0.188  0.00  0.00     0.162 A 
ATOM      4  C3  UNL d   1       0.812   0.773   0.007  0.00  0.00    -0.034 A 
ATOM      5  C4  UNL d   1      -0.561   1.019   0.064  0.00  0.00     0.162 A 
ATOM      6  C5  UNL d   1      -1.452  -0.023   0.301  0.00  0.00     0.062 A 
ATOM      7  F   UNL d   1      -2.769   0.223   0.355  0.00  0.00    -0.097 F 
ATOM      8  F1  UNL d   1      -1.043   2.259  -0.106  0.00  0.00    -0.096 F 
ATOM      9  I   UNL d   1       2.147   2.329  -0.347  0.00  0.00    -0.060 I 
ATOM     10  F2  UNL d   1       2.589  -0.803   0.139  0.00  0.00    -0.096 F 
ATOM     11  F3  UNL d   1       0.838  -2.817   0.599  0.00  0.00    -0.097 F 
ATOM     12  F4  UNL d   1      -1.841  -2.318   0.708  0.00  0.00    -0.092 F 
ENDROOT
TORSDOF 0
ENDMDL
