MODEL 1
REMARK minimizedAffinity 5.30996656
REMARK minimizedRMSD -1
REMARK  0 active torsions:
REMARK  status: ('A' for Active; 'I' for Inactive)
ROOT
ATOM      1  C   UNL d   1       2.805   3.968   1.010  0.00  0.00     0.124 A 
ATOM      2  C1  UNL d   1       2.890   3.243  -0.170  0.00  0.00     0.062 A 
ATOM      3  C2  UNL d   1       1.767   2.598  -0.679  0.00  0.00     0.162 A 
ATOM      4  C3  UNL d   1       0.546   2.677  -0.008  0.00  0.00    -0.034 A 
ATOM      5  C4  UNL d   1       0.468   3.407   1.179  0.00  0.00     0.162 A 
ATOM      6  C5  UNL d   1       1.594   4.050   1.683  0.00  0.00     0.062 A 
ATOM      7  F   UNL d   1       1.509   4.750   2.824  0.00  0.00    -0.097 F 
ATOM      8  F1  UNL d   1      -0.690   3.503   1.849  0.00  0.00    -0.096 F 
ATOM      9  I   UNL d   1      -1.136   1.714  -0.766  0.00  0.00    -0.060 I 
ATOM     10  F2  UNL d   1       1.879   1.904  -1.822  0.00  0.00    -0.096 F 
ATOM     11  F3  UNL d   1       4.059   3.162  -0.822  0.00  0.00    -0.097 F 
ATOM     12  F4  UNL d   1       3.888   4.587   1.498  0.00  0.00    -0.092 F 
ENDROOT
TORSDOF 0
ENDMDL
