MODEL 1
REMARK minimizedAffinity -4.5281148
REMARK minimizedRMSD -1
REMARK  0 active torsions:
REMARK  status: ('A' for Active; 'I' for Inactive)
ROOT
ATOM      1  C   UNL d   1       0.377  -3.386  -1.130  0.00  0.00     0.124 A 
ATOM      2  C1  UNL d   1       0.384  -2.635  -2.297  0.00  0.00     0.062 A 
ATOM      3  C2  UNL d   1       0.144  -1.265  -2.250  0.00  0.00     0.162 A 
ATOM      4  C3  UNL d   1      -0.105  -0.636  -1.030  0.00  0.00    -0.034 A 
ATOM      5  C4  UNL d   1      -0.112  -1.399   0.140  0.00  0.00     0.162 A 
ATOM      6  C5  UNL d   1       0.129  -2.768   0.087  0.00  0.00     0.062 A 
ATOM      7  F   UNL d   1       0.121  -3.492   1.215  0.00  0.00    -0.097 F 
ATOM      8  F1  UNL d   1      -0.348  -0.826   1.330  0.00  0.00    -0.096 F 
ATOM      9  I   UNL d   1      -0.465   1.412  -0.954  0.00  0.00    -0.060 I 
ATOM     10  F2  UNL d   1       0.157  -0.564  -3.393  0.00  0.00    -0.096 F 
ATOM     11  F3  UNL d   1       0.623  -3.231  -3.475  0.00  0.00    -0.097 F 
ATOM     12  F4  UNL d   1       0.607  -4.705  -1.179  0.00  0.00    -0.092 F 
ENDROOT
TORSDOF 0
ENDMDL
