MODEL 1
REMARK minimizedAffinity -0.446097791
REMARK minimizedRMSD -1
REMARK  0 active torsions:
REMARK  status: ('A' for Active; 'I' for Inactive)
ROOT
ATOM      1  C   UNL d   1      -0.023  -2.770  -0.207  0.00  0.00     0.124 A 
ATOM      2  C1  UNL d   1      -0.590  -2.021   0.815  0.00  0.00     0.062 A 
ATOM      3  C2  UNL d   1      -0.606  -0.631   0.738  0.00  0.00     0.162 A 
ATOM      4  C3  UNL d   1      -0.053   0.019  -0.365  0.00  0.00    -0.034 A 
ATOM      5  C4  UNL d   1       0.517  -0.741  -1.388  0.00  0.00     0.162 A 
ATOM      6  C5  UNL d   1       0.530  -2.130  -1.307  0.00  0.00     0.062 A 
ATOM      7  F   UNL d   1       1.078  -2.852  -2.295  0.00  0.00    -0.097 F 
ATOM      8  F1  UNL d   1       1.057  -0.149  -2.463  0.00  0.00    -0.096 F 
ATOM      9  I   UNL d   1      -0.074   2.097  -0.483  0.00  0.00    -0.060 I 
ATOM     10  F2  UNL d   1      -1.160   0.067   1.740  0.00  0.00    -0.096 F 
ATOM     11  F3  UNL d   1      -1.124  -2.637   1.879  0.00  0.00    -0.097 F 
ATOM     12  F4  UNL d   1      -0.009  -4.107  -0.130  0.00  0.00    -0.092 F 
ENDROOT
TORSDOF 0
ENDMDL
