MODEL 1
REMARK minimizedAffinity 2.3620677
REMARK minimizedRMSD -1
REMARK  0 active torsions:
REMARK  status: ('A' for Active; 'I' for Inactive)
ROOT
ATOM      1  C   UNL d   1      -0.426  -3.108   0.341  0.00  0.00     0.124 A 
ATOM      2  C1  UNL d   1       0.828  -2.604   0.021  0.00  0.00     0.062 A 
ATOM      3  C2  UNL d   1       1.054  -1.231   0.035  0.00  0.00     0.162 A 
ATOM      4  C3  UNL d   1       0.026  -0.351   0.371  0.00  0.00    -0.034 A 
ATOM      5  C4  UNL d   1      -1.232  -0.865   0.690  0.00  0.00     0.162 A 
ATOM      6  C5  UNL d   1      -1.454  -2.238   0.675  0.00  0.00     0.062 A 
ATOM      7  F   UNL d   1      -2.666  -2.723   0.985  0.00  0.00    -0.097 F 
ATOM      8  F1  UNL d   1      -2.244  -0.047   1.018  0.00  0.00    -0.096 F 
ATOM      9  I   UNL d   1       0.361   1.703   0.392  0.00  0.00    -0.060 I 
ATOM     10  F2  UNL d   1       2.275  -0.772  -0.278  0.00  0.00    -0.096 F 
ATOM     11  F3  UNL d   1       1.823  -3.442  -0.302  0.00  0.00    -0.097 F 
ATOM     12  F4  UNL d   1      -0.641  -4.429   0.326  0.00  0.00    -0.092 F 
ENDROOT
TORSDOF 0
ENDMDL
