MODEL 1
REMARK minimizedAffinity -3.84310722
REMARK minimizedRMSD -1
REMARK  0 active torsions:
REMARK  status: ('A' for Active; 'I' for Inactive)
ROOT
ATOM      1  C   UNL d   1       0.033  -2.767  -1.153  0.00  0.00     0.124 A 
ATOM      2  C1  UNL d   1       0.055  -2.386   0.181  0.00  0.00     0.062 A 
ATOM      3  C2  UNL d   1       0.112  -1.038   0.524  0.00  0.00     0.162 A 
ATOM      4  C3  UNL d   1       0.147  -0.060  -0.470  0.00  0.00    -0.034 A 
ATOM      5  C4  UNL d   1       0.125  -0.451  -1.810  0.00  0.00     0.162 A 
ATOM      6  C5  UNL d   1       0.068  -1.799  -2.147  0.00  0.00     0.062 A 
ATOM      7  F   UNL d   1       0.047  -2.165  -3.437  0.00  0.00    -0.097 F 
ATOM      8  F1  UNL d   1       0.157   0.463  -2.791  0.00  0.00    -0.096 F 
ATOM      9  I   UNL d   1       0.232   1.956   0.038  0.00  0.00    -0.060 I 
ATOM     10  F2  UNL d   1       0.132  -0.699   1.822  0.00  0.00    -0.096 F 
ATOM     11  F3  UNL d   1       0.022  -3.319   1.144  0.00  0.00    -0.097 F 
ATOM     12  F4  UNL d   1      -0.021  -4.064  -1.480  0.00  0.00    -0.092 F 
ENDROOT
TORSDOF 0
ENDMDL
