MODEL 1
REMARK minimizedAffinity 2.00947261
REMARK minimizedRMSD -1
REMARK  0 active torsions:
REMARK  status: ('A' for Active; 'I' for Inactive)
ROOT
ATOM      1  C   UNL d   1      -0.779  -1.836   0.532  0.00  0.00     0.124 A 
ATOM      2  C1  UNL d   1      -1.309  -0.553   0.552  0.00  0.00     0.062 A 
ATOM      3  C2  UNL d   1      -0.490   0.546   0.308  0.00  0.00     0.162 A 
ATOM      4  C3  UNL d   1       0.867   0.367   0.041  0.00  0.00    -0.034 A 
ATOM      5  C4  UNL d   1       1.392  -0.926   0.023  0.00  0.00     0.162 A 
ATOM      6  C5  UNL d   1       0.570  -2.022   0.267  0.00  0.00     0.062 A 
ATOM      7  F   UNL d   1       1.084  -3.260   0.247  0.00  0.00    -0.097 F 
ATOM      8  F1  UNL d   1       2.693  -1.134  -0.231  0.00  0.00    -0.096 F 
ATOM      9  I   UNL d   1       2.094   2.008  -0.325  0.00  0.00    -0.060 I 
ATOM     10  F2  UNL d   1      -1.029   1.774   0.334  0.00  0.00    -0.096 F 
ATOM     11  F3  UNL d   1      -2.612  -0.372   0.808  0.00  0.00    -0.097 F 
ATOM     12  F4  UNL d   1      -1.569  -2.892   0.768  0.00  0.00    -0.092 F 
ENDROOT
TORSDOF 0
ENDMDL
