MODEL 1
REMARK minimizedAffinity -3.2692039
REMARK minimizedRMSD -1
REMARK  0 active torsions:
REMARK  status: ('A' for Active; 'I' for Inactive)
ROOT
ATOM      1  C   UNL d   1      -1.187  -1.407   1.458  0.00  0.00     0.124 A 
ATOM      2  C1  UNL d   1      -1.363  -0.035   1.561  0.00  0.00     0.062 A 
ATOM      3  C2  UNL d   1      -0.641   0.827   0.740  0.00  0.00     0.162 A 
ATOM      4  C3  UNL d   1       0.263   0.319  -0.192  0.00  0.00    -0.034 A 
ATOM      5  C4  UNL d   1       0.436  -1.063  -0.289  0.00  0.00     0.162 A 
ATOM      6  C5  UNL d   1      -0.288  -1.920   0.534  0.00  0.00     0.062 A 
ATOM      7  F   UNL d   1      -0.116  -3.247   0.433  0.00  0.00    -0.097 F 
ATOM      8  F1  UNL d   1       1.297  -1.586  -1.174  0.00  0.00    -0.096 F 
ATOM      9  I   UNL d   1       1.344   1.604  -1.421  0.00  0.00    -0.060 I 
ATOM     10  F2  UNL d   1      -0.832   2.150   0.862  0.00  0.00    -0.096 F 
ATOM     11  F3  UNL d   1      -2.230   0.464   2.454  0.00  0.00    -0.097 F 
ATOM     12  F4  UNL d   1      -1.882  -2.234   2.250  0.00  0.00    -0.092 F 
ENDROOT
TORSDOF 0
ENDMDL
