MODEL 1
REMARK minimizedAffinity -3.63497949
REMARK minimizedRMSD -1
REMARK  0 active torsions:
REMARK  status: ('A' for Active; 'I' for Inactive)
ROOT
ATOM      1  C   UNL d   1       0.494  -1.196  -0.691  0.00  0.00     0.124 A 
ATOM      2  C1  UNL d   1       0.295   0.155  -0.441  0.00  0.00     0.062 A 
ATOM      3  C2  UNL d   1      -0.550   0.559   0.588  0.00  0.00     0.162 A 
ATOM      4  C3  UNL d   1      -1.203  -0.388   1.376  0.00  0.00    -0.034 A 
ATOM      5  C4  UNL d   1      -0.999  -1.745   1.119  0.00  0.00     0.162 A 
ATOM      6  C5  UNL d   1      -0.153  -2.144   0.089  0.00  0.00     0.062 A 
ATOM      7  F   UNL d   1       0.038  -3.450  -0.151  0.00  0.00    -0.097 F 
ATOM      8  F1  UNL d   1      -1.610  -2.683   1.857  0.00  0.00    -0.096 F 
ATOM      9  I   UNL d   1      -2.468   0.213   2.916  0.00  0.00    -0.060 I 
ATOM     10  F2  UNL d   1      -0.724   1.871   0.807  0.00  0.00    -0.096 F 
ATOM     11  F3  UNL d   1       0.918   1.073  -1.194  0.00  0.00    -0.097 F 
ATOM     12  F4  UNL d   1       1.307  -1.583  -1.682  0.00  0.00    -0.092 F 
ENDROOT
TORSDOF 0
ENDMDL
