MODEL 1
REMARK minimizedAffinity 3.61129832
REMARK minimizedRMSD -1
REMARK  0 active torsions:
REMARK  status: ('A' for Active; 'I' for Inactive)
ROOT
ATOM      1  C   UNL d   1       1.014  -0.797  -1.806  0.00  0.00     0.124 A 
ATOM      2  C1  UNL d   1       0.652   0.542  -1.756  0.00  0.00     0.062 A 
ATOM      3  C2  UNL d   1      -0.149   1.012  -0.720  0.00  0.00     0.162 A 
ATOM      4  C3  UNL d   1      -0.594   0.142   0.276  0.00  0.00    -0.034 A 
ATOM      5  C4  UNL d   1      -0.226  -1.204   0.218  0.00  0.00     0.162 A 
ATOM      6  C5  UNL d   1       0.575  -1.668  -0.820  0.00  0.00     0.062 A 
ATOM      7  F   UNL d   1       0.924  -2.962  -0.867  0.00  0.00    -0.097 F 
ATOM      8  F1  UNL d   1      -0.636  -2.067   1.159  0.00  0.00    -0.096 F 
ATOM      9  I   UNL d   1      -1.792   0.840   1.828  0.00  0.00    -0.060 I 
ATOM     10  F2  UNL d   1      -0.484   2.310  -0.696  0.00  0.00    -0.096 F 
ATOM     11  F3  UNL d   1       1.075   1.386  -2.709  0.00  0.00    -0.097 F 
ATOM     12  F4  UNL d   1       1.785  -1.246  -2.805  0.00  0.00    -0.092 F 
ENDROOT
TORSDOF 0
ENDMDL
