MODEL 1
REMARK minimizedAffinity 1.94009662
REMARK minimizedRMSD -1
REMARK  0 active torsions:
REMARK  status: ('A' for Active; 'I' for Inactive)
ROOT
ATOM      1  C   UNL d   1       2.625  -0.167  -2.213  0.00  0.00     0.124 A 
ATOM      2  C1  UNL d   1       1.408  -0.696  -2.619  0.00  0.00     0.062 A 
ATOM      3  C2  UNL d   1       0.281  -0.561  -1.812  0.00  0.00     0.162 A 
ATOM      4  C3  UNL d   1       0.367   0.107  -0.591  0.00  0.00    -0.034 A 
ATOM      5  C4  UNL d   1       1.595   0.636  -0.188  0.00  0.00     0.162 A 
ATOM      6  C5  UNL d   1       2.717   0.498  -0.998  0.00  0.00     0.062 A 
ATOM      7  F   UNL d   1       3.893   1.009  -0.604  0.00  0.00    -0.097 F 
ATOM      8  F1  UNL d   1       1.712   1.284   0.980  0.00  0.00    -0.096 F 
ATOM      9  I   UNL d   1      -1.315   0.312   0.618  0.00  0.00    -0.060 I 
ATOM     10  F2  UNL d   1      -0.882  -1.082  -2.230  0.00  0.00    -0.096 F 
ATOM     11  F3  UNL d   1       1.316  -1.340  -3.791  0.00  0.00    -0.097 F 
ATOM     12  F4  UNL d   1       3.707  -0.300  -2.990  0.00  0.00    -0.092 F 
ENDROOT
TORSDOF 0
ENDMDL
