MODEL 1
REMARK minimizedAffinity -2.32470441
REMARK minimizedRMSD -1
REMARK  0 active torsions:
REMARK  status: ('A' for Active; 'I' for Inactive)
ROOT
ATOM      1  C   UNL d   1      -3.160   2.061   2.602  0.00  0.00     0.124 A 
ATOM      2  C1  UNL d   1      -3.716   1.010   1.886  0.00  0.00     0.062 A 
ATOM      3  C2  UNL d   1      -2.896   0.110   1.212  0.00  0.00     0.162 A 
ATOM      4  C3  UNL d   1      -1.509   0.256   1.252  0.00  0.00    -0.034 A 
ATOM      5  C4  UNL d   1      -0.957   1.316   1.973  0.00  0.00     0.162 A 
ATOM      6  C5  UNL d   1      -1.781   2.213   2.645  0.00  0.00     0.062 A 
ATOM      7  F   UNL d   1      -1.242   3.227   3.336  0.00  0.00    -0.097 F 
ATOM      8  F1  UNL d   1       0.372   1.486   2.032  0.00  0.00    -0.096 F 
ATOM      9  I   UNL d   1      -0.279  -1.088   0.246  0.00  0.00    -0.060 I 
ATOM     10  F2  UNL d   1      -3.461  -0.896   0.528  0.00  0.00    -0.096 F 
ATOM     11  F3  UNL d   1      -5.048   0.862   1.842  0.00  0.00    -0.097 F 
ATOM     12  F4  UNL d   1      -3.952   2.926   3.248  0.00  0.00    -0.092 F 
ENDROOT
TORSDOF 0
ENDMDL
