MODEL 1
REMARK minimizedAffinity -0.695823014
REMARK minimizedRMSD -1
REMARK  0 active torsions:
REMARK  status: ('A' for Active; 'I' for Inactive)
ROOT
ATOM      1  C   UNL d   1       1.061  -0.823  -1.496  0.00  0.00     0.124 A 
ATOM      2  C1  UNL d   1       0.824  -1.611  -0.378  0.00  0.00     0.062 A 
ATOM      3  C2  UNL d   1      -0.095  -1.202   0.584  0.00  0.00     0.162 A 
ATOM      4  C3  UNL d   1      -0.786   0.001   0.431  0.00  0.00    -0.034 A 
ATOM      5  C4  UNL d   1      -0.541   0.787  -0.696  0.00  0.00     0.162 A 
ATOM      6  C5  UNL d   1       0.378   0.374  -1.654  0.00  0.00     0.062 A 
ATOM      7  F   UNL d   1       0.606   1.136  -2.734  0.00  0.00    -0.097 F 
ATOM      8  F1  UNL d   1      -1.188   1.949  -0.874  0.00  0.00    -0.096 F 
ATOM      9  I   UNL d   1      -2.161   0.616   1.867  0.00  0.00    -0.060 I 
ATOM     10  F2  UNL d   1      -0.304  -1.982   1.655  0.00  0.00    -0.096 F 
ATOM     11  F3  UNL d   1       1.483  -2.768  -0.222  0.00  0.00    -0.097 F 
ATOM     12  F4  UNL d   1       1.947  -1.219  -2.419  0.00  0.00    -0.092 F 
ENDROOT
TORSDOF 0
ENDMDL
