MODEL 1
REMARK minimizedAffinity -0.852441072
REMARK minimizedRMSD -1
REMARK  0 active torsions:
REMARK  status: ('A' for Active; 'I' for Inactive)
ROOT
ATOM      1  C   UNL d   1       0.047  -0.909   1.222  0.00  0.00     0.124 A 
ATOM      2  C1  UNL d   1       0.387   0.367   0.795  0.00  0.00     0.062 A 
ATOM      3  C2  UNL d   1       0.949   0.556  -0.464  0.00  0.00     0.162 A 
ATOM      4  C3  UNL d   1       1.174  -0.533  -1.306  0.00  0.00    -0.034 A 
ATOM      5  C4  UNL d   1       0.829  -1.813  -0.869  0.00  0.00     0.162 A 
ATOM      6  C5  UNL d   1       0.268  -1.998   0.390  0.00  0.00     0.062 A 
ATOM      7  F   UNL d   1      -0.060  -3.231   0.802  0.00  0.00    -0.097 F 
ATOM      8  F1  UNL d   1       1.031  -2.883  -1.653  0.00  0.00    -0.096 F 
ATOM      9  I   UNL d   1       2.013  -0.254  -3.190  0.00  0.00    -0.060 I 
ATOM     10  F2  UNL d   1       1.269   1.800  -0.851  0.00  0.00    -0.096 F 
ATOM     11  F3  UNL d   1       0.176   1.420   1.597  0.00  0.00    -0.097 F 
ATOM     12  F4  UNL d   1      -0.493  -1.089   2.435  0.00  0.00    -0.092 F 
ENDROOT
TORSDOF 0
ENDMDL
