MODEL 1
REMARK minimizedAffinity 1.80790198
REMARK minimizedRMSD -1
REMARK  0 active torsions:
REMARK  status: ('A' for Active; 'I' for Inactive)
ROOT
ATOM      1  C   UNL d   1       1.626   0.259  -0.946  0.00  0.00     0.124 A 
ATOM      2  C1  UNL d   1       1.365   0.340   0.415  0.00  0.00     0.062 A 
ATOM      3  C2  UNL d   1       0.054   0.290   0.881  0.00  0.00     0.162 A 
ATOM      4  C3  UNL d   1      -1.006   0.156  -0.015  0.00  0.00    -0.034 A 
ATOM      5  C4  UNL d   1      -0.736   0.077  -1.383  0.00  0.00     0.162 A 
ATOM      6  C5  UNL d   1       0.575   0.127  -1.843  0.00  0.00     0.062 A 
ATOM      7  F   UNL d   1       0.825   0.049  -3.158  0.00  0.00    -0.097 F 
ATOM      8  F1  UNL d   1      -1.732  -0.052  -2.272  0.00  0.00    -0.096 F 
ATOM      9  I   UNL d   1      -2.967   0.081   0.677  0.00  0.00    -0.060 I 
ATOM     10  F2  UNL d   1      -0.168   0.370   2.201  0.00  0.00    -0.096 F 
ATOM     11  F3  UNL d   1       2.378   0.468   1.284  0.00  0.00    -0.097 F 
ATOM     12  F4  UNL d   1       2.888   0.309  -1.391  0.00  0.00    -0.092 F 
ENDROOT
TORSDOF 0
ENDMDL
