MODEL 1
REMARK minimizedAffinity -2.58382106
REMARK minimizedRMSD -1
REMARK  0 active torsions:
REMARK  status: ('A' for Active; 'I' for Inactive)
ROOT
ATOM      1  C   UNL d   1       2.128  -0.033  -2.287  0.00  0.00     0.124 A 
ATOM      2  C1  UNL d   1       1.077  -0.926  -2.135  0.00  0.00     0.062 A 
ATOM      3  C2  UNL d   1       0.259  -0.859  -1.011  0.00  0.00     0.162 A 
ATOM      4  C3  UNL d   1       0.488   0.106  -0.030  0.00  0.00    -0.034 A 
ATOM      5  C4  UNL d   1       1.548   1.000  -0.190  0.00  0.00     0.162 A 
ATOM      6  C5  UNL d   1       2.363   0.929  -1.315  0.00  0.00     0.062 A 
ATOM      7  F   UNL d   1       3.378   1.793  -1.461  0.00  0.00    -0.097 F 
ATOM      8  F1  UNL d   1       1.797   1.940   0.734  0.00  0.00    -0.096 F 
ATOM      9  I   UNL d   1      -0.733   0.209   1.652  0.00  0.00    -0.060 I 
ATOM     10  F2  UNL d   1      -0.750  -1.735  -0.890  0.00  0.00    -0.096 F 
ATOM     11  F3  UNL d   1       0.849  -1.857  -3.072  0.00  0.00    -0.097 F 
ATOM     12  F4  UNL d   1       2.914  -0.100  -3.370  0.00  0.00    -0.092 F 
ENDROOT
TORSDOF 0
ENDMDL
