MODEL 1
REMARK minimizedAffinity -2.17587996
REMARK minimizedRMSD -1
REMARK  0 active torsions:
REMARK  status: ('A' for Active; 'I' for Inactive)
ROOT
ATOM      1  C   UNL d   1       2.486  -1.119  -1.548  0.00  0.00     0.124 A 
ATOM      2  C1  UNL d   1       2.173   0.216  -1.330  0.00  0.00     0.062 A 
ATOM      3  C2  UNL d   1       1.131   0.559  -0.473  0.00  0.00     0.162 A 
ATOM      4  C3  UNL d   1       0.394  -0.434   0.173  0.00  0.00    -0.034 A 
ATOM      5  C4  UNL d   1       0.715  -1.774  -0.053  0.00  0.00     0.162 A 
ATOM      6  C5  UNL d   1       1.757  -2.112  -0.910  0.00  0.00     0.062 A 
ATOM      7  F   UNL d   1       2.059  -3.402  -1.119  0.00  0.00    -0.097 F 
ATOM      8  F1  UNL d   1       0.028  -2.755   0.552  0.00  0.00    -0.096 F 
ATOM      9  I   UNL d   1      -1.165   0.075   1.454  0.00  0.00    -0.060 I 
ATOM     10  F2  UNL d   1       0.850   1.856  -0.281  0.00  0.00    -0.096 F 
ATOM     11  F3  UNL d   1       2.875   1.177  -1.946  0.00  0.00    -0.097 F 
ATOM     12  F4  UNL d   1       3.489  -1.446  -2.373  0.00  0.00    -0.092 F 
ENDROOT
TORSDOF 0
ENDMDL
