MODEL 1
REMARK minimizedAffinity 0.557455778
REMARK minimizedRMSD -1
REMARK  0 active torsions:
REMARK  status: ('A' for Active; 'I' for Inactive)
ROOT
ATOM      1  C   UNL d   1       1.409   0.773  -1.102  0.00  0.00     0.124 A 
ATOM      2  C1  UNL d   1       1.356   0.741   0.285  0.00  0.00     0.062 A 
ATOM      3  C2  UNL d   1       0.188   0.348   0.932  0.00  0.00     0.162 A 
ATOM      4  C3  UNL d   1      -0.937  -0.017   0.193  0.00  0.00    -0.034 A 
ATOM      5  C4  UNL d   1      -0.877   0.019  -1.202  0.00  0.00     0.162 A 
ATOM      6  C5  UNL d   1       0.293   0.412  -1.844  0.00  0.00     0.062 A 
ATOM      7  F   UNL d   1       0.342   0.443  -3.183  0.00  0.00    -0.097 F 
ATOM      8  F1  UNL d   1      -1.940  -0.326  -1.943  0.00  0.00    -0.096 F 
ATOM      9  I   UNL d   1      -2.686  -0.605   1.156  0.00  0.00    -0.060 I 
ATOM     10  F2  UNL d   1       0.165   0.327   2.273  0.00  0.00    -0.096 F 
ATOM     11  F3  UNL d   1       2.432   1.091   1.004  0.00  0.00    -0.097 F 
ATOM     12  F4  UNL d   1       2.534   1.153  -1.722  0.00  0.00    -0.092 F 
ENDROOT
TORSDOF 0
ENDMDL
