MODEL 1
REMARK minimizedAffinity -1.85955977
REMARK minimizedRMSD -1
REMARK  0 active torsions:
REMARK  status: ('A' for Active; 'I' for Inactive)
ROOT
ATOM      1  C   UNL d   1       1.467  -0.625  -2.199  0.00  0.00     0.124 A 
ATOM      2  C1  UNL d   1       1.610   0.619  -1.599  0.00  0.00     0.062 A 
ATOM      3  C2  UNL d   1       0.854   0.948  -0.478  0.00  0.00     0.162 A 
ATOM      4  C3  UNL d   1      -0.053   0.030   0.052  0.00  0.00    -0.034 A 
ATOM      5  C4  UNL d   1      -0.193  -1.218  -0.556  0.00  0.00     0.162 A 
ATOM      6  C5  UNL d   1       0.565  -1.542  -1.677  0.00  0.00     0.062 A 
ATOM      7  F   UNL d   1       0.425  -2.744  -2.254  0.00  0.00    -0.097 F 
ATOM      8  F1  UNL d   1      -1.056  -2.124  -0.072  0.00  0.00    -0.096 F 
ATOM      9  I   UNL d   1      -1.186   0.517   1.729  0.00  0.00    -0.060 I 
ATOM     10  F2  UNL d   1       1.013   2.157   0.080  0.00  0.00    -0.096 F 
ATOM     11  F3  UNL d   1       2.479   1.508  -2.102  0.00  0.00    -0.097 F 
ATOM     12  F4  UNL d   1       2.195  -0.938  -3.278  0.00  0.00    -0.092 F 
ENDROOT
TORSDOF 0
ENDMDL
