MODEL 1
REMARK minimizedAffinity 0.598965824
REMARK minimizedRMSD -1
REMARK  0 active torsions:
REMARK  status: ('A' for Active; 'I' for Inactive)
ROOT
ATOM      1  C   UNL d   1       1.369  -1.911  -2.604  0.00  0.00     0.124 A 
ATOM      2  C1  UNL d   1       0.320  -2.081  -1.711  0.00  0.00     0.062 A 
ATOM      3  C2  UNL d   1       0.034  -1.095  -0.772  0.00  0.00     0.162 A 
ATOM      4  C3  UNL d   1       0.798   0.071  -0.720  0.00  0.00    -0.034 A 
ATOM      5  C4  UNL d   1       1.852   0.235  -1.620  0.00  0.00     0.162 A 
ATOM      6  C5  UNL d   1       2.134  -0.754  -2.558  0.00  0.00     0.062 A 
ATOM      7  F   UNL d   1       3.148  -0.588  -3.419  0.00  0.00    -0.097 F 
ATOM      8  F1  UNL d   1       2.606   1.343  -1.598  0.00  0.00    -0.096 F 
ATOM      9  I   UNL d   1       0.373   1.547   0.684  0.00  0.00    -0.060 I 
ATOM     10  F2  UNL d   1      -0.986  -1.286   0.079  0.00  0.00    -0.096 F 
ATOM     11  F3  UNL d   1      -0.419  -3.198  -1.754  0.00  0.00    -0.097 F 
ATOM     12  F4  UNL d   1       1.643  -2.861  -3.507  0.00  0.00    -0.092 F 
ENDROOT
TORSDOF 0
ENDMDL
