MODEL 1
REMARK minimizedAffinity -2.03372407
REMARK minimizedRMSD -1
REMARK  0 active torsions:
REMARK  status: ('A' for Active; 'I' for Inactive)
ROOT
ATOM      1  C   UNL d   1      -1.216  -0.664   1.897  0.00  0.00     0.124 A 
ATOM      2  C1  UNL d   1      -0.416  -1.687   1.408  0.00  0.00     0.062 A 
ATOM      3  C2  UNL d   1       0.257  -1.533   0.199  0.00  0.00     0.162 A 
ATOM      4  C3  UNL d   1       0.133  -0.350  -0.529  0.00  0.00    -0.034 A 
ATOM      5  C4  UNL d   1      -0.674   0.675  -0.032  0.00  0.00     0.162 A 
ATOM      6  C5  UNL d   1      -1.344   0.516   1.177  0.00  0.00     0.062 A 
ATOM      7  F   UNL d   1      -2.117   1.505   1.647  0.00  0.00    -0.097 F 
ATOM      8  F1  UNL d   1      -0.815   1.825  -0.706  0.00  0.00    -0.096 F 
ATOM      9  I   UNL d   1       1.138  -0.116  -2.337  0.00  0.00    -0.060 I 
ATOM     10  F2  UNL d   1       1.024  -2.538  -0.249  0.00  0.00    -0.096 F 
ATOM     11  F3  UNL d   1      -0.291  -2.828   2.101  0.00  0.00    -0.097 F 
ATOM     12  F4  UNL d   1      -1.863  -0.815   3.060  0.00  0.00    -0.092 F 
ENDROOT
TORSDOF 0
ENDMDL
