MODEL 1
REMARK minimizedAffinity -3.97862267
REMARK minimizedRMSD -1
REMARK  0 active torsions:
REMARK  status: ('A' for Active; 'I' for Inactive)
ROOT
ATOM      1  C   UNL d   1       2.366  -0.505  -2.117  0.00  0.00     0.124 A 
ATOM      2  C1  UNL d   1       1.481  -1.548  -1.879  0.00  0.00     0.062 A 
ATOM      3  C2  UNL d   1       0.499  -1.424  -0.901  0.00  0.00     0.162 A 
ATOM      4  C3  UNL d   1       0.396  -0.251  -0.152  0.00  0.00    -0.034 A 
ATOM      5  C4  UNL d   1       1.291   0.792  -0.395  0.00  0.00     0.162 A 
ATOM      6  C5  UNL d   1       2.270   0.663  -1.375  0.00  0.00     0.062 A 
ATOM      7  F   UNL d   1       3.125   1.672  -1.602  0.00  0.00    -0.097 F 
ATOM      8  F1  UNL d   1       1.220   1.933   0.306  0.00  0.00    -0.096 F 
ATOM      9  I   UNL d   1      -1.070  -0.062   1.313  0.00  0.00    -0.060 I 
ATOM     10  F2  UNL d   1      -0.343  -2.447  -0.693  0.00  0.00    -0.096 F 
ATOM     11  F3  UNL d   1       1.572  -2.679  -2.594  0.00  0.00    -0.097 F 
ATOM     12  F4  UNL d   1       3.311  -0.628  -3.058  0.00  0.00    -0.092 F 
ENDROOT
TORSDOF 0
ENDMDL
