MODEL 1
REMARK minimizedAffinity 8.3161478
REMARK minimizedRMSD -1
REMARK  0 active torsions:
REMARK  status: ('A' for Active; 'I' for Inactive)
ROOT
ATOM      1  C   UNL d   1      -5.119   0.785  -1.079  0.00  0.00     0.023 A 
ATOM      2  C1  UNL d   1      -6.000   0.603  -0.013  0.00  0.00     0.003 A 
ATOM      3  C2  UNL d   1      -5.505   0.380   1.273  0.00  0.00     0.048 A 
ATOM      4  C3  UNL d   1      -4.127   0.341   1.487  0.00  0.00     0.023 A 
ATOM      5  C4  UNL d   1      -3.242   0.523   0.423  0.00  0.00     0.048 A 
ATOM      6  C5  UNL d   1      -3.742   0.745  -0.862  0.00  0.00     0.003 A 
ATOM      7  I   UNL d   1      -3.387   0.009   3.400  0.00  0.00    -0.146 I 
ENDROOT
TORSDOF 0
ENDMDL
