MODEL 1
REMARK minimizedAffinity 0.0102912514
REMARK minimizedRMSD -1
REMARK  0 active torsions:
REMARK  status: ('A' for Active; 'I' for Inactive)
ROOT
ATOM      1  C   UNL d   1      -2.531   2.694  -0.371  0.00  0.00     0.023 A 
ATOM      2  C1  UNL d   1      -2.748   2.314   0.954  0.00  0.00     0.003 A 
ATOM      3  C2  UNL d   1      -3.154   3.262   1.896  0.00  0.00     0.048 A 
ATOM      4  C3  UNL d   1      -3.342   4.587   1.506  0.00  0.00     0.023 A 
ATOM      5  C4  UNL d   1      -3.127   4.972   0.181  0.00  0.00     0.048 A 
ATOM      6  C5  UNL d   1      -2.720   4.021  -0.757  0.00  0.00     0.003 A 
ATOM      7  I   UNL d   1      -3.946   6.000   2.906  0.00  0.00    -0.146 I 
ENDROOT
TORSDOF 0
ENDMDL
