MODEL 1
REMARK minimizedAffinity -0.674212635
REMARK minimizedRMSD -1
REMARK  0 active torsions:
REMARK  status: ('A' for Active; 'I' for Inactive)
ROOT
ATOM      1  C   UNL d   1      -2.872  -0.296   1.633  0.00  0.00     0.023 A 
ATOM      2  C1  UNL d   1      -2.653   0.683   2.602  0.00  0.00     0.003 A 
ATOM      3  C2  UNL d   1      -2.731   2.034   2.261  0.00  0.00     0.048 A 
ATOM      4  C3  UNL d   1      -3.030   2.400   0.949  0.00  0.00     0.023 A 
ATOM      5  C4  UNL d   1      -3.250   1.424  -0.024  0.00  0.00     0.048 A 
ATOM      6  C5  UNL d   1      -3.170   0.074   0.322  0.00  0.00     0.003 A 
ATOM      7  I   UNL d   1      -3.147   4.412   0.439  0.00  0.00    -0.146 I 
ENDROOT
TORSDOF 0
ENDMDL
