MODEL 1
REMARK minimizedAffinity -1.10674691
REMARK minimizedRMSD -1
REMARK  0 active torsions:
REMARK  status: ('A' for Active; 'I' for Inactive)
ROOT
ATOM      1  C   UNL d   1       0.764   1.497  -2.725  0.00  0.00     0.023 A 
ATOM      2  C1  UNL d   1       0.752   2.169  -3.948  0.00  0.00     0.003 A 
ATOM      3  C2  UNL d   1       1.833   2.047  -4.823  0.00  0.00     0.048 A 
ATOM      4  C3  UNL d   1       2.923   1.252  -4.470  0.00  0.00     0.023 A 
ATOM      5  C4  UNL d   1       2.939   0.578  -3.248  0.00  0.00     0.048 A 
ATOM      6  C5  UNL d   1       1.856   0.703  -2.375  0.00  0.00     0.003 A 
ATOM      7  I   UNL d   1       4.533   1.070  -5.771  0.00  0.00    -0.146 I 
ENDROOT
TORSDOF 0
ENDMDL
