MODEL 1
REMARK minimizedAffinity -0.512568176
REMARK minimizedRMSD -1
REMARK  0 active torsions:
REMARK  status: ('A' for Active; 'I' for Inactive)
ROOT
ATOM      1  C   UNL d   1      -2.695  -1.090   2.097  0.00  0.00     0.023 A 
ATOM      2  C1  UNL d   1      -2.929  -0.856   0.742  0.00  0.00     0.003 A 
ATOM      3  C2  UNL d   1      -2.975   0.453   0.255  0.00  0.00     0.048 A 
ATOM      4  C3  UNL d   1      -2.784   1.522   1.130  0.00  0.00     0.023 A 
ATOM      5  C4  UNL d   1      -2.548   1.293   2.486  0.00  0.00     0.048 A 
ATOM      6  C5  UNL d   1      -2.504  -0.017   2.968  0.00  0.00     0.003 A 
ATOM      7  I   UNL d   1      -2.852   3.470   0.408  0.00  0.00    -0.146 I 
ENDROOT
TORSDOF 0
ENDMDL
