MODEL 1
REMARK minimizedAffinity 5.04592466
REMARK minimizedRMSD -1
REMARK  0 active torsions:
REMARK  status: ('A' for Active; 'I' for Inactive)
ROOT
ATOM      1  C   UNL d   1      -3.258   1.866  -0.928  0.00  0.00     0.023 A 
ATOM      2  C1  UNL d   1      -3.138   2.480   0.319  0.00  0.00     0.003 A 
ATOM      3  C2  UNL d   1      -3.009   1.703   1.472  0.00  0.00     0.048 A 
ATOM      4  C3  UNL d   1      -2.999   0.312   1.371  0.00  0.00     0.023 A 
ATOM      5  C4  UNL d   1      -3.117  -0.306   0.125  0.00  0.00     0.048 A 
ATOM      6  C5  UNL d   1      -3.247   0.475  -1.025  0.00  0.00     0.003 A 
ATOM      7  I   UNL d   1      -2.806  -0.846   3.085  0.00  0.00    -0.146 I 
ENDROOT
TORSDOF 0
ENDMDL
