MODEL 1
REMARK minimizedAffinity 3.99723601
REMARK minimizedRMSD -1
REMARK  0 active torsions:
REMARK  status: ('A' for Active; 'I' for Inactive)
ROOT
ATOM      1  C   UNL d   1      -2.325   0.273  -0.350  0.00  0.00     0.023 A 
ATOM      2  C1  UNL d   1      -3.526   0.387   0.350  0.00  0.00     0.003 A 
ATOM      3  C2  UNL d   1      -4.056   1.648   0.631  0.00  0.00     0.048 A 
ATOM      4  C3  UNL d   1      -3.379   2.791   0.207  0.00  0.00     0.023 A 
ATOM      5  C4  UNL d   1      -2.177   2.683  -0.494  0.00  0.00     0.048 A 
ATOM      6  C5  UNL d   1      -1.651   1.420  -0.771  0.00  0.00     0.003 A 
ATOM      7  I   UNL d   1      -4.166   4.670   0.623  0.00  0.00    -0.146 I 
ENDROOT
TORSDOF 0
ENDMDL
