MODEL 1
REMARK minimizedAffinity -1.5799067
REMARK minimizedRMSD -1
REMARK  0 active torsions:
REMARK  status: ('A' for Active; 'I' for Inactive)
ROOT
ATOM      1  C   UNL d   1      -2.210   2.966  -0.780  0.00  0.00     0.023 A 
ATOM      2  C1  UNL d   1      -2.781   3.520   0.366  0.00  0.00     0.003 A 
ATOM      3  C2  UNL d   1      -2.895   2.758   1.530  0.00  0.00     0.048 A 
ATOM      4  C3  UNL d   1      -2.435   1.441   1.542  0.00  0.00     0.023 A 
ATOM      5  C4  UNL d   1      -1.862   0.883   0.398  0.00  0.00     0.048 A 
ATOM      6  C5  UNL d   1      -1.751   1.649  -0.764  0.00  0.00     0.003 A 
ATOM      7  I   UNL d   1      -2.604   0.304   3.273  0.00  0.00    -0.146 I 
ENDROOT
TORSDOF 0
ENDMDL
