MODEL 1
REMARK minimizedAffinity 6.188344
REMARK minimizedRMSD -1
REMARK  0 active torsions:
REMARK  status: ('A' for Active; 'I' for Inactive)
ROOT
ATOM      1  C   UNL d   1      -2.780  -0.388   4.091  0.00  0.00     0.023 A 
ATOM      2  C1  UNL d   1      -2.124   0.401   3.146  0.00  0.00     0.003 A 
ATOM      3  C2  UNL d   1      -2.715   0.640   1.903  0.00  0.00     0.048 A 
ATOM      4  C3  UNL d   1      -3.962   0.089   1.613  0.00  0.00     0.023 A 
ATOM      5  C4  UNL d   1      -4.623  -0.700   2.556  0.00  0.00     0.048 A 
ATOM      6  C5  UNL d   1      -4.028  -0.937   3.796  0.00  0.00     0.003 A 
ATOM      7  I   UNL d   1      -4.844   0.445  -0.235  0.00  0.00    -0.146 I 
ENDROOT
TORSDOF 0
ENDMDL
