MODEL 1
REMARK minimizedAffinity 2.95663214
REMARK minimizedRMSD -1
REMARK  0 active torsions:
REMARK  status: ('A' for Active; 'I' for Inactive)
ROOT
ATOM      1  C   UNL d   1      -2.999   1.492   3.745  0.00  0.00     0.023 A 
ATOM      2  C1  UNL d   1      -3.743   1.093   4.856  0.00  0.00     0.003 A 
ATOM      3  C2  UNL d   1      -4.605  -0.002   4.763  0.00  0.00     0.048 A 
ATOM      4  C3  UNL d   1      -4.717  -0.693   3.557  0.00  0.00     0.023 A 
ATOM      5  C4  UNL d   1      -3.974  -0.298   2.444  0.00  0.00     0.048 A 
ATOM      6  C5  UNL d   1      -3.114   0.798   2.541  0.00  0.00     0.003 A 
ATOM      7  I   UNL d   1      -6.000  -2.323   3.417  0.00  0.00    -0.146 I 
ENDROOT
TORSDOF 0
ENDMDL
