MODEL 1
REMARK minimizedAffinity -2.41163898
REMARK minimizedRMSD -1
REMARK  0 active torsions:
REMARK  status: ('A' for Active; 'I' for Inactive)
ROOT
ATOM      1  C   UNL d   1      -2.909  -1.035   2.505  0.00  0.00     0.023 A 
ATOM      2  C1  UNL d   1      -2.786   0.121   3.277  0.00  0.00     0.003 A 
ATOM      3  C2  UNL d   1      -2.805   1.376   2.665  0.00  0.00     0.048 A 
ATOM      4  C3  UNL d   1      -2.948   1.468   1.281  0.00  0.00     0.023 A 
ATOM      5  C4  UNL d   1      -3.072   0.314   0.505  0.00  0.00     0.048 A 
ATOM      6  C5  UNL d   1      -3.051  -0.939   1.121  0.00  0.00     0.003 A 
ATOM      7  I   UNL d   1      -2.977   3.334   0.367  0.00  0.00    -0.146 I 
ENDROOT
TORSDOF 0
ENDMDL
