MODEL 1
REMARK minimizedAffinity 0.984667063
REMARK minimizedRMSD -1
REMARK  0 active torsions:
REMARK  status: ('A' for Active; 'I' for Inactive)
ROOT
ATOM      1  C   UNL d   1      -3.092   0.733  -0.229  0.00  0.00     0.023 A 
ATOM      2  C1  UNL d   1      -3.242  -0.539   0.324  0.00  0.00     0.003 A 
ATOM      3  C2  UNL d   1      -3.147  -0.717   1.706  0.00  0.00     0.048 A 
ATOM      4  C3  UNL d   1      -2.903   0.382   2.529  0.00  0.00     0.023 A 
ATOM      5  C4  UNL d   1      -2.753   1.656   1.981  0.00  0.00     0.048 A 
ATOM      6  C5  UNL d   1      -2.848   1.829   0.599  0.00  0.00     0.003 A 
ATOM      7  I   UNL d   1      -2.762   0.119   4.586  0.00  0.00    -0.146 I 
ENDROOT
TORSDOF 0
ENDMDL
