MODEL 1
REMARK minimizedAffinity -2.31238389
REMARK minimizedRMSD -1
REMARK  0 active torsions:
REMARK  status: ('A' for Active; 'I' for Inactive)
ROOT
ATOM      1  C   UNL d   1      -2.318  -1.174   2.227  0.00  0.00     0.023 A 
ATOM      2  C1  UNL d   1      -2.337  -1.142   0.832  0.00  0.00     0.003 A 
ATOM      3  C2  UNL d   1      -2.497   0.073   0.163  0.00  0.00     0.048 A 
ATOM      4  C3  UNL d   1      -2.635   1.252   0.894  0.00  0.00     0.023 A 
ATOM      5  C4  UNL d   1      -2.615   1.225   2.289  0.00  0.00     0.048 A 
ATOM      6  C5  UNL d   1      -2.456   0.008   2.954  0.00  0.00     0.003 A 
ATOM      7  I   UNL d   1      -2.873   3.062  -0.100  0.00  0.00    -0.146 I 
ENDROOT
TORSDOF 0
ENDMDL
