MODEL 1
REMARK minimizedAffinity 4.08572054
REMARK minimizedRMSD -1
REMARK  0 active torsions:
REMARK  status: ('A' for Active; 'I' for Inactive)
ROOT
ATOM      1  C   UNL d   1       3.649   1.615   1.818  0.00  0.00     0.023 A 
ATOM      2  C1  UNL d   1       4.188   2.683   2.535  0.00  0.00     0.003 A 
ATOM      3  C2  UNL d   1       4.863   2.451   3.735  0.00  0.00     0.048 A 
ATOM      4  C3  UNL d   1       4.995   1.148   4.213  0.00  0.00     0.023 A 
ATOM      5  C4  UNL d   1       4.458   0.075   3.498  0.00  0.00     0.048 A 
ATOM      6  C5  UNL d   1       3.784   0.313   2.299  0.00  0.00     0.003 A 
ATOM      7  I   UNL d   1       5.999   0.799   5.999  0.00  0.00    -0.146 I 
ENDROOT
TORSDOF 0
ENDMDL
