MODEL 1
REMARK minimizedAffinity 0.899845362
REMARK minimizedRMSD -1
REMARK  0 active torsions:
REMARK  status: ('A' for Active; 'I' for Inactive)
ROOT
ATOM      1  C   UNL d   1      -3.039   2.821  -0.304  0.00  0.00     0.023 A 
ATOM      2  C1  UNL d   1      -2.559   3.234   0.939  0.00  0.00     0.003 A 
ATOM      3  C2  UNL d   1      -2.542   2.342   2.014  0.00  0.00     0.048 A 
ATOM      4  C3  UNL d   1      -3.005   1.039   1.838  0.00  0.00     0.023 A 
ATOM      5  C4  UNL d   1      -3.485   0.621   0.595  0.00  0.00     0.048 A 
ATOM      6  C5  UNL d   1      -3.501   1.517  -0.476  0.00  0.00     0.003 A 
ATOM      7  I   UNL d   1      -2.980  -0.291   3.435  0.00  0.00    -0.146 I 
ENDROOT
TORSDOF 0
ENDMDL
