MODEL 1
REMARK minimizedAffinity 10.3056917
REMARK minimizedRMSD -1
REMARK  0 active torsions:
REMARK  status: ('A' for Active; 'I' for Inactive)
ROOT
ATOM      1  C   UNL d   1      -1.983   0.733   3.262  0.00  0.00     0.023 A 
ATOM      2  C1  UNL d   1      -2.529   0.329   4.480  0.00  0.00     0.003 A 
ATOM      3  C2  UNL d   1      -3.658  -0.492   4.502  0.00  0.00     0.048 A 
ATOM      4  C3  UNL d   1      -4.236  -0.907   3.303  0.00  0.00     0.023 A 
ATOM      5  C4  UNL d   1      -3.692  -0.506   2.081  0.00  0.00     0.048 A 
ATOM      6  C5  UNL d   1      -2.563   0.316   2.064  0.00  0.00     0.003 A 
ATOM      7  I   UNL d   1      -5.916  -2.129   3.333  0.00  0.00    -0.146 I 
ENDROOT
TORSDOF 0
ENDMDL
