MODEL 1
REMARK minimizedAffinity -2.29289627
REMARK minimizedRMSD -1
REMARK  0 active torsions:
REMARK  status: ('A' for Active; 'I' for Inactive)
ROOT
ATOM      1  C   UNL d   1      -2.566  -1.099   2.058  0.00  0.00     0.023 A 
ATOM      2  C1  UNL d   1      -2.760  -0.855   0.698  0.00  0.00     0.003 A 
ATOM      3  C2  UNL d   1      -2.822   0.457   0.225  0.00  0.00     0.048 A 
ATOM      4  C3  UNL d   1      -2.689   1.521   1.116  0.00  0.00     0.023 A 
ATOM      5  C4  UNL d   1      -2.493   1.282   2.477  0.00  0.00     0.048 A 
ATOM      6  C5  UNL d   1      -2.433  -0.031   2.946  0.00  0.00     0.003 A 
ATOM      7  I   UNL d   1      -2.780   3.475   0.413  0.00  0.00    -0.146 I 
ENDROOT
TORSDOF 0
ENDMDL
