MODEL 1
REMARK minimizedAffinity -0.217592344
REMARK minimizedRMSD -1
REMARK  0 active torsions:
REMARK  status: ('A' for Active; 'I' for Inactive)
ROOT
ATOM      1  C   UNL d   1      -3.222   3.276   0.443  0.00  0.00     0.023 A 
ATOM      2  C1  UNL d   1      -3.826   2.380  -0.439  0.00  0.00     0.003 A 
ATOM      3  C2  UNL d   1      -3.516   1.020  -0.376  0.00  0.00     0.048 A 
ATOM      4  C3  UNL d   1      -2.603   0.562   0.573  0.00  0.00     0.023 A 
ATOM      5  C4  UNL d   1      -1.997   1.455   1.458  0.00  0.00     0.048 A 
ATOM      6  C5  UNL d   1      -2.309   2.814   1.391  0.00  0.00     0.003 A 
ATOM      7  I   UNL d   1      -2.140  -1.462   0.669  0.00  0.00    -0.146 I 
ENDROOT
TORSDOF 0
ENDMDL
