MODEL 1
REMARK minimizedAffinity 5.97783041
REMARK minimizedRMSD -1
REMARK  0 active torsions:
REMARK  status: ('A' for Active; 'I' for Inactive)
ROOT
ATOM      1  C   UNL d   1      -4.466   2.081  -3.285  0.00  0.00    -0.002 A 
ATOM      2  C1  UNL d   1      -4.872   1.526  -4.491  0.00  0.00     0.010 A 
ATOM      3  C2  UNL d   1      -4.976   0.141  -4.636  0.00  0.00     0.041 A 
ATOM      4  C3  UNL d   1      -4.662  -0.685  -3.539  0.00  0.00    -0.075 A 
ATOM      5  S   UNL d   1      -4.717  -2.407  -3.485  0.00  0.00     0.015 SA
ATOM      6  C4  UNL d   1      -4.204  -2.447  -1.861  0.00  0.00     0.022 A 
ATOM      7  C5  UNL d   1      -3.990  -1.186  -1.356  0.00  0.00     0.026 A 
ATOM      8  C6  UNL d   1      -4.252  -0.150  -2.315  0.00  0.00    -0.082 A 
ATOM      9  C7  UNL d   1      -4.156   1.258  -2.199  0.00  0.00     0.045 A 
ENDROOT
TORSDOF 0
ENDMDL
