MODEL 1
REMARK minimizedAffinity 16.5738163
REMARK minimizedRMSD -1
REMARK  0 active torsions:
REMARK  status: ('A' for Active; 'I' for Inactive)
ROOT
ATOM      1  C   UNL d   1       2.428  -3.624   1.379  0.00  0.00    -0.002 A 
ATOM      2  C1  UNL d   1       1.934  -4.904   1.583  0.00  0.00     0.010 A 
ATOM      3  C2  UNL d   1       0.683  -5.097   2.173  0.00  0.00     0.041 A 
ATOM      4  C3  UNL d   1      -0.072  -3.970   2.555  0.00  0.00    -0.075 A 
ATOM      5  S   UNL d   1      -1.630  -3.963   3.293  0.00  0.00     0.015 SA
ATOM      6  C4  UNL d   1      -1.676  -2.261   3.353  0.00  0.00     0.022 A 
ATOM      7  C5  UNL d   1      -0.539  -1.695   2.827  0.00  0.00     0.026 A 
ATOM      8  C6  UNL d   1       0.404  -2.670   2.358  0.00  0.00    -0.082 A 
ATOM      9  C7  UNL d   1       1.677  -2.508   1.759  0.00  0.00     0.045 A 
ENDROOT
TORSDOF 0
ENDMDL
