MODEL 1
REMARK minimizedAffinity 8.05382252
REMARK minimizedRMSD -1
REMARK  0 active torsions:
REMARK  status: ('A' for Active; 'I' for Inactive)
ROOT
ATOM      1  C   UNL d   1      -0.873  -2.583   3.126  0.00  0.00    -0.002 A 
ATOM      2  C1  UNL d   1       0.121  -1.713   3.552  0.00  0.00     0.010 A 
ATOM      3  C2  UNL d   1      -0.157  -0.358   3.746  0.00  0.00     0.041 A 
ATOM      4  C3  UNL d   1      -1.463   0.111   3.504  0.00  0.00    -0.075 A 
ATOM      5  S   UNL d   1      -2.034   1.729   3.676  0.00  0.00     0.015 SA
ATOM      6  C4  UNL d   1      -3.611   1.303   3.188  0.00  0.00     0.022 A 
ATOM      7  C5  UNL d   1      -3.716  -0.037   2.898  0.00  0.00     0.026 A 
ATOM      8  C6  UNL d   1      -2.480  -0.746   3.076  0.00  0.00    -0.082 A 
ATOM      9  C7  UNL d   1      -2.167  -2.114   2.887  0.00  0.00     0.045 A 
ENDROOT
TORSDOF 0
ENDMDL
