MODEL 1
REMARK minimizedAffinity 9.66057968
REMARK minimizedRMSD -1
REMARK  0 active torsions:
REMARK  status: ('A' for Active; 'I' for Inactive)
ROOT
ATOM      1  C   UNL d   1       2.844  -3.304   2.215  0.00  0.00    -0.002 A 
ATOM      2  C1  UNL d   1       1.909  -3.845   1.344  0.00  0.00     0.010 A 
ATOM      3  C2  UNL d   1       2.318  -4.492   0.176  0.00  0.00     0.041 A 
ATOM      4  C3  UNL d   1       3.695  -4.589  -0.104  0.00  0.00    -0.075 A 
ATOM      5  S   UNL d   1       4.428  -5.337  -1.473  0.00  0.00     0.015 SA
ATOM      6  C4  UNL d   1       5.999  -4.957  -0.934  0.00  0.00     0.022 A 
ATOM      7  C5  UNL d   1       5.984  -4.276   0.260  0.00  0.00     0.026 A 
ATOM      8  C6  UNL d   1       4.656  -4.053   0.759  0.00  0.00    -0.082 A 
ATOM      9  C7  UNL d   1       4.210  -3.402   1.934  0.00  0.00     0.045 A 
ENDROOT
TORSDOF 0
ENDMDL
