MODEL 1
REMARK minimizedAffinity 20.3634319
REMARK minimizedRMSD -1
REMARK  0 active torsions:
REMARK  status: ('A' for Active; 'I' for Inactive)
ROOT
ATOM      1  C   UNL d   1       1.911   0.252   2.277  0.00  0.00    -0.002 A 
ATOM      2  C1  UNL d   1       1.238  -0.961   2.306  0.00  0.00     0.010 A 
ATOM      3  C2  UNL d   1       0.448  -1.361   1.226  0.00  0.00     0.041 A 
ATOM      4  C3  UNL d   1       0.346  -0.514   0.106  0.00  0.00    -0.075 A 
ATOM      5  S   UNL d   1      -0.563  -0.796  -1.332  0.00  0.00     0.015 SA
ATOM      6  C4  UNL d   1      -0.078   0.687  -2.019  0.00  0.00     0.022 A 
ATOM      7  C5  UNL d   1       0.756   1.393  -1.185  0.00  0.00     0.026 A 
ATOM      8  C6  UNL d   1       1.015   0.713   0.053  0.00  0.00    -0.082 A 
ATOM      9  C7  UNL d   1       1.807   1.090   1.164  0.00  0.00     0.045 A 
ENDROOT
TORSDOF 0
ENDMDL
