MODEL 1
REMARK minimizedAffinity 8.93720913
REMARK minimizedRMSD -1
REMARK  0 active torsions:
REMARK  status: ('A' for Active; 'I' for Inactive)
ROOT
ATOM      1  C   UNL d   1       2.998  -5.117   1.975  0.00  0.00    -0.002 A 
ATOM      2  C1  UNL d   1       3.520  -4.170   1.107  0.00  0.00     0.010 A 
ATOM      3  C2  UNL d   1       2.848  -2.968   0.879  0.00  0.00     0.041 A 
ATOM      4  C3  UNL d   1       1.630  -2.731   1.547  0.00  0.00    -0.075 A 
ATOM      5  S   UNL d   1       0.632  -1.330   1.423  0.00  0.00     0.015 SA
ATOM      6  C4  UNL d   1      -0.511  -1.956   2.521  0.00  0.00     0.022 A 
ATOM      7  C5  UNL d   1      -0.156  -3.203   2.980  0.00  0.00     0.026 A 
ATOM      8  C6  UNL d   1       1.084  -3.669   2.427  0.00  0.00    -0.082 A 
ATOM      9  C7  UNL d   1       1.789  -4.879   2.636  0.00  0.00     0.045 A 
ENDROOT
TORSDOF 0
ENDMDL
