MODEL 1
REMARK minimizedAffinity 19.0152206
REMARK minimizedRMSD -1
REMARK  0 active torsions:
REMARK  status: ('A' for Active; 'I' for Inactive)
ROOT
ATOM      1  C   UNL d   1      -5.228  -2.285  -3.989  0.00  0.00    -0.002 A 
ATOM      2  C1  UNL d   1      -5.768  -1.017  -4.148  0.00  0.00     0.010 A 
ATOM      3  C2  UNL d   1      -5.258   0.068  -3.433  0.00  0.00     0.041 A 
ATOM      4  C3  UNL d   1      -4.183  -0.145  -2.547  0.00  0.00    -0.075 A 
ATOM      5  S   UNL d   1      -3.395   1.034  -1.566  0.00  0.00     0.015 SA
ATOM      6  C4  UNL d   1      -2.321  -0.118  -0.914  0.00  0.00     0.022 A 
ATOM      7  C5  UNL d   1      -2.545  -1.377  -1.420  0.00  0.00     0.026 A 
ATOM      8  C6  UNL d   1      -3.621  -1.413  -2.370  0.00  0.00    -0.082 A 
ATOM      9  C7  UNL d   1      -4.162  -2.492  -3.109  0.00  0.00     0.045 A 
ENDROOT
TORSDOF 0
ENDMDL
