MODEL 1
REMARK minimizedAffinity -1.5957104
REMARK minimizedRMSD -1
REMARK  0 active torsions:
REMARK  status: ('A' for Active; 'I' for Inactive)
ROOT
ATOM      1  C   UNL d   1       1.110  -0.399   0.982  0.00  0.00     0.023 A 
ATOM      2  C1  UNL d   1       0.083  -1.328   0.806  0.00  0.00     0.003 A 
ATOM      3  C2  UNL d   1      -1.020  -1.008   0.012  0.00  0.00     0.048 A 
ATOM      4  C3  UNL d   1      -1.090   0.241  -0.604  0.00  0.00     0.023 A 
ATOM      5  C4  UNL d   1      -0.065   1.173  -0.431  0.00  0.00     0.048 A 
ATOM      6  C5  UNL d   1       1.035   0.849   0.364  0.00  0.00     0.003 A 
ATOM      7  I   UNL d   1      -2.732   0.719  -1.786  0.00  0.00    -0.146 I 
ENDROOT
TORSDOF 0
ENDMDL
