MODEL 1
REMARK minimizedAffinity 2.59722638
REMARK minimizedRMSD -1
REMARK  0 active torsions:
REMARK  status: ('A' for Active; 'I' for Inactive)
ROOT
ATOM      1  C   UNL d   1       1.378   0.671  -0.376  0.00  0.00     0.023 A 
ATOM      2  C1  UNL d   1       0.234   0.742   0.420  0.00  0.00     0.003 A 
ATOM      3  C2  UNL d   1      -0.273   1.984   0.807  0.00  0.00     0.048 A 
ATOM      4  C3  UNL d   1       0.367   3.151   0.394  0.00  0.00     0.023 A 
ATOM      5  C4  UNL d   1       1.512   3.086  -0.403  0.00  0.00     0.048 A 
ATOM      6  C5  UNL d   1       2.016   1.841  -0.786  0.00  0.00     0.003 A 
ATOM      7  I   UNL d   1      -0.386   5.001   0.968  0.00  0.00    -0.146 I 
ENDROOT
TORSDOF 0
ENDMDL
