MODEL 1
REMARK minimizedAffinity -3.3966682
REMARK minimizedRMSD -1
REMARK  0 active torsions:
REMARK  status: ('A' for Active; 'I' for Inactive)
ROOT
ATOM      1  C   UNL d   1       1.396   2.055  -0.120  0.00  0.00     0.023 A 
ATOM      2  C1  UNL d   1       0.027   1.797  -0.190  0.00  0.00     0.003 A 
ATOM      3  C2  UNL d   1      -0.470   0.546   0.182  0.00  0.00     0.048 A 
ATOM      4  C3  UNL d   1       0.409  -0.442   0.625  0.00  0.00     0.023 A 
ATOM      5  C4  UNL d   1       1.779  -0.189   0.698  0.00  0.00     0.048 A 
ATOM      6  C5  UNL d   1       2.271   1.063   0.323  0.00  0.00     0.003 A 
ATOM      7  I   UNL d   1      -0.328  -2.305   1.180  0.00  0.00    -0.146 I 
ENDROOT
TORSDOF 0
ENDMDL
