MODEL 1
REMARK minimizedAffinity -3.62145305
REMARK minimizedRMSD -1
REMARK  0 active torsions:
REMARK  status: ('A' for Active; 'I' for Inactive)
ROOT
ATOM      1  C   UNL d   1      -1.708  -0.688   0.230  0.00  0.00     0.023 A 
ATOM      2  C1  UNL d   1      -0.911  -1.685   0.793  0.00  0.00     0.003 A 
ATOM      3  C2  UNL d   1       0.456  -1.468   0.974  0.00  0.00     0.048 A 
ATOM      4  C3  UNL d   1       1.020  -0.252   0.591  0.00  0.00     0.023 A 
ATOM      5  C4  UNL d   1       0.227   0.749   0.028  0.00  0.00     0.048 A 
ATOM      6  C5  UNL d   1      -1.140   0.527  -0.152  0.00  0.00     0.003 A 
ATOM      7  I   UNL d   1       3.055   0.073   0.860  0.00  0.00    -0.146 I 
ENDROOT
TORSDOF 0
ENDMDL
