MODEL 1
REMARK minimizedAffinity -1.56725872
REMARK minimizedRMSD -1
REMARK  0 active torsions:
REMARK  status: ('A' for Active; 'I' for Inactive)
ROOT
ATOM      1  C   UNL d   1       3.016  -0.943   0.844  0.00  0.00     0.023 A 
ATOM      2  C1  UNL d   1       3.116   0.370   0.386  0.00  0.00     0.003 A 
ATOM      3  C2  UNL d   1       1.962   1.123   0.161  0.00  0.00     0.048 A 
ATOM      4  C3  UNL d   1       0.710   0.556   0.397  0.00  0.00     0.023 A 
ATOM      5  C4  UNL d   1       0.604  -0.758   0.856  0.00  0.00     0.048 A 
ATOM      6  C5  UNL d   1       1.761  -1.507   1.079  0.00  0.00     0.003 A 
ATOM      7  I   UNL d   1      -1.010   1.674   0.063  0.00  0.00    -0.146 I 
ENDROOT
TORSDOF 0
ENDMDL
