MODEL 1
REMARK minimizedAffinity -3.3927629
REMARK minimizedRMSD -1
REMARK  0 active torsions:
REMARK  status: ('A' for Active; 'I' for Inactive)
ROOT
ATOM      1  C   UNL d   1       2.987  -1.714   2.187  0.00  0.00     0.023 A 
ATOM      2  C1  UNL d   1       1.709  -2.263   2.084  0.00  0.00     0.003 A 
ATOM      3  C2  UNL d   1       0.731  -1.622   1.321  0.00  0.00     0.048 A 
ATOM      4  C3  UNL d   1       1.039  -0.432   0.663  0.00  0.00     0.023 A 
ATOM      5  C4  UNL d   1       2.316   0.121   0.762  0.00  0.00     0.048 A 
ATOM      6  C5  UNL d   1       3.290  -0.523   1.527  0.00  0.00     0.003 A 
ATOM      7  I   UNL d   1      -0.415   0.525  -0.474  0.00  0.00    -0.146 I 
ENDROOT
TORSDOF 0
ENDMDL
