MODEL 1
REMARK minimizedAffinity -1.5848105
REMARK minimizedRMSD -1
REMARK  1 active torsions:
REMARK  status: ('A' for Active; 'I' for Inactive)
REMARK    1  A    between atoms: N_2  and  C1_3 
ROOT
ATOM      1  C1  UNL d   1      -0.639   1.156  -0.996  0.00  0.00     0.143 A 
ATOM      2  C2  UNL d   1      -0.529   1.972  -2.127  0.00  0.00    -0.057 A 
ATOM      3  C3  UNL d   1      -1.531   1.998  -3.104  0.00  0.00     0.033 A 
ATOM      4  C4  UNL d   1      -2.651   1.182  -2.982  0.00  0.00    -0.042 A 
ATOM      5  C5  UNL d   1      -2.770   0.344  -1.879  0.00  0.00     0.033 A 
ATOM      6  C6  UNL d   1      -1.769   0.329  -0.903  0.00  0.00    -0.057 A 
ENDROOT
BRANCH   1   7
ATOM      7  N   UNL d   1       0.369   1.013  -0.039  0.00  0.00    -0.732 N 
ATOM      8  C   UNL d   1       1.443   0.064  -0.235  0.00  0.00     0.284 C 
ATOM      9  H3  UNL d   1       0.668   1.906   0.346  0.00  0.00     0.395 HD
ENDBRANCH   1   7
TORSDOF 1
ENDMDL
