MODEL 1
REMARK minimizedAffinity -3.6615746
REMARK minimizedRMSD -1
REMARK  1 active torsions:
REMARK  status: ('A' for Active; 'I' for Inactive)
REMARK    1  A    between atoms: N_2  and  C1_3 
ROOT
ATOM      1  C1  UNL d   1      -0.505   0.070  -1.079  0.00  0.00     0.143 A 
ATOM      2  C2  UNL d   1      -0.389  -0.140   0.299  0.00  0.00    -0.057 A 
ATOM      3  C3  UNL d   1       0.816  -0.569   0.869  0.00  0.00     0.033 A 
ATOM      4  C4  UNL d   1       1.921  -0.825   0.065  0.00  0.00    -0.042 A 
ATOM      5  C5  UNL d   1       1.821  -0.648  -1.311  0.00  0.00     0.033 A 
ATOM      6  C6  UNL d   1       0.618  -0.213  -1.874  0.00  0.00    -0.057 A 
ENDROOT
BRANCH   1   7
ATOM      7  N   UNL d   1      -1.703   0.401  -1.718  0.00  0.00    -0.732 N 
ATOM      8  C   UNL d   1      -2.296   1.708  -1.539  0.00  0.00     0.284 C 
ATOM      9  H3  UNL d   1      -1.743   0.052  -2.673  0.00  0.00     0.395 HD
ENDBRANCH   1   7
TORSDOF 1
ENDMDL
