MODEL 1
REMARK minimizedAffinity -3.16793656
REMARK minimizedRMSD -1
REMARK  1 active torsions:
REMARK  status: ('A' for Active; 'I' for Inactive)
REMARK    1  A    between atoms: N_2  and  C1_3 
ROOT
ATOM      1  C1  UNL d   1       0.121  -0.548   1.372  0.00  0.00     0.143 A 
ATOM      2  C2  UNL d   1       0.536  -0.229   0.074  0.00  0.00    -0.057 A 
ATOM      3  C3  UNL d   1       1.744  -0.713  -0.441  0.00  0.00     0.033 A 
ATOM      4  C4  UNL d   1       2.575  -1.504   0.345  0.00  0.00    -0.042 A 
ATOM      5  C5  UNL d   1       2.195  -1.814   1.645  0.00  0.00     0.033 A 
ATOM      6  C6  UNL d   1       0.984  -1.333   2.152  0.00  0.00    -0.057 A 
ENDROOT
BRANCH   1   7
ATOM      7  N   UNL d   1      -1.022  -0.018   1.976  0.00  0.00    -0.732 N 
ATOM      8  C   UNL d   1      -1.601   1.219   1.498  0.00  0.00     0.284 C 
ATOM      9  H3  UNL d   1      -1.706  -0.734   2.210  0.00  0.00     0.395 HD
ENDBRANCH   1   7
TORSDOF 1
ENDMDL
