MODEL 1
REMARK minimizedAffinity -2.50495958
REMARK minimizedRMSD -1
REMARK  1 active torsions:
REMARK  status: ('A' for Active; 'I' for Inactive)
REMARK    1  A    between atoms: N_2  and  C1_3 
ROOT
ATOM      1  C1  UNL d   1       0.670  -0.924   0.936  0.00  0.00     0.143 A 
ATOM      2  C2  UNL d   1      -0.390  -0.964   1.848  0.00  0.00    -0.057 A 
ATOM      3  C3  UNL d   1      -1.494  -0.111   1.717  0.00  0.00     0.033 A 
ATOM      4  C4  UNL d   1      -1.542   0.819   0.684  0.00  0.00    -0.042 A 
ATOM      5  C5  UNL d   1      -0.488   0.893  -0.220  0.00  0.00     0.033 A 
ATOM      6  C6  UNL d   1       0.607   0.034  -0.087  0.00  0.00    -0.057 A 
ENDROOT
BRANCH   1   7
ATOM      7  N   UNL d   1       1.839  -1.677   1.070  0.00  0.00    -0.732 N 
ATOM      8  C   UNL d   1       3.096  -1.036   1.392  0.00  0.00     0.284 C 
ATOM      9  H3  UNL d   1       1.682  -2.555   1.560  0.00  0.00     0.395 HD
ENDBRANCH   1   7
TORSDOF 1
ENDMDL
