MODEL 1
REMARK minimizedAffinity -4.02859354
REMARK minimizedRMSD -1
REMARK  1 active torsions:
REMARK  status: ('A' for Active; 'I' for Inactive)
REMARK    1  A    between atoms: N_2  and  C1_3 
ROOT
ATOM      1  C1  UNL d   1      -0.745   0.840  -0.814  0.00  0.00     0.143 A 
ATOM      2  C2  UNL d   1      -0.844   2.235  -0.829  0.00  0.00    -0.057 A 
ATOM      3  C3  UNL d   1      -1.668   2.895  -1.748  0.00  0.00     0.033 A 
ATOM      4  C4  UNL d   1      -2.389   2.170  -2.691  0.00  0.00    -0.042 A 
ATOM      5  C5  UNL d   1      -2.287   0.783  -2.712  0.00  0.00     0.033 A 
ATOM      6  C6  UNL d   1      -1.467   0.130  -1.787  0.00  0.00    -0.057 A 
ENDROOT
BRANCH   1   7
ATOM      7  N   UNL d   1       0.132   0.130   0.009  0.00  0.00    -0.732 N 
ATOM      8  C   UNL d   1       1.282  -0.548  -0.549  0.00  0.00     0.284 C 
ATOM      9  H3  UNL d   1       0.320   0.614   0.885  0.00  0.00     0.395 HD
ENDBRANCH   1   7
TORSDOF 1
ENDMDL
