MODEL 1
REMARK minimizedAffinity -4.17074633
REMARK minimizedRMSD -1
REMARK  1 active torsions:
REMARK  status: ('A' for Active; 'I' for Inactive)
REMARK    1  A    between atoms: N_2  and  C1_3 
ROOT
ATOM      1  C1  UNL d   1       0.111   0.212  -0.037  0.00  0.00     0.143 A 
ATOM      2  C2  UNL d   1       0.096  -0.936   0.762  0.00  0.00    -0.057 A 
ATOM      3  C3  UNL d   1       1.261  -1.679   0.988  0.00  0.00     0.033 A 
ATOM      4  C4  UNL d   1       2.460  -1.302   0.392  0.00  0.00    -0.042 A 
ATOM      5  C5  UNL d   1       2.493  -0.179  -0.427  0.00  0.00     0.033 A 
ATOM      6  C6  UNL d   1       1.328   0.563  -0.643  0.00  0.00    -0.057 A 
ENDROOT
BRANCH   1   7
ATOM      7  N   UNL d   1      -1.033   0.937  -0.379  0.00  0.00    -0.732 N 
ATOM      8  C   UNL d   1      -1.313   1.264  -1.761  0.00  0.00     0.284 C 
ATOM      9  H3  UNL d   1      -1.850   0.647   0.153  0.00  0.00     0.395 HD
ENDBRANCH   1   7
TORSDOF 1
ENDMDL
