MODEL 1
REMARK minimizedAffinity 8.76484966
REMARK minimizedRMSD -1
REMARK  1 active torsions:
REMARK  status: ('A' for Active; 'I' for Inactive)
REMARK    1  A    between atoms: N_2  and  C1_3 
ROOT
ATOM      1  C1  UNL d   1       1.837   0.203   0.018  0.00  0.00     0.143 A 
ATOM      2  C2  UNL d   1       1.462   0.123  -1.327  0.00  0.00    -0.057 A 
ATOM      3  C3  UNL d   1       0.187   0.520  -1.749  0.00  0.00     0.033 A 
ATOM      4  C4  UNL d   1      -0.747   0.977  -0.826  0.00  0.00    -0.042 A 
ATOM      5  C5  UNL d   1      -0.404   1.041   0.520  0.00  0.00     0.033 A 
ATOM      6  C6  UNL d   1       0.873   0.650   0.935  0.00  0.00    -0.057 A 
ENDROOT
BRANCH   1   7
ATOM      7  N   UNL d   1       3.055  -0.268   0.515  0.00  0.00    -0.732 N 
ATOM      8  C   UNL d   1       3.089  -1.319   1.509  0.00  0.00     0.284 C 
ATOM      9  H3  UNL d   1       3.761  -0.360  -0.212  0.00  0.00     0.395 HD
ENDBRANCH   1   7
TORSDOF 1
ENDMDL
