MODEL 1
REMARK minimizedAffinity -2.2485261
REMARK minimizedRMSD -1
REMARK  1 active torsions:
REMARK  status: ('A' for Active; 'I' for Inactive)
REMARK    1  A    between atoms: N_2  and  C1_3 
ROOT
ATOM      1  C1  UNL d   1      -1.343   0.757   0.098  0.00  0.00     0.143 A 
ATOM      2  C2  UNL d   1      -1.799   0.348   1.356  0.00  0.00    -0.057 A 
ATOM      3  C3  UNL d   1      -3.076  -0.204   1.521  0.00  0.00     0.033 A 
ATOM      4  C4  UNL d   1      -3.932  -0.330   0.432  0.00  0.00    -0.042 A 
ATOM      5  C5  UNL d   1      -3.509   0.093  -0.823  0.00  0.00     0.033 A 
ATOM      6  C6  UNL d   1      -2.231   0.637  -0.983  0.00  0.00    -0.057 A 
ENDROOT
BRANCH   1   7
ATOM      7  N   UNL d   1      -0.123   1.403  -0.114  0.00  0.00    -0.732 N 
ATOM      8  C   UNL d   1       1.116   0.656  -0.114  0.00  0.00     0.284 C 
ATOM      9  H3  UNL d   1      -0.181   2.113  -0.841  0.00  0.00     0.395 HD
ENDBRANCH   1   7
TORSDOF 1
ENDMDL
