MODEL 1
REMARK minimizedAffinity 1.24318266
REMARK minimizedRMSD -1
REMARK  0 active torsions:
REMARK  status: ('A' for Active; 'I' for Inactive)
ROOT
ATOM      1  C1  BNZ d   1       3.643  -2.309   5.840  0.00  0.00     0.000 A 
ATOM      2  C2  BNZ d   1       3.648  -3.678   5.819  0.00  0.00     0.000 A 
ATOM      3  C3  BNZ d   1       4.820  -4.375   5.913  0.00  0.00     0.000 A 
ATOM      4  C4  BNZ d   1       5.987  -3.704   5.987  0.00  0.00     0.000 A 
ATOM      5  C5  BNZ d   1       5.999  -2.323   6.000  0.00  0.00     0.000 A 
ATOM      6  C6  BNZ d   1       4.815  -1.625   5.944  0.00  0.00     0.000 A 
ENDROOT
TORSDOF 0
ENDMDL
