MODEL 1
REMARK minimizedAffinity 5.81135082
REMARK minimizedRMSD -1
REMARK  0 active torsions:
REMARK  status: ('A' for Active; 'I' for Inactive)
ROOT
ATOM      1  C1  BNZ d   1       0.634   3.822   1.195  0.00  0.00     0.000 A 
ATOM      2  C2  BNZ d   1      -0.474   3.018   1.150  0.00  0.00     0.000 A 
ATOM      3  C3  BNZ d   1      -1.665   3.494   0.677  0.00  0.00     0.000 A 
ATOM      4  C4  BNZ d   1      -1.757   4.783   0.289  0.00  0.00     0.000 A 
ATOM      5  C5  BNZ d   1      -0.651   5.608   0.338  0.00  0.00     0.000 A 
ATOM      6  C6  BNZ d   1       0.556   5.115   0.778  0.00  0.00     0.000 A 
ENDROOT
TORSDOF 0
ENDMDL
