MODEL 1
REMARK minimizedAffinity 0.504808605
REMARK minimizedRMSD -1
REMARK  0 active torsions:
REMARK  status: ('A' for Active; 'I' for Inactive)
ROOT
ATOM      1  C1  BNZ d   1      -2.555  -1.635   5.973  0.00  0.00     0.000 A 
ATOM      2  C2  BNZ d   1      -3.774  -1.012   5.999  0.00  0.00     0.000 A 
ATOM      3  C3  BNZ d   1      -3.865   0.352   5.993  0.00  0.00     0.000 A 
ATOM      4  C4  BNZ d   1      -2.736   1.091   6.000  0.00  0.00     0.000 A 
ATOM      5  C5  BNZ d   1      -1.499   0.478   5.983  0.00  0.00     0.000 A 
ATOM      6  C6  BNZ d   1      -1.413  -0.895   5.950  0.00  0.00     0.000 A 
ENDROOT
TORSDOF 0
ENDMDL
