MODEL 1
REMARK minimizedAffinity 5.44136763
REMARK minimizedRMSD -1
REMARK  0 active torsions:
REMARK  status: ('A' for Active; 'I' for Inactive)
ROOT
ATOM      1  C1  BNZ d   1      -0.346  -3.472  -1.026  0.00  0.00     0.000 A 
ATOM      2  C2  BNZ d   1      -0.318  -3.952   0.256  0.00  0.00     0.000 A 
ATOM      3  C3  BNZ d   1      -0.834  -3.220   1.289  0.00  0.00     0.000 A 
ATOM      4  C4  BNZ d   1      -1.340  -1.994   1.045  0.00  0.00     0.000 A 
ATOM      5  C5  BNZ d   1      -1.366  -1.492  -0.241  0.00  0.00     0.000 A 
ATOM      6  C6  BNZ d   1      -0.882  -2.247  -1.284  0.00  0.00     0.000 A 
ENDROOT
TORSDOF 0
ENDMDL
