MODEL 1
REMARK minimizedAffinity 5.21891212
REMARK minimizedRMSD -1
REMARK  0 active torsions:
REMARK  status: ('A' for Active; 'I' for Inactive)
ROOT
ATOM      1  C1  BNZ d   1       6.000   4.804  -2.991  0.00  0.00     0.000 A 
ATOM      2  C2  BNZ d   1       5.964   5.917  -2.194  0.00  0.00     0.000 A 
ATOM      3  C3  BNZ d   1       5.090   6.000  -1.146  0.00  0.00     0.000 A 
ATOM      4  C4  BNZ d   1       4.227   4.988  -0.922  0.00  0.00     0.000 A 
ATOM      5  C5  BNZ d   1       4.244   3.864  -1.722  0.00  0.00     0.000 A 
ATOM      6  C6  BNZ d   1       5.152   3.767  -2.752  0.00  0.00     0.000 A 
ENDROOT
TORSDOF 0
ENDMDL
