MODEL 1
REMARK minimizedAffinity 3.86811328
REMARK minimizedRMSD -1
REMARK  0 active torsions:
REMARK  status: ('A' for Active; 'I' for Inactive)
ROOT
ATOM      1  C1  BNZ d   1      -3.642   5.152   0.798  0.00  0.00     0.000 A 
ATOM      2  C2  BNZ d   1      -2.844   4.076   1.081  0.00  0.00     0.000 A 
ATOM      3  C3  BNZ d   1      -3.185   2.821   0.659  0.00  0.00     0.000 A 
ATOM      4  C4  BNZ d   1      -4.342   2.638  -0.010  0.00  0.00     0.000 A 
ATOM      5  C5  BNZ d   1      -5.162   3.712  -0.295  0.00  0.00     0.000 A 
ATOM      6  C6  BNZ d   1      -4.796   4.979   0.098  0.00  0.00     0.000 A 
ENDROOT
TORSDOF 0
ENDMDL
