MODEL 1
REMARK minimizedAffinity 2.10538363
REMARK minimizedRMSD -1
REMARK  0 active torsions:
REMARK  status: ('A' for Active; 'I' for Inactive)
ROOT
ATOM      1  C1  BNZ d   1      -1.016  -2.439  -1.896  0.00  0.00     0.000 A 
ATOM      2  C2  BNZ d   1      -1.928  -1.967  -0.991  0.00  0.00     0.000 A 
ATOM      3  C3  BNZ d   1      -1.742  -2.151   0.351  0.00  0.00     0.000 A 
ATOM      4  C4  BNZ d   1      -0.667  -2.841   0.783  0.00  0.00     0.000 A 
ATOM      5  C5  BNZ d   1       0.257  -3.331  -0.118  0.00  0.00     0.000 A 
ATOM      6  C6  BNZ d   1       0.087  -3.110  -1.465  0.00  0.00     0.000 A 
ENDROOT
TORSDOF 0
ENDMDL
