MODEL 1
REMARK minimizedAffinity 2.4073112
REMARK minimizedRMSD -1
REMARK  0 active torsions:
REMARK  status: ('A' for Active; 'I' for Inactive)
ROOT
ATOM      1  C1  BNZ d   1       0.014  -2.424  -2.560  0.00  0.00     0.000 A 
ATOM      2  C2  BNZ d   1       0.503  -2.315  -1.286  0.00  0.00     0.000 A 
ATOM      3  C3  BNZ d   1      -0.323  -2.452  -0.205  0.00  0.00     0.000 A 
ATOM      4  C4  BNZ d   1      -1.642  -2.656  -0.400  0.00  0.00     0.000 A 
ATOM      5  C5  BNZ d   1      -2.151  -2.759  -1.680  0.00  0.00     0.000 A 
ATOM      6  C6  BNZ d   1      -1.311  -2.660  -2.764  0.00  0.00     0.000 A 
ENDROOT
TORSDOF 0
ENDMDL
