MODEL 1
REMARK minimizedAffinity 0.0810080096
REMARK minimizedRMSD -1
REMARK  0 active torsions:
REMARK  status: ('A' for Active; 'I' for Inactive)
ROOT
ATOM      1  C1  BNZ d   1       0.107  -5.163  -6.000  0.00  0.00     0.000 A 
ATOM      2  C2  BNZ d   1      -0.984  -5.990  -5.997  0.00  0.00     0.000 A 
ATOM      3  C3  BNZ d   1      -2.093  -5.683  -5.261  0.00  0.00     0.000 A 
ATOM      4  C4  BNZ d   1      -2.095  -4.572  -4.497  0.00  0.00     0.000 A 
ATOM      5  C5  BNZ d   1      -1.000  -3.732  -4.482  0.00  0.00     0.000 A 
ATOM      6  C6  BNZ d   1       0.101  -4.024  -5.255  0.00  0.00     0.000 A 
ENDROOT
TORSDOF 0
ENDMDL
