MODEL 1
REMARK minimizedAffinity 2.90019464
REMARK minimizedRMSD -1
REMARK  0 active torsions:
REMARK  status: ('A' for Active; 'I' for Inactive)
ROOT
ATOM      1  C1  BNZ d   1      -0.573  -2.581  -3.119  0.00  0.00     0.000 A 
ATOM      2  C2  BNZ d   1       0.183  -2.210  -2.039  0.00  0.00     0.000 A 
ATOM      3  C3  BNZ d   1      -0.390  -2.037  -0.810  0.00  0.00     0.000 A 
ATOM      4  C4  BNZ d   1      -1.722  -2.197  -0.671  0.00  0.00     0.000 A 
ATOM      5  C5  BNZ d   1      -2.499  -2.562  -1.753  0.00  0.00     0.000 A 
ATOM      6  C6  BNZ d   1      -1.913  -2.772  -2.980  0.00  0.00     0.000 A 
ENDROOT
TORSDOF 0
ENDMDL
