MODEL 1
REMARK minimizedAffinity 7.19434547
REMARK minimizedRMSD -1
REMARK  0 active torsions:
REMARK  status: ('A' for Active; 'I' for Inactive)
ROOT
ATOM      1  C1  BNZ d   1      -2.059  -2.576  -2.326  0.00  0.00     0.000 A 
ATOM      2  C2  BNZ d   1      -1.655  -2.266  -1.055  0.00  0.00     0.000 A 
ATOM      3  C3  BNZ d   1      -0.352  -2.433  -0.674  0.00  0.00     0.000 A 
ATOM      4  C4  BNZ d   1       0.534  -2.947  -1.552  0.00  0.00     0.000 A 
ATOM      5  C5  BNZ d   1       0.139  -3.272  -2.834  0.00  0.00     0.000 A 
ATOM      6  C6  BNZ d   1      -1.164  -3.067  -3.225  0.00  0.00     0.000 A 
ENDROOT
TORSDOF 0
ENDMDL
