MODEL 1
REMARK minimizedAffinity 11.7290344
REMARK minimizedRMSD -1
REMARK  0 active torsions:
REMARK  status: ('A' for Active; 'I' for Inactive)
ROOT
ATOM      1  C1  BNZ d   1      -0.862  -1.258  -0.112  0.00  0.00     0.000 A 
ATOM      2  C2  BNZ d   1      -0.915  -1.252  -1.480  0.00  0.00     0.000 A 
ATOM      3  C3  BNZ d   1      -0.480  -2.328  -2.202  0.00  0.00     0.000 A 
ATOM      4  C4  BNZ d   1       0.044  -3.391  -1.557  0.00  0.00     0.000 A 
ATOM      5  C5  BNZ d   1       0.113  -3.408  -0.178  0.00  0.00     0.000 A 
ATOM      6  C6  BNZ d   1      -0.362  -2.339   0.547  0.00  0.00     0.000 A 
ENDROOT
TORSDOF 0
ENDMDL
