MODEL 1
REMARK minimizedAffinity 4.57247782
REMARK minimizedRMSD -1
REMARK  0 active torsions:
REMARK  status: ('A' for Active; 'I' for Inactive)
ROOT
ATOM      1  C1  BNZ d   1      -4.702   1.453   5.993  0.00  0.00     0.000 A 
ATOM      2  C2  BNZ d   1      -4.564   0.091   5.997  0.00  0.00     0.000 A 
ATOM      3  C3  BNZ d   1      -3.361  -0.492   5.709  0.00  0.00     0.000 A 
ATOM      4  C4  BNZ d   1      -2.310   0.286   5.380  0.00  0.00     0.000 A 
ATOM      5  C5  BNZ d   1      -2.436   1.661   5.363  0.00  0.00     0.000 A 
ATOM      6  C6  BNZ d   1      -3.638   2.245   5.691  0.00  0.00     0.000 A 
ENDROOT
TORSDOF 0
ENDMDL
