MODEL 1
REMARK minimizedAffinity 9.64805508
REMARK minimizedRMSD -1
REMARK  0 active torsions:
REMARK  status: ('A' for Active; 'I' for Inactive)
ROOT
ATOM      1  C1  BNZ d   1       0.329  -2.755  -0.668  0.00  0.00     0.000 A 
ATOM      2  C2  BNZ d   1       0.165  -3.142  -1.971  0.00  0.00     0.000 A 
ATOM      3  C3  BNZ d   1      -0.975  -2.828  -2.656  0.00  0.00     0.000 A 
ATOM      4  C4  BNZ d   1      -1.966  -2.164  -2.026  0.00  0.00     0.000 A 
ATOM      5  C5  BNZ d   1      -1.820  -1.776  -0.709  0.00  0.00     0.000 A 
ATOM      6  C6  BNZ d   1      -0.654  -2.059  -0.035  0.00  0.00     0.000 A 
ENDROOT
TORSDOF 0
ENDMDL
