MODEL 1
REMARK minimizedAffinity 2.81565166
REMARK minimizedRMSD -1
REMARK  0 active torsions:
REMARK  status: ('A' for Active; 'I' for Inactive)
ROOT
ATOM      1  C1  BNZ d   1       0.223  -2.623  -3.109  0.00  0.00     0.000 A 
ATOM      2  C2  BNZ d   1       0.751  -2.704  -1.848  0.00  0.00     0.000 A 
ATOM      3  C3  BNZ d   1      -0.003  -2.391  -0.752  0.00  0.00     0.000 A 
ATOM      4  C4  BNZ d   1      -1.269  -1.959  -0.919  0.00  0.00     0.000 A 
ATOM      5  C5  BNZ d   1      -1.813  -1.863  -2.185  0.00  0.00     0.000 A 
ATOM      6  C6  BNZ d   1      -1.064  -2.216  -3.283  0.00  0.00     0.000 A 
ENDROOT
TORSDOF 0
ENDMDL
