MODEL 1
REMARK minimizedAffinity -5.6080904
REMARK minimizedRMSD -1
REMARK  0 active torsions:
REMARK  status: ('A' for Active; 'I' for Inactive)
ROOT
ATOM      1  C   UNL d   1       0.343   1.068  -0.645  0.00  0.00     0.077 C 
ATOM      2  C1  UNL d   1      -0.077  -0.329  -0.295  0.00  0.00    -0.074 A 
ATOM      3  C2  UNL d   1       0.291  -1.412  -1.099  0.00  0.00    -0.005 A 
ATOM      4  C3  UNL d   1      -0.098  -2.707  -0.756  0.00  0.00     0.006 A 
ATOM      5  C4  UNL d   1      -0.858  -2.931   0.393  0.00  0.00    -0.005 A 
ATOM      6  C5  UNL d   1      -1.234  -1.860   1.209  0.00  0.00    -0.074 A 
ATOM      7  C6  UNL d   1      -2.042  -2.085   2.453  0.00  0.00     0.077 C 
ATOM      8  C7  UNL d   1      -0.833  -0.563   0.862  0.00  0.00    -0.001 A 
ENDROOT
TORSDOF 0
ENDMDL
