MODEL 1
REMARK minimizedAffinity -6.06205893
REMARK minimizedRMSD -1
REMARK  0 active torsions:
REMARK  status: ('A' for Active; 'I' for Inactive)
ROOT
ATOM      1  C   UNL d   1      -0.017   1.310   0.120  0.00  0.00     0.077 C 
ATOM      2  C1  UNL d   1       0.078   0.048  -0.685  0.00  0.00    -0.074 A 
ATOM      3  C2  UNL d   1       0.264   0.091  -2.071  0.00  0.00    -0.005 A 
ATOM      4  C3  UNL d   1       0.360  -1.091  -2.805  0.00  0.00     0.006 A 
ATOM      5  C4  UNL d   1       0.271  -2.326  -2.162  0.00  0.00    -0.005 A 
ATOM      6  C5  UNL d   1       0.086  -2.389  -0.778  0.00  0.00    -0.074 A 
ATOM      7  C6  UNL d   1      -0.001  -3.709  -0.070  0.00  0.00     0.077 C 
ATOM      8  C7  UNL d   1      -0.002  -1.197  -0.046  0.00  0.00    -0.001 A 
ENDROOT
TORSDOF 0
ENDMDL
