MODEL 1
REMARK minimizedAffinity -4.01354599
REMARK minimizedRMSD -1
REMARK  0 active torsions:
REMARK  status: ('A' for Active; 'I' for Inactive)
ROOT
ATOM      1  C   UNL d   1       0.050  -2.256  -2.994  0.00  0.00     0.077 C 
ATOM      2  C1  UNL d   1      -0.194  -1.700  -1.623  0.00  0.00    -0.074 A 
ATOM      3  C2  UNL d   1      -0.790  -2.479  -0.626  0.00  0.00    -0.005 A 
ATOM      4  C3  UNL d   1      -1.002  -1.951   0.647  0.00  0.00     0.006 A 
ATOM      5  C4  UNL d   1      -0.621  -0.640   0.937  0.00  0.00    -0.005 A 
ATOM      6  C5  UNL d   1      -0.023   0.154  -0.047  0.00  0.00    -0.074 A 
ATOM      7  C6  UNL d   1       0.402   1.561   0.250  0.00  0.00     0.077 C 
ATOM      8  C7  UNL d   1       0.193  -0.386  -1.322  0.00  0.00    -0.001 A 
ENDROOT
TORSDOF 0
ENDMDL
