MODEL 1
REMARK minimizedAffinity -4.32606554
REMARK minimizedRMSD -1
REMARK  0 active torsions:
REMARK  status: ('A' for Active; 'I' for Inactive)
ROOT
ATOM      1  C   UNL d   1      -1.085  -1.486   1.839  0.00  0.00     0.077 C 
ATOM      2  C1  UNL d   1      -0.370  -0.338   1.190  0.00  0.00    -0.074 A 
ATOM      3  C2  UNL d   1      -0.929   0.331   0.097  0.00  0.00    -0.005 A 
ATOM      4  C3  UNL d   1      -0.257   1.402  -0.491  0.00  0.00     0.006 A 
ATOM      5  C4  UNL d   1       0.979   1.815   0.008  0.00  0.00    -0.005 A 
ATOM      6  C5  UNL d   1       1.554   1.159   1.101  0.00  0.00    -0.074 A 
ATOM      7  C6  UNL d   1       2.877   1.596   1.656  0.00  0.00     0.077 C 
ATOM      8  C7  UNL d   1       0.869   0.087   1.690  0.00  0.00    -0.001 A 
ENDROOT
TORSDOF 0
ENDMDL
