MODEL 1
REMARK minimizedAffinity -4.41647863
REMARK minimizedRMSD -1
REMARK  0 active torsions:
REMARK  status: ('A' for Active; 'I' for Inactive)
ROOT
ATOM      1  C   UNL d   1       0.182   1.272   0.690  0.00  0.00     0.077 C 
ATOM      2  C1  UNL d   1      -0.017  -0.165   0.312  0.00  0.00    -0.074 A 
ATOM      3  C2  UNL d   1      -0.795  -1.016   1.105  0.00  0.00    -0.005 A 
ATOM      4  C3  UNL d   1      -0.979  -2.348   0.736  0.00  0.00     0.006 A 
ATOM      5  C4  UNL d   1      -0.389  -2.843  -0.428  0.00  0.00    -0.005 A 
ATOM      6  C5  UNL d   1       0.391  -2.007  -1.234  0.00  0.00    -0.074 A 
ATOM      7  C6  UNL d   1       1.025  -2.521  -2.493  0.00  0.00     0.077 C 
ATOM      8  C7  UNL d   1       0.566  -0.668  -0.860  0.00  0.00    -0.001 A 
ENDROOT
TORSDOF 0
ENDMDL
