MODEL 1
REMARK minimizedAffinity -2.1537652
REMARK minimizedRMSD -1
REMARK  0 active torsions:
REMARK  status: ('A' for Active; 'I' for Inactive)
ROOT
ATOM      1  C   UNL d   1       0.018  -2.365  -3.078  0.00  0.00     0.077 C 
ATOM      2  C1  UNL d   1      -0.370  -1.856  -1.722  0.00  0.00    -0.074 A 
ATOM      3  C2  UNL d   1      -1.004  -2.691  -0.796  0.00  0.00    -0.005 A 
ATOM      4  C3  UNL d   1      -1.351  -2.206   0.466  0.00  0.00     0.006 A 
ATOM      5  C4  UNL d   1      -1.066  -0.885   0.813  0.00  0.00    -0.005 A 
ATOM      6  C5  UNL d   1      -0.432  -0.037  -0.099  0.00  0.00    -0.074 A 
ATOM      7  C6  UNL d   1      -0.110   1.383   0.262  0.00  0.00     0.077 C 
ATOM      8  C7  UNL d   1      -0.081  -0.533  -1.362  0.00  0.00    -0.001 A 
ENDROOT
TORSDOF 0
ENDMDL
