MODEL 1
REMARK minimizedAffinity -6.20232153
REMARK minimizedRMSD -1
REMARK  0 active torsions:
REMARK  status: ('A' for Active; 'I' for Inactive)
ROOT
ATOM      1  C   UNL d   1       0.053   1.748   0.047  0.00  0.00     0.077 C 
ATOM      2  C1  UNL d   1      -0.221   0.274   0.089  0.00  0.00    -0.074 A 
ATOM      3  C2  UNL d   1      -1.084  -0.270   1.046  0.00  0.00    -0.005 A 
ATOM      4  C3  UNL d   1      -1.336  -1.641   1.067  0.00  0.00     0.006 A 
ATOM      5  C4  UNL d   1      -0.729  -2.482   0.133  0.00  0.00    -0.005 A 
ATOM      6  C5  UNL d   1       0.136  -1.956  -0.832  0.00  0.00    -0.074 A 
ATOM      7  C6  UNL d   1       0.789  -2.844  -1.849  0.00  0.00     0.077 C 
ATOM      8  C7  UNL d   1       0.379  -0.576  -0.851  0.00  0.00    -0.001 A 
ENDROOT
TORSDOF 0
ENDMDL
