MODEL 1
REMARK minimizedAffinity -5.45485878
REMARK minimizedRMSD -1
REMARK  0 active torsions:
REMARK  status: ('A' for Active; 'I' for Inactive)
ROOT
ATOM      1  C   UNL d   1      -0.438  -2.986  -1.837  0.00  0.00     0.077 C 
ATOM      2  C1  UNL d   1      -0.566  -2.016  -0.700  0.00  0.00    -0.074 A 
ATOM      3  C2  UNL d   1      -1.027  -2.432   0.552  0.00  0.00    -0.005 A 
ATOM      4  C3  UNL d   1      -1.131  -1.520   1.602  0.00  0.00     0.006 A 
ATOM      5  C4  UNL d   1      -0.776  -0.185   1.411  0.00  0.00    -0.005 A 
ATOM      6  C5  UNL d   1      -0.311   0.250   0.166  0.00  0.00    -0.074 A 
ATOM      7  C6  UNL d   1       0.085   1.680  -0.054  0.00  0.00     0.077 C 
ATOM      8  C7  UNL d   1      -0.203  -0.674  -0.883  0.00  0.00    -0.001 A 
ENDROOT
TORSDOF 0
ENDMDL
