MODEL 1
REMARK minimizedAffinity -4.17181492
REMARK minimizedRMSD -1
REMARK  0 active torsions:
REMARK  status: ('A' for Active; 'I' for Inactive)
ROOT
ATOM      1  C   UNL d   1      -2.356  -2.009   2.063  0.00  0.00     0.077 C 
ATOM      2  C1  UNL d   1      -1.343  -1.765   0.985  0.00  0.00    -0.074 A 
ATOM      3  C2  UNL d   1      -0.557  -2.810   0.487  0.00  0.00    -0.005 A 
ATOM      4  C3  UNL d   1       0.375  -2.569  -0.522  0.00  0.00     0.006 A 
ATOM      5  C4  UNL d   1       0.531  -1.284  -1.043  0.00  0.00    -0.005 A 
ATOM      6  C5  UNL d   1      -0.247  -0.228  -0.559  0.00  0.00    -0.074 A 
ATOM      7  C6  UNL d   1      -0.099   1.158  -1.115  0.00  0.00     0.077 C 
ATOM      8  C7  UNL d   1      -1.186  -0.478   0.451  0.00  0.00    -0.001 A 
ENDROOT
TORSDOF 0
ENDMDL
