MODEL 1
REMARK minimizedAffinity -4.89821815
REMARK minimizedRMSD -1
REMARK  0 active torsions:
REMARK  status: ('A' for Active; 'I' for Inactive)
ROOT
ATOM      1  C   UNL d   1      -0.291   1.560   0.531  0.00  0.00     0.077 C 
ATOM      2  C1  UNL d   1      -0.242   0.074   0.338  0.00  0.00    -0.074 A 
ATOM      3  C2  UNL d   1      -0.862  -0.790   1.247  0.00  0.00    -0.005 A 
ATOM      4  C3  UNL d   1      -0.815  -2.170   1.049  0.00  0.00     0.006 A 
ATOM      5  C4  UNL d   1      -0.149  -2.700  -0.057  0.00  0.00    -0.005 A 
ATOM      6  C5  UNL d   1       0.476  -1.851  -0.976  0.00  0.00    -0.074 A 
ATOM      7  C6  UNL d   1       1.188  -2.404  -2.175  0.00  0.00     0.077 C 
ATOM      8  C7  UNL d   1       0.419  -0.466  -0.774  0.00  0.00    -0.001 A 
ENDROOT
TORSDOF 0
ENDMDL
