MODEL 1
REMARK minimizedAffinity -1.72536457
REMARK minimizedRMSD -1
REMARK  0 active torsions:
REMARK  status: ('A' for Active; 'I' for Inactive)
ROOT
ATOM      1  C   UNL d   1       0.342   0.966   0.104  0.00  0.00     0.077 C 
ATOM      2  C1  UNL d   1      -0.262  -0.407   0.104  0.00  0.00    -0.074 A 
ATOM      3  C2  UNL d   1      -0.777  -0.966   1.278  0.00  0.00    -0.005 A 
ATOM      4  C3  UNL d   1      -1.344  -2.240   1.260  0.00  0.00     0.006 A 
ATOM      5  C4  UNL d   1      -1.402  -2.967   0.070  0.00  0.00    -0.005 A 
ATOM      6  C5  UNL d   1      -0.893  -2.424  -1.114  0.00  0.00    -0.074 A 
ATOM      7  C6  UNL d   1      -0.956  -3.187  -2.403  0.00  0.00     0.077 C 
ATOM      8  C7  UNL d   1      -0.331  -1.140  -1.089  0.00  0.00    -0.001 A 
ENDROOT
TORSDOF 0
ENDMDL
