MODEL 1
REMARK minimizedAffinity -5.00648117
REMARK minimizedRMSD -1
REMARK  0 active torsions:
REMARK  status: ('A' for Active; 'I' for Inactive)
ROOT
ATOM      1  C   UNL d   1      -0.088  -2.755  -1.891  0.00  0.00     0.077 C 
ATOM      2  C1  UNL d   1      -0.372  -1.653  -0.915  0.00  0.00    -0.074 A 
ATOM      3  C2  UNL d   1      -1.124  -1.891   0.240  0.00  0.00    -0.005 A 
ATOM      4  C3  UNL d   1      -1.372  -0.857   1.144  0.00  0.00     0.006 A 
ATOM      5  C4  UNL d   1      -0.871   0.422   0.902  0.00  0.00    -0.005 A 
ATOM      6  C5  UNL d   1      -0.116   0.679  -0.247  0.00  0.00    -0.074 A 
ATOM      7  C6  UNL d   1       0.438   2.047  -0.517  0.00  0.00     0.077 C 
ATOM      8  C7  UNL d   1       0.135  -0.366  -1.146  0.00  0.00    -0.001 A 
ENDROOT
TORSDOF 0
ENDMDL
