MODEL 1
REMARK minimizedAffinity -3.85886383
REMARK minimizedRMSD -1
REMARK  0 active torsions:
REMARK  status: ('A' for Active; 'I' for Inactive)
ROOT
ATOM      1  C   UNL d   1      -2.084  -1.425   3.003  0.00  0.00     0.077 C 
ATOM      2  C1  UNL d   1      -1.468  -1.472   1.636  0.00  0.00    -0.074 A 
ATOM      3  C2  UNL d   1      -1.405  -2.669   0.917  0.00  0.00    -0.005 A 
ATOM      4  C3  UNL d   1      -0.838  -2.695  -0.357  0.00  0.00     0.006 A 
ATOM      5  C4  UNL d   1      -0.330  -1.526  -0.924  0.00  0.00    -0.005 A 
ATOM      6  C5  UNL d   1      -0.385  -0.319  -0.220  0.00  0.00    -0.074 A 
ATOM      7  C6  UNL d   1       0.149   0.949  -0.818  0.00  0.00     0.077 C 
ATOM      8  C7  UNL d   1      -0.962  -0.300   1.057  0.00  0.00    -0.001 A 
ENDROOT
TORSDOF 0
ENDMDL
