MODEL 1
REMARK minimizedAffinity -5.56917095
REMARK minimizedRMSD -1
REMARK  0 active torsions:
REMARK  status: ('A' for Active; 'I' for Inactive)
ROOT
ATOM      1  C   UNL d   1      -1.752  -1.466   1.843  0.00  0.00     0.077 C 
ATOM      2  C1  UNL d   1      -0.810  -1.747   0.710  0.00  0.00    -0.074 A 
ATOM      3  C2  UNL d   1       0.029  -2.866   0.734  0.00  0.00    -0.005 A 
ATOM      4  C3  UNL d   1       0.893  -3.120  -0.331  0.00  0.00     0.006 A 
ATOM      5  C4  UNL d   1       0.926  -2.259  -1.429  0.00  0.00    -0.005 A 
ATOM      6  C5  UNL d   1       0.094  -1.136  -1.471  0.00  0.00    -0.074 A 
ATOM      7  C6  UNL d   1       0.111  -0.207  -2.648  0.00  0.00     0.077 C 
ATOM      8  C7  UNL d   1      -0.776  -0.892  -0.400  0.00  0.00    -0.001 A 
ENDROOT
TORSDOF 0
ENDMDL
