MODEL 1
REMARK minimizedAffinity -1.84476817
REMARK minimizedRMSD -1
REMARK  0 active torsions:
REMARK  status: ('A' for Active; 'I' for Inactive)
ROOT
ATOM      1  C   UNL d   1      -1.407  -2.389   1.608  0.00  0.00     0.077 C 
ATOM      2  C1  UNL d   1      -0.967  -1.332   0.638  0.00  0.00    -0.074 A 
ATOM      3  C2  UNL d   1      -1.009   0.022   0.983  0.00  0.00    -0.005 A 
ATOM      4  C3  UNL d   1      -0.588   0.993   0.074  0.00  0.00     0.006 A 
ATOM      5  C4  UNL d   1      -0.123   0.619  -1.187  0.00  0.00    -0.005 A 
ATOM      6  C5  UNL d   1      -0.073  -0.731  -1.550  0.00  0.00    -0.074 A 
ATOM      7  C6  UNL d   1       0.434  -1.150  -2.898  0.00  0.00     0.077 C 
ATOM      8  C7  UNL d   1      -0.491  -1.700  -0.628  0.00  0.00    -0.001 A 
ENDROOT
TORSDOF 0
ENDMDL
