MODEL 1
REMARK minimizedAffinity -3.99119782
REMARK minimizedRMSD -1
REMARK  0 active torsions:
REMARK  status: ('A' for Active; 'I' for Inactive)
ROOT
ATOM      1  C   UNL d   1       0.126  -3.819   0.008  0.00  0.00     0.077 C 
ATOM      2  C1  UNL d   1      -0.479  -2.477   0.298  0.00  0.00    -0.074 A 
ATOM      3  C2  UNL d   1      -1.724  -2.370   0.927  0.00  0.00    -0.005 A 
ATOM      4  C3  UNL d   1      -2.269  -1.116   1.198  0.00  0.00     0.006 A 
ATOM      5  C4  UNL d   1      -1.577   0.043   0.844  0.00  0.00    -0.005 A 
ATOM      6  C5  UNL d   1      -0.331  -0.044   0.215  0.00  0.00    -0.074 A 
ATOM      7  C6  UNL d   1       0.430   1.191  -0.164  0.00  0.00     0.077 C 
ATOM      8  C7  UNL d   1       0.214  -1.309  -0.048  0.00  0.00    -0.001 A 
ENDROOT
TORSDOF 0
ENDMDL
