MODEL 1
REMARK minimizedAffinity -1.23262703
REMARK minimizedRMSD -1
REMARK  0 active torsions:
REMARK  status: ('A' for Active; 'I' for Inactive)
ROOT
ATOM      1  C   UNL d   1       0.222  -1.992  -2.817  0.00  0.00     0.077 C 
ATOM      2  C1  UNL d   1      -0.079  -1.388  -1.477  0.00  0.00    -0.074 A 
ATOM      3  C2  UNL d   1      -0.824  -2.089  -0.524  0.00  0.00    -0.005 A 
ATOM      4  C3  UNL d   1      -1.088  -1.518   0.721  0.00  0.00     0.006 A 
ATOM      5  C4  UNL d   1      -0.611  -0.243   1.025  0.00  0.00    -0.005 A 
ATOM      6  C5  UNL d   1       0.137   0.473   0.084  0.00  0.00    -0.074 A 
ATOM      7  C6  UNL d   1       0.665   1.841   0.398  0.00  0.00     0.077 C 
ATOM      8  C7  UNL d   1       0.404  -0.110  -1.162  0.00  0.00    -0.001 A 
ENDROOT
TORSDOF 0
ENDMDL
