MODEL 1
REMARK minimizedAffinity -2.91963339
REMARK minimizedRMSD -1
REMARK  0 active torsions:
REMARK  status: ('A' for Active; 'I' for Inactive)
ROOT
ATOM      1  C   UNL d   1      -0.460   4.314   2.198  0.00  0.00     0.077 C 
ATOM      2  C1  UNL d   1       0.409   3.649   1.173  0.00  0.00    -0.074 A 
ATOM      3  C2  UNL d   1       1.733   4.057   0.978  0.00  0.00    -0.005 A 
ATOM      4  C3  UNL d   1       2.532   3.423   0.028  0.00  0.00     0.006 A 
ATOM      5  C4  UNL d   1       2.017   2.375  -0.737  0.00  0.00    -0.005 A 
ATOM      6  C5  UNL d   1       0.697   1.952  -0.556  0.00  0.00    -0.074 A 
ATOM      7  C6  UNL d   1       0.131   0.822  -1.363  0.00  0.00     0.077 C 
ATOM      8  C7  UNL d   1      -0.098   2.590   0.406  0.00  0.00    -0.001 A 
ENDROOT
TORSDOF 0
ENDMDL
