MODEL 1
REMARK minimizedAffinity 2.5255022
REMARK minimizedRMSD -1
REMARK  0 active torsions:
REMARK  status: ('A' for Active; 'I' for Inactive)
ROOT
ATOM      1  C1  DEN d   1      -1.711  -1.472  -3.088  0.00  0.00     0.130 A 
ATOM      2  C2  DEN d   1      -3.091  -1.310  -2.638  0.00  0.00    -0.031 A 
ATOM      3  C3  DEN d   1      -3.163  -1.730  -1.224  0.00  0.00     0.027 A 
ATOM      4  C4  DEN d   1      -1.279  -2.605   0.306  0.00  0.00     0.027 A 
ATOM      5  C5  DEN d   1       0.059  -2.927   0.367  0.00  0.00    -0.003 A 
ATOM      6  C6  DEN d   1       0.886  -2.819  -0.719  0.00  0.00     0.001 A 
ATOM      7  C7  DEN d   1       0.394  -2.335  -1.902  0.00  0.00     0.017 A 
ATOM      8  C8  DEN d   1      -0.956  -2.016  -1.974  0.00  0.00    -0.094 A 
ATOM      9  C9  DEN d   1      -1.773  -2.121  -0.862  0.00  0.00    -0.072 A 
ENDROOT
TORSDOF 0
ENDMDL
