MODEL 1
REMARK minimizedAffinity 2.4673152
REMARK minimizedRMSD -1
REMARK  0 active torsions:
REMARK  status: ('A' for Active; 'I' for Inactive)
ROOT
ATOM      1  C1  DEN d   1       0.797  -1.972  -3.255  0.00  0.00     0.130 A 
ATOM      2  C2  DEN d   1       2.125  -1.501  -2.874  0.00  0.00    -0.031 A 
ATOM      3  C3  DEN d   1       2.080  -1.111  -1.450  0.00  0.00     0.027 A 
ATOM      4  C4  DEN d   1       0.093  -1.193   0.192  0.00  0.00     0.027 A 
ATOM      5  C5  DEN d   1      -1.241  -1.508   0.325  0.00  0.00    -0.003 A 
ATOM      6  C6  DEN d   1      -1.992  -1.964  -0.726  0.00  0.00     0.001 A 
ATOM      7  C7  DEN d   1      -1.402  -2.160  -1.946  0.00  0.00     0.017 A 
ATOM      8  C8  DEN d   1      -0.059  -1.838  -2.090  0.00  0.00    -0.094 A 
ATOM      9  C9  DEN d   1       0.686  -1.390  -1.012  0.00  0.00    -0.072 A 
ENDROOT
TORSDOF 0
ENDMDL
