MODEL 1
REMARK minimizedAffinity 3.74978137
REMARK minimizedRMSD -1
REMARK  0 active torsions:
REMARK  status: ('A' for Active; 'I' for Inactive)
ROOT
ATOM      1  C1  DEN d   1       0.803  -2.068  -2.999  0.00  0.00     0.130 A 
ATOM      2  C2  DEN d   1       1.909  -1.285  -2.453  0.00  0.00    -0.031 A 
ATOM      3  C3  DEN d   1       1.643  -1.059  -1.018  0.00  0.00     0.027 A 
ATOM      4  C4  DEN d   1      -0.359  -1.844   0.405  0.00  0.00     0.027 A 
ATOM      5  C5  DEN d   1      -1.555  -2.527   0.380  0.00  0.00    -0.003 A 
ATOM      6  C6  DEN d   1      -2.060  -3.072  -0.771  0.00  0.00     0.001 A 
ATOM      7  C7  DEN d   1      -1.346  -2.981  -1.936  0.00  0.00     0.017 A 
ATOM      8  C8  DEN d   1      -0.143  -2.287  -1.920  0.00  0.00    -0.094 A 
ATOM      9  C9  DEN d   1       0.357  -1.754  -0.744  0.00  0.00    -0.072 A 
ENDROOT
TORSDOF 0
ENDMDL
