MODEL 1
REMARK minimizedAffinity 10.3461628
REMARK minimizedRMSD -1
REMARK  0 active torsions:
REMARK  status: ('A' for Active; 'I' for Inactive)
ROOT
ATOM      1  C1  DEN d   1       3.116  -0.367   3.423  0.00  0.00     0.130 A 
ATOM      2  C2  DEN d   1       3.151   0.766   2.504  0.00  0.00    -0.031 A 
ATOM      3  C3  DEN d   1       2.150   0.527   1.445  0.00  0.00     0.027 A 
ATOM      4  C4  DEN d   1       0.553  -1.476   1.146  0.00  0.00     0.027 A 
ATOM      5  C5  DEN d   1       0.164  -2.689   1.668  0.00  0.00    -0.003 A 
ATOM      6  C6  DEN d   1       0.750  -3.226   2.784  0.00  0.00     0.001 A 
ATOM      7  C7  DEN d   1       1.728  -2.525   3.440  0.00  0.00     0.017 A 
ATOM      8  C8  DEN d   1       2.130  -1.304   2.915  0.00  0.00    -0.094 A 
ATOM      9  C9  DEN d   1       1.517  -0.773   1.793  0.00  0.00    -0.072 A 
ENDROOT
TORSDOF 0
ENDMDL
