MODEL 1
REMARK minimizedAffinity 4.59296417
REMARK minimizedRMSD -1
REMARK  0 active torsions:
REMARK  status: ('A' for Active; 'I' for Inactive)
ROOT
ATOM      1  C1  DEN d   1       3.494   5.533  -0.931  0.00  0.00     0.130 A 
ATOM      2  C2  DEN d   1       2.067   5.484  -1.241  0.00  0.00    -0.031 A 
ATOM      3  C3  DEN d   1       1.914   5.619  -2.703  0.00  0.00     0.027 A 
ATOM      4  C4  DEN d   1       3.736   5.892  -4.508  0.00  0.00     0.027 A 
ATOM      5  C5  DEN d   1       5.091   5.999  -4.728  0.00  0.00    -0.003 A 
ATOM      6  C6  DEN d   1       6.000   5.993  -3.702  0.00  0.00     0.001 A 
ATOM      7  C7  DEN d   1       5.566   5.831  -2.413  0.00  0.00     0.017 A 
ATOM      8  C8  DEN d   1       4.201   5.730  -2.183  0.00  0.00    -0.094 A 
ATOM      9  C9  DEN d   1       3.299   5.726  -3.234  0.00  0.00    -0.072 A 
ENDROOT
TORSDOF 0
ENDMDL
