MODEL 1
REMARK minimizedAffinity 0.857869804
REMARK minimizedRMSD -1
REMARK  0 active torsions:
REMARK  status: ('A' for Active; 'I' for Inactive)
ROOT
ATOM      1  C1  DEN d   1       0.594  -1.666   1.590  0.00  0.00     0.130 A 
ATOM      2  C2  DEN d   1      -0.785  -1.566   1.119  0.00  0.00    -0.031 A 
ATOM      3  C3  DEN d   1      -0.973  -0.220   0.542  0.00  0.00     0.027 A 
ATOM      4  C4  DEN d   1       0.728   1.707   0.328  0.00  0.00     0.027 A 
ATOM      5  C5  DEN d   1       2.021   2.097   0.596  0.00  0.00    -0.003 A 
ATOM      6  C6  DEN d   1       2.912   1.279   1.239  0.00  0.00     0.001 A 
ATOM      7  C7  DEN d   1       2.535   0.012   1.596  0.00  0.00     0.017 A 
ATOM      8  C8  DEN d   1       1.230  -0.386   1.336  0.00  0.00    -0.094 A 
ATOM      9  C9  DEN d   1       0.348   0.451   0.674  0.00  0.00    -0.072 A 
ENDROOT
TORSDOF 0
ENDMDL
