MODEL 1
REMARK minimizedAffinity 3.1023109
REMARK minimizedRMSD -1
REMARK  0 active torsions:
REMARK  status: ('A' for Active; 'I' for Inactive)
ROOT
ATOM      1  C1  DEN d   1       2.882   0.568   2.185  0.00  0.00     0.130 A 
ATOM      2  C2  DEN d   1       2.461   1.584   1.225  0.00  0.00    -0.031 A 
ATOM      3  C3  DEN d   1       1.227   1.107   0.568  0.00  0.00     0.027 A 
ATOM      4  C4  DEN d   1      -0.067  -1.091   0.946  0.00  0.00     0.027 A 
ATOM      5  C5  DEN d   1      -0.090  -2.273   1.652  0.00  0.00    -0.003 A 
ATOM      6  C6  DEN d   1       0.887  -2.604   2.553  0.00  0.00     0.001 A 
ATOM      7  C7  DEN d   1       1.905  -1.722   2.805  0.00  0.00     0.017 A 
ATOM      8  C8  DEN d   1       1.938  -0.531   2.092  0.00  0.00    -0.094 A 
ATOM      9  C9  DEN d   1       0.934  -0.210   1.194  0.00  0.00    -0.072 A 
ENDROOT
TORSDOF 0
ENDMDL
