MODEL 1
REMARK minimizedAffinity 8.77099419
REMARK minimizedRMSD -1
REMARK  0 active torsions:
REMARK  status: ('A' for Active; 'I' for Inactive)
ROOT
ATOM      1  C1  DEN d   1       2.748   0.464   1.263  0.00  0.00     0.130 A 
ATOM      2  C2  DEN d   1       2.790   1.860   0.836  0.00  0.00    -0.031 A 
ATOM      3  C3  DEN d   1       1.418   2.268   0.473  0.00  0.00     0.027 A 
ATOM      4  C4  DEN d   1      -0.756   0.882   0.535  0.00  0.00     0.027 A 
ATOM      5  C5  DEN d   1      -1.291  -0.355   0.817  0.00  0.00    -0.003 A 
ATOM      6  C6  DEN d   1      -0.518  -1.408   1.231  0.00  0.00     0.001 A 
ATOM      7  C7  DEN d   1       0.827  -1.229   1.419  0.00  0.00     0.017 A 
ATOM      8  C8  DEN d   1       1.375   0.014   1.130  0.00  0.00    -0.094 A 
ATOM      9  C9  DEN d   1       0.575   1.069   0.724  0.00  0.00    -0.072 A 
ENDROOT
TORSDOF 0
ENDMDL
