MODEL 1
REMARK minimizedAffinity 2.75560427
REMARK minimizedRMSD -1
REMARK  0 active torsions:
REMARK  status: ('A' for Active; 'I' for Inactive)
ROOT
ATOM      1  C1  DEN d   1       2.450  -0.620   2.341  0.00  0.00     0.130 A 
ATOM      2  C2  DEN d   1       1.156  -0.395   1.702  0.00  0.00    -0.031 A 
ATOM      3  C3  DEN d   1       0.266  -1.515   2.066  0.00  0.00     0.027 A 
ATOM      4  C4  DEN d   1       0.760  -3.563   3.554  0.00  0.00     0.027 A 
ATOM      5  C5  DEN d   1       1.723  -4.196   4.309  0.00  0.00    -0.003 A 
ATOM      6  C6  DEN d   1       2.995  -3.703   4.432  0.00  0.00     0.001 A 
ATOM      7  C7  DEN d   1       3.326  -2.520   3.827  0.00  0.00     0.017 A 
ATOM      8  C8  DEN d   1       2.363  -1.880   3.058  0.00  0.00    -0.094 A 
ATOM      9  C9  DEN d   1       1.079  -2.388   2.956  0.00  0.00    -0.072 A 
ENDROOT
TORSDOF 0
ENDMDL
