MODEL 1
REMARK minimizedAffinity 6.36175442
REMARK minimizedRMSD -1
REMARK  0 active torsions:
REMARK  status: ('A' for Active; 'I' for Inactive)
ROOT
ATOM      1  C   UNL d   1       0.158   1.076  -1.992  0.00  0.00     0.077 C 
ATOM      2  C1  UNL d   1      -0.240   1.941  -0.833  0.00  0.00    -0.074 A 
ATOM      3  C2  UNL d   1      -1.038   3.074  -1.023  0.00  0.00    -0.005 A 
ATOM      4  C3  UNL d   1      -1.408   3.864   0.065  0.00  0.00     0.006 A 
ATOM      5  C4  UNL d   1      -0.985   3.530   1.352  0.00  0.00    -0.005 A 
ATOM      6  C5  UNL d   1      -0.187   2.400   1.562  0.00  0.00    -0.074 A 
ATOM      7  C6  UNL d   1       0.268   2.022   2.940  0.00  0.00     0.077 C 
ATOM      8  C7  UNL d   1       0.175   1.608   0.464  0.00  0.00    -0.001 A 
ENDROOT
TORSDOF 0
ENDMDL
