MODEL 1
REMARK minimizedAffinity 7.92728233
REMARK minimizedRMSD -1
REMARK  0 active torsions:
REMARK  status: ('A' for Active; 'I' for Inactive)
ROOT
ATOM      1  C   UNL d   1      -3.240   3.218  -1.822  0.00  0.00     0.077 C 
ATOM      2  C1  UNL d   1      -3.943   4.001  -2.891  0.00  0.00    -0.074 A 
ATOM      3  C2  UNL d   1      -5.334   4.146  -2.878  0.00  0.00    -0.005 A 
ATOM      4  C3  UNL d   1      -5.974   4.885  -3.873  0.00  0.00     0.006 A 
ATOM      5  C4  UNL d   1      -5.230   5.485  -4.890  0.00  0.00    -0.005 A 
ATOM      6  C5  UNL d   1      -3.838   5.352  -4.919  0.00  0.00    -0.074 A 
ATOM      7  C6  UNL d   1      -3.023   5.999  -5.998  0.00  0.00     0.077 C 
ATOM      8  C7  UNL d   1      -3.202   4.614  -3.911  0.00  0.00    -0.001 A 
ENDROOT
TORSDOF 0
ENDMDL
