MODEL 1
REMARK minimizedAffinity 5.83074236
REMARK minimizedRMSD -1
REMARK  0 active torsions:
REMARK  status: ('A' for Active; 'I' for Inactive)
ROOT
ATOM      1  C   UNL d   1      -1.485   3.315   0.756  0.00  0.00     0.077 C 
ATOM      2  C1  UNL d   1      -1.121   2.629  -0.527  0.00  0.00    -0.074 A 
ATOM      3  C2  UNL d   1      -0.235   3.223  -1.433  0.00  0.00    -0.005 A 
ATOM      4  C3  UNL d   1       0.102   2.569  -2.618  0.00  0.00     0.006 A 
ATOM      5  C4  UNL d   1      -0.442   1.317  -2.909  0.00  0.00    -0.005 A 
ATOM      6  C5  UNL d   1      -1.329   0.708  -2.015  0.00  0.00    -0.074 A 
ATOM      7  C6  UNL d   1      -1.915  -0.641  -2.308  0.00  0.00     0.077 C 
ATOM      8  C7  UNL d   1      -1.657   1.368  -0.823  0.00  0.00    -0.001 A 
ENDROOT
TORSDOF 0
ENDMDL
