MODEL 1
REMARK minimizedAffinity -3.07379365
REMARK minimizedRMSD -1
REMARK  0 active torsions:
REMARK  status: ('A' for Active; 'I' for Inactive)
ROOT
ATOM      1  C   UNL d   1      -0.118  -0.237   3.348  0.00  0.00     0.077 C 
ATOM      2  C1  UNL d   1      -0.566   0.928   2.517  0.00  0.00    -0.074 A 
ATOM      3  C2  UNL d   1      -1.261   1.996   3.093  0.00  0.00    -0.005 A 
ATOM      4  C3  UNL d   1      -1.664   3.078   2.310  0.00  0.00     0.006 A 
ATOM      5  C4  UNL d   1      -1.376   3.102   0.945  0.00  0.00    -0.005 A 
ATOM      6  C5  UNL d   1      -0.681   2.044   0.351  0.00  0.00    -0.074 A 
ATOM      7  C6  UNL d   1      -0.355   2.058  -1.113  0.00  0.00     0.077 C 
ATOM      8  C7  UNL d   1      -0.274   0.964   1.146  0.00  0.00    -0.001 A 
ENDROOT
TORSDOF 0
ENDMDL
