MODEL 1
REMARK minimizedAffinity 8.28804588
REMARK minimizedRMSD -1
REMARK  0 active torsions:
REMARK  status: ('A' for Active; 'I' for Inactive)
ROOT
ATOM      1  C   UNL d   1      -1.449   0.347  -1.254  0.00  0.00     0.077 C 
ATOM      2  C1  UNL d   1      -1.146   1.350  -0.182  0.00  0.00    -0.074 A 
ATOM      3  C2  UNL d   1       0.096   1.360   0.463  0.00  0.00    -0.005 A 
ATOM      4  C3  UNL d   1       0.367   2.305   1.452  0.00  0.00     0.006 A 
ATOM      5  C4  UNL d   1      -0.598   3.249   1.806  0.00  0.00    -0.005 A 
ATOM      6  C5  UNL d   1      -1.845   3.255   1.171  0.00  0.00    -0.074 A 
ATOM      7  C6  UNL d   1      -2.890   4.269   1.532  0.00  0.00     0.077 C 
ATOM      8  C7  UNL d   1      -2.107   2.306   0.174  0.00  0.00    -0.001 A 
ENDROOT
TORSDOF 0
ENDMDL
