MODEL 1
REMARK minimizedAffinity 6.76022434
REMARK minimizedRMSD -1
REMARK  0 active torsions:
REMARK  status: ('A' for Active; 'I' for Inactive)
ROOT
ATOM      1  C   UNL d   1       0.383  -0.315   4.240  0.00  0.00     0.077 C 
ATOM      2  C1  UNL d   1       0.158   0.745   3.203  0.00  0.00    -0.074 A 
ATOM      3  C2  UNL d   1       1.181   1.123   2.328  0.00  0.00    -0.005 A 
ATOM      4  C3  UNL d   1       0.954   2.103   1.362  0.00  0.00     0.006 A 
ATOM      5  C4  UNL d   1      -0.296   2.714   1.261  0.00  0.00    -0.005 A 
ATOM      6  C5  UNL d   1      -1.332   2.348   2.126  0.00  0.00    -0.074 A 
ATOM      7  C6  UNL d   1      -2.685   2.987   2.025  0.00  0.00     0.077 C 
ATOM      8  C7  UNL d   1      -1.098   1.357   3.090  0.00  0.00    -0.001 A 
ENDROOT
TORSDOF 0
ENDMDL
