MODEL 1
REMARK minimizedAffinity -1.23011327
REMARK minimizedRMSD -1
REMARK  0 active torsions:
REMARK  status: ('A' for Active; 'I' for Inactive)
ROOT
ATOM      1  C   UNL d   1      -4.458   4.326  -3.516  0.00  0.00     0.077 C 
ATOM      2  C1  UNL d   1      -4.155   2.941  -3.026  0.00  0.00    -0.074 A 
ATOM      3  C2  UNL d   1      -5.183   2.067  -2.660  0.00  0.00    -0.005 A 
ATOM      4  C3  UNL d   1      -4.886   0.779  -2.215  0.00  0.00     0.006 A 
ATOM      5  C4  UNL d   1      -3.560   0.353  -2.131  0.00  0.00    -0.005 A 
ATOM      6  C5  UNL d   1      -2.518   1.213  -2.493  0.00  0.00    -0.074 A 
ATOM      7  C6  UNL d   1      -1.088   0.768  -2.418  0.00  0.00     0.077 C 
ATOM      8  C7  UNL d   1      -2.825   2.503  -2.946  0.00  0.00    -0.001 A 
ENDROOT
TORSDOF 0
ENDMDL
