MODEL 1
REMARK minimizedAffinity -2.28380466
REMARK minimizedRMSD -1
REMARK  0 active torsions:
REMARK  status: ('A' for Active; 'I' for Inactive)
ROOT
ATOM      1  C   UNL d   1       0.238   1.359   2.751  0.00  0.00     0.077 C 
ATOM      2  C1  UNL d   1      -0.296   2.386   1.798  0.00  0.00    -0.074 A 
ATOM      3  C2  UNL d   1      -1.667   2.653   1.723  0.00  0.00    -0.005 A 
ATOM      4  C3  UNL d   1      -2.148   3.619   0.838  0.00  0.00     0.006 A 
ATOM      5  C4  UNL d   1      -1.265   4.325   0.021  0.00  0.00    -0.005 A 
ATOM      6  C5  UNL d   1       0.109   4.072   0.083  0.00  0.00    -0.074 A 
ATOM      7  C6  UNL d   1       1.073   4.830  -0.782  0.00  0.00     0.077 C 
ATOM      8  C7  UNL d   1       0.586   3.106   0.979  0.00  0.00    -0.001 A 
ENDROOT
TORSDOF 0
ENDMDL
