MODEL 1
REMARK minimizedAffinity 2.53833055
REMARK minimizedRMSD -1
REMARK  0 active torsions:
REMARK  status: ('A' for Active; 'I' for Inactive)
ROOT
ATOM      1  C   UNL d   1       3.733  -1.446  -0.312  0.00  0.00     0.077 C 
ATOM      2  C1  UNL d   1       4.247  -2.807  -0.679  0.00  0.00    -0.074 A 
ATOM      3  C2  UNL d   1       5.480  -3.262  -0.202  0.00  0.00    -0.005 A 
ATOM      4  C3  UNL d   1       5.941  -4.534  -0.544  0.00  0.00     0.006 A 
ATOM      5  C4  UNL d   1       5.174  -5.361  -1.365  0.00  0.00    -0.005 A 
ATOM      6  C5  UNL d   1       3.938  -4.923  -1.852  0.00  0.00    -0.074 A 
ATOM      7  C6  UNL d   1       3.097  -5.803  -2.728  0.00  0.00     0.077 C 
ATOM      8  C7  UNL d   1       3.479  -3.647  -1.498  0.00  0.00    -0.001 A 
ENDROOT
TORSDOF 0
ENDMDL
