MODEL 1
REMARK minimizedAffinity -0.187877029
REMARK minimizedRMSD -1
REMARK  0 active torsions:
REMARK  status: ('A' for Active; 'I' for Inactive)
ROOT
ATOM      1  C   UNL d   1      -1.605   2.835   3.503  0.00  0.00     0.172 C 
ATOM      2  N   UNL d   1      -1.642   2.053   2.290  0.00  0.00    -0.070 N 
ATOM      3  C1  UNL d   1      -1.716   2.555   1.018  0.00  0.00    -0.004 A 
ATOM      4  C2  UNL d   1      -1.729   1.490   0.144  0.00  0.00    -0.047 A 
ATOM      5  C3  UNL d   1      -1.660   0.307   0.917  0.00  0.00    -0.047 A 
ATOM      6  C4  UNL d   1      -1.607   0.684   2.242  0.00  0.00    -0.004 A 
ENDROOT
TORSDOF 0
ENDMDL
