MODEL 1
REMARK minimizedAffinity 4.01156759
REMARK minimizedRMSD -1
REMARK  0 active torsions:
REMARK  status: ('A' for Active; 'I' for Inactive)
ROOT
ATOM      1  C   UNL d   1      -0.590  -0.293   1.153  0.00  0.00     0.172 C 
ATOM      2  N   UNL d   1      -1.551   0.729   0.812  0.00  0.00    -0.070 N 
ATOM      3  C1  UNL d   1      -2.690   0.541   0.076  0.00  0.00    -0.004 A 
ATOM      4  C2  UNL d   1      -3.332   1.756  -0.026  0.00  0.00    -0.047 A 
ATOM      5  C3  UNL d   1      -2.552   2.707   0.673  0.00  0.00    -0.047 A 
ATOM      6  C4  UNL d   1      -1.455   2.045   1.182  0.00  0.00    -0.004 A 
ENDROOT
TORSDOF 0
ENDMDL
