MODEL 1
REMARK minimizedAffinity 5.92768192
REMARK minimizedRMSD -1
REMARK  0 active torsions:
REMARK  status: ('A' for Active; 'I' for Inactive)
ROOT
ATOM      1  C   UNL d   1      -4.620   5.715  -5.981  0.00  0.00     0.172 C 
ATOM      2  N   UNL d   1      -3.897   4.465  -5.987  0.00  0.00    -0.070 N 
ATOM      3  C1  UNL d   1      -4.460   3.217  -5.989  0.00  0.00    -0.004 A 
ATOM      4  C2  UNL d   1      -3.438   2.293  -5.997  0.00  0.00    -0.047 A 
ATOM      5  C3  UNL d   1      -2.218   3.010  -5.999  0.00  0.00    -0.047 A 
ATOM      6  C4  UNL d   1      -2.531   4.353  -5.993  0.00  0.00    -0.004 A 
ENDROOT
TORSDOF 0
ENDMDL
