MODEL 1
REMARK minimizedAffinity -3.18482471
REMARK minimizedRMSD -1
REMARK  0 active torsions:
REMARK  status: ('A' for Active; 'I' for Inactive)
ROOT
ATOM      1  C   UNL d   1       2.873   2.011   1.119  0.00  0.00     0.172 C 
ATOM      2  N   UNL d   1       1.615   2.486   0.592  0.00  0.00    -0.070 N 
ATOM      3  C1  UNL d   1       1.308   3.791   0.314  0.00  0.00    -0.004 A 
ATOM      4  C2  UNL d   1       0.018   3.826  -0.170  0.00  0.00    -0.047 A 
ATOM      5  C3  UNL d   1      -0.467   2.497  -0.183  0.00  0.00    -0.047 A 
ATOM      6  C4  UNL d   1       0.543   1.687   0.294  0.00  0.00    -0.004 A 
ENDROOT
TORSDOF 0
ENDMDL
