MODEL 1
REMARK minimizedAffinity -3.48263264
REMARK minimizedRMSD -1
REMARK  0 active torsions:
REMARK  status: ('A' for Active; 'I' for Inactive)
ROOT
ATOM      1  C   UNL d   1       2.908   1.430   1.019  0.00  0.00     0.172 C 
ATOM      2  N   UNL d   1       1.757   2.240   0.696  0.00  0.00    -0.070 N 
ATOM      3  C1  UNL d   1       1.718   3.230  -0.249  0.00  0.00    -0.004 A 
ATOM      4  C2  UNL d   1       0.446   3.761  -0.252  0.00  0.00    -0.047 A 
ATOM      5  C3  UNL d   1      -0.305   3.066   0.726  0.00  0.00    -0.047 A 
ATOM      6  C4  UNL d   1       0.531   2.130   1.297  0.00  0.00    -0.004 A 
ENDROOT
TORSDOF 0
ENDMDL
