MODEL 1
REMARK minimizedAffinity -3.0236249
REMARK minimizedRMSD -1
REMARK  0 active torsions:
REMARK  status: ('A' for Active; 'I' for Inactive)
ROOT
ATOM      1  C   UNL d   1      -0.425   2.410   0.309  0.00  0.00     0.172 C 
ATOM      2  N   UNL d   1      -0.078   1.010   0.372  0.00  0.00    -0.070 N 
ATOM      3  C1  UNL d   1      -0.920  -0.034   0.099  0.00  0.00    -0.004 A 
ATOM      4  C2  UNL d   1      -0.213  -1.204   0.273  0.00  0.00    -0.047 A 
ATOM      5  C3  UNL d   1       1.100  -0.850   0.665  0.00  0.00    -0.047 A 
ATOM      6  C4  UNL d   1       1.156   0.527   0.719  0.00  0.00    -0.004 A 
ENDROOT
TORSDOF 0
ENDMDL
