MODEL 1
REMARK minimizedAffinity -2.50280237
REMARK minimizedRMSD -1
REMARK  0 active torsions:
REMARK  status: ('A' for Active; 'I' for Inactive)
ROOT
ATOM      1  C   UNL d   1      -0.209  -0.816  -0.077  0.00  0.00     0.172 C 
ATOM      2  N   UNL d   1      -0.307   0.509   0.488  0.00  0.00    -0.070 N 
ATOM      3  C1  UNL d   1      -1.188   0.899   1.461  0.00  0.00    -0.004 A 
ATOM      4  C2  UNL d   1      -0.963   2.233   1.724  0.00  0.00    -0.047 A 
ATOM      5  C3  UNL d   1       0.089   2.660   0.879  0.00  0.00    -0.047 A 
ATOM      6  C4  UNL d   1       0.477   1.572   0.125  0.00  0.00    -0.004 A 
ENDROOT
TORSDOF 0
ENDMDL
