MODEL 1
REMARK minimizedAffinity -3.51092124
REMARK minimizedRMSD -1
REMARK  0 active torsions:
REMARK  status: ('A' for Active; 'I' for Inactive)
ROOT
ATOM      1  C   UNL d   1      -0.063  -2.145  -1.254  0.00  0.00     0.172 C 
ATOM      2  N   UNL d   1      -1.253  -2.944  -1.079  0.00  0.00    -0.070 N 
ATOM      3  C1  UNL d   1      -1.458  -3.865  -0.087  0.00  0.00    -0.004 A 
ATOM      4  C2  UNL d   1      -2.711  -4.409  -0.267  0.00  0.00    -0.047 A 
ATOM      5  C3  UNL d   1      -3.279  -3.795  -1.409  0.00  0.00    -0.047 A 
ATOM      6  C4  UNL d   1      -2.355  -2.892  -1.892  0.00  0.00    -0.004 A 
ENDROOT
TORSDOF 0
ENDMDL
