MODEL 1
REMARK minimizedAffinity -3.06621838
REMARK minimizedRMSD -1
REMARK  0 active torsions:
REMARK  status: ('A' for Active; 'I' for Inactive)
ROOT
ATOM      1  C   UNL d   1      -1.501  -2.883  -1.493  0.00  0.00     0.172 C 
ATOM      2  N   UNL d   1      -1.198  -1.552  -1.021  0.00  0.00    -0.070 N 
ATOM      3  C1  UNL d   1      -1.933  -0.426  -1.281  0.00  0.00    -0.004 A 
ATOM      4  C2  UNL d   1      -1.316   0.635  -0.654  0.00  0.00    -0.047 A 
ATOM      5  C3  UNL d   1      -0.170   0.130   0.005  0.00  0.00    -0.047 A 
ATOM      6  C4  UNL d   1      -0.121  -1.227  -0.239  0.00  0.00    -0.004 A 
ENDROOT
TORSDOF 0
ENDMDL
