MODEL 1
REMARK minimizedAffinity 4.88221741
REMARK minimizedRMSD -1
REMARK  0 active torsions:
REMARK  status: ('A' for Active; 'I' for Inactive)
ROOT
ATOM      1  C   UNL d   1       3.274  -0.104  -2.284  0.00  0.00     0.172 C 
ATOM      2  N   UNL d   1       2.750  -0.197  -3.626  0.00  0.00    -0.070 N 
ATOM      3  C1  UNL d   1       2.463  -1.358  -4.293  0.00  0.00    -0.004 A 
ATOM      4  C2  UNL d   1       1.985  -1.020  -5.541  0.00  0.00    -0.047 A 
ATOM      5  C3  UNL d   1       1.986   0.392  -5.627  0.00  0.00    -0.047 A 
ATOM      6  C4  UNL d   1       2.464   0.877  -4.428  0.00  0.00    -0.004 A 
ENDROOT
TORSDOF 0
ENDMDL
