MODEL 1
REMARK minimizedAffinity 2.98219872
REMARK minimizedRMSD -1
REMARK  0 active torsions:
REMARK  status: ('A' for Active; 'I' for Inactive)
ROOT
ATOM      1  C   UNL d   1      -0.955  -4.189  -2.083  0.00  0.00     0.172 C 
ATOM      2  N   UNL d   1      -2.356  -4.121  -1.738  0.00  0.00    -0.070 N 
ATOM      3  C1  UNL d   1      -3.223  -5.180  -1.709  0.00  0.00    -0.004 A 
ATOM      4  C2  UNL d   1      -4.460  -4.702  -1.334  0.00  0.00    -0.047 A 
ATOM      5  C3  UNL d   1      -4.332  -3.308  -1.132  0.00  0.00    -0.047 A 
ATOM      6  C4  UNL d   1      -3.019  -2.975  -1.389  0.00  0.00    -0.004 A 
ENDROOT
TORSDOF 0
ENDMDL
