MODEL 1
REMARK minimizedAffinity -3.09157348
REMARK minimizedRMSD -1
REMARK  0 active torsions:
REMARK  status: ('A' for Active; 'I' for Inactive)
ROOT
ATOM      1  C   UNL d   1      -4.018   3.151  -3.283  0.00  0.00     0.172 C 
ATOM      2  N   UNL d   1      -4.513   2.830  -1.965  0.00  0.00    -0.070 N 
ATOM      3  C1  UNL d   1      -4.294   1.656  -1.294  0.00  0.00    -0.004 A 
ATOM      4  C2  UNL d   1      -4.929   1.742  -0.074  0.00  0.00    -0.047 A 
ATOM      5  C3  UNL d   1      -5.554   3.011  -0.010  0.00  0.00    -0.047 A 
ATOM      6  C4  UNL d   1      -5.280   3.663  -1.194  0.00  0.00    -0.004 A 
ENDROOT
TORSDOF 0
ENDMDL
