MODEL 1
REMARK minimizedAffinity -3.18316221
REMARK minimizedRMSD -1
REMARK  0 active torsions:
REMARK  status: ('A' for Active; 'I' for Inactive)
ROOT
ATOM      1  C   UNL d   1       0.563  -0.583  -1.294  0.00  0.00     0.172 C 
ATOM      2  N   UNL d   1      -0.039  -1.874  -1.533  0.00  0.00    -0.070 N 
ATOM      3  C1  UNL d   1      -1.293  -2.255  -1.138  0.00  0.00    -0.004 A 
ATOM      4  C2  UNL d   1      -1.490  -3.554  -1.555  0.00  0.00    -0.047 A 
ATOM      5  C3  UNL d   1      -0.313  -3.968  -2.223  0.00  0.00    -0.047 A 
ATOM      6  C4  UNL d   1       0.569  -2.908  -2.194  0.00  0.00    -0.004 A 
ENDROOT
TORSDOF 0
ENDMDL
