MODEL 1
REMARK minimizedAffinity -1.38416016
REMARK minimizedRMSD -1
REMARK  0 active torsions:
REMARK  status: ('A' for Active; 'I' for Inactive)
ROOT
ATOM      1  C   UNL d   1      -4.684   2.917  -1.271  0.00  0.00     0.172 C 
ATOM      2  N   UNL d   1      -3.932   3.097  -2.490  0.00  0.00    -0.070 N 
ATOM      3  C1  UNL d   1      -4.466   3.250  -3.742  0.00  0.00    -0.004 A 
ATOM      4  C2  UNL d   1      -3.423   3.394  -4.631  0.00  0.00    -0.047 A 
ATOM      5  C3  UNL d   1      -2.220   3.323  -3.888  0.00  0.00    -0.047 A 
ATOM      6  C4  UNL d   1      -2.565   3.139  -2.566  0.00  0.00    -0.004 A 
ENDROOT
TORSDOF 0
ENDMDL
