MODEL 1
REMARK minimizedAffinity -0.914523959
REMARK minimizedRMSD -1
REMARK  0 active torsions:
REMARK  status: ('A' for Active; 'I' for Inactive)
ROOT
ATOM      1  C   UNL d   1       1.511   4.988  -0.423  0.00  0.00     0.172 C 
ATOM      2  N   UNL d   1       1.799   3.667   0.084  0.00  0.00    -0.070 N 
ATOM      3  C1  UNL d   1       2.399   2.656  -0.618  0.00  0.00    -0.004 A 
ATOM      4  C2  UNL d   1       2.495   1.562   0.215  0.00  0.00    -0.047 A 
ATOM      5  C3  UNL d   1       1.933   1.929   1.461  0.00  0.00    -0.047 A 
ATOM      6  C4  UNL d   1       1.510   3.236   1.352  0.00  0.00    -0.004 A 
ENDROOT
TORSDOF 0
ENDMDL
