MODEL 1
REMARK minimizedAffinity -0.964866996
REMARK minimizedRMSD -1
REMARK  0 active torsions:
REMARK  status: ('A' for Active; 'I' for Inactive)
ROOT
ATOM      1  C   UNL d   1       2.885   2.472  -1.536  0.00  0.00     0.172 C 
ATOM      2  N   UNL d   1       2.145   2.415  -0.297  0.00  0.00    -0.070 N 
ATOM      3  C1  UNL d   1       1.438   1.336   0.162  0.00  0.00    -0.004 A 
ATOM      4  C2  UNL d   1       0.880   1.683   1.374  0.00  0.00    -0.047 A 
ATOM      5  C3  UNL d   1       1.264   3.016   1.651  0.00  0.00    -0.047 A 
ATOM      6  C4  UNL d   1       2.047   3.445   0.600  0.00  0.00    -0.004 A 
ENDROOT
TORSDOF 0
ENDMDL
