MODEL 1
REMARK minimizedAffinity -2.90134263
REMARK minimizedRMSD -1
REMARK  1 active torsions:
REMARK  status: ('A' for Active; 'I' for Inactive)
REMARK    1  A    between atoms: C3_4  and  O_7 
ROOT
ATOM      1  C   UNL d   1       4.865   4.046  -5.663  0.00  0.00    -0.033 A 
ATOM      2  C1  UNL d   1       4.252   5.258  -5.988  0.00  0.00     0.039 A 
ATOM      3  C2  UNL d   1       2.886   5.434  -5.761  0.00  0.00    -0.080 A 
ATOM      4  C3  UNL d   1       2.145   4.393  -5.209  0.00  0.00     0.150 A 
ATOM      5  C4  UNL d   1       2.750   3.184  -4.880  0.00  0.00    -0.007 A 
ATOM      6  C5  UNL d   1       4.114   3.010  -5.108  0.00  0.00     0.039 A 
ENDROOT
BRANCH   4   7
ATOM      7  O   UNL d   1       0.808   4.516  -4.974  0.00  0.00    -0.526 OA
ATOM      8  H5  UNL d   1       0.522   5.394  -5.277  0.00  0.00     0.418 HD
ENDBRANCH   4   7
TORSDOF 1
ENDMDL
