MODEL 1
REMARK minimizedAffinity -3.86416554
REMARK minimizedRMSD -1
REMARK  1 active torsions:
REMARK  status: ('A' for Active; 'I' for Inactive)
REMARK    1  A    between atoms: C3_4  and  O_7 
ROOT
ATOM      1  C   UNL d   1       4.117   5.249  -5.636  0.00  0.00    -0.033 A 
ATOM      2  C1  UNL d   1       5.137   4.366  -5.996  0.00  0.00     0.039 A 
ATOM      3  C2  UNL d   1       4.901   2.989  -6.000  0.00  0.00    -0.080 A 
ATOM      4  C3  UNL d   1       3.643   2.511  -5.645  0.00  0.00     0.150 A 
ATOM      5  C4  UNL d   1       2.621   3.385  -5.290  0.00  0.00    -0.007 A 
ATOM      6  C5  UNL d   1       2.859   4.759  -5.285  0.00  0.00     0.039 A 
ENDROOT
BRANCH   4   7
ATOM      7  O   UNL d   1       3.367   1.176  -5.630  0.00  0.00    -0.526 OA
ATOM      8  H5  UNL d   1       4.175   0.692  -5.869  0.00  0.00     0.418 HD
ENDBRANCH   4   7
TORSDOF 1
ENDMDL
