MODEL 1
REMARK minimizedAffinity -1.78236639
REMARK minimizedRMSD -1
REMARK  1 active torsions:
REMARK  status: ('A' for Active; 'I' for Inactive)
REMARK    1  A    between atoms: C3_4  and  O_7 
ROOT
ATOM      1  C   UNL d   1       4.801   5.125  -5.848  0.00  0.00    -0.033 A 
ATOM      2  C1  UNL d   1       5.715   4.080  -5.998  0.00  0.00     0.039 A 
ATOM      3  C2  UNL d   1       5.271   2.757  -6.000  0.00  0.00    -0.080 A 
ATOM      4  C3  UNL d   1       3.912   2.492  -5.852  0.00  0.00     0.150 A 
ATOM      5  C4  UNL d   1       2.996   3.528  -5.705  0.00  0.00    -0.007 A 
ATOM      6  C5  UNL d   1       3.442   4.849  -5.703  0.00  0.00     0.039 A 
ENDROOT
BRANCH   4   7
ATOM      7  O   UNL d   1       3.431   1.216  -5.842  0.00  0.00    -0.526 OA
ATOM      8  H5  UNL d   1       4.182   0.604  -5.924  0.00  0.00     0.418 HD
ENDBRANCH   4   7
TORSDOF 1
ENDMDL
