MODEL 1
REMARK minimizedAffinity -3.34040976
REMARK minimizedRMSD -1
REMARK  1 active torsions:
REMARK  status: ('A' for Active; 'I' for Inactive)
REMARK    1  A    between atoms: C3_4  and  O_7 
ROOT
ATOM      1  C   UNL d   1       4.497   2.991  -5.756  0.00  0.00    -0.033 A 
ATOM      2  C1  UNL d   1       4.883   4.315  -5.977  0.00  0.00     0.039 A 
ATOM      3  C2  UNL d   1       3.939   5.341  -5.900  0.00  0.00    -0.080 A 
ATOM      4  C3  UNL d   1       2.615   5.031  -5.600  0.00  0.00     0.150 A 
ATOM      5  C4  UNL d   1       2.225   3.715  -5.375  0.00  0.00    -0.007 A 
ATOM      6  C5  UNL d   1       3.168   2.692  -5.453  0.00  0.00     0.039 A 
ENDROOT
BRANCH   4   7
ATOM      7  O   UNL d   1       1.658   5.998  -5.519  0.00  0.00    -0.526 OA
ATOM      8  H5  UNL d   1       2.067   6.855  -5.726  0.00  0.00     0.418 HD
ENDBRANCH   4   7
TORSDOF 1
ENDMDL
