MODEL 1
REMARK minimizedAffinity -3.54616332
REMARK minimizedRMSD -1
REMARK  1 active torsions:
REMARK  status: ('A' for Active; 'I' for Inactive)
REMARK    1  A    between atoms: C3_4  and  O_7 
ROOT
ATOM      1  C   UNL d   1       4.324   4.834  -5.984  0.00  0.00    -0.033 A 
ATOM      2  C1  UNL d   1       3.504   5.964  -5.967  0.00  0.00     0.039 A 
ATOM      3  C2  UNL d   1       2.115   5.820  -5.969  0.00  0.00    -0.080 A 
ATOM      4  C3  UNL d   1       1.560   4.543  -5.986  0.00  0.00     0.150 A 
ATOM      5  C4  UNL d   1       2.372   3.413  -5.999  0.00  0.00    -0.007 A 
ATOM      6  C5  UNL d   1       3.758   3.559  -5.999  0.00  0.00     0.039 A 
ENDROOT
BRANCH   4   7
ATOM      7  O   UNL d   1       0.210   4.352  -5.993  0.00  0.00    -0.526 OA
ATOM      8  H5  UNL d   1      -0.223   5.222  -6.011  0.00  0.00     0.418 HD
ENDBRANCH   4   7
TORSDOF 1
ENDMDL
