MODEL 1
REMARK minimizedAffinity -3.57334232
REMARK minimizedRMSD -1
REMARK  1 active torsions:
REMARK  status: ('A' for Active; 'I' for Inactive)
REMARK    1  A    between atoms: C3_4  and  O_7 
ROOT
ATOM      1  C   UNL d   1       5.133   3.376  -5.429  0.00  0.00    -0.033 A 
ATOM      2  C1  UNL d   1       4.348   2.362  -4.876  0.00  0.00     0.039 A 
ATOM      3  C2  UNL d   1       2.956   2.472  -4.882  0.00  0.00    -0.080 A 
ATOM      4  C3  UNL d   1       2.362   3.599  -5.444  0.00  0.00     0.150 A 
ATOM      5  C4  UNL d   1       3.138   4.611  -6.000  0.00  0.00    -0.007 A 
ATOM      6  C5  UNL d   1       4.527   4.500  -5.992  0.00  0.00     0.039 A 
ENDROOT
BRANCH   4   7
ATOM      7  O   UNL d   1       1.008   3.753  -5.469  0.00  0.00    -0.526 OA
ATOM      8  H5  UNL d   1       0.603   2.990  -5.025  0.00  0.00     0.418 HD
ENDBRANCH   4   7
TORSDOF 1
ENDMDL
