MODEL 1
REMARK minimizedAffinity -3.67834878
REMARK minimizedRMSD -1
REMARK  1 active torsions:
REMARK  status: ('A' for Active; 'I' for Inactive)
REMARK    1  A    between atoms: C3_4  and  O_7 
ROOT
ATOM      1  C   UNL d   1       4.702   3.367  -5.631  0.00  0.00    -0.033 A 
ATOM      2  C1  UNL d   1       4.911   4.699  -5.997  0.00  0.00     0.039 A 
ATOM      3  C2  UNL d   1       3.845   5.600  -5.998  0.00  0.00    -0.080 A 
ATOM      4  C3  UNL d   1       2.577   5.158  -5.631  0.00  0.00     0.150 A 
ATOM      5  C4  UNL d   1       2.362   3.835  -5.262  0.00  0.00    -0.007 A 
ATOM      6  C5  UNL d   1       3.428   2.936  -5.263  0.00  0.00     0.039 A 
ENDROOT
BRANCH   4   7
ATOM      7  O   UNL d   1       1.504   6.000  -5.622  0.00  0.00    -0.526 OA
ATOM      8  H5  UNL d   1       1.797   6.875  -5.927  0.00  0.00     0.418 HD
ENDBRANCH   4   7
TORSDOF 1
ENDMDL
