MODEL 1
REMARK minimizedAffinity -2.87531185
REMARK minimizedRMSD -1
REMARK  1 active torsions:
REMARK  status: ('A' for Active; 'I' for Inactive)
REMARK    1  A    between atoms: C3_4  and  O_7 
ROOT
ATOM      1  C   UNL d   1       4.889   3.108  -5.991  0.00  0.00    -0.033 A 
ATOM      2  C1  UNL d   1       3.678   2.412  -5.994  0.00  0.00     0.039 A 
ATOM      3  C2  UNL d   1       2.470   3.111  -5.998  0.00  0.00    -0.080 A 
ATOM      4  C3  UNL d   1       2.485   4.503  -5.999  0.00  0.00     0.150 A 
ATOM      5  C4  UNL d   1       3.687   5.203  -5.999  0.00  0.00    -0.007 A 
ATOM      6  C5  UNL d   1       4.893   4.503  -5.995  0.00  0.00     0.039 A 
ENDROOT
BRANCH   4   7
ATOM      7  O   UNL d   1       1.331   5.229  -5.998  0.00  0.00    -0.526 OA
ATOM      8  H5  UNL d   1       0.580   4.612  -5.968  0.00  0.00     0.418 HD
ENDBRANCH   4   7
TORSDOF 1
ENDMDL
