MODEL 1
REMARK minimizedAffinity -3.61180782
REMARK minimizedRMSD -1
REMARK  1 active torsions:
REMARK  status: ('A' for Active; 'I' for Inactive)
REMARK    1  A    between atoms: C3_4  and  O_7 
ROOT
ATOM      1  C   UNL d   1       4.671   3.384  -6.000  0.00  0.00    -0.033 A 
ATOM      2  C1  UNL d   1       4.926   4.749  -5.854  0.00  0.00     0.039 A 
ATOM      3  C2  UNL d   1       3.869   5.643  -5.670  0.00  0.00    -0.080 A 
ATOM      4  C3  UNL d   1       2.564   5.160  -5.633  0.00  0.00     0.150 A 
ATOM      5  C4  UNL d   1       2.303   3.801  -5.774  0.00  0.00    -0.007 A 
ATOM      6  C5  UNL d   1       3.359   2.910  -5.958  0.00  0.00     0.039 A 
ENDROOT
BRANCH   4   7
ATOM      7  O   UNL d   1       1.500   5.995  -5.461  0.00  0.00    -0.526 OA
ATOM      8  H5  UNL d   1       1.830   6.907  -5.407  0.00  0.00     0.418 HD
ENDBRANCH   4   7
TORSDOF 1
ENDMDL
