MODEL 1
REMARK minimizedAffinity -2.58800912
REMARK minimizedRMSD -1
REMARK  1 active torsions:
REMARK  status: ('A' for Active; 'I' for Inactive)
REMARK    1  A    between atoms: C3_4  and  O_7 
ROOT
ATOM      1  C   UNL d   1       4.287   5.389  -5.617  0.00  0.00    -0.033 A 
ATOM      2  C1  UNL d   1       4.313   4.046  -6.000  0.00  0.00     0.039 A 
ATOM      3  C2  UNL d   1       3.136   3.295  -5.996  0.00  0.00    -0.080 A 
ATOM      4  C3  UNL d   1       1.942   3.897  -5.608  0.00  0.00     0.150 A 
ATOM      5  C4  UNL d   1       1.908   5.235  -5.229  0.00  0.00    -0.007 A 
ATOM      6  C5  UNL d   1       3.085   5.983  -5.233  0.00  0.00     0.039 A 
ENDROOT
BRANCH   4   7
ATOM      7  O   UNL d   1       0.769   3.202  -5.584  0.00  0.00    -0.526 OA
ATOM      8  H5  UNL d   1       0.950   2.283  -5.842  0.00  0.00     0.418 HD
ENDBRANCH   4   7
TORSDOF 1
ENDMDL
