MODEL 1
REMARK minimizedAffinity 2.15384603
REMARK minimizedRMSD -1
REMARK  1 active torsions:
REMARK  status: ('A' for Active; 'I' for Inactive)
REMARK    1  A    between atoms: C3_4  and  O_7 
ROOT
ATOM      1  C   UNL d   1       3.354   2.129   0.702  0.00  0.00    -0.033 A 
ATOM      2  C1  UNL d   1       3.924   1.007   1.307  0.00  0.00     0.039 A 
ATOM      3  C2  UNL d   1       3.230  -0.204   1.330  0.00  0.00    -0.080 A 
ATOM      4  C3  UNL d   1       1.970  -0.281   0.744  0.00  0.00     0.150 A 
ATOM      5  C4  UNL d   1       1.397   0.831   0.136  0.00  0.00    -0.007 A 
ATOM      6  C5  UNL d   1       2.091   2.041   0.115  0.00  0.00     0.039 A 
ENDROOT
BRANCH   4   7
ATOM      7  O   UNL d   1       1.253  -1.440   0.746  0.00  0.00    -0.526 OA
ATOM      8  H5  UNL d   1       1.761  -2.116   1.226  0.00  0.00     0.418 HD
ENDBRANCH   4   7
TORSDOF 1
ENDMDL
