MODEL 1
REMARK minimizedAffinity 0.171107069
REMARK minimizedRMSD -1
REMARK  1 active torsions:
REMARK  status: ('A' for Active; 'I' for Inactive)
REMARK    1  A    between atoms: C3_4  and  O_7 
ROOT
ATOM      1  C   UNL d   1       1.711   5.999  -4.760  0.00  0.00    -0.033 A 
ATOM      2  C1  UNL d   1       2.427   6.000  -3.561  0.00  0.00     0.039 A 
ATOM      3  C2  UNL d   1       3.823   5.996  -3.579  0.00  0.00    -0.080 A 
ATOM      4  C3  UNL d   1       4.491   5.993  -4.801  0.00  0.00     0.150 A 
ATOM      5  C4  UNL d   1       3.784   5.997  -5.999  0.00  0.00    -0.007 A 
ATOM      6  C5  UNL d   1       2.390   5.999  -5.979  0.00  0.00     0.039 A 
ENDROOT
BRANCH   4   7
ATOM      7  O   UNL d   1       5.852   5.985  -4.869  0.00  0.00    -0.526 OA
ATOM      8  H5  UNL d   1       6.205   5.955  -3.964  0.00  0.00     0.418 HD
ENDBRANCH   4   7
TORSDOF 1
ENDMDL
