MODEL 1
REMARK minimizedAffinity -2.49318504
REMARK minimizedRMSD -1
REMARK  1 active torsions:
REMARK  status: ('A' for Active; 'I' for Inactive)
REMARK    1  A    between atoms: C3_4  and  O_7 
ROOT
ATOM      1  C   UNL d   1       5.976   3.825  -5.616  0.00  0.00    -0.033 A 
ATOM      2  C1  UNL d   1       4.784   3.197  -5.983  0.00  0.00     0.039 A 
ATOM      3  C2  UNL d   1       3.586   3.915  -5.983  0.00  0.00    -0.080 A 
ATOM      4  C3  UNL d   1       3.595   5.258  -5.617  0.00  0.00     0.150 A 
ATOM      5  C4  UNL d   1       4.779   5.891  -5.254  0.00  0.00    -0.007 A 
ATOM      6  C5  UNL d   1       5.974   5.172  -5.253  0.00  0.00     0.039 A 
ENDROOT
BRANCH   4   7
ATOM      7  O   UNL d   1       2.450   5.998  -5.598  0.00  0.00    -0.526 OA
ATOM      8  H5  UNL d   1       1.707   5.423  -5.843  0.00  0.00     0.418 HD
ENDBRANCH   4   7
TORSDOF 1
ENDMDL
