MODEL 1
REMARK minimizedAffinity 1.50840247
REMARK minimizedRMSD -1
REMARK  1 active torsions:
REMARK  status: ('A' for Active; 'I' for Inactive)
REMARK    1  A    between atoms: C3_4  and  O_7 
ROOT
ATOM      1  C   UNL d   1       1.979   0.396   2.799  0.00  0.00    -0.033 A 
ATOM      2  C1  UNL d   1       2.715   0.416   1.612  0.00  0.00     0.039 A 
ATOM      3  C2  UNL d   1       4.070   0.080   1.623  0.00  0.00    -0.080 A 
ATOM      4  C3  UNL d   1       4.677  -0.273   2.825  0.00  0.00     0.150 A 
ATOM      5  C4  UNL d   1       3.950  -0.298   4.010  0.00  0.00    -0.007 A 
ATOM      6  C5  UNL d   1       2.597   0.038   3.998  0.00  0.00     0.039 A 
ENDROOT
BRANCH   4   7
ATOM      7  O   UNL d   1       5.998  -0.603   2.886  0.00  0.00    -0.526 OA
ATOM      8  H5  UNL d   1       6.379  -0.514   1.996  0.00  0.00     0.418 HD
ENDBRANCH   4   7
TORSDOF 1
ENDMDL
