MODEL 1
REMARK minimizedAffinity 6.00317335
REMARK minimizedRMSD -1
REMARK  1 active torsions:
REMARK  status: ('A' for Active; 'I' for Inactive)
REMARK    1  A    between atoms: C3_4  and  O_7 
ROOT
ATOM      1  C   UNL d   1       3.629   4.792  -5.765  0.00  0.00    -0.033 A 
ATOM      2  C1  UNL d   1       2.929   3.584  -5.748  0.00  0.00     0.039 A 
ATOM      3  C2  UNL d   1       1.535   3.582  -5.827  0.00  0.00    -0.080 A 
ATOM      4  C3  UNL d   1       0.855   4.793  -5.924  0.00  0.00     0.150 A 
ATOM      5  C4  UNL d   1       1.546   6.000  -5.946  0.00  0.00    -0.007 A 
ATOM      6  C5  UNL d   1       2.938   6.000  -5.865  0.00  0.00     0.039 A 
ENDROOT
BRANCH   4   7
ATOM      7  O   UNL d   1      -0.506   4.842  -5.999  0.00  0.00    -0.526 OA
ATOM      8  H5  UNL d   1      -0.850   3.934  -5.944  0.00  0.00     0.418 HD
ENDBRANCH   4   7
TORSDOF 1
ENDMDL
