MODEL 1
REMARK minimizedAffinity -3.92498636
REMARK minimizedRMSD -1
REMARK  0 active torsions:
REMARK  status: ('A' for Active; 'I' for Inactive)
ROOT
ATOM      1  C1  BNZ d   1      -1.174   1.832   0.510  0.00  0.00     0.000 A 
ATOM      2  C2  BNZ d   1      -0.644   0.812  -0.235  0.00  0.00     0.000 A 
ATOM      3  C3  BNZ d   1       0.249  -0.064   0.315  0.00  0.00     0.000 A 
ATOM      4  C4  BNZ d   1       0.642   0.104   1.594  0.00  0.00     0.000 A 
ATOM      5  C5  BNZ d   1       0.124   1.133   2.355  0.00  0.00     0.000 A 
ATOM      6  C6  BNZ d   1      -0.805   1.990   1.810  0.00  0.00     0.000 A 
ENDROOT
TORSDOF 0
ENDMDL
