MODEL 1
REMARK minimizedAffinity -4.20850706
REMARK minimizedRMSD -1
REMARK  0 active torsions:
REMARK  status: ('A' for Active; 'I' for Inactive)
ROOT
ATOM      1  C1  BNZ d   1      -0.166   0.336   1.300  0.00  0.00     0.000 A 
ATOM      2  C2  BNZ d   1      -0.498   1.481   1.973  0.00  0.00     0.000 A 
ATOM      3  C3  BNZ d   1      -1.144   2.504   1.337  0.00  0.00     0.000 A 
ATOM      4  C4  BNZ d   1      -1.420   2.398   0.022  0.00  0.00     0.000 A 
ATOM      5  C5  BNZ d   1      -1.083   1.254  -0.673  0.00  0.00     0.000 A 
ATOM      6  C6  BNZ d   1      -0.468   0.210  -0.021  0.00  0.00     0.000 A 
ENDROOT
TORSDOF 0
ENDMDL
