MODEL 1
REMARK minimizedAffinity -4.69600582
REMARK minimizedRMSD -1
REMARK  0 active torsions:
REMARK  status: ('A' for Active; 'I' for Inactive)
ROOT
ATOM      1  C1  BNZ d   1      -0.566   0.970   0.594  0.00  0.00     0.000 A 
ATOM      2  C2  BNZ d   1      -0.663   1.308  -0.729  0.00  0.00     0.000 A 
ATOM      3  C3  BNZ d   1      -1.115   2.542  -1.105  0.00  0.00     0.000 A 
ATOM      4  C4  BNZ d   1      -1.507   3.421  -0.160  0.00  0.00     0.000 A 
ATOM      5  C5  BNZ d   1      -1.424   3.091   1.178  0.00  0.00     0.000 A 
ATOM      6  C6  BNZ d   1      -0.932   1.862   1.554  0.00  0.00     0.000 A 
ENDROOT
TORSDOF 0
ENDMDL
