MODEL 1
REMARK minimizedAffinity -3.18302774
REMARK minimizedRMSD -1
REMARK  0 active torsions:
REMARK  status: ('A' for Active; 'I' for Inactive)
ROOT
ATOM      1  C1  BNZ d   1       0.129   1.092   2.194  0.00  0.00     0.000 A 
ATOM      2  C2  BNZ d   1       0.751   0.126   1.449  0.00  0.00     0.000 A 
ATOM      3  C3  BNZ d   1       0.394  -0.092   0.148  0.00  0.00     0.000 A 
ATOM      4  C4  BNZ d   1      -0.611   0.627  -0.393  0.00  0.00     0.000 A 
ATOM      5  C5  BNZ d   1      -1.254   1.598   0.348  0.00  0.00     0.000 A 
ATOM      6  C6  BNZ d   1      -0.865   1.842   1.645  0.00  0.00     0.000 A 
ENDROOT
TORSDOF 0
ENDMDL
