MODEL 1
REMARK minimizedAffinity -4.60997629
REMARK minimizedRMSD -1
REMARK  0 active torsions:
REMARK  status: ('A' for Active; 'I' for Inactive)
ROOT
ATOM      1  C1  BNZ d   1       0.080  -0.059   1.679  0.00  0.00     0.000 A 
ATOM      2  C2  BNZ d   1       0.400  -0.520   0.430  0.00  0.00     0.000 A 
ATOM      3  C3  BNZ d   1       0.091   0.208  -0.685  0.00  0.00     0.000 A 
ATOM      4  C4  BNZ d   1      -0.572   1.374  -0.552  0.00  0.00     0.000 A 
ATOM      5  C5  BNZ d   1      -0.910   1.848   0.700  0.00  0.00     0.000 A 
ATOM      6  C6  BNZ d   1      -0.563   1.131   1.822  0.00  0.00     0.000 A 
ENDROOT
TORSDOF 0
ENDMDL
