MODEL 1
REMARK minimizedAffinity -3.5900147
REMARK minimizedRMSD -1
REMARK  0 active torsions:
REMARK  status: ('A' for Active; 'I' for Inactive)
ROOT
ATOM      1  C1  BNZ d   1       0.056   1.166  -1.196  0.00  0.00     0.000 A 
ATOM      2  C2  BNZ d   1       0.668  -0.042  -1.397  0.00  0.00     0.000 A 
ATOM      3  C3  BNZ d   1       0.513  -1.063  -0.501  0.00  0.00     0.000 A 
ATOM      4  C4  BNZ d   1      -0.220  -0.862   0.613  0.00  0.00     0.000 A 
ATOM      5  C5  BNZ d   1      -0.836   0.354   0.834  0.00  0.00     0.000 A 
ATOM      6  C6  BNZ d   1      -0.710   1.366  -0.089  0.00  0.00     0.000 A 
ENDROOT
TORSDOF 0
ENDMDL
