MODEL 1
REMARK minimizedAffinity -1.2196995
REMARK minimizedRMSD -1
REMARK  0 active torsions:
REMARK  status: ('A' for Active; 'I' for Inactive)
ROOT
ATOM      1  C   UNL d   1      -2.671  -4.480   3.274  0.00  0.00     0.078 C 
ATOM      2  C1  UNL d   1      -3.146  -4.920   1.922  0.00  0.00    -0.077 A 
ATOM      3  C2  UNL d   1      -4.481  -5.285   1.710  0.00  0.00    -0.001 A 
ATOM      4  C3  UNL d   1      -4.907  -5.702   0.448  0.00  0.00     0.003 A 
ATOM      5  C4  UNL d   1      -4.005  -5.759  -0.612  0.00  0.00    -0.005 A 
ATOM      6  C5  UNL d   1      -2.673  -5.400  -0.410  0.00  0.00     0.003 A 
ATOM      7  C6  UNL d   1      -2.245  -4.983   0.851  0.00  0.00    -0.001 A 
ENDROOT
TORSDOF 0
ENDMDL
