MODEL 1
REMARK minimizedAffinity -3.769907
REMARK minimizedRMSD -1
REMARK  0 active torsions:
REMARK  status: ('A' for Active; 'I' for Inactive)
ROOT
ATOM      1  C   UNL d   1      -2.133  -0.757   2.431  0.00  0.00     0.078 C 
ATOM      2  C1  UNL d   1      -0.961  -0.631   1.504  0.00  0.00    -0.077 A 
ATOM      3  C2  UNL d   1      -0.943   0.338   0.493  0.00  0.00    -0.001 A 
ATOM      4  C3  UNL d   1       0.150   0.438  -0.369  0.00  0.00     0.003 A 
ATOM      5  C4  UNL d   1       1.233  -0.429  -0.230  0.00  0.00    -0.005 A 
ATOM      6  C5  UNL d   1       1.222  -1.397   0.772  0.00  0.00     0.003 A 
ATOM      7  C6  UNL d   1       0.130  -1.499   1.635  0.00  0.00    -0.001 A 
ENDROOT
TORSDOF 0
ENDMDL
