MODEL 1
REMARK minimizedAffinity -3.47219133
REMARK minimizedRMSD -1
REMARK  0 active torsions:
REMARK  status: ('A' for Active; 'I' for Inactive)
ROOT
ATOM      1  C   UNL d   1       1.065  -3.252   0.848  0.00  0.00     0.078 C 
ATOM      2  C1  UNL d   1       0.769  -1.833   0.464  0.00  0.00    -0.077 A 
ATOM      3  C2  UNL d   1       1.774  -0.995  -0.033  0.00  0.00    -0.001 A 
ATOM      4  C3  UNL d   1       1.486   0.326  -0.378  0.00  0.00     0.003 A 
ATOM      5  C4  UNL d   1       0.192   0.822  -0.227  0.00  0.00    -0.005 A 
ATOM      6  C5  UNL d   1      -0.815  -0.004   0.269  0.00  0.00     0.003 A 
ATOM      7  C6  UNL d   1      -0.528  -1.325   0.613  0.00  0.00    -0.001 A 
ENDROOT
TORSDOF 0
ENDMDL
