MODEL 1
REMARK minimizedAffinity -0.769357026
REMARK minimizedRMSD -1
REMARK  0 active torsions:
REMARK  status: ('A' for Active; 'I' for Inactive)
ROOT
ATOM      1  C   UNL d   1      -1.099   1.679  -1.125  0.00  0.00     0.078 C 
ATOM      2  C1  UNL d   1      -0.134   0.701  -0.525  0.00  0.00    -0.077 A 
ATOM      3  C2  UNL d   1      -0.520  -0.143   0.524  0.00  0.00    -0.001 A 
ATOM      4  C3  UNL d   1       0.392  -1.042   1.079  0.00  0.00     0.003 A 
ATOM      5  C4  UNL d   1       1.696  -1.105   0.593  0.00  0.00    -0.005 A 
ATOM      6  C5  UNL d   1       2.091  -0.268  -0.448  0.00  0.00     0.003 A 
ATOM      7  C6  UNL d   1       1.180   0.632  -1.005  0.00  0.00    -0.001 A 
ENDROOT
TORSDOF 0
ENDMDL
