MODEL 1
REMARK minimizedAffinity -5.52108717
REMARK minimizedRMSD -1
REMARK  0 active torsions:
REMARK  status: ('A' for Active; 'I' for Inactive)
ROOT
ATOM      1  C   UNL d   1       0.927  -2.660   0.741  0.00  0.00     0.078 C 
ATOM      2  C1  UNL d   1       0.639  -1.241   0.353  0.00  0.00    -0.077 A 
ATOM      3  C2  UNL d   1      -0.635  -0.688   0.532  0.00  0.00    -0.001 A 
ATOM      4  C3  UNL d   1      -0.891   0.632   0.158  0.00  0.00     0.003 A 
ATOM      5  C4  UNL d   1       0.122   1.410  -0.400  0.00  0.00    -0.005 A 
ATOM      6  C5  UNL d   1       1.392   0.868  -0.584  0.00  0.00     0.003 A 
ATOM      7  C6  UNL d   1       1.650  -0.452  -0.210  0.00  0.00    -0.001 A 
ENDROOT
TORSDOF 0
ENDMDL
