MODEL 1
REMARK minimizedAffinity -4.01127815
REMARK minimizedRMSD -1
REMARK  0 active torsions:
REMARK  status: ('A' for Active; 'I' for Inactive)
ROOT
ATOM      1  C   UNL d   1      -0.752   0.833  -0.540  0.00  0.00     0.078 C 
ATOM      2  C1  UNL d   1      -0.292  -0.347   0.263  0.00  0.00    -0.077 A 
ATOM      3  C2  UNL d   1      -1.074  -0.858   1.306  0.00  0.00    -0.001 A 
ATOM      4  C3  UNL d   1      -0.629  -1.950   2.053  0.00  0.00     0.003 A 
ATOM      5  C4  UNL d   1       0.600  -2.540   1.765  0.00  0.00    -0.005 A 
ATOM      6  C5  UNL d   1       1.386  -2.037   0.731  0.00  0.00     0.003 A 
ATOM      7  C6  UNL d   1       0.943  -0.945  -0.017  0.00  0.00    -0.001 A 
ENDROOT
TORSDOF 0
ENDMDL
