MODEL 1
REMARK minimizedAffinity -4.89666605
REMARK minimizedRMSD -1
REMARK  0 active torsions:
REMARK  status: ('A' for Active; 'I' for Inactive)
ROOT
ATOM      1  C   UNL d   1       1.446   0.328  -0.482  0.00  0.00     0.078 C 
ATOM      2  C1  UNL d   1       1.046  -0.744   0.487  0.00  0.00    -0.077 A 
ATOM      3  C2  UNL d   1       1.978  -1.681   0.950  0.00  0.00    -0.001 A 
ATOM      4  C3  UNL d   1       1.590  -2.680   1.845  0.00  0.00     0.003 A 
ATOM      5  C4  UNL d   1       0.269  -2.751   2.284  0.00  0.00    -0.005 A 
ATOM      6  C5  UNL d   1      -0.665  -1.823   1.827  0.00  0.00     0.003 A 
ATOM      7  C6  UNL d   1      -0.279  -0.824   0.932  0.00  0.00    -0.001 A 
ENDROOT
TORSDOF 0
ENDMDL
