MODEL 1
REMARK minimizedAffinity -4.88925505
REMARK minimizedRMSD -1
REMARK  0 active torsions:
REMARK  status: ('A' for Active; 'I' for Inactive)
ROOT
ATOM      1  C   UNL d   1       0.739  -3.119   1.935  0.00  0.00     0.078 C 
ATOM      2  C1  UNL d   1       0.900  -1.859   1.138  0.00  0.00    -0.077 A 
ATOM      3  C2  UNL d   1       2.170  -1.356   0.833  0.00  0.00    -0.001 A 
ATOM      4  C3  UNL d   1       2.305  -0.177   0.098  0.00  0.00     0.003 A 
ATOM      5  C4  UNL d   1       1.173   0.510  -0.337  0.00  0.00    -0.005 A 
ATOM      6  C5  UNL d   1      -0.096   0.018  -0.036  0.00  0.00     0.003 A 
ATOM      7  C6  UNL d   1      -0.232  -1.161   0.698  0.00  0.00    -0.001 A 
ENDROOT
TORSDOF 0
ENDMDL
