MODEL 1
REMARK minimizedAffinity -4.06660461
REMARK minimizedRMSD -1
REMARK  0 active torsions:
REMARK  status: ('A' for Active; 'I' for Inactive)
ROOT
ATOM      1  C   UNL d   1       1.701   0.007  -0.754  0.00  0.00     0.078 C 
ATOM      2  C1  UNL d   1       1.077  -0.907   0.259  0.00  0.00    -0.077 A 
ATOM      3  C2  UNL d   1      -0.200  -0.650   0.772  0.00  0.00    -0.001 A 
ATOM      4  C3  UNL d   1      -0.765  -1.503   1.721  0.00  0.00     0.003 A 
ATOM      5  C4  UNL d   1      -0.059  -2.619   2.166  0.00  0.00    -0.005 A 
ATOM      6  C5  UNL d   1       1.214  -2.882   1.663  0.00  0.00     0.003 A 
ATOM      7  C6  UNL d   1       1.780  -2.029   0.714  0.00  0.00    -0.001 A 
ENDROOT
TORSDOF 0
ENDMDL
