MODEL 1
REMARK minimizedAffinity 6.12576103
REMARK minimizedRMSD -1
REMARK  0 active torsions:
REMARK  status: ('A' for Active; 'I' for Inactive)
ROOT
ATOM      1  C   UNL d   1       2.178  -0.289   0.867  0.00  0.00     0.124 A 
ATOM      2  C1  UNL d   1       2.582  -0.928   2.031  0.00  0.00     0.062 A 
ATOM      3  C2  UNL d   1       1.680  -1.703   2.753  0.00  0.00     0.162 A 
ATOM      4  C3  UNL d   1       0.364  -1.845   2.313  0.00  0.00    -0.034 A 
ATOM      5  C4  UNL d   1      -0.035  -1.198   1.142  0.00  0.00     0.162 A 
ATOM      6  C5  UNL d   1       0.870  -0.424   0.423  0.00  0.00     0.062 A 
ATOM      7  F   UNL d   1       0.478   0.193  -0.701  0.00  0.00    -0.097 F 
ATOM      8  F1  UNL d   1      -1.293  -1.313   0.690  0.00  0.00    -0.096 F 
ATOM      9  I   UNL d   1      -0.989  -3.003   3.390  0.00  0.00    -0.060 I 
ATOM     10  F2  UNL d   1       2.097  -2.309   3.874  0.00  0.00    -0.096 F 
ATOM     11  F3  UNL d   1       3.845  -0.797   2.462  0.00  0.00    -0.097 F 
ATOM     12  F4  UNL d   1       3.049   0.458   0.175  0.00  0.00    -0.092 F 
ENDROOT
TORSDOF 0
ENDMDL
