MODEL 1
REMARK minimizedAffinity 0.673414946
REMARK minimizedRMSD -1
REMARK  0 active torsions:
REMARK  status: ('A' for Active; 'I' for Inactive)
ROOT
ATOM      1  C   UNL d   1       0.845  -0.305   0.664  0.00  0.00     0.124 A 
ATOM      2  C1  UNL d   1       0.110  -0.035  -0.483  0.00  0.00     0.062 A 
ATOM      3  C2  UNL d   1      -1.260  -0.279  -0.511  0.00  0.00     0.162 A 
ATOM      4  C3  UNL d   1      -1.905  -0.797   0.613  0.00  0.00    -0.034 A 
ATOM      5  C4  UNL d   1      -1.160  -1.066   1.762  0.00  0.00     0.162 A 
ATOM      6  C5  UNL d   1       0.209  -0.820   1.785  0.00  0.00     0.062 A 
ATOM      7  F   UNL d   1       0.917  -1.082   2.893  0.00  0.00    -0.097 F 
ATOM      8  F1  UNL d   1      -1.748  -1.564   2.860  0.00  0.00    -0.096 F 
ATOM      9  I   UNL d   1      -3.953  -1.164   0.575  0.00  0.00    -0.060 I 
ATOM     10  F2  UNL d   1      -1.944  -0.009  -1.632  0.00  0.00    -0.096 F 
ATOM     11  F3  UNL d   1       0.722   0.463  -1.567  0.00  0.00    -0.097 F 
ATOM     12  F4  UNL d   1       2.163  -0.069   0.687  0.00  0.00    -0.092 F 
ENDROOT
TORSDOF 0
ENDMDL
