MODEL 1
REMARK minimizedAffinity 4.94774103
REMARK minimizedRMSD -1
REMARK  0 active torsions:
REMARK  status: ('A' for Active; 'I' for Inactive)
ROOT
ATOM      1  C   UNL d   1      -1.449   3.171  -2.343  0.00  0.00     0.124 A 
ATOM      2  C1  UNL d   1      -0.650   2.069  -2.070  0.00  0.00     0.062 A 
ATOM      3  C2  UNL d   1      -1.226   0.815  -1.886  0.00  0.00     0.162 A 
ATOM      4  C3  UNL d   1      -2.609   0.656  -1.975  0.00  0.00    -0.034 A 
ATOM      5  C4  UNL d   1      -3.406   1.769  -2.249  0.00  0.00     0.162 A 
ATOM      6  C5  UNL d   1      -2.825   3.020  -2.432  0.00  0.00     0.062 A 
ATOM      7  F   UNL d   1      -3.599   4.083  -2.696  0.00  0.00    -0.097 F 
ATOM      8  F1  UNL d   1      -4.739   1.651  -2.342  0.00  0.00    -0.096 F 
ATOM      9  I   UNL d   1      -3.473  -1.217  -1.701  0.00  0.00    -0.060 I 
ATOM     10  F2  UNL d   1      -0.430  -0.232  -1.624  0.00  0.00    -0.096 F 
ATOM     11  F3  UNL d   1       0.680   2.212  -1.982  0.00  0.00    -0.097 F 
ATOM     12  F4  UNL d   1      -0.892   4.376  -2.518  0.00  0.00    -0.092 F 
ENDROOT
TORSDOF 0
ENDMDL
