MODEL 1
REMARK minimizedAffinity -4.46208668
REMARK minimizedRMSD -1
REMARK  0 active torsions:
REMARK  status: ('A' for Active; 'I' for Inactive)
ROOT
ATOM      1  C   UNL d   1       1.827  -1.335   2.025  0.00  0.00     0.124 A 
ATOM      2  C1  UNL d   1       0.655  -0.652   2.318  0.00  0.00     0.062 A 
ATOM      3  C2  UNL d   1      -0.161  -0.186   1.291  0.00  0.00     0.162 A 
ATOM      4  C3  UNL d   1       0.193  -0.403  -0.041  0.00  0.00    -0.034 A 
ATOM      5  C4  UNL d   1       1.374  -1.090  -0.328  0.00  0.00     0.162 A 
ATOM      6  C5  UNL d   1       2.185  -1.553   0.702  0.00  0.00     0.062 A 
ATOM      7  F   UNL d   1       3.317  -2.213   0.417  0.00  0.00    -0.097 F 
ATOM      8  F1  UNL d   1       1.744  -1.316  -1.598  0.00  0.00    -0.096 F 
ATOM      9  I   UNL d   1      -1.023   0.292  -1.581  0.00  0.00    -0.060 I 
ATOM     10  F2  UNL d   1      -1.287   0.471   1.604  0.00  0.00    -0.096 F 
ATOM     11  F3  UNL d   1       0.306  -0.438   3.596  0.00  0.00    -0.097 F 
ATOM     12  F4  UNL d   1       2.610  -1.781   3.016  0.00  0.00    -0.092 F 
ENDROOT
TORSDOF 0
ENDMDL
