MODEL 1
REMARK minimizedAffinity 3.16488743
REMARK minimizedRMSD -1
REMARK  0 active torsions:
REMARK  status: ('A' for Active; 'I' for Inactive)
ROOT
ATOM      1  C   UNL d   1       1.517  -0.703  -0.366  0.00  0.00     0.124 A 
ATOM      2  C1  UNL d   1       1.027   0.209   0.559  0.00  0.00     0.062 A 
ATOM      3  C2  UNL d   1       0.271   1.298   0.134  0.00  0.00     0.162 A 
ATOM      4  C3  UNL d   1      -0.001   1.481  -1.222  0.00  0.00    -0.034 A 
ATOM      5  C4  UNL d   1       0.496   0.560  -2.145  0.00  0.00     0.162 A 
ATOM      6  C5  UNL d   1       1.251  -0.527  -1.716  0.00  0.00     0.062 A 
ATOM      7  F   UNL d   1       1.723  -1.408  -2.611  0.00  0.00    -0.097 F 
ATOM      8  F1  UNL d   1       0.253   0.705  -3.457  0.00  0.00    -0.096 F 
ATOM      9  I   UNL d   1      -1.131   3.108  -1.860  0.00  0.00    -0.060 I 
ATOM     10  F2  UNL d   1      -0.190   2.164   1.050  0.00  0.00    -0.096 F 
ATOM     11  F3  UNL d   1       1.283   0.042   1.864  0.00  0.00    -0.097 F 
ATOM     12  F4  UNL d   1       2.245  -1.749   0.045  0.00  0.00    -0.092 F 
ENDROOT
TORSDOF 0
ENDMDL
