MODEL 1
REMARK minimizedAffinity 4.42176342
REMARK minimizedRMSD -1
REMARK  0 active torsions:
REMARK  status: ('A' for Active; 'I' for Inactive)
ROOT
ATOM      1  C   UNL d   1       2.561  -0.680   0.449  0.00  0.00     0.124 A 
ATOM      2  C1  UNL d   1       2.209  -1.042  -0.844  0.00  0.00     0.062 A 
ATOM      3  C2  UNL d   1       1.106  -0.457  -1.459  0.00  0.00     0.162 A 
ATOM      4  C3  UNL d   1       0.348   0.499  -0.782  0.00  0.00    -0.034 A 
ATOM      5  C4  UNL d   1       0.707   0.857   0.518  0.00  0.00     0.162 A 
ATOM      6  C5  UNL d   1       1.810   0.269   1.129  0.00  0.00     0.062 A 
ATOM      7  F   UNL d   1       2.149   0.620   2.378  0.00  0.00    -0.097 F 
ATOM      8  F1  UNL d   1      -0.000   1.772   1.197  0.00  0.00    -0.096 F 
ATOM      9  I   UNL d   1      -1.302   1.377  -1.699  0.00  0.00    -0.060 I 
ATOM     10  F2  UNL d   1       0.789  -0.825  -2.709  0.00  0.00    -0.096 F 
ATOM     11  F3  UNL d   1       2.932  -1.959  -1.502  0.00  0.00    -0.097 F 
ATOM     12  F4  UNL d   1       3.622  -1.246   1.039  0.00  0.00    -0.092 F 
ENDROOT
TORSDOF 0
ENDMDL
