MODEL 1
REMARK minimizedAffinity 1.48521459
REMARK minimizedRMSD -1
REMARK  0 active torsions:
REMARK  status: ('A' for Active; 'I' for Inactive)
ROOT
ATOM      1  C   UNL d   1      -0.590   3.064  -2.751  0.00  0.00     0.124 A 
ATOM      2  C1  UNL d   1      -1.921   2.844  -3.078  0.00  0.00     0.062 A 
ATOM      3  C2  UNL d   1      -2.577   1.708  -2.615  0.00  0.00     0.162 A 
ATOM      4  C3  UNL d   1      -1.903   0.782  -1.819  0.00  0.00    -0.034 A 
ATOM      5  C4  UNL d   1      -0.564   1.009  -1.495  0.00  0.00     0.162 A 
ATOM      6  C5  UNL d   1       0.087   2.147  -1.960  0.00  0.00     0.062 A 
ATOM      7  F   UNL d   1       1.373   2.358  -1.643  0.00  0.00    -0.097 F 
ATOM      8  F1  UNL d   1       0.113   0.140  -0.731  0.00  0.00    -0.096 F 
ATOM      9  I   UNL d   1      -2.880  -0.919  -1.124  0.00  0.00    -0.060 I 
ATOM     10  F2  UNL d   1      -3.863   1.521  -2.947  0.00  0.00    -0.096 F 
ATOM     11  F3  UNL d   1      -2.577   3.729  -3.844  0.00  0.00    -0.097 F 
ATOM     12  F4  UNL d   1       0.039   4.159  -3.199  0.00  0.00    -0.092 F 
ENDROOT
TORSDOF 0
ENDMDL
