MODEL 1
REMARK minimizedAffinity 14.2488174
REMARK minimizedRMSD -1
REMARK  0 active torsions:
REMARK  status: ('A' for Active; 'I' for Inactive)
ROOT
ATOM      1  C   UNL d   1       0.941  -1.168   1.393  0.00  0.00     0.124 A 
ATOM      2  C1  UNL d   1       0.481  -0.335   0.383  0.00  0.00     0.062 A 
ATOM      3  C2  UNL d   1      -0.859  -0.363   0.008  0.00  0.00     0.162 A 
ATOM      4  C3  UNL d   1      -1.750  -1.227   0.644  0.00  0.00    -0.034 A 
ATOM      5  C4  UNL d   1      -1.280  -2.063   1.659  0.00  0.00     0.162 A 
ATOM      6  C5  UNL d   1       0.060  -2.031   2.030  0.00  0.00     0.062 A 
ATOM      7  F   UNL d   1       0.503  -2.837   3.006  0.00  0.00    -0.097 F 
ATOM      8  F1  UNL d   1      -2.109  -2.906   2.291  0.00  0.00    -0.096 F 
ATOM      9  I   UNL d   1      -3.755  -1.273   0.086  0.00  0.00    -0.060 I 
ATOM     10  F2  UNL d   1      -1.276   0.453  -0.972  0.00  0.00    -0.096 F 
ATOM     11  F3  UNL d   1       1.330   0.500  -0.235  0.00  0.00    -0.097 F 
ATOM     12  F4  UNL d   1       2.231  -1.139   1.751  0.00  0.00    -0.092 F 
ENDROOT
TORSDOF 0
ENDMDL
