MODEL 1
REMARK minimizedAffinity 1.72747457
REMARK minimizedRMSD -1
REMARK  0 active torsions:
REMARK  status: ('A' for Active; 'I' for Inactive)
ROOT
ATOM      1  C   UNL d   1       0.624  -1.159   2.236  0.00  0.00     0.124 A 
ATOM      2  C1  UNL d   1       0.579  -0.275   1.167  0.00  0.00     0.062 A 
ATOM      3  C2  UNL d   1      -0.529  -0.251   0.324  0.00  0.00     0.162 A 
ATOM      4  C3  UNL d   1      -1.602  -1.115   0.548  0.00  0.00    -0.034 A 
ATOM      5  C4  UNL d   1      -1.549  -2.002   1.624  0.00  0.00     0.162 A 
ATOM      6  C5  UNL d   1      -0.439  -2.022   2.463  0.00  0.00     0.062 A 
ATOM      7  F   UNL d   1      -0.398  -2.877   3.495  0.00  0.00    -0.097 F 
ATOM      8  F1  UNL d   1      -2.563  -2.846   1.867  0.00  0.00    -0.096 F 
ATOM      9  I   UNL d   1      -3.259  -1.082  -0.710  0.00  0.00    -0.060 I 
ATOM     10  F2  UNL d   1      -0.545   0.614  -0.701  0.00  0.00    -0.096 F 
ATOM     11  F3  UNL d   1       1.605   0.558   0.945  0.00  0.00    -0.097 F 
ATOM     12  F4  UNL d   1       1.691  -1.181   3.045  0.00  0.00    -0.092 F 
ENDROOT
TORSDOF 0
ENDMDL
