MODEL 1
REMARK minimizedAffinity 3.02873898
REMARK minimizedRMSD -1
REMARK  0 active torsions:
REMARK  status: ('A' for Active; 'I' for Inactive)
ROOT
ATOM      1  C   UNL d   1       1.554  -0.706   2.052  0.00  0.00     0.124 A 
ATOM      2  C1  UNL d   1       1.667  -0.880   0.679  0.00  0.00     0.062 A 
ATOM      3  C2  UNL d   1       0.526  -1.016  -0.106  0.00  0.00     0.162 A 
ATOM      4  C3  UNL d   1      -0.740  -0.977   0.480  0.00  0.00    -0.034 A 
ATOM      5  C4  UNL d   1      -0.846  -0.803   1.861  0.00  0.00     0.162 A 
ATOM      6  C5  UNL d   1       0.298  -0.668   2.641  0.00  0.00     0.062 A 
ATOM      7  F   UNL d   1       0.186  -0.501   3.967  0.00  0.00    -0.097 F 
ATOM      8  F1  UNL d   1      -2.047  -0.762   2.457  0.00  0.00    -0.096 F 
ATOM      9  I   UNL d   1      -2.449  -1.180  -0.690  0.00  0.00    -0.060 I 
ATOM     10  F2  UNL d   1       0.665  -1.182  -1.429  0.00  0.00    -0.096 F 
ATOM     11  F3  UNL d   1       2.879  -0.918   0.108  0.00  0.00    -0.097 F 
ATOM     12  F4  UNL d   1       2.654  -0.576   2.805  0.00  0.00    -0.092 F 
ENDROOT
TORSDOF 0
ENDMDL
