MODEL 1
REMARK minimizedAffinity 4.15784311
REMARK minimizedRMSD -1
REMARK  1 active torsions:
REMARK  status: ('A' for Active; 'I' for Inactive)
REMARK    1  A    between atoms: C1_2  and  C2_3 
ROOT
ATOM      1  C2  UNL d   1      -0.222  -3.422  -2.002  0.00  0.00    -0.076 A 
ATOM      2  C3  UNL d   1       0.176  -2.076  -2.075  0.00  0.00     0.004 A 
ATOM      3  C4  UNL d   1       1.092  -1.549  -1.166  0.00  0.00    -0.003 A 
ATOM      4  C5  UNL d   1       1.625  -2.359  -0.170  0.00  0.00     0.000 A 
ATOM      5  C6  UNL d   1       1.255  -3.701  -0.093  0.00  0.00     0.000 A 
ATOM      6  C7  UNL d   1       0.345  -4.253  -1.012  0.00  0.00    -0.073 A 
ATOM      7  C8  UNL d   1      -0.024  -5.705  -0.879  0.00  0.00     0.078 C 
ENDROOT
BRANCH   1   8
ATOM      8  C1  UNL d   1      -1.240  -3.932  -2.997  0.00  0.00     0.053 C 
ATOM      9  C   UNL d   1      -1.568  -2.906  -4.072  0.00  0.00     0.018 C 
ENDBRANCH   1   8
TORSDOF 1
ENDMDL
