MODEL 1
REMARK minimizedAffinity 6.41719627
REMARK minimizedRMSD -1
REMARK  1 active torsions:
REMARK  status: ('A' for Active; 'I' for Inactive)
REMARK    1  A    between atoms: C1_2  and  C2_3 
ROOT
ATOM      1  C2  UNL d   1       2.088  -2.332  -0.674  0.00  0.00    -0.076 A 
ATOM      2  C3  UNL d   1       1.837  -3.684  -0.381  0.00  0.00     0.004 A 
ATOM      3  C4  UNL d   1       0.632  -4.285  -0.741  0.00  0.00    -0.003 A 
ATOM      4  C5  UNL d   1      -0.342  -3.544  -1.401  0.00  0.00     0.000 A 
ATOM      5  C6  UNL d   1      -0.103  -2.206  -1.716  0.00  0.00     0.000 A 
ATOM      6  C7  UNL d   1       1.113  -1.590  -1.374  0.00  0.00    -0.073 A 
ATOM      7  C8  UNL d   1       1.315  -0.143  -1.733  0.00  0.00     0.078 C 
ENDROOT
BRANCH   1   8
ATOM      8  C1  UNL d   1       3.402  -1.728  -0.234  0.00  0.00     0.053 C 
ATOM      9  C   UNL d   1       4.585  -2.272  -1.019  0.00  0.00     0.018 C 
ENDBRANCH   1   8
TORSDOF 1
ENDMDL
