MODEL 1
REMARK minimizedAffinity 3.4801991
REMARK minimizedRMSD -1
REMARK  1 active torsions:
REMARK  status: ('A' for Active; 'I' for Inactive)
REMARK    1  A    between atoms: C1_2  and  C2_3 
ROOT
ATOM      1  C2  UNL d   1       0.899   1.144  -0.484  0.00  0.00    -0.076 A 
ATOM      2  C3  UNL d   1       0.017   1.734  -1.405  0.00  0.00     0.004 A 
ATOM      3  C4  UNL d   1      -0.579   2.966  -1.139  0.00  0.00    -0.003 A 
ATOM      4  C5  UNL d   1      -0.300   3.628   0.052  0.00  0.00     0.000 A 
ATOM      5  C6  UNL d   1       0.586   3.065   0.969  0.00  0.00     0.000 A 
ATOM      6  C7  UNL d   1       1.208   1.831   0.709  0.00  0.00    -0.073 A 
ATOM      7  C8  UNL d   1       2.151   1.268   1.736  0.00  0.00     0.078 C 
ENDROOT
BRANCH   1   8
ATOM      8  C1  UNL d   1       1.494  -0.207  -0.815  0.00  0.00     0.053 C 
ATOM      9  C   UNL d   1       0.442  -1.302  -0.896  0.00  0.00     0.018 C 
ENDBRANCH   1   8
TORSDOF 1
ENDMDL
