MODEL 1
REMARK minimizedAffinity -2.72432065
REMARK minimizedRMSD -1
REMARK  1 active torsions:
REMARK  status: ('A' for Active; 'I' for Inactive)
REMARK    1  A    between atoms: C1_2  and  C2_3 
ROOT
ATOM      1  C2  UNL d   1      -3.830   1.638  -5.037  0.00  0.00    -0.076 A 
ATOM      2  C3  UNL d   1      -3.782   2.688  -4.103  0.00  0.00     0.004 A 
ATOM      3  C4  UNL d   1      -4.830   2.902  -3.209  0.00  0.00    -0.003 A 
ATOM      4  C5  UNL d   1      -5.943   2.069  -3.233  0.00  0.00     0.000 A 
ATOM      5  C6  UNL d   1      -6.000   1.012  -4.141  0.00  0.00     0.000 A 
ATOM      6  C7  UNL d   1      -4.945   0.773  -5.038  0.00  0.00    -0.073 A 
ATOM      7  C8  UNL d   1      -5.062  -0.378  -6.000  0.00  0.00     0.078 C 
ENDROOT
BRANCH   1   8
ATOM      8  C1  UNL d   1      -2.677   1.472  -6.000  0.00  0.00     0.053 C 
ATOM      9  C   UNL d   1      -1.734   0.351  -5.591  0.00  0.00     0.018 C 
ENDBRANCH   1   8
TORSDOF 1
ENDMDL
