MODEL 1
REMARK minimizedAffinity 10.6928701
REMARK minimizedRMSD -1
REMARK  1 active torsions:
REMARK  status: ('A' for Active; 'I' for Inactive)
REMARK    1  A    between atoms: C1_2  and  C2_3 
ROOT
ATOM      1  C2  UNL d   1       1.878  -3.390  -0.191  0.00  0.00    -0.076 A 
ATOM      2  C3  UNL d   1       1.501  -4.744  -0.192  0.00  0.00     0.004 A 
ATOM      3  C4  UNL d   1       0.298  -5.153  -0.763  0.00  0.00    -0.003 A 
ATOM      4  C5  UNL d   1      -0.548  -4.215  -1.344  0.00  0.00     0.000 A 
ATOM      5  C6  UNL d   1      -0.182  -2.870  -1.367  0.00  0.00     0.000 A 
ATOM      6  C7  UNL d   1       1.036  -2.443  -0.810  0.00  0.00    -0.073 A 
ATOM      7  C8  UNL d   1       1.377  -0.979  -0.858  0.00  0.00     0.078 C 
ENDROOT
BRANCH   1   8
ATOM      8  C1  UNL d   1       3.183  -3.002   0.468  0.00  0.00     0.053 C 
ATOM      9  C   UNL d   1       3.757  -1.710  -0.092  0.00  0.00     0.018 C 
ENDBRANCH   1   8
TORSDOF 1
ENDMDL
