MODEL 1
REMARK minimizedAffinity 7.3218565
REMARK minimizedRMSD -1
REMARK  1 active torsions:
REMARK  status: ('A' for Active; 'I' for Inactive)
REMARK    1  A    between atoms: C1_2  and  C2_3 
ROOT
ATOM      1  C2  UNL d   1       0.226   3.367   0.317  0.00  0.00    -0.076 A 
ATOM      2  C3  UNL d   1       0.488   2.789   1.571  0.00  0.00     0.004 A 
ATOM      3  C4  UNL d   1       1.679   3.049   2.246  0.00  0.00    -0.003 A 
ATOM      4  C5  UNL d   1       2.628   3.892   1.678  0.00  0.00     0.000 A 
ATOM      5  C6  UNL d   1       2.377   4.488   0.442  0.00  0.00     0.000 A 
ATOM      6  C7  UNL d   1       1.174   4.249  -0.244  0.00  0.00    -0.073 A 
ATOM      7  C8  UNL d   1       0.959   4.913  -1.576  0.00  0.00     0.078 C 
ENDROOT
BRANCH   1   8
ATOM      8  C1  UNL d   1      -1.072   3.027  -0.380  0.00  0.00     0.053 C 
ATOM      9  C   UNL d   1      -1.660   1.707   0.094  0.00  0.00     0.018 C 
ENDBRANCH   1   8
TORSDOF 1
ENDMDL
