MODEL 1
REMARK minimizedAffinity 7.23423862
REMARK minimizedRMSD -1
REMARK  1 active torsions:
REMARK  status: ('A' for Active; 'I' for Inactive)
REMARK    1  A    between atoms: C1_2  and  C2_3 
ROOT
ATOM      1  C2  UNL d   1      -0.944   4.854  -0.610  0.00  0.00    -0.076 A 
ATOM      2  C3  UNL d   1      -1.438   3.757   0.116  0.00  0.00     0.004 A 
ATOM      3  C4  UNL d   1      -0.623   2.663   0.406  0.00  0.00    -0.003 A 
ATOM      4  C5  UNL d   1       0.699   2.651  -0.024  0.00  0.00     0.000 A 
ATOM      5  C6  UNL d   1       1.211   3.739  -0.730  0.00  0.00     0.000 A 
ATOM      6  C7  UNL d   1       0.407   4.856  -1.017  0.00  0.00    -0.073 A 
ATOM      7  C8  UNL d   1       1.009   5.999  -1.787  0.00  0.00     0.078 C 
ENDROOT
BRANCH   1   8
ATOM      8  C1  UNL d   1      -1.882   6.000  -0.919  0.00  0.00     0.053 C 
ATOM      9  C   UNL d   1      -2.589   5.830  -2.254  0.00  0.00     0.018 C 
ENDBRANCH   1   8
TORSDOF 1
ENDMDL
