MODEL 1
REMARK minimizedAffinity 0.835072756
REMARK minimizedRMSD -1
REMARK  1 active torsions:
REMARK  status: ('A' for Active; 'I' for Inactive)
REMARK    1  A    between atoms: C1_2  and  C2_3 
ROOT
ATOM      1  C2  UNL d   1      -0.959  -0.580  -1.519  0.00  0.00    -0.076 A 
ATOM      2  C3  UNL d   1       0.312  -0.228  -2.004  0.00  0.00     0.004 A 
ATOM      3  C4  UNL d   1       0.860   1.026  -1.738  0.00  0.00    -0.003 A 
ATOM      4  C5  UNL d   1       0.144   1.948  -0.983  0.00  0.00     0.000 A 
ATOM      5  C6  UNL d   1      -1.111   1.609  -0.478  0.00  0.00     0.000 A 
ATOM      6  C7  UNL d   1      -1.670   0.344  -0.723  0.00  0.00    -0.073 A 
ATOM      7  C8  UNL d   1      -3.030   0.034  -0.160  0.00  0.00     0.078 C 
ENDROOT
BRANCH   1   8
ATOM      8  C1  UNL d   1      -1.513  -1.945  -1.862  0.00  0.00     0.053 C 
ATOM      9  C   UNL d   1      -0.555  -3.070  -1.502  0.00  0.00     0.018 C 
ENDBRANCH   1   8
TORSDOF 1
ENDMDL
