MODEL 1
REMARK minimizedAffinity -4.54538202
REMARK minimizedRMSD -1
REMARK  0 active torsions:
REMARK  status: ('A' for Active; 'I' for Inactive)
ROOT
ATOM      1  C   UNL d   1      -0.821  -0.942  -0.278  0.00  0.00     0.020 A 
ATOM      2  C1  UNL d   1      -1.094   0.425  -0.317  0.00  0.00     0.020 A 
ATOM      3  C2  UNL d   1      -0.079   1.348  -0.057  0.00  0.00     0.034 A 
ATOM      4  C3  UNL d   1       1.215   0.905   0.244  0.00  0.00     0.017 A 
ATOM      5  C4  UNL d   1       1.488  -0.467   0.283  0.00  0.00     0.017 A 
ATOM      6  C5  UNL d   1       0.467  -1.387   0.021  0.00  0.00     0.034 A 
ATOM      7 Cl   UNL d   1       3.059  -1.090   0.646  0.00  0.00    -0.070 Cl
ATOM      8 Cl1  UNL d   1       2.422   2.101   0.555  0.00  0.00    -0.070 Cl
ENDROOT
TORSDOF 0
ENDMDL
