MODEL 1
REMARK minimizedAffinity -3.02664781
REMARK minimizedRMSD -1
REMARK  0 active torsions:
REMARK  status: ('A' for Active; 'I' for Inactive)
ROOT
ATOM      1  C   UNL d   1      -0.766  -0.757  -0.920  0.00  0.00     0.020 A 
ATOM      2  C1  UNL d   1      -0.912   0.622  -0.781  0.00  0.00     0.020 A 
ATOM      3  C2  UNL d   1       0.011   1.350  -0.027  0.00  0.00     0.034 A 
ATOM      4  C3  UNL d   1       1.084   0.698   0.592  0.00  0.00     0.017 A 
ATOM      5  C4  UNL d   1       1.229  -0.687   0.453  0.00  0.00     0.017 A 
ATOM      6  C5  UNL d   1       0.302  -1.410  -0.304  0.00  0.00     0.034 A 
ATOM      7 Cl   UNL d   1       2.527  -1.561   1.188  0.00  0.00    -0.070 Cl
ATOM      8 Cl1  UNL d   1       2.187   1.660   1.510  0.00  0.00    -0.070 Cl
ENDROOT
TORSDOF 0
ENDMDL
