MODEL 1
REMARK minimizedAffinity -2.98858786
REMARK minimizedRMSD -1
REMARK  0 active torsions:
REMARK  status: ('A' for Active; 'I' for Inactive)
ROOT
ATOM      1  C   UNL d   1       3.436   0.469   0.856  0.00  0.00     0.020 A 
ATOM      2  C1  UNL d   1       3.407  -0.894   0.563  0.00  0.00     0.020 A 
ATOM      3  C2  UNL d   1       2.227  -1.486   0.109  0.00  0.00     0.034 A 
ATOM      4  C3  UNL d   1       1.070  -0.715  -0.053  0.00  0.00     0.017 A 
ATOM      5  C4  UNL d   1       1.100   0.653   0.241  0.00  0.00     0.017 A 
ATOM      6  C5  UNL d   1       2.285   1.241   0.695  0.00  0.00     0.034 A 
ATOM      7 Cl   UNL d   1      -0.287   1.669   0.065  0.00  0.00    -0.070 Cl
ATOM      8 Cl1  UNL d   1      -0.354  -1.513  -0.619  0.00  0.00    -0.070 Cl
ENDROOT
TORSDOF 0
ENDMDL
