MODEL 1
REMARK minimizedAffinity -5.38456059
REMARK minimizedRMSD -1
REMARK  0 active torsions:
REMARK  status: ('A' for Active; 'I' for Inactive)
ROOT
ATOM      1  C   UNL d   1       3.365   0.634   0.438  0.00  0.00     0.020 A 
ATOM      2  C1  UNL d   1       3.547  -0.747   0.358  0.00  0.00     0.020 A 
ATOM      3  C2  UNL d   1       2.461  -1.578   0.075  0.00  0.00     0.034 A 
ATOM      4  C3  UNL d   1       1.189  -1.031  -0.130  0.00  0.00     0.017 A 
ATOM      5  C4  UNL d   1       1.008   0.355  -0.050  0.00  0.00     0.017 A 
ATOM      6  C5  UNL d   1       2.099   1.183   0.234  0.00  0.00     0.034 A 
ATOM      7 Cl   UNL d   1      -0.530   1.104  -0.291  0.00  0.00    -0.070 Cl
ATOM      8 Cl1  UNL d   1      -0.108  -2.118  -0.477  0.00  0.00    -0.070 Cl
ENDROOT
TORSDOF 0
ENDMDL
