MODEL 1
REMARK minimizedAffinity -3.06760836
REMARK minimizedRMSD -1
REMARK  0 active torsions:
REMARK  status: ('A' for Active; 'I' for Inactive)
ROOT
ATOM      1  C   UNL d   1       0.139   1.974  -0.585  0.00  0.00     0.020 A 
ATOM      2  C1  UNL d   1       1.349   2.194   0.071  0.00  0.00     0.020 A 
ATOM      3  C2  UNL d   1       2.086   1.112   0.558  0.00  0.00     0.034 A 
ATOM      4  C3  UNL d   1       1.613  -0.194   0.389  0.00  0.00     0.017 A 
ATOM      5  C4  UNL d   1       0.398  -0.414  -0.270  0.00  0.00     0.017 A 
ATOM      6  C5  UNL d   1      -0.335   0.673  -0.756  0.00  0.00     0.034 A 
ATOM      7 Cl   UNL d   1      -0.250  -1.997  -0.516  0.00  0.00    -0.070 Cl
ATOM      8 Cl1  UNL d   1       2.576  -1.484   1.016  0.00  0.00    -0.070 Cl
ENDROOT
TORSDOF 0
ENDMDL
