MODEL 1
REMARK minimizedAffinity -2.96972346
REMARK minimizedRMSD -1
REMARK  0 active torsions:
REMARK  status: ('A' for Active; 'I' for Inactive)
ROOT
ATOM      1  C   UNL d   1       2.417   0.106   1.500  0.00  0.00     0.020 A 
ATOM      2  C1  UNL d   1       2.671  -1.215   1.131  0.00  0.00     0.020 A 
ATOM      3  C2  UNL d   1       1.764  -1.898   0.317  0.00  0.00     0.034 A 
ATOM      4  C3  UNL d   1       0.601  -1.262  -0.129  0.00  0.00     0.017 A 
ATOM      5  C4  UNL d   1       0.347   0.064   0.242  0.00  0.00     0.017 A 
ATOM      6  C5  UNL d   1       1.258   0.743   1.056  0.00  0.00     0.034 A 
ATOM      7 Cl   UNL d   1      -1.067   0.915  -0.271  0.00  0.00    -0.070 Cl
ATOM      8 Cl1  UNL d   1      -0.476  -2.168  -1.133  0.00  0.00    -0.070 Cl
ENDROOT
TORSDOF 0
ENDMDL
