MODEL 1
REMARK minimizedAffinity -3.51878524
REMARK minimizedRMSD -1
REMARK  0 active torsions:
REMARK  status: ('A' for Active; 'I' for Inactive)
ROOT
ATOM      1  C   UNL d   1      -1.066   0.770  -0.004  0.00  0.00     0.020 A 
ATOM      2  C1  UNL d   1       0.200   1.271   0.294  0.00  0.00     0.020 A 
ATOM      3  C2  UNL d   1       1.310   0.425   0.266  0.00  0.00     0.034 A 
ATOM      4  C3  UNL d   1       1.157  -0.927  -0.061  0.00  0.00     0.017 A 
ATOM      5  C4  UNL d   1      -0.115  -1.429  -0.361  0.00  0.00     0.017 A 
ATOM      6  C5  UNL d   1      -1.223  -0.577  -0.331  0.00  0.00     0.034 A 
ATOM      7 Cl   UNL d   1      -0.384  -3.086  -0.773  0.00  0.00    -0.070 Cl
ATOM      8 Cl1  UNL d   1       2.573  -1.916  -0.077  0.00  0.00    -0.070 Cl
ENDROOT
TORSDOF 0
ENDMDL
