MODEL 1
REMARK minimizedAffinity -3.54956627
REMARK minimizedRMSD -1
REMARK  1 active torsions:
REMARK  status: ('A' for Active; 'I' for Inactive)
REMARK    1  A    between atoms: C1_2  and  C2_3 
ROOT
ATOM      1  C2  UNL d   1       0.660  -0.174   0.948  0.00  0.00    -0.073 A 
ATOM      2  C3  UNL d   1       1.706  -0.956   0.447  0.00  0.00    -0.002 A 
ATOM      3  C4  UNL d   1       1.835  -1.164  -0.927  0.00  0.00     0.004 A 
ATOM      4  C5  UNL d   1       0.924  -0.588  -1.813  0.00  0.00    -0.004 A 
ATOM      5  C6  UNL d   1      -0.121   0.206  -1.332  0.00  0.00    -0.075 A 
ATOM      6  C7  UNL d   1      -1.111   0.831  -2.271  0.00  0.00     0.076 C 
ATOM      7  C8  UNL d   1      -0.245   0.408   0.049  0.00  0.00     0.001 A 
ENDROOT
BRANCH   1   8
ATOM      8  C1  UNL d   1       0.521   0.059   2.430  0.00  0.00     0.053 C 
ATOM      9  C   UNL d   1       1.514  -0.766   3.233  0.00  0.00     0.018 C 
ENDBRANCH   1   8
TORSDOF 1
ENDMDL
