MODEL 1
REMARK minimizedAffinity -5.02666378
REMARK minimizedRMSD -1
REMARK  1 active torsions:
REMARK  status: ('A' for Active; 'I' for Inactive)
REMARK    1  A    between atoms: C1_2  and  C2_3 
ROOT
ATOM      1  C2  UNL d   1      -0.310   0.097  -0.059  0.00  0.00    -0.073 A 
ATOM      2  C3  UNL d   1      -1.583   0.099   0.522  0.00  0.00    -0.002 A 
ATOM      3  C4  UNL d   1      -1.741  -0.198   1.876  0.00  0.00     0.004 A 
ATOM      4  C5  UNL d   1      -0.628  -0.493   2.664  0.00  0.00    -0.004 A 
ATOM      5  C6  UNL d   1       0.654  -0.488   2.105  0.00  0.00    -0.075 A 
ATOM      6  C7  UNL d   1       1.860  -0.805   2.939  0.00  0.00     0.076 C 
ATOM      7  C8  UNL d   1       0.803  -0.191   0.744  0.00  0.00     0.001 A 
ENDROOT
BRANCH   1   8
ATOM      8  C1  UNL d   1      -0.134   0.424  -1.519  0.00  0.00     0.053 C 
ATOM      9  C   UNL d   1      -0.335   1.905  -1.800  0.00  0.00     0.018 C 
ENDBRANCH   1   8
TORSDOF 1
ENDMDL
