MODEL 1
REMARK minimizedAffinity -3.71419501
REMARK minimizedRMSD -1
REMARK  1 active torsions:
REMARK  status: ('A' for Active; 'I' for Inactive)
REMARK    1  A    between atoms: C1_2  and  C2_3 
ROOT
ATOM      1  C2  UNL d   1      -0.861   0.312  -0.068  0.00  0.00    -0.073 A 
ATOM      2  C3  UNL d   1      -1.155   0.277   1.299  0.00  0.00    -0.002 A 
ATOM      3  C4  UNL d   1      -0.302  -0.380   2.187  0.00  0.00     0.004 A 
ATOM      4  C5  UNL d   1       0.856  -1.001   1.718  0.00  0.00    -0.004 A 
ATOM      5  C6  UNL d   1       1.173  -0.966   0.356  0.00  0.00    -0.075 A 
ATOM      6  C7  UNL d   1       2.414  -1.631  -0.164  0.00  0.00     0.076 C 
ATOM      7  C8  UNL d   1       0.310  -0.307  -0.529  0.00  0.00     0.001 A 
ENDROOT
BRANCH   1   8
ATOM      8  C1  UNL d   1      -1.776   1.026  -1.030  0.00  0.00     0.053 C 
ATOM      9  C   UNL d   1      -1.004   1.858  -2.041  0.00  0.00     0.018 C 
ENDBRANCH   1   8
TORSDOF 1
ENDMDL
