MODEL 1
REMARK minimizedAffinity -2.22186875
REMARK minimizedRMSD -1
REMARK  1 active torsions:
REMARK  status: ('A' for Active; 'I' for Inactive)
REMARK    1  A    between atoms: C1_2  and  C2_3 
ROOT
ATOM      1  C2  UNL d   1      -0.094   0.100  -0.419  0.00  0.00    -0.073 A 
ATOM      2  C3  UNL d   1      -1.433  -0.022  -0.029  0.00  0.00    -0.002 A 
ATOM      3  C4  UNL d   1      -1.756  -0.434   1.264  0.00  0.00     0.004 A 
ATOM      4  C5  UNL d   1      -0.747  -0.722   2.182  0.00  0.00    -0.004 A 
ATOM      5  C6  UNL d   1       0.597  -0.594   1.816  0.00  0.00    -0.075 A 
ATOM      6  C7  UNL d   1       1.695  -0.902   2.791  0.00  0.00     0.076 C 
ATOM      7  C8  UNL d   1       0.914  -0.182   0.514  0.00  0.00     0.001 A 
ENDROOT
BRANCH   1   8
ATOM      8  C1  UNL d   1       0.260   0.551  -1.812  0.00  0.00     0.053 C 
ATOM      9  C   UNL d   1      -0.728   1.576  -2.348  0.00  0.00     0.018 C 
ENDBRANCH   1   8
TORSDOF 1
ENDMDL
