MODEL 1
REMARK minimizedAffinity -2.2711184
REMARK minimizedRMSD -1
REMARK  1 active torsions:
REMARK  status: ('A' for Active; 'I' for Inactive)
REMARK    1  A    between atoms: C1_2  and  C2_3 
ROOT
ATOM      1  C2  UNL d   1      -0.177   0.584   0.219  0.00  0.00    -0.076 A 
ATOM      2  C3  UNL d   1       0.850  -0.347   0.453  0.00  0.00     0.004 A 
ATOM      3  C4  UNL d   1       0.967  -0.993   1.682  0.00  0.00    -0.003 A 
ATOM      4  C5  UNL d   1       0.058  -0.719   2.698  0.00  0.00     0.000 A 
ATOM      5  C6  UNL d   1      -0.978   0.188   2.478  0.00  0.00     0.000 A 
ATOM      6  C7  UNL d   1      -1.119   0.836   1.239  0.00  0.00    -0.073 A 
ATOM      7  C8  UNL d   1      -2.252   1.810   1.059  0.00  0.00     0.078 C 
ENDROOT
BRANCH   1   8
ATOM      8  C1  UNL d   1      -0.237   1.274  -1.125  0.00  0.00     0.053 C 
ATOM      9  C   UNL d   1       1.001   2.111  -1.406  0.00  0.00     0.018 C 
ENDBRANCH   1   8
TORSDOF 1
ENDMDL
