MODEL 1
REMARK minimizedAffinity -3.97609115
REMARK minimizedRMSD -1
REMARK  1 active torsions:
REMARK  status: ('A' for Active; 'I' for Inactive)
REMARK    1  A    between atoms: C1_2  and  C2_3 
ROOT
ATOM      1  C2  UNL d   1       0.106  -0.001  -0.066  0.00  0.00    -0.076 A 
ATOM      2  C3  UNL d   1      -0.596   0.946  -0.832  0.00  0.00     0.004 A 
ATOM      3  C4  UNL d   1      -1.541   1.785  -0.245  0.00  0.00    -0.003 A 
ATOM      4  C5  UNL d   1      -1.800   1.692   1.118  0.00  0.00     0.000 A 
ATOM      5  C6  UNL d   1      -1.100   0.770   1.897  0.00  0.00     0.000 A 
ATOM      6  C7  UNL d   1      -0.132  -0.072   1.323  0.00  0.00    -0.073 A 
ATOM      7  C8  UNL d   1       0.588  -1.051   2.209  0.00  0.00     0.078 C 
ENDROOT
BRANCH   1   8
ATOM      8  C1  UNL d   1       1.100  -0.903  -0.762  0.00  0.00     0.053 C 
ATOM      9  C   UNL d   1       0.425  -1.964  -1.617  0.00  0.00     0.018 C 
ENDBRANCH   1   8
TORSDOF 1
ENDMDL
