MODEL 1
REMARK minimizedAffinity -3.43208122
REMARK minimizedRMSD -1
REMARK  1 active torsions:
REMARK  status: ('A' for Active; 'I' for Inactive)
REMARK    1  A    between atoms: C1_2  and  C2_3 
ROOT
ATOM      1  C2  UNL d   1      -1.166   0.850   0.357  0.00  0.00    -0.076 A 
ATOM      2  C3  UNL d   1      -0.576   1.376  -0.806  0.00  0.00     0.004 A 
ATOM      3  C4  UNL d   1       0.719   1.020  -1.178  0.00  0.00    -0.003 A 
ATOM      4  C5  UNL d   1       1.445   0.130  -0.394  0.00  0.00     0.000 A 
ATOM      5  C6  UNL d   1       0.870  -0.415   0.753  0.00  0.00     0.000 A 
ATOM      6  C7  UNL d   1      -0.440  -0.079   1.134  0.00  0.00    -0.073 A 
ATOM      7  C8  UNL d   1      -1.009  -0.692   2.384  0.00  0.00     0.078 C 
ENDROOT
BRANCH   1   8
ATOM      8  C1  UNL d   1      -2.563   1.294   0.725  0.00  0.00     0.053 C 
ATOM      9  C   UNL d   1      -2.576   2.623   1.464  0.00  0.00     0.018 C 
ENDBRANCH   1   8
TORSDOF 1
ENDMDL
