MODEL 1
REMARK minimizedAffinity -6.35543537
REMARK minimizedRMSD -1
REMARK  1 active torsions:
REMARK  status: ('A' for Active; 'I' for Inactive)
REMARK    1  A    between atoms: C1_2  and  C2_3 
ROOT
ATOM      1  C2  UNL d   1      -0.155   1.349  -0.464  0.00  0.00    -0.076 A 
ATOM      2  C3  UNL d   1      -0.089   0.258   0.421  0.00  0.00     0.004 A 
ATOM      3  C4  UNL d   1      -0.502   0.384   1.746  0.00  0.00    -0.003 A 
ATOM      4  C5  UNL d   1      -0.989   1.602   2.208  0.00  0.00     0.000 A 
ATOM      5  C6  UNL d   1      -1.078   2.689   1.339  0.00  0.00     0.000 A 
ATOM      6  C7  UNL d   1      -0.681   2.575  -0.004  0.00  0.00    -0.073 A 
ATOM      7  C8  UNL d   1      -0.793   3.781  -0.895  0.00  0.00     0.078 C 
ENDROOT
BRANCH   1   8
ATOM      8  C1  UNL d   1       0.333   1.161  -1.883  0.00  0.00     0.053 C 
ATOM      9  C   UNL d   1       1.670   1.841  -2.134  0.00  0.00     0.018 C 
ENDBRANCH   1   8
TORSDOF 1
ENDMDL
