MODEL 1
REMARK minimizedAffinity -6.66572285
REMARK minimizedRMSD -1
REMARK  1 active torsions:
REMARK  status: ('A' for Active; 'I' for Inactive)
REMARK    1  A    between atoms: C1_2  and  C2_3 
ROOT
ATOM      1  C2  UNL d   1      -0.162   1.128   0.092  0.00  0.00    -0.076 A 
ATOM      2  C3  UNL d   1      -0.961   0.396   0.987  0.00  0.00     0.004 A 
ATOM      3  C4  UNL d   1      -1.950   1.023   1.743  0.00  0.00    -0.003 A 
ATOM      4  C5  UNL d   1      -2.155   2.393   1.616  0.00  0.00     0.000 A 
ATOM      5  C6  UNL d   1      -1.384   3.131   0.720  0.00  0.00     0.000 A 
ATOM      6  C7  UNL d   1      -0.394   2.512  -0.062  0.00  0.00    -0.073 A 
ATOM      7  C8  UNL d   1       0.413   3.358  -1.008  0.00  0.00     0.078 C 
ENDROOT
BRANCH   1   8
ATOM      8  C1  UNL d   1       0.913   0.399  -0.682  0.00  0.00     0.053 C 
ATOM      9  C   UNL d   1       0.508  -1.021  -1.045  0.00  0.00     0.018 C 
ENDBRANCH   1   8
TORSDOF 1
ENDMDL
