MODEL 1
REMARK minimizedAffinity -5.90555382
REMARK minimizedRMSD -1
REMARK  1 active torsions:
REMARK  status: ('A' for Active; 'I' for Inactive)
REMARK    1  A    between atoms: C1_2  and  C2_3 
ROOT
ATOM      1  C2  UNL d   1      -0.167   0.984  -0.114  0.00  0.00    -0.076 A 
ATOM      2  C3  UNL d   1      -0.865   0.333   0.918  0.00  0.00     0.004 A 
ATOM      3  C4  UNL d   1      -1.799   1.016   1.695  0.00  0.00    -0.003 A 
ATOM      4  C5  UNL d   1      -2.051   2.362   1.452  0.00  0.00     0.000 A 
ATOM      5  C6  UNL d   1      -1.381   3.019   0.420  0.00  0.00     0.000 A 
ATOM      6  C7  UNL d   1      -0.448   2.341  -0.383  0.00  0.00    -0.073 A 
ATOM      7  C8  UNL d   1       0.250   3.101  -1.477  0.00  0.00     0.078 C 
ENDROOT
BRANCH   1   8
ATOM      8  C1  UNL d   1       0.854   0.199  -0.906  0.00  0.00     0.053 C 
ATOM      9  C   UNL d   1       0.588  -1.298  -0.877  0.00  0.00     0.018 C 
ENDBRANCH   1   8
TORSDOF 1
ENDMDL
