MODEL 1
REMARK minimizedAffinity -3.18594456
REMARK minimizedRMSD -1
REMARK  1 active torsions:
REMARK  status: ('A' for Active; 'I' for Inactive)
REMARK    1  A    between atoms: C1_2  and  C2_3 
ROOT
ATOM      1  C2  UNL d   1       0.352  -0.826  -0.721  0.00  0.00    -0.076 A 
ATOM      2  C3  UNL d   1      -0.557  -1.679  -1.371  0.00  0.00     0.004 A 
ATOM      3  C4  UNL d   1      -0.110  -2.755  -2.137  0.00  0.00    -0.003 A 
ATOM      4  C5  UNL d   1       1.253  -2.995  -2.264  0.00  0.00     0.000 A 
ATOM      5  C6  UNL d   1       2.169  -2.170  -1.612  0.00  0.00     0.000 A 
ATOM      6  C7  UNL d   1       1.734  -1.091  -0.823  0.00  0.00    -0.073 A 
ATOM      7  C8  UNL d   1       2.765  -0.229  -0.148  0.00  0.00     0.078 C 
ENDROOT
BRANCH   1   8
ATOM      8  C1  UNL d   1      -0.191   0.340   0.073  0.00  0.00     0.053 C 
ATOM      9  C   UNL d   1      -0.589  -0.052   1.487  0.00  0.00     0.018 C 
ENDBRANCH   1   8
TORSDOF 1
ENDMDL
