MODEL 1
REMARK minimizedAffinity -3.51103783
REMARK minimizedRMSD -1
REMARK  1 active torsions:
REMARK  status: ('A' for Active; 'I' for Inactive)
REMARK    1  A    between atoms: C1_2  and  C2_3 
ROOT
ATOM      1  C2  UNL d   1      -0.401   1.149   1.184  0.00  0.00    -0.076 A 
ATOM      2  C3  UNL d   1       0.011   1.973   0.122  0.00  0.00     0.004 A 
ATOM      3  C4  UNL d   1       0.760   1.459  -0.936  0.00  0.00    -0.003 A 
ATOM      4  C5  UNL d   1       1.107   0.113  -0.950  0.00  0.00     0.000 A 
ATOM      5  C6  UNL d   1       0.692  -0.723   0.087  0.00  0.00     0.000 A 
ATOM      6  C7  UNL d   1      -0.077  -0.224   1.152  0.00  0.00    -0.073 A 
ATOM      7  C8  UNL d   1      -0.492  -1.169   2.246  0.00  0.00     0.078 C 
ENDROOT
BRANCH   1   8
ATOM      8  C1  UNL d   1      -1.188   1.767   2.317  0.00  0.00     0.053 C 
ATOM      9  C   UNL d   1      -1.897   3.048   1.904  0.00  0.00     0.018 C 
ENDBRANCH   1   8
TORSDOF 1
ENDMDL
