MODEL 1
REMARK minimizedAffinity -3.2994647
REMARK minimizedRMSD -1
REMARK  1 active torsions:
REMARK  status: ('A' for Active; 'I' for Inactive)
REMARK    1  A    between atoms: C1_2  and  C2_3 
ROOT
ATOM      1  C2  UNL d   1      -0.073   0.253   0.270  0.00  0.00    -0.076 A 
ATOM      2  C3  UNL d   1      -0.554  -0.544   1.323  0.00  0.00     0.004 A 
ATOM      3  C4  UNL d   1      -1.529  -0.067   2.198  0.00  0.00    -0.003 A 
ATOM      4  C5  UNL d   1      -2.039   1.216   2.032  0.00  0.00     0.000 A 
ATOM      5  C6  UNL d   1      -1.586   2.015   0.982  0.00  0.00     0.000 A 
ATOM      6  C7  UNL d   1      -0.615   1.542   0.082  0.00  0.00    -0.073 A 
ATOM      7  C8  UNL d   1      -0.159   2.448  -1.028  0.00  0.00     0.078 C 
ENDROOT
BRANCH   1   8
ATOM      8  C1  UNL d   1       1.005  -0.309  -0.629  0.00  0.00     0.053 C 
ATOM      9  C   UNL d   1       0.617  -1.647  -1.238  0.00  0.00     0.018 C 
ENDBRANCH   1   8
TORSDOF 1
ENDMDL
