MODEL 1
REMARK minimizedAffinity -0.277648568
REMARK minimizedRMSD -1
REMARK  1 active torsions:
REMARK  status: ('A' for Active; 'I' for Inactive)
REMARK    1  A    between atoms: C1_2  and  C2_3 
ROOT
ATOM      1  C2  UNL d   1      -0.247   0.968   0.413  0.00  0.00    -0.076 A 
ATOM      2  C3  UNL d   1      -1.101   1.231   1.498  0.00  0.00     0.004 A 
ATOM      3  C4  UNL d   1      -1.418   0.235   2.420  0.00  0.00    -0.003 A 
ATOM      4  C5  UNL d   1      -0.885  -1.041   2.273  0.00  0.00     0.000 A 
ATOM      5  C6  UNL d   1      -0.021  -1.315   1.213  0.00  0.00     0.000 A 
ATOM      6  C7  UNL d   1       0.321  -0.318   0.284  0.00  0.00    -0.073 A 
ATOM      7  C8  UNL d   1       1.253  -0.671  -0.843  0.00  0.00     0.078 C 
ENDROOT
BRANCH   1   8
ATOM      8  C1  UNL d   1       0.040   2.080  -0.570  0.00  0.00     0.053 C 
ATOM      9  C   UNL d   1      -0.237   3.457   0.012  0.00  0.00     0.018 C 
ENDBRANCH   1   8
TORSDOF 1
ENDMDL
