MODEL 1
REMARK minimizedAffinity -6.07825661
REMARK minimizedRMSD -1
REMARK  1 active torsions:
REMARK  status: ('A' for Active; 'I' for Inactive)
REMARK    1  A    between atoms: C1_2  and  C2_3 
ROOT
ATOM      1  C2  UNL d   1      -0.131   1.282  -0.212  0.00  0.00    -0.076 A 
ATOM      2  C3  UNL d   1      -0.812   0.453   0.697  0.00  0.00     0.004 A 
ATOM      3  C4  UNL d   1      -1.763   0.977   1.572  0.00  0.00    -0.003 A 
ATOM      4  C5  UNL d   1      -2.048   2.338   1.551  0.00  0.00     0.000 A 
ATOM      5  C6  UNL d   1      -1.395   3.171   0.643  0.00  0.00     0.000 A 
ATOM      6  C7  UNL d   1      -0.446   2.657  -0.256  0.00  0.00    -0.073 A 
ATOM      7  C8  UNL d   1       0.232   3.602  -1.209  0.00  0.00     0.078 C 
ENDROOT
BRANCH   1   8
ATOM      8  C1  UNL d   1       0.909   0.662  -1.118  0.00  0.00     0.053 C 
ATOM      9  C   UNL d   1       1.243  -0.770  -0.727  0.00  0.00     0.018 C 
ENDBRANCH   1   8
TORSDOF 1
ENDMDL
