MODEL 1
REMARK minimizedAffinity -5.46790552
REMARK minimizedRMSD -1
REMARK  1 active torsions:
REMARK  status: ('A' for Active; 'I' for Inactive)
REMARK    1  A    between atoms: C1_2  and  C2_3 
ROOT
ATOM      1  C2  UNL d   1      -0.575   2.330   0.058  0.00  0.00    -0.076 A 
ATOM      2  C3  UNL d   1      -1.526   3.105   0.744  0.00  0.00     0.004 A 
ATOM      3  C4  UNL d   1      -2.325   2.544   1.739  0.00  0.00    -0.003 A 
ATOM      4  C5  UNL d   1      -2.186   1.199   2.064  0.00  0.00     0.000 A 
ATOM      5  C6  UNL d   1      -1.235   0.420   1.405  0.00  0.00     0.000 A 
ATOM      6  C7  UNL d   1      -0.410   0.974   0.412  0.00  0.00    -0.073 A 
ATOM      7  C8  UNL d   1       0.595   0.086  -0.270  0.00  0.00     0.078 C 
ENDROOT
BRANCH   1   8
ATOM      8  C1  UNL d   1       0.245   2.986  -1.030  0.00  0.00     0.053 C 
ATOM      9  C   UNL d   1      -0.570   3.960  -1.867  0.00  0.00     0.018 C 
ENDBRANCH   1   8
TORSDOF 1
ENDMDL
