MODEL 1
REMARK minimizedAffinity -2.43921375
REMARK minimizedRMSD -1
REMARK  1 active torsions:
REMARK  status: ('A' for Active; 'I' for Inactive)
REMARK    1  A    between atoms: C1_2  and  C2_3 
ROOT
ATOM      1  C2  UNL d   1       0.544  -0.110   0.453  0.00  0.00    -0.076 A 
ATOM      2  C3  UNL d   1      -0.623   0.345  -0.184  0.00  0.00     0.004 A 
ATOM      3  C4  UNL d   1      -1.664   0.916   0.548  0.00  0.00    -0.003 A 
ATOM      4  C5  UNL d   1      -1.553   1.040   1.928  0.00  0.00     0.000 A 
ATOM      5  C6  UNL d   1      -0.395   0.610   2.575  0.00  0.00     0.000 A 
ATOM      6  C7  UNL d   1       0.670   0.047   1.850  0.00  0.00    -0.073 A 
ATOM      7  C8  UNL d   1       1.893  -0.406   2.599  0.00  0.00     0.078 C 
ENDROOT
BRANCH   1   8
ATOM      8  C1  UNL d   1       1.628  -0.745  -0.389  0.00  0.00     0.053 C 
ATOM      9  C   UNL d   1       1.130  -1.957  -1.162  0.00  0.00     0.018 C 
ENDBRANCH   1   8
TORSDOF 1
ENDMDL
