MODEL 1
REMARK minimizedAffinity -4.56980181
REMARK minimizedRMSD -1
REMARK  1 active torsions:
REMARK  status: ('A' for Active; 'I' for Inactive)
REMARK    1  A    between atoms: C1_2  and  C2_3 
ROOT
ATOM      1  C2  UNL d   1       0.075   0.337  -0.005  0.00  0.00    -0.076 A 
ATOM      2  C3  UNL d   1       0.133   1.608  -0.602  0.00  0.00     0.004 A 
ATOM      3  C4  UNL d   1      -0.567   2.686  -0.063  0.00  0.00    -0.003 A 
ATOM      4  C5  UNL d   1      -1.336   2.510   1.083  0.00  0.00     0.000 A 
ATOM      5  C6  UNL d   1      -1.390   1.260   1.698  0.00  0.00     0.000 A 
ATOM      6  C7  UNL d   1      -0.677   0.166   1.176  0.00  0.00    -0.073 A 
ATOM      7  C8  UNL d   1      -0.777  -1.161   1.877  0.00  0.00     0.078 C 
ENDROOT
BRANCH   1   8
ATOM      8  C1  UNL d   1       0.834  -0.801  -0.651  0.00  0.00     0.053 C 
ATOM      9  C   UNL d   1       0.055  -1.454  -1.782  0.00  0.00     0.018 C 
ENDBRANCH   1   8
TORSDOF 1
ENDMDL
