MODEL 1
REMARK minimizedAffinity -5.41707134
REMARK minimizedRMSD -1
REMARK  1 active torsions:
REMARK  status: ('A' for Active; 'I' for Inactive)
REMARK    1  A    between atoms: C1_2  and  C2_3 
ROOT
ATOM      1  C2  UNL d   1      -0.063  -0.019   0.190  0.00  0.00    -0.076 A 
ATOM      2  C3  UNL d   1      -0.355   1.211  -0.426  0.00  0.00     0.004 A 
ATOM      3  C4  UNL d   1      -1.165   2.154   0.204  0.00  0.00    -0.003 A 
ATOM      4  C5  UNL d   1      -1.697   1.883   1.460  0.00  0.00     0.000 A 
ATOM      5  C6  UNL d   1      -1.403   0.675   2.093  0.00  0.00     0.000 A 
ATOM      6  C7  UNL d   1      -0.574  -0.279   1.479  0.00  0.00    -0.073 A 
ATOM      7  C8  UNL d   1      -0.296  -1.567   2.205  0.00  0.00     0.078 C 
ENDROOT
BRANCH   1   8
ATOM      8  C1  UNL d   1       0.800  -1.014  -0.553  0.00  0.00     0.053 C 
ATOM      9  C   UNL d   1       0.010  -1.830  -1.564  0.00  0.00     0.018 C 
ENDBRANCH   1   8
TORSDOF 1
ENDMDL
