MODEL 1
REMARK minimizedAffinity 9.45801544
REMARK minimizedRMSD -1
REMARK  0 active torsions:
REMARK  status: ('A' for Active; 'I' for Inactive)
ROOT
ATOM      1  C   UNL d   1       2.779   1.782   0.632  0.00  0.00     0.020 A 
ATOM      2  C1  UNL d   1       2.816   0.566  -0.050  0.00  0.00     0.020 A 
ATOM      3  C2  UNL d   1       3.569   0.445  -1.221  0.00  0.00     0.034 A 
ATOM      4  C3  UNL d   1       4.287   1.541  -1.712  0.00  0.00     0.017 A 
ATOM      5  C4  UNL d   1       4.250   2.761  -1.026  0.00  0.00     0.017 A 
ATOM      6  C5  UNL d   1       3.495   2.876   0.145  0.00  0.00     0.034 A 
ATOM      7 Cl   UNL d   1       5.110   4.157  -1.571  0.00  0.00    -0.070 Cl
ATOM      8 Cl1  UNL d   1       5.197   1.319  -3.164  0.00  0.00    -0.070 Cl
ENDROOT
TORSDOF 0
ENDMDL
