MODEL 1
REMARK minimizedAffinity 8.58089924
REMARK minimizedRMSD -1
REMARK  0 active torsions:
REMARK  status: ('A' for Active; 'I' for Inactive)
ROOT
ATOM      1  C   UNL d   1      -5.996   0.219  -0.271  0.00  0.00     0.020 A 
ATOM      2  C1  UNL d   1      -4.838   0.540   0.436  0.00  0.00     0.020 A 
ATOM      3  C2  UNL d   1      -3.611   0.610  -0.228  0.00  0.00     0.034 A 
ATOM      4  C3  UNL d   1      -3.540   0.359  -1.603  0.00  0.00     0.017 A 
ATOM      5  C4  UNL d   1      -4.704   0.037  -2.312  0.00  0.00     0.017 A 
ATOM      6  C5  UNL d   1      -5.929  -0.032  -1.641  0.00  0.00     0.034 A 
ATOM      7 Cl   UNL d   1      -4.695  -0.287  -4.010  0.00  0.00    -0.070 Cl
ATOM      8 Cl1  UNL d   1      -1.991   0.463  -2.360  0.00  0.00    -0.070 Cl
ENDROOT
TORSDOF 0
ENDMDL
