MODEL 1
REMARK minimizedAffinity 13.3513803
REMARK minimizedRMSD -1
REMARK  0 active torsions:
REMARK  status: ('A' for Active; 'I' for Inactive)
ROOT
ATOM      1  C   UNL d   1       2.477   0.709  -1.058  0.00  0.00     0.020 A 
ATOM      2  C1  UNL d   1       3.784   1.195  -1.049  0.00  0.00     0.020 A 
ATOM      3  C2  UNL d   1       4.712   0.684  -0.138  0.00  0.00     0.034 A 
ATOM      4  C3  UNL d   1       4.334  -0.315   0.766  0.00  0.00     0.017 A 
ATOM      5  C4  UNL d   1       3.022  -0.801   0.756  0.00  0.00     0.017 A 
ATOM      6  C5  UNL d   1       2.097  -0.286  -0.158  0.00  0.00     0.034 A 
ATOM      7 Cl   UNL d   1       2.481  -2.033   1.842  0.00  0.00    -0.070 Cl
ATOM      8 Cl1  UNL d   1       5.533  -0.900   1.864  0.00  0.00    -0.070 Cl
ENDROOT
TORSDOF 0
ENDMDL
