MODEL 1
REMARK minimizedAffinity 13.3365288
REMARK minimizedRMSD -1
REMARK  0 active torsions:
REMARK  status: ('A' for Active; 'I' for Inactive)
ROOT
ATOM      1  C   UNL d   1       1.943   1.685  -0.536  0.00  0.00     0.020 A 
ATOM      2  C1  UNL d   1       2.590   1.090   0.546  0.00  0.00     0.020 A 
ATOM      3  C2  UNL d   1       2.538  -0.296   0.715  0.00  0.00     0.034 A 
ATOM      4  C3  UNL d   1       1.838  -1.090  -0.199  0.00  0.00     0.017 A 
ATOM      5  C4  UNL d   1       1.189  -0.492  -1.285  0.00  0.00     0.017 A 
ATOM      6  C5  UNL d   1       1.244   0.895  -1.450  0.00  0.00     0.034 A 
ATOM      7 Cl   UNL d   1       0.305  -1.407  -2.455  0.00  0.00    -0.070 Cl
ATOM      8 Cl1  UNL d   1       1.816  -2.797   0.071  0.00  0.00    -0.070 Cl
ENDROOT
TORSDOF 0
ENDMDL
