MODEL 1
REMARK minimizedAffinity 17.2197056
REMARK minimizedRMSD -1
REMARK  0 active torsions:
REMARK  status: ('A' for Active; 'I' for Inactive)
ROOT
ATOM      1  C   UNL d   1       5.630   0.972   0.639  0.00  0.00     0.020 A 
ATOM      2  C1  UNL d   1       5.823  -0.139   1.460  0.00  0.00     0.020 A 
ATOM      3  C2  UNL d   1       4.765  -1.017   1.706  0.00  0.00     0.034 A 
ATOM      4  C3  UNL d   1       3.511  -0.786   1.130  0.00  0.00     0.017 A 
ATOM      5  C4  UNL d   1       3.318   0.328   0.306  0.00  0.00     0.017 A 
ATOM      6  C5  UNL d   1       4.381   1.204   0.063  0.00  0.00     0.034 A 
ATOM      7 Cl   UNL d   1       1.799   0.679  -0.441  0.00  0.00    -0.070 Cl
ATOM      8 Cl1  UNL d   1       2.248  -1.914   1.477  0.00  0.00    -0.070 Cl
ENDROOT
TORSDOF 0
ENDMDL
