MODEL 1
REMARK minimizedAffinity 12.9728088
REMARK minimizedRMSD -1
REMARK  0 active torsions:
REMARK  status: ('A' for Active; 'I' for Inactive)
ROOT
ATOM      1  C   UNL d   1      -5.880   0.494  -0.824  0.00  0.00     0.020 A 
ATOM      2  C1  UNL d   1      -5.469   1.249  -1.922  0.00  0.00     0.020 A 
ATOM      3  C2  UNL d   1      -4.944   2.529  -1.732  0.00  0.00     0.034 A 
ATOM      4  C3  UNL d   1      -4.828   3.058  -0.442  0.00  0.00     0.017 A 
ATOM      5  C4  UNL d   1      -5.240   2.300   0.660  0.00  0.00     0.017 A 
ATOM      6  C5  UNL d   1      -5.765   1.019   0.464  0.00  0.00     0.034 A 
ATOM      7 Cl   UNL d   1      -5.128   2.885   2.282  0.00  0.00    -0.070 Cl
ATOM      8 Cl1  UNL d   1      -4.169   4.647  -0.281  0.00  0.00    -0.070 Cl
ENDROOT
TORSDOF 0
ENDMDL
