MODEL 1
REMARK minimizedAffinity 11.6551714
REMARK minimizedRMSD -1
REMARK  0 active torsions:
REMARK  status: ('A' for Active; 'I' for Inactive)
ROOT
ATOM      1  C   UNL d   1       1.688  -0.712   0.115  0.00  0.00     0.020 A 
ATOM      2  C1  UNL d   1       1.726  -0.453  -1.255  0.00  0.00     0.020 A 
ATOM      3  C2  UNL d   1       2.636   0.475  -1.765  0.00  0.00     0.034 A 
ATOM      4  C3  UNL d   1       3.513   1.146  -0.905  0.00  0.00     0.017 A 
ATOM      5  C4  UNL d   1       3.475   0.885   0.469  0.00  0.00     0.017 A 
ATOM      6  C5  UNL d   1       2.561  -0.044   0.975  0.00  0.00     0.034 A 
ATOM      7 Cl   UNL d   1       4.525   1.674   1.592  0.00  0.00    -0.070 Cl
ATOM      8 Cl1  UNL d   1       4.614   2.280  -1.605  0.00  0.00    -0.070 Cl
ENDROOT
TORSDOF 0
ENDMDL
