MODEL 1
REMARK minimizedAffinity 18.3398743
REMARK minimizedRMSD -1
REMARK  0 active torsions:
REMARK  status: ('A' for Active; 'I' for Inactive)
ROOT
ATOM      1  C   UNL d   1      -5.969   2.587  -3.606  0.00  0.00     0.020 A 
ATOM      2  C1  UNL d   1      -6.000   1.202  -3.444  0.00  0.00     0.020 A 
ATOM      3  C2  UNL d   1      -5.447   0.621  -2.301  0.00  0.00     0.034 A 
ATOM      4  C3  UNL d   1      -4.861   1.424  -1.316  0.00  0.00     0.017 A 
ATOM      5  C4  UNL d   1      -4.830   2.814  -1.480  0.00  0.00     0.017 A 
ATOM      6  C5  UNL d   1      -5.385   3.391  -2.626  0.00  0.00     0.034 A 
ATOM      7 Cl   UNL d   1      -4.125   3.870  -0.308  0.00  0.00    -0.070 Cl
ATOM      8 Cl1  UNL d   1      -4.197   0.637   0.072  0.00  0.00    -0.070 Cl
ENDROOT
TORSDOF 0
ENDMDL
