MODEL 1
REMARK minimizedAffinity 25.8698025
REMARK minimizedRMSD -1
REMARK  0 active torsions:
REMARK  status: ('A' for Active; 'I' for Inactive)
ROOT
ATOM      1  C   UNL d   1      -5.052   0.827   0.424  0.00  0.00     0.020 A 
ATOM      2  C1  UNL d   1      -5.756   0.267  -0.641  0.00  0.00     0.020 A 
ATOM      3  C2  UNL d   1      -5.942   0.999  -1.816  0.00  0.00     0.034 A 
ATOM      4  C3  UNL d   1      -5.423   2.294  -1.928  0.00  0.00     0.017 A 
ATOM      5  C4  UNL d   1      -4.717   2.855  -0.858  0.00  0.00     0.017 A 
ATOM      6  C5  UNL d   1      -4.533   2.118   0.316  0.00  0.00     0.034 A 
ATOM      7 Cl   UNL d   1      -4.047   4.447  -0.923  0.00  0.00    -0.070 Cl
ATOM      8 Cl1  UNL d   1      -5.691   3.141  -3.410  0.00  0.00    -0.070 Cl
ENDROOT
TORSDOF 0
ENDMDL
