MODEL 1
REMARK minimizedAffinity 12.3954763
REMARK minimizedRMSD -1
REMARK  0 active torsions:
REMARK  status: ('A' for Active; 'I' for Inactive)
ROOT
ATOM      1  C   UNL d   1      -5.527   3.356   2.815  0.00  0.00     0.020 A 
ATOM      2  C1  UNL d   1      -4.189   3.453   2.434  0.00  0.00     0.020 A 
ATOM      3  C2  UNL d   1      -3.317   4.275   3.152  0.00  0.00     0.034 A 
ATOM      4  C3  UNL d   1      -3.782   5.003   4.254  0.00  0.00     0.017 A 
ATOM      5  C4  UNL d   1      -5.125   4.904   4.635  0.00  0.00     0.017 A 
ATOM      6  C5  UNL d   1      -5.994   4.079   3.913  0.00  0.00     0.034 A 
ATOM      7 Cl   UNL d   1      -5.773   5.770   5.983  0.00  0.00    -0.070 Cl
ATOM      8 Cl1  UNL d   1      -2.649   5.999   5.095  0.00  0.00    -0.070 Cl
ENDROOT
TORSDOF 0
ENDMDL
