MODEL 1
REMARK minimizedAffinity 13.3133688
REMARK minimizedRMSD -1
REMARK  0 active torsions:
REMARK  status: ('A' for Active; 'I' for Inactive)
ROOT
ATOM      1  C   UNL d   1      -5.999   2.025  -5.584  0.00  0.00     0.020 A 
ATOM      2  C1  UNL d   1      -5.902   0.720  -5.102  0.00  0.00     0.020 A 
ATOM      3  C2  UNL d   1      -4.686   0.248  -4.606  0.00  0.00     0.034 A 
ATOM      4  C3  UNL d   1      -3.561   1.081  -4.589  0.00  0.00     0.017 A 
ATOM      5  C4  UNL d   1      -3.660   2.390  -5.073  0.00  0.00     0.017 A 
ATOM      6  C5  UNL d   1      -4.880   2.858  -5.569  0.00  0.00     0.034 A 
ATOM      7 Cl   UNL d   1      -2.316   3.477  -5.085  0.00  0.00    -0.070 Cl
ATOM      8 Cl1  UNL d   1      -2.089   0.431  -3.961  0.00  0.00    -0.070 Cl
ENDROOT
TORSDOF 0
ENDMDL
