MODEL 1
REMARK minimizedAffinity -1.05947292
REMARK minimizedRMSD -1
REMARK  0 active torsions:
REMARK  status: ('A' for Active; 'I' for Inactive)
ROOT
ATOM      1  C   UNL d   1       4.500   4.884  -4.483  0.00  0.00     0.172 C 
ATOM      2  N   UNL d   1       3.146   5.189  -4.881  0.00  0.00    -0.070 N 
ATOM      3  C1  UNL d   1       2.784   5.946  -5.963  0.00  0.00    -0.004 A 
ATOM      4  C2  UNL d   1       1.407   5.999  -5.999  0.00  0.00    -0.047 A 
ATOM      5  C3  UNL d   1       0.925   5.249  -4.900  0.00  0.00    -0.047 A 
ATOM      6  C4  UNL d   1       2.023   4.758  -4.225  0.00  0.00    -0.004 A 
ENDROOT
TORSDOF 0
ENDMDL
