MODEL 1
REMARK minimizedAffinity -2.06383705
REMARK minimizedRMSD -1
REMARK  0 active torsions:
REMARK  status: ('A' for Active; 'I' for Inactive)
ROOT
ATOM      1  C   UNL d   1       2.456   5.562  -5.185  0.00  0.00     0.172 C 
ATOM      2  N   UNL d   1       3.837   5.154  -5.297  0.00  0.00    -0.070 N 
ATOM      3  C1  UNL d   1       4.815   5.824  -5.983  0.00  0.00    -0.004 A 
ATOM      4  C2  UNL d   1       5.988   5.114  -5.847  0.00  0.00    -0.047 A 
ATOM      5  C3  UNL d   1       5.705   3.977  -5.054  0.00  0.00    -0.047 A 
ATOM      6  C4  UNL d   1       4.366   4.026  -4.727  0.00  0.00    -0.004 A 
ENDROOT
TORSDOF 0
ENDMDL
