MODEL 1
REMARK minimizedAffinity -2.52337503
REMARK minimizedRMSD -1
REMARK  0 active torsions:
REMARK  status: ('A' for Active; 'I' for Inactive)
ROOT
ATOM      1  C   UNL d   1       2.376   4.454  -4.513  0.00  0.00     0.172 C 
ATOM      2  N   UNL d   1       3.789   4.748  -4.478  0.00  0.00    -0.070 N 
ATOM      3  C1  UNL d   1       4.344   6.000  -4.453  0.00  0.00    -0.004 A 
ATOM      4  C2  UNL d   1       5.714   5.854  -4.423  0.00  0.00    -0.047 A 
ATOM      5  C3  UNL d   1       5.992   4.466  -4.432  0.00  0.00    -0.047 A 
ATOM      6  C4  UNL d   1       4.783   3.805  -4.466  0.00  0.00    -0.004 A 
ENDROOT
TORSDOF 0
ENDMDL
