MODEL 1
REMARK minimizedAffinity -0.0204552505
REMARK minimizedRMSD -1
REMARK  0 active torsions:
REMARK  status: ('A' for Active; 'I' for Inactive)
ROOT
ATOM      1  C   UNL d   1       3.819   5.983  -4.449  0.00  0.00     0.172 C 
ATOM      2  N   UNL d   1       2.405   5.988  -4.746  0.00  0.00    -0.070 N 
ATOM      3  C1  UNL d   1       1.853   5.990  -5.999  0.00  0.00    -0.004 A 
ATOM      4  C2  UNL d   1       0.483   5.995  -5.856  0.00  0.00    -0.047 A 
ATOM      5  C3  UNL d   1       0.201   5.996  -4.470  0.00  0.00    -0.047 A 
ATOM      6  C4  UNL d   1       1.410   5.992  -3.805  0.00  0.00    -0.004 A 
ENDROOT
TORSDOF 0
ENDMDL
