MODEL 1
REMARK minimizedAffinity -0.635861099
REMARK minimizedRMSD -1
REMARK  0 active torsions:
REMARK  status: ('A' for Active; 'I' for Inactive)
ROOT
ATOM      1  C   UNL d   1       0.264   5.996  -4.854  0.00  0.00     0.172 C 
ATOM      2  N   UNL d   1      -1.002   5.997  -4.160  0.00  0.00    -0.070 N 
ATOM      3  C1  UNL d   1      -1.167   5.998  -2.800  0.00  0.00    -0.004 A 
ATOM      4  C2  UNL d   1      -2.521   6.000  -2.540  0.00  0.00    -0.047 A 
ATOM      5  C3  UNL d   1      -3.192   5.999  -3.786  0.00  0.00    -0.047 A 
ATOM      6  C4  UNL d   1      -2.228   5.997  -4.772  0.00  0.00    -0.004 A 
ENDROOT
TORSDOF 0
ENDMDL
