MODEL 1
REMARK minimizedAffinity 3.48702192
REMARK minimizedRMSD -1
REMARK  0 active torsions:
REMARK  status: ('A' for Active; 'I' for Inactive)
ROOT
ATOM      1  C   UNL d   1       5.444   6.000  -5.735  0.00  0.00     0.172 C 
ATOM      2  N   UNL d   1       4.124   5.456  -5.513  0.00  0.00    -0.070 N 
ATOM      3  C1  UNL d   1       3.836   4.327  -4.793  0.00  0.00    -0.004 A 
ATOM      4  C2  UNL d   1       2.470   4.148  -4.818  0.00  0.00    -0.047 A 
ATOM      5  C3  UNL d   1       1.918   5.204  -5.581  0.00  0.00    -0.047 A 
ATOM      6  C4  UNL d   1       2.964   5.999  -5.999  0.00  0.00    -0.004 A 
ENDROOT
TORSDOF 0
ENDMDL
