MODEL 1
REMARK minimizedAffinity -0.764955401
REMARK minimizedRMSD -1
REMARK  0 active torsions:
REMARK  status: ('A' for Active; 'I' for Inactive)
ROOT
ATOM      1  C   UNL d   1       3.457   5.996  -5.880  0.00  0.00     0.172 C 
ATOM      2  N   UNL d   1       2.252   5.403  -5.350  0.00  0.00    -0.070 N 
ATOM      3  C1  UNL d   1       1.753   4.173  -5.686  0.00  0.00    -0.004 A 
ATOM      4  C2  UNL d   1       0.595   3.975  -4.964  0.00  0.00    -0.047 A 
ATOM      5  C3  UNL d   1       0.391   5.127  -4.168  0.00  0.00    -0.047 A 
ATOM      6  C4  UNL d   1       1.432   5.995  -4.426  0.00  0.00    -0.004 A 
ENDROOT
TORSDOF 0
ENDMDL
