MODEL 1
REMARK minimizedAffinity -0.484084517
REMARK minimizedRMSD -1
REMARK  0 active torsions:
REMARK  status: ('A' for Active; 'I' for Inactive)
ROOT
ATOM      1  C   UNL d   1       0.989   0.614   1.787  0.00  0.00     0.172 C 
ATOM      2  N   UNL d   1       1.192   1.132   0.455  0.00  0.00    -0.070 N 
ATOM      3  C1  UNL d   1       1.250   2.457   0.114  0.00  0.00    -0.004 A 
ATOM      4  C2  UNL d   1       1.455   2.535  -1.247  0.00  0.00    -0.047 A 
ATOM      5  C3  UNL d   1       1.522   1.210  -1.741  0.00  0.00    -0.047 A 
ATOM      6  C4  UNL d   1       1.356   0.362  -0.666  0.00  0.00    -0.004 A 
ENDROOT
TORSDOF 0
ENDMDL
