MODEL 1
REMARK minimizedAffinity -2.73734474
REMARK minimizedRMSD -1
REMARK  0 active torsions:
REMARK  status: ('A' for Active; 'I' for Inactive)
ROOT
ATOM      1  C   UNL d   1       0.219   5.993  -5.992  0.00  0.00     0.172 C 
ATOM      2  N   UNL d   1      -0.653   5.994  -4.841  0.00  0.00    -0.070 N 
ATOM      3  C1  UNL d   1      -2.022   5.992  -4.877  0.00  0.00    -0.004 A 
ATOM      4  C2  UNL d   1      -2.478   5.992  -3.577  0.00  0.00    -0.047 A 
ATOM      5  C3  UNL d   1      -1.344   5.996  -2.730  0.00  0.00    -0.047 A 
ATOM      6  C4  UNL d   1      -0.227   5.997  -3.539  0.00  0.00    -0.004 A 
ENDROOT
TORSDOF 0
ENDMDL
