MODEL 1
REMARK minimizedAffinity -1.90398872
REMARK minimizedRMSD -1
REMARK  0 active torsions:
REMARK  status: ('A' for Active; 'I' for Inactive)
ROOT
ATOM      1  C   UNL d   1       2.104   5.284  -5.248  0.00  0.00     0.172 C 
ATOM      2  N   UNL d   1       3.545   5.194  -5.260  0.00  0.00    -0.070 N 
ATOM      3  C1  UNL d   1       4.295   4.301  -4.543  0.00  0.00    -0.004 A 
ATOM      4  C2  UNL d   1       5.622   4.539  -4.828  0.00  0.00    -0.047 A 
ATOM      5  C3  UNL d   1       5.671   5.613  -5.749  0.00  0.00    -0.047 A 
ATOM      6  C4  UNL d   1       4.372   5.999  -5.999  0.00  0.00    -0.004 A 
ENDROOT
TORSDOF 0
ENDMDL
