MODEL 1
REMARK minimizedAffinity 1.05636311
REMARK minimizedRMSD -1
REMARK  0 active torsions:
REMARK  status: ('A' for Active; 'I' for Inactive)
ROOT
ATOM      1  C   UNL d   1      -4.861   6.000  -3.742  0.00  0.00     0.172 C 
ATOM      2  N   UNL d   1      -3.477   5.999  -3.330  0.00  0.00    -0.070 N 
ATOM      3  C1  UNL d   1      -3.029   5.999  -2.036  0.00  0.00    -0.004 A 
ATOM      4  C2  UNL d   1      -1.651   5.998  -2.066  0.00  0.00    -0.047 A 
ATOM      5  C3  UNL d   1      -1.257   5.999  -3.425  0.00  0.00    -0.047 A 
ATOM      6  C4  UNL d   1      -2.407   6.000  -4.186  0.00  0.00    -0.004 A 
ENDROOT
TORSDOF 0
ENDMDL
