MODEL 1
REMARK minimizedAffinity 0.33992669
REMARK minimizedRMSD -1
REMARK  0 active torsions:
REMARK  status: ('A' for Active; 'I' for Inactive)
ROOT
ATOM      1  C   UNL d   1       0.043   5.999  -5.862  0.00  0.00     0.172 C 
ATOM      2  N   UNL d   1       1.335   5.363  -5.752  0.00  0.00    -0.070 N 
ATOM      3  C1  UNL d   1       2.546   5.998  -5.825  0.00  0.00    -0.004 A 
ATOM      4  C2  UNL d   1       3.531   5.046  -5.674  0.00  0.00    -0.047 A 
ATOM      5  C3  UNL d   1       2.889   3.795  -5.506  0.00  0.00    -0.047 A 
ATOM      6  C4  UNL d   1       1.530   4.021  -5.558  0.00  0.00    -0.004 A 
ENDROOT
TORSDOF 0
ENDMDL
