MODEL 1
REMARK minimizedAffinity -0.199448183
REMARK minimizedRMSD -1
REMARK  0 active torsions:
REMARK  status: ('A' for Active; 'I' for Inactive)
ROOT
ATOM      1  C   UNL d   1      -0.590   0.062   1.230  0.00  0.00     0.172 C 
ATOM      2  N   UNL d   1       0.407   1.087   1.035  0.00  0.00    -0.070 N 
ATOM      3  C1  UNL d   1       1.746   0.958   1.294  0.00  0.00    -0.004 A 
ATOM      4  C2  UNL d   1       2.354   2.153   0.977  0.00  0.00    -0.047 A 
ATOM      5  C3  UNL d   1       1.346   3.031   0.512  0.00  0.00    -0.047 A 
ATOM      6  C4  UNL d   1       0.151   2.345   0.558  0.00  0.00    -0.004 A 
ENDROOT
TORSDOF 0
ENDMDL
