MODEL 1
REMARK minimizedAffinity 0.97689271
REMARK minimizedRMSD -1
REMARK  0 active torsions:
REMARK  status: ('A' for Active; 'I' for Inactive)
ROOT
ATOM      1  C   UNL d   1       1.384   2.957   0.372  0.00  0.00     0.172 C 
ATOM      2  N   UNL d   1       0.723   1.705   0.656  0.00  0.00    -0.070 N 
ATOM      3  C1  UNL d   1       1.005   0.873   1.707  0.00  0.00    -0.004 A 
ATOM      4  C2  UNL d   1       0.158  -0.211   1.626  0.00  0.00    -0.047 A 
ATOM      5  C3  UNL d   1      -0.661  -0.026   0.487  0.00  0.00    -0.047 A 
ATOM      6  C4  UNL d   1      -0.290   1.168  -0.095  0.00  0.00    -0.004 A 
ENDROOT
TORSDOF 0
ENDMDL
