MODEL 1
REMARK minimizedAffinity -1.13658631
REMARK minimizedRMSD -1
REMARK  0 active torsions:
REMARK  status: ('A' for Active; 'I' for Inactive)
ROOT
ATOM      1  C   UNL d   1       4.796   5.848  -4.825  0.00  0.00     0.172 C 
ATOM      2  N   UNL d   1       3.353   5.883  -4.866  0.00  0.00    -0.070 N 
ATOM      3  C1  UNL d   1       2.585   5.813  -5.998  0.00  0.00    -0.004 A 
ATOM      4  C2  UNL d   1       1.263   5.879  -5.616  0.00  0.00    -0.047 A 
ATOM      5  C3  UNL d   1       1.235   5.994  -4.205  0.00  0.00    -0.047 A 
ATOM      6  C4  UNL d   1       2.542   5.995  -3.768  0.00  0.00    -0.004 A 
ENDROOT
TORSDOF 0
ENDMDL
