MODEL 1
REMARK minimizedAffinity -0.98405236
REMARK minimizedRMSD -1
REMARK  0 active torsions:
REMARK  status: ('A' for Active; 'I' for Inactive)
ROOT
ATOM      1  C   UNL d   1       0.737   5.551  -5.997  0.00  0.00     0.172 C 
ATOM      2  N   UNL d   1       2.026   5.358  -5.375  0.00  0.00    -0.070 N 
ATOM      3  C1  UNL d   1       3.151   4.889  -5.998  0.00  0.00    -0.004 A 
ATOM      4  C2  UNL d   1       4.166   4.852  -5.066  0.00  0.00    -0.047 A 
ATOM      5  C3  UNL d   1       3.632   5.315  -3.840  0.00  0.00    -0.047 A 
ATOM      6  C4  UNL d   1       2.305   5.621  -4.060  0.00  0.00    -0.004 A 
ENDROOT
TORSDOF 0
ENDMDL
