MODEL 1
REMARK minimizedAffinity 9.34997845
REMARK minimizedRMSD -1
REMARK  0 active torsions:
REMARK  status: ('A' for Active; 'I' for Inactive)
ROOT
ATOM      1  C1  DEN d   1      -3.684  -1.363   2.785  0.00  0.00     0.130 A 
ATOM      2  C2  DEN d   1      -3.385  -1.444   4.212  0.00  0.00    -0.031 A 
ATOM      3  C3  DEN d   1      -2.123  -0.716   4.456  0.00  0.00     0.027 A 
ATOM      4  C4  DEN d   1      -0.614   0.526   2.773  0.00  0.00     0.027 A 
ATOM      5  C5  DEN d   1      -0.450   0.859   1.446  0.00  0.00    -0.003 A 
ATOM      6  C6  DEN d   1      -1.326   0.450   0.476  0.00  0.00     0.001 A 
ATOM      7  C7  DEN d   1      -2.432  -0.279   0.825  0.00  0.00     0.017 A 
ATOM      8  C8  DEN d   1      -2.601  -0.625   2.159  0.00  0.00    -0.094 A 
ATOM      9  C9  DEN d   1      -1.711  -0.192   3.126  0.00  0.00    -0.072 A 
ENDROOT
TORSDOF 0
ENDMDL
