MODEL 1
REMARK minimizedAffinity 11.8293076
REMARK minimizedRMSD -1
REMARK  0 active torsions:
REMARK  status: ('A' for Active; 'I' for Inactive)
ROOT
ATOM      1  C1  DEN d   1      -3.428  -0.585   2.664  0.00  0.00     0.130 A 
ATOM      2  C2  DEN d   1      -3.522  -1.762   3.524  0.00  0.00    -0.031 A 
ATOM      3  C3  DEN d   1      -2.229  -1.926   4.217  0.00  0.00     0.027 A 
ATOM      4  C4  DEN d   1      -0.102  -0.477   4.048  0.00  0.00     0.027 A 
ATOM      5  C5  DEN d   1       0.462   0.622   3.438  0.00  0.00    -0.003 A 
ATOM      6  C6  DEN d   1      -0.214   1.370   2.511  0.00  0.00     0.001 A 
ATOM      7  C7  DEN d   1      -1.510   1.054   2.199  0.00  0.00     0.017 A 
ATOM      8  C8  DEN d   1      -2.083  -0.057   2.803  0.00  0.00    -0.094 A 
ATOM      9  C9  DEN d   1      -1.387  -0.793   3.747  0.00  0.00    -0.072 A 
ENDROOT
TORSDOF 0
ENDMDL
