MODEL 1
REMARK minimizedAffinity 1.47178233
REMARK minimizedRMSD -1
REMARK  0 active torsions:
REMARK  status: ('A' for Active; 'I' for Inactive)
ROOT
ATOM      1  C1  DEN d   1       0.952  -0.202  -4.272  0.00  0.00     0.130 A 
ATOM      2  C2  DEN d   1       2.053   0.756  -4.221  0.00  0.00    -0.031 A 
ATOM      3  C3  DEN d   1       2.781   0.548  -2.953  0.00  0.00     0.027 A 
ATOM      4  C4  DEN d   1       2.315  -1.158  -1.076  0.00  0.00     0.027 A 
ATOM      5  C5  DEN d   1       1.481  -2.174  -0.664  0.00  0.00    -0.003 A 
ATOM      6  C6  DEN d   1       0.402  -2.578  -1.404  0.00  0.00     0.001 A 
ATOM      7  C7  DEN d   1       0.153  -1.993  -2.617  0.00  0.00     0.017 A 
ATOM      8  C8  DEN d   1       0.985  -0.963  -3.036  0.00  0.00    -0.094 A 
ATOM      9  C9  DEN d   1       2.079  -0.577  -2.279  0.00  0.00    -0.072 A 
ENDROOT
TORSDOF 0
ENDMDL
