MODEL 1
REMARK minimizedAffinity 11.5038319
REMARK minimizedRMSD -1
REMARK  0 active torsions:
REMARK  status: ('A' for Active; 'I' for Inactive)
ROOT
ATOM      1  C1  DEN d   1       3.405  -2.498  -4.989  0.00  0.00     0.130 A 
ATOM      2  C2  DEN d   1       2.265  -3.238  -5.524  0.00  0.00    -0.031 A 
ATOM      3  C3  DEN d   1       1.049  -2.434  -5.291  0.00  0.00     0.027 A 
ATOM      4  C4  DEN d   1       0.821  -0.125  -4.162  0.00  0.00     0.027 A 
ATOM      5  C5  DEN d   1       1.509   0.892  -3.538  0.00  0.00    -0.003 A 
ATOM      6  C6  DEN d   1       2.861   0.835  -3.325  0.00  0.00     0.001 A 
ATOM      7  C7  DEN d   1       3.576  -0.241  -3.781  0.00  0.00     0.017 A 
ATOM      8  C8  DEN d   1       2.888  -1.274  -4.404  0.00  0.00    -0.094 A 
ATOM      9  C9  DEN d   1       1.523  -1.193  -4.621  0.00  0.00    -0.072 A 
ENDROOT
TORSDOF 0
ENDMDL
