MODEL 1
REMARK minimizedAffinity 3.16564202
REMARK minimizedRMSD -1
REMARK  0 active torsions:
REMARK  status: ('A' for Active; 'I' for Inactive)
ROOT
ATOM      1  C1  DEN d   1       2.102   2.239  -1.432  0.00  0.00     0.130 A 
ATOM      2  C2  DEN d   1       1.836   1.507  -2.667  0.00  0.00    -0.031 A 
ATOM      3  C3  DEN d   1       1.574   0.097  -2.314  0.00  0.00     0.027 A 
ATOM      4  C4  DEN d   1       1.549  -1.016   0.013  0.00  0.00     0.027 A 
ATOM      5  C5  DEN d   1       1.729  -0.802   1.361  0.00  0.00    -0.003 A 
ATOM      6  C6  DEN d   1       2.075   0.423   1.866  0.00  0.00     0.001 A 
ATOM      7  C7  DEN d   1       2.209   1.493   1.021  0.00  0.00     0.017 A 
ATOM      8  C8  DEN d   1       2.038   1.283  -0.341  0.00  0.00    -0.094 A 
ATOM      9  C9  DEN d   1       1.675   0.040  -0.831  0.00  0.00    -0.072 A 
ENDROOT
TORSDOF 0
ENDMDL
