MODEL 1
REMARK minimizedAffinity 8.18292332
REMARK minimizedRMSD -1
REMARK  0 active torsions:
REMARK  status: ('A' for Active; 'I' for Inactive)
ROOT
ATOM      1  C1  DEN d   1       2.202  -0.767  -0.813  0.00  0.00     0.130 A 
ATOM      2  C2  DEN d   1       1.236  -1.824  -0.527  0.00  0.00    -0.031 A 
ATOM      3  C3  DEN d   1       0.346  -1.958  -1.698  0.00  0.00     0.027 A 
ATOM      4  C4  DEN d   1       0.374  -0.643  -3.917  0.00  0.00     0.027 A 
ATOM      5  C5  DEN d   1       1.003   0.362  -4.618  0.00  0.00    -0.003 A 
ATOM      6  C6  DEN d   1       2.045   1.078  -4.092  0.00  0.00     0.001 A 
ATOM      7  C7  DEN d   1       2.519   0.769  -2.844  0.00  0.00     0.017 A 
ATOM      8  C8  DEN d   1       1.886  -0.238  -2.128  0.00  0.00    -0.094 A 
ATOM      9  C9  DEN d   1       0.842  -0.959  -2.683  0.00  0.00    -0.072 A 
ENDROOT
TORSDOF 0
ENDMDL
