MODEL 1
REMARK minimizedAffinity 1.29738593
REMARK minimizedRMSD -1
REMARK  1 active torsions:
REMARK  status: ('A' for Active; 'I' for Inactive)
REMARK    1  A    between atoms: C1_2  and  C2_3 
ROOT
ATOM      1  C2  UNL d   1       1.990  -1.161   1.161  0.00  0.00    -0.077 A 
ATOM      2  C3  UNL d   1       0.648  -0.981   1.524  0.00  0.00     0.002 A 
ATOM      3  C4  UNL d   1      -0.351  -1.771   0.954  0.00  0.00     0.002 A 
ATOM      4  C5  UNL d   1      -0.019  -2.750   0.020  0.00  0.00    -0.004 A 
ATOM      5  C6  UNL d   1       1.313  -2.936  -0.350  0.00  0.00     0.002 A 
ATOM      6  C7  UNL d   1       2.313  -2.146   0.218  0.00  0.00     0.002 A 
ENDROOT
BRANCH   1   7
ATOM      7  C1  UNL d   1       3.074  -0.343   1.812  0.00  0.00     0.055 C 
ATOM      8  C   UNL d   1       4.456  -0.812   1.379  0.00  0.00     0.019 C 
ENDBRANCH   1   7
TORSDOF 1
ENDMDL
