MODEL 1
REMARK minimizedAffinity 8.73286152
REMARK minimizedRMSD -1
REMARK  1 active torsions:
REMARK  status: ('A' for Active; 'I' for Inactive)
REMARK    1  A    between atoms: C1_2  and  C2_3 
ROOT
ATOM      1  C2  UNL d   1       0.527  -1.561   0.203  0.00  0.00    -0.077 A 
ATOM      2  C3  UNL d   1      -0.754  -1.041   0.439  0.00  0.00     0.002 A 
ATOM      3  C4  UNL d   1      -0.954  -0.080   1.431  0.00  0.00     0.002 A 
ATOM      4  C5  UNL d   1       0.121   0.373   2.192  0.00  0.00    -0.004 A 
ATOM      5  C6  UNL d   1       1.399  -0.139   1.967  0.00  0.00     0.002 A 
ATOM      6  C7  UNL d   1       1.601  -1.100   0.976  0.00  0.00     0.002 A 
ENDROOT
BRANCH   1   7
ATOM      7  C1  UNL d   1       0.754  -2.561  -0.900  0.00  0.00     0.055 C 
ATOM      8  C   UNL d   1       1.544  -3.763  -0.403  0.00  0.00     0.019 C 
ENDBRANCH   1   7
TORSDOF 1
ENDMDL
