MODEL 1
REMARK minimizedAffinity 1.80028439
REMARK minimizedRMSD -1
REMARK  1 active torsions:
REMARK  status: ('A' for Active; 'I' for Inactive)
REMARK    1  A    between atoms: C1_2  and  C2_3 
ROOT
ATOM      1  C2  UNL d   1       1.516  -1.155   0.855  0.00  0.00    -0.077 A 
ATOM      2  C3  UNL d   1       0.379  -0.383   1.128  0.00  0.00     0.002 A 
ATOM      3  C4  UNL d   1      -0.891  -0.965   1.111  0.00  0.00     0.002 A 
ATOM      4  C5  UNL d   1      -1.033  -2.321   0.826  0.00  0.00    -0.004 A 
ATOM      5  C6  UNL d   1       0.092  -3.097   0.552  0.00  0.00     0.002 A 
ATOM      6  C7  UNL d   1       1.361  -2.517   0.567  0.00  0.00     0.002 A 
ENDROOT
BRANCH   1   7
ATOM      7  C1  UNL d   1       2.890  -0.541   0.922  0.00  0.00     0.055 C 
ATOM      8  C   UNL d   1       3.305  -0.266   2.360  0.00  0.00     0.019 C 
ENDBRANCH   1   7
TORSDOF 1
ENDMDL
