MODEL 1
REMARK minimizedAffinity 1.83281934
REMARK minimizedRMSD -1
REMARK  1 active torsions:
REMARK  status: ('A' for Active; 'I' for Inactive)
REMARK    1  A    between atoms: C1_2  and  C2_3 
ROOT
ATOM      1  C2  UNL d   1       0.729  -2.739  -0.039  0.00  0.00    -0.077 A 
ATOM      2  C3  UNL d   1       1.335  -1.859   0.868  0.00  0.00     0.002 A 
ATOM      3  C4  UNL d   1       0.554  -1.044   1.690  0.00  0.00     0.002 A 
ATOM      4  C5  UNL d   1      -0.835  -1.104   1.617  0.00  0.00    -0.004 A 
ATOM      5  C6  UNL d   1      -1.448  -1.976   0.717  0.00  0.00     0.002 A 
ATOM      6  C7  UNL d   1      -0.669  -2.790  -0.107  0.00  0.00     0.002 A 
ENDROOT
BRANCH   1   7
ATOM      7  C1  UNL d   1       1.569  -3.654  -0.891  0.00  0.00     0.055 C 
ATOM      8  C   UNL d   1       3.015  -3.678  -0.419  0.00  0.00     0.019 C 
ENDBRANCH   1   7
TORSDOF 1
ENDMDL
