MODEL 1
REMARK minimizedAffinity -4.30617142
REMARK minimizedRMSD -1
REMARK  1 active torsions:
REMARK  status: ('A' for Active; 'I' for Inactive)
REMARK    1  A    between atoms: C1_2  and  C2_3 
ROOT
ATOM      1  C2  UNL d   1      -5.761  -4.503   3.243  0.00  0.00    -0.077 A 
ATOM      2  C3  UNL d   1      -5.344  -5.745   3.740  0.00  0.00     0.002 A 
ATOM      3  C4  UNL d   1      -5.170  -5.934   5.113  0.00  0.00     0.002 A 
ATOM      4  C5  UNL d   1      -5.414  -4.887   5.998  0.00  0.00    -0.004 A 
ATOM      5  C6  UNL d   1      -5.827  -3.646   5.513  0.00  0.00     0.002 A 
ATOM      6  C7  UNL d   1      -6.000  -3.455   4.142  0.00  0.00     0.002 A 
ENDROOT
BRANCH   1   7
ATOM      7  C1  UNL d   1      -5.996  -4.311   1.767  0.00  0.00     0.055 C 
ATOM      8  C   UNL d   1      -4.877  -3.502   1.128  0.00  0.00     0.019 C 
ENDBRANCH   1   7
TORSDOF 1
ENDMDL
