MODEL 1
REMARK minimizedAffinity -2.33917999
REMARK minimizedRMSD -1
REMARK  1 active torsions:
REMARK  status: ('A' for Active; 'I' for Inactive)
REMARK    1  A    between atoms: C1_2  and  C2_3 
ROOT
ATOM      1  C2  UNL d   1      -5.594  -4.805   3.409  0.00  0.00    -0.077 A 
ATOM      2  C3  UNL d   1      -4.952  -3.666   3.916  0.00  0.00     0.002 A 
ATOM      3  C4  UNL d   1      -4.670  -2.584   3.080  0.00  0.00     0.002 A 
ATOM      4  C5  UNL d   1      -5.031  -2.627   1.735  0.00  0.00    -0.004 A 
ATOM      5  C6  UNL d   1      -5.668  -3.756   1.222  0.00  0.00     0.002 A 
ATOM      6  C7  UNL d   1      -5.949  -4.839   2.055  0.00  0.00     0.002 A 
ENDROOT
BRANCH   1   7
ATOM      7  C1  UNL d   1      -5.943  -5.953   4.320  0.00  0.00     0.055 C 
ATOM      8  C   UNL d   1      -5.089  -5.941   5.579  0.00  0.00     0.019 C 
ENDBRANCH   1   7
TORSDOF 1
ENDMDL
