MODEL 1
REMARK minimizedAffinity -1.34571946
REMARK minimizedRMSD -1
REMARK  1 active torsions:
REMARK  status: ('A' for Active; 'I' for Inactive)
REMARK    1  A    between atoms: C1_2  and  C2_3 
ROOT
ATOM      1  C2  UNL d   1      -1.523  -0.876   2.056  0.00  0.00    -0.077 A 
ATOM      2  C3  UNL d   1      -1.408  -0.666   3.437  0.00  0.00     0.002 A 
ATOM      3  C4  UNL d   1      -1.588   0.610   3.975  0.00  0.00     0.002 A 
ATOM      4  C5  UNL d   1      -1.889   1.684   3.140  0.00  0.00    -0.004 A 
ATOM      5  C6  UNL d   1      -2.004   1.486   1.765  0.00  0.00     0.002 A 
ATOM      6  C7  UNL d   1      -1.823   0.212   1.225  0.00  0.00     0.002 A 
ENDROOT
BRANCH   1   7
ATOM      7  C1  UNL d   1      -1.378  -2.260   1.479  0.00  0.00     0.055 C 
ATOM      8  C   UNL d   1      -0.039  -2.428   0.775  0.00  0.00     0.019 C 
ENDBRANCH   1   7
TORSDOF 1
ENDMDL
