MODEL 1
REMARK minimizedAffinity -1.18552375
REMARK minimizedRMSD -1
REMARK  1 active torsions:
REMARK  status: ('A' for Active; 'I' for Inactive)
REMARK    1  A    between atoms: C1_2  and  C2_3 
ROOT
ATOM      1  C2  UNL d   1       0.652  -1.998   0.151  0.00  0.00    -0.077 A 
ATOM      2  C3  UNL d   1       1.797  -1.220   0.371  0.00  0.00     0.002 A 
ATOM      3  C4  UNL d   1       1.700   0.010   1.025  0.00  0.00     0.002 A 
ATOM      4  C5  UNL d   1       0.462   0.470   1.468  0.00  0.00    -0.004 A 
ATOM      5  C6  UNL d   1      -0.683  -0.296   1.252  0.00  0.00     0.002 A 
ATOM      6  C7  UNL d   1      -0.588  -1.525   0.597  0.00  0.00     0.002 A 
ENDROOT
BRANCH   1   7
ATOM      7  C1  UNL d   1       0.761  -3.347  -0.511  0.00  0.00     0.055 C 
ATOM      8  C   UNL d   1       2.154  -3.936  -0.340  0.00  0.00     0.019 C 
ENDBRANCH   1   7
TORSDOF 1
ENDMDL
