MODEL 1
REMARK minimizedAffinity -4.78391647
REMARK minimizedRMSD -1
REMARK  1 active torsions:
REMARK  status: ('A' for Active; 'I' for Inactive)
REMARK    1  A    between atoms: C1_2  and  C2_3 
ROOT
ATOM      1  C2  UNL d   1      -0.137  -2.409   0.257  0.00  0.00    -0.077 A 
ATOM      2  C3  UNL d   1       1.151  -2.757  -0.172  0.00  0.00     0.002 A 
ATOM      3  C4  UNL d   1       2.179  -1.812  -0.159  0.00  0.00     0.002 A 
ATOM      4  C5  UNL d   1       1.931  -0.515   0.286  0.00  0.00    -0.004 A 
ATOM      5  C6  UNL d   1       0.653  -0.159   0.713  0.00  0.00     0.002 A 
ATOM      6  C7  UNL d   1      -0.377  -1.101   0.700  0.00  0.00     0.002 A 
ENDROOT
BRANCH   1   7
ATOM      7  C1  UNL d   1      -1.235  -3.439   0.291  0.00  0.00     0.055 C 
ATOM      8  C   UNL d   1      -2.516  -2.865   0.879  0.00  0.00     0.019 C 
ENDBRANCH   1   7
TORSDOF 1
ENDMDL
