MODEL 1
REMARK minimizedAffinity 4.65826416
REMARK minimizedRMSD -1
REMARK  1 active torsions:
REMARK  status: ('A' for Active; 'I' for Inactive)
REMARK    1  A    between atoms: C1_2  and  C2_3 
ROOT
ATOM      1  C2  UNL d   1       0.291  -2.832  -0.032  0.00  0.00    -0.077 A 
ATOM      2  C3  UNL d   1      -0.602  -2.055   0.719  0.00  0.00     0.002 A 
ATOM      3  C4  UNL d   1      -0.124  -1.086   1.603  0.00  0.00     0.002 A 
ATOM      4  C5  UNL d   1       1.248  -0.883   1.742  0.00  0.00    -0.004 A 
ATOM      5  C6  UNL d   1       2.144  -1.652   1.001  0.00  0.00     0.002 A 
ATOM      6  C7  UNL d   1       1.668  -2.622   0.118  0.00  0.00     0.002 A 
ENDROOT
BRANCH   1   7
ATOM      7  C1  UNL d   1      -0.224  -3.844  -1.022  0.00  0.00     0.055 C 
ATOM      8  C   UNL d   1       0.125  -3.448  -2.450  0.00  0.00     0.019 C 
ENDBRANCH   1   7
TORSDOF 1
ENDMDL
