MODEL 1
REMARK minimizedAffinity -4.37335777
REMARK minimizedRMSD -1
REMARK  1 active torsions:
REMARK  status: ('A' for Active; 'I' for Inactive)
REMARK    1  A    between atoms: C1_2  and  C2_3 
ROOT
ATOM      1  C2  UNL d   1      -1.822  -1.273   0.847  0.00  0.00    -0.077 A 
ATOM      2  C3  UNL d   1      -2.902  -0.560   0.309  0.00  0.00     0.002 A 
ATOM      3  C4  UNL d   1      -3.274   0.672   0.849  0.00  0.00     0.002 A 
ATOM      4  C5  UNL d   1      -2.569   1.204   1.927  0.00  0.00    -0.004 A 
ATOM      5  C6  UNL d   1      -1.494   0.502   2.470  0.00  0.00     0.002 A 
ATOM      6  C7  UNL d   1      -1.122  -0.731   1.933  0.00  0.00     0.002 A 
ENDROOT
BRANCH   1   7
ATOM      7  C1  UNL d   1      -1.388  -2.579   0.235  0.00  0.00     0.055 C 
ATOM      8  C   UNL d   1       0.121  -2.759   0.324  0.00  0.00     0.019 C 
ENDBRANCH   1   7
TORSDOF 1
ENDMDL
