MODEL 1
REMARK minimizedAffinity 8.02349377
REMARK minimizedRMSD -1
REMARK  1 active torsions:
REMARK  status: ('A' for Active; 'I' for Inactive)
REMARK    1  A    between atoms: C1_2  and  C2_3 
ROOT
ATOM      1  C2  UNL d   1       3.480   3.411  -1.734  0.00  0.00    -0.077 A 
ATOM      2  C3  UNL d   1       2.346   3.417  -2.559  0.00  0.00     0.002 A 
ATOM      3  C4  UNL d   1       2.052   2.314  -3.363  0.00  0.00     0.002 A 
ATOM      4  C5  UNL d   1       2.884   1.197  -3.347  0.00  0.00    -0.004 A 
ATOM      5  C6  UNL d   1       4.015   1.182  -2.532  0.00  0.00     0.002 A 
ATOM      6  C7  UNL d   1       4.311   2.284  -1.728  0.00  0.00     0.002 A 
ENDROOT
BRANCH   1   7
ATOM      7  C1  UNL d   1       3.771   4.579  -0.829  0.00  0.00     0.055 C 
ATOM      8  C   UNL d   1       3.712   4.173   0.636  0.00  0.00     0.019 C 
ENDBRANCH   1   7
TORSDOF 1
ENDMDL
