MODEL 1
REMARK minimizedAffinity -0.109459236
REMARK minimizedRMSD -1
REMARK  0 active torsions:
REMARK  status: ('A' for Active; 'I' for Inactive)
ROOT
ATOM      1  C   UNL d   1      -1.622  -1.404   1.414  0.00  0.00     0.124 A 
ATOM      2  C1  UNL d   1      -1.856  -0.037   1.360  0.00  0.00     0.062 A 
ATOM      3  C2  UNL d   1      -1.027   0.786   0.604  0.00  0.00     0.162 A 
ATOM      4  C3  UNL d   1       0.044   0.245  -0.106  0.00  0.00    -0.034 A 
ATOM      5  C4  UNL d   1       0.274  -1.131  -0.047  0.00  0.00     0.162 A 
ATOM      6  C5  UNL d   1      -0.558  -1.950   0.710  0.00  0.00     0.062 A 
ATOM      7  F   UNL d   1      -0.330  -3.270   0.761  0.00  0.00    -0.097 F 
ATOM      8  F1  UNL d   1       1.295  -1.685  -0.718  0.00  0.00    -0.096 F 
ATOM      9  I   UNL d   1       1.287   1.472  -1.238  0.00  0.00    -0.060 I 
ATOM     10  F2  UNL d   1      -1.277   2.104   0.571  0.00  0.00    -0.096 F 
ATOM     11  F3  UNL d   1      -2.884   0.493   2.040  0.00  0.00    -0.097 F 
ATOM     12  F4  UNL d   1      -2.422  -2.193   2.143  0.00  0.00    -0.092 F 
ENDROOT
TORSDOF 0
ENDMDL
