MODEL 1
REMARK minimizedAffinity -0.594213784
REMARK minimizedRMSD -1
REMARK  0 active torsions:
REMARK  status: ('A' for Active; 'I' for Inactive)
ROOT
ATOM      1  C   UNL d   1       1.927   1.767  -1.542  0.00  0.00     0.124 A 
ATOM      2  C1  UNL d   1       0.586   1.415  -1.603  0.00  0.00     0.062 A 
ATOM      3  C2  UNL d   1       0.089   0.404  -0.787  0.00  0.00     0.162 A 
ATOM      4  C3  UNL d   1       0.935  -0.263   0.100  0.00  0.00    -0.034 A 
ATOM      5  C4  UNL d   1       2.283   0.095   0.156  0.00  0.00     0.162 A 
ATOM      6  C5  UNL d   1       2.774   1.107  -0.663  0.00  0.00     0.062 A 
ATOM      7  F   UNL d   1       4.070   1.445  -0.602  0.00  0.00    -0.097 F 
ATOM      8  F1  UNL d   1       3.123  -0.526   0.997  0.00  0.00    -0.096 F 
ATOM      9  I   UNL d   1       0.196  -1.777   1.323  0.00  0.00    -0.060 I 
ATOM     10  F2  UNL d   1      -1.211   0.085  -0.867  0.00  0.00    -0.096 F 
ATOM     11  F3  UNL d   1      -0.234   2.051  -2.453  0.00  0.00    -0.097 F 
ATOM     12  F4  UNL d   1       2.402   2.740  -2.330  0.00  0.00    -0.092 F 
ENDROOT
TORSDOF 0
ENDMDL
