MODEL 1
REMARK minimizedAffinity -2.881742
REMARK minimizedRMSD -1
REMARK  0 active torsions:
REMARK  status: ('A' for Active; 'I' for Inactive)
ROOT
ATOM      1  C   UNL d   1      -1.467  -1.136   1.670  0.00  0.00     0.124 A 
ATOM      2  C1  UNL d   1      -1.852   0.185   1.486  0.00  0.00     0.062 A 
ATOM      3  C2  UNL d   1      -1.107   1.023   0.662  0.00  0.00     0.162 A 
ATOM      4  C3  UNL d   1       0.031   0.542   0.013  0.00  0.00    -0.034 A 
ATOM      5  C4  UNL d   1       0.412  -0.787   0.204  0.00  0.00     0.162 A 
ATOM      6  C5  UNL d   1      -0.336  -1.621   1.029  0.00  0.00     0.062 A 
ATOM      7  F   UNL d   1       0.038  -2.896   1.205  0.00  0.00    -0.097 F 
ATOM      8  F1  UNL d   1       1.500  -1.282  -0.405  0.00  0.00    -0.096 F 
ATOM      9  I   UNL d   1       1.147   1.792  -1.221  0.00  0.00    -0.060 I 
ATOM     10  F2  UNL d   1      -1.502   2.295   0.502  0.00  0.00    -0.096 F 
ATOM     11  F3  UNL d   1      -2.944   0.656   2.105  0.00  0.00    -0.097 F 
ATOM     12  F4  UNL d   1      -2.185  -1.940   2.465  0.00  0.00    -0.092 F 
ENDROOT
TORSDOF 0
ENDMDL
