MODEL 1
REMARK minimizedAffinity 3.68492651
REMARK minimizedRMSD -1
REMARK  0 active torsions:
REMARK  status: ('A' for Active; 'I' for Inactive)
ROOT
ATOM      1  C   UNL d   1      -1.661  -1.218   1.691  0.00  0.00     0.124 A 
ATOM      2  C1  UNL d   1      -0.685  -1.883   0.960  0.00  0.00     0.062 A 
ATOM      3  C2  UNL d   1       0.156  -1.173   0.108  0.00  0.00     0.162 A 
ATOM      4  C3  UNL d   1       0.026   0.210  -0.018  0.00  0.00    -0.034 A 
ATOM      5  C4  UNL d   1      -0.957   0.871   0.719  0.00  0.00     0.162 A 
ATOM      6  C5  UNL d   1      -1.796   0.158   1.569  0.00  0.00     0.062 A 
ATOM      7  F   UNL d   1      -2.738   0.802   2.274  0.00  0.00    -0.097 F 
ATOM      8  F1  UNL d   1      -1.109   2.200   0.621  0.00  0.00    -0.096 F 
ATOM      9  I   UNL d   1       1.283   1.274  -1.291  0.00  0.00    -0.060 I 
ATOM     10  F2  UNL d   1       1.090  -1.842  -0.585  0.00  0.00    -0.096 F 
ATOM     11  F3  UNL d   1      -0.553  -3.212   1.075  0.00  0.00    -0.097 F 
ATOM     12  F4  UNL d   1      -2.470  -1.903   2.509  0.00  0.00    -0.092 F 
ENDROOT
TORSDOF 0
ENDMDL
