MODEL 1
REMARK minimizedAffinity -3.27441931
REMARK minimizedRMSD -1
REMARK  0 active torsions:
REMARK  status: ('A' for Active; 'I' for Inactive)
ROOT
ATOM      1  C   UNL d   1      -2.226  -0.757   1.149  0.00  0.00     0.124 A 
ATOM      2  C1  UNL d   1      -1.498  -1.415   0.167  0.00  0.00     0.062 A 
ATOM      3  C2  UNL d   1      -0.470  -0.757  -0.501  0.00  0.00     0.162 A 
ATOM      4  C3  UNL d   1      -0.162   0.567  -0.189  0.00  0.00    -0.034 A 
ATOM      5  C4  UNL d   1      -0.899   1.223   0.799  0.00  0.00     0.162 A 
ATOM      6  C5  UNL d   1      -1.926   0.561   1.464  0.00  0.00     0.062 A 
ATOM      7  F   UNL d   1      -2.628   1.199   2.412  0.00  0.00    -0.097 F 
ATOM      8  F1  UNL d   1      -0.629   2.496   1.123  0.00  0.00    -0.096 F 
ATOM      9  I   UNL d   1       1.375   1.555  -1.186  0.00  0.00    -0.060 I 
ATOM     10  F2  UNL d   1       0.217  -1.418  -1.445  0.00  0.00    -0.096 F 
ATOM     11  F3  UNL d   1      -1.787  -2.688  -0.139  0.00  0.00    -0.097 F 
ATOM     12  F4  UNL d   1      -3.216  -1.392   1.790  0.00  0.00    -0.092 F 
ENDROOT
TORSDOF 0
ENDMDL
