MODEL 1
REMARK minimizedAffinity -2.04253006
REMARK minimizedRMSD -1
REMARK  0 active torsions:
REMARK  status: ('A' for Active; 'I' for Inactive)
ROOT
ATOM      1  C   UNL d   1      -2.522  -0.118   1.437  0.00  0.00     0.124 A 
ATOM      2  C1  UNL d   1      -2.140  -1.446   1.311  0.00  0.00     0.062 A 
ATOM      3  C2  UNL d   1      -0.843  -1.767   0.919  0.00  0.00     0.162 A 
ATOM      4  C3  UNL d   1       0.081  -0.757   0.652  0.00  0.00    -0.034 A 
ATOM      5  C4  UNL d   1      -0.311   0.576   0.780  0.00  0.00     0.162 A 
ATOM      6  C5  UNL d   1      -1.608   0.892   1.171  0.00  0.00     0.062 A 
ATOM      7  F   UNL d   1      -1.976   2.176   1.292  0.00  0.00    -0.097 F 
ATOM      8  F1  UNL d   1       0.552   1.572   0.530  0.00  0.00    -0.096 F 
ATOM      9  I   UNL d   1       2.021  -1.233   0.066  0.00  0.00    -0.060 I 
ATOM     10  F2  UNL d   1      -0.501  -3.059   0.806  0.00  0.00    -0.096 F 
ATOM     11  F3  UNL d   1      -3.021  -2.423   1.566  0.00  0.00    -0.097 F 
ATOM     12  F4  UNL d   1      -3.771   0.188   1.813  0.00  0.00    -0.092 F 
ENDROOT
TORSDOF 0
ENDMDL
