MODEL 1
REMARK minimizedAffinity -1.16618466
REMARK minimizedRMSD -1
REMARK  0 active torsions:
REMARK  status: ('A' for Active; 'I' for Inactive)
ROOT
ATOM      1  C   UNL d   1      -0.960  -0.441   1.312  0.00  0.00     0.124 A 
ATOM      2  C1  UNL d   1      -1.183   0.898   1.023  0.00  0.00     0.062 A 
ATOM      3  C2  UNL d   1      -0.456   1.527   0.016  0.00  0.00     0.162 A 
ATOM      4  C3  UNL d   1       0.500   0.817  -0.711  0.00  0.00    -0.034 A 
ATOM      5  C4  UNL d   1       0.719  -0.529  -0.413  0.00  0.00     0.162 A 
ATOM      6  C5  UNL d   1      -0.010  -1.153   0.594  0.00  0.00     0.062 A 
ATOM      7  F   UNL d   1       0.206  -2.447   0.873  0.00  0.00    -0.097 F 
ATOM      8  F1  UNL d   1       1.630  -1.242  -1.092  0.00  0.00    -0.096 F 
ATOM      9  I   UNL d   1       1.588   1.753  -2.217  0.00  0.00    -0.060 I 
ATOM     10  F2  UNL d   1      -0.692   2.822  -0.243  0.00  0.00    -0.096 F 
ATOM     11  F3  UNL d   1      -2.100   1.589   1.715  0.00  0.00    -0.097 F 
ATOM     12  F4  UNL d   1      -1.660  -1.043   2.282  0.00  0.00    -0.092 F 
ENDROOT
TORSDOF 0
ENDMDL
