MODEL 1
REMARK minimizedAffinity -3.52297544
REMARK minimizedRMSD -1
REMARK  0 active torsions:
REMARK  status: ('A' for Active; 'I' for Inactive)
ROOT
ATOM      1  C   UNL d   1      -2.546  -2.088   1.754  0.00  0.00     0.124 A 
ATOM      2  C1  UNL d   1      -1.423  -2.461   1.028  0.00  0.00     0.062 A 
ATOM      3  C2  UNL d   1      -0.560  -1.492   0.527  0.00  0.00     0.162 A 
ATOM      4  C3  UNL d   1      -0.814  -0.138   0.751  0.00  0.00    -0.034 A 
ATOM      5  C4  UNL d   1      -1.946   0.229   1.482  0.00  0.00     0.162 A 
ATOM      6  C5  UNL d   1      -2.806  -0.744   1.980  0.00  0.00     0.062 A 
ATOM      7  F   UNL d   1      -3.890  -0.381   2.682  0.00  0.00    -0.097 F 
ATOM      8  F1  UNL d   1      -2.221   1.521   1.716  0.00  0.00    -0.096 F 
ATOM      9  I   UNL d   1       0.475   1.314   0.003  0.00  0.00    -0.060 I 
ATOM     10  F2  UNL d   1       0.517  -1.881  -0.172  0.00  0.00    -0.096 F 
ATOM     11  F3  UNL d   1      -1.170  -3.759   0.808  0.00  0.00    -0.097 F 
ATOM     12  F4  UNL d   1      -3.376  -3.023   2.235  0.00  0.00    -0.092 F 
ENDROOT
TORSDOF 0
ENDMDL
