MODEL 1
REMARK minimizedAffinity -1.8286823
REMARK minimizedRMSD -1
REMARK  0 active torsions:
REMARK  status: ('A' for Active; 'I' for Inactive)
ROOT
ATOM      1  C   UNL d   1      -0.954  -0.829   1.478  0.00  0.00     0.124 A 
ATOM      2  C1  UNL d   1      -1.216   0.528   1.351  0.00  0.00     0.062 A 
ATOM      3  C2  UNL d   1      -0.611   1.265   0.337  0.00  0.00     0.162 A 
ATOM      4  C3  UNL d   1       0.260   0.647  -0.559  0.00  0.00    -0.034 A 
ATOM      5  C4  UNL d   1       0.519  -0.719  -0.425  0.00  0.00     0.162 A 
ATOM      6  C5  UNL d   1      -0.088  -1.451   0.591  0.00  0.00     0.062 A 
ATOM      7  F   UNL d   1       0.166  -2.762   0.712  0.00  0.00    -0.097 F 
ATOM      8  F1  UNL d   1       1.351  -1.345  -1.269  0.00  0.00    -0.096 F 
ATOM      9  I   UNL d   1       1.166   1.745  -2.077  0.00  0.00    -0.060 I 
ATOM     10  F2  UNL d   1      -0.882   2.575   0.238  0.00  0.00    -0.096 F 
ATOM     11  F3  UNL d   1      -2.052   1.132   2.208  0.00  0.00    -0.097 F 
ATOM     12  F4  UNL d   1      -1.537  -1.536   2.456  0.00  0.00    -0.092 F 
ENDROOT
TORSDOF 0
ENDMDL
