MODEL 1
REMARK minimizedAffinity -3.26090789
REMARK minimizedRMSD -1
REMARK  0 active torsions:
REMARK  status: ('A' for Active; 'I' for Inactive)
ROOT
ATOM      1  C   UNL d   1      -2.855  -1.496   1.436  0.00  0.00     0.124 A 
ATOM      2  C1  UNL d   1      -1.857  -1.994   0.610  0.00  0.00     0.062 A 
ATOM      3  C2  UNL d   1      -0.850  -1.154   0.145  0.00  0.00     0.162 A 
ATOM      4  C3  UNL d   1      -0.835   0.193   0.505  0.00  0.00    -0.034 A 
ATOM      5  C4  UNL d   1      -1.843   0.687   1.335  0.00  0.00     0.162 A 
ATOM      6  C5  UNL d   1      -2.847  -0.156   1.798  0.00  0.00     0.062 A 
ATOM      7  F   UNL d   1      -3.811   0.327   2.595  0.00  0.00    -0.097 F 
ATOM      8  F1  UNL d   1      -1.859   1.978   1.701  0.00  0.00    -0.096 F 
ATOM      9  I   UNL d   1       0.670   1.453  -0.189  0.00  0.00    -0.060 I 
ATOM     10  F2  UNL d   1       0.102  -1.663  -0.652  0.00  0.00    -0.096 F 
ATOM     11  F3  UNL d   1      -1.863  -3.288   0.259  0.00  0.00    -0.097 F 
ATOM     12  F4  UNL d   1      -3.824  -2.307   1.882  0.00  0.00    -0.092 F 
ENDROOT
TORSDOF 0
ENDMDL
