MODEL 1
REMARK minimizedAffinity -4.25167513
REMARK minimizedRMSD -1
REMARK  0 active torsions:
REMARK  status: ('A' for Active; 'I' for Inactive)
ROOT
ATOM      1  C   UNL d   1      -2.637  -1.817   1.786  0.00  0.00     0.124 A 
ATOM      2  C1  UNL d   1      -2.785  -0.439   1.862  0.00  0.00     0.062 A 
ATOM      3  C2  UNL d   1      -1.927   0.397   1.152  0.00  0.00     0.162 A 
ATOM      4  C3  UNL d   1      -0.915  -0.143   0.359  0.00  0.00    -0.034 A 
ATOM      5  C4  UNL d   1      -0.772  -1.530   0.288  0.00  0.00     0.162 A 
ATOM      6  C5  UNL d   1      -1.631  -2.361   0.999  0.00  0.00     0.062 A 
ATOM      7  F   UNL d   1      -1.486  -3.692   0.925  0.00  0.00    -0.097 F 
ATOM      8  F1  UNL d   1       0.191  -2.082  -0.465  0.00  0.00    -0.096 F 
ATOM      9  I   UNL d   1       0.369   1.104  -0.703  0.00  0.00    -0.060 I 
ATOM     10  F2  UNL d   1      -2.093   1.725   1.244  0.00  0.00    -0.096 F 
ATOM     11  F3  UNL d   1      -3.755   0.088   2.621  0.00  0.00    -0.097 F 
ATOM     12  F4  UNL d   1      -3.462  -2.620   2.470  0.00  0.00    -0.092 F 
ENDROOT
TORSDOF 0
ENDMDL
