MODEL 1
REMARK minimizedAffinity -2.78709435
REMARK minimizedRMSD -1
REMARK  0 active torsions:
REMARK  status: ('A' for Active; 'I' for Inactive)
ROOT
ATOM      1  C1  BNZ d   1       5.995   0.659   3.332  0.00  0.00     0.000 A 
ATOM      2  C2  BNZ d   1       5.991   1.959   3.764  0.00  0.00     0.000 A 
ATOM      3  C3  BNZ d   1       6.000   2.253   5.099  0.00  0.00     0.000 A 
ATOM      4  C4  BNZ d   1       5.973   1.249   5.999  0.00  0.00     0.000 A 
ATOM      5  C5  BNZ d   1       5.968  -0.067   5.579  0.00  0.00     0.000 A 
ATOM      6  C6  BNZ d   1       5.998  -0.359   4.235  0.00  0.00     0.000 A 
ENDROOT
TORSDOF 0
ENDMDL
