MODEL 1
REMARK minimizedAffinity -3.03807116
REMARK minimizedRMSD -1
REMARK  0 active torsions:
REMARK  status: ('A' for Active; 'I' for Inactive)
ROOT
ATOM      1  C1  BNZ d   1       5.397   2.031   3.695  0.00  0.00     0.000 A 
ATOM      2  C2  BNZ d   1       6.000   0.924   3.159  0.00  0.00     0.000 A 
ATOM      3  C3  BNZ d   1       5.996  -0.268   3.827  0.00  0.00     0.000 A 
ATOM      4  C4  BNZ d   1       5.425  -0.343   5.047  0.00  0.00     0.000 A 
ATOM      5  C5  BNZ d   1       4.821   0.766   5.605  0.00  0.00     0.000 A 
ATOM      6  C6  BNZ d   1       4.793   1.955   4.912  0.00  0.00     0.000 A 
ENDROOT
TORSDOF 0
ENDMDL
