MODEL 1
REMARK minimizedAffinity -3.48345184
REMARK minimizedRMSD -1
REMARK  0 active torsions:
REMARK  status: ('A' for Active; 'I' for Inactive)
ROOT
ATOM      1  C1  BNZ d   1       5.492  -1.099   4.902  0.00  0.00     0.000 A 
ATOM      2  C2  BNZ d   1       5.639   0.089   5.566  0.00  0.00     0.000 A 
ATOM      3  C3  BNZ d   1       5.608   1.277   4.892  0.00  0.00     0.000 A 
ATOM      4  C4  BNZ d   1       5.471   1.274   3.550  0.00  0.00     0.000 A 
ATOM      5  C5  BNZ d   1       5.330   0.084   2.864  0.00  0.00     0.000 A 
ATOM      6  C6  BNZ d   1       5.322  -1.108   3.551  0.00  0.00     0.000 A 
ENDROOT
TORSDOF 0
ENDMDL
