MODEL 1
REMARK minimizedAffinity -2.50122762
REMARK minimizedRMSD -1
REMARK  0 active torsions:
REMARK  status: ('A' for Active; 'I' for Inactive)
ROOT
ATOM      1  C1  BNZ d   1       6.000   2.363   4.895  0.00  0.00     0.000 A 
ATOM      2  C2  BNZ d   1       5.823   2.758   3.596  0.00  0.00     0.000 A 
ATOM      3  C3  BNZ d   1       5.252   1.919   2.680  0.00  0.00     0.000 A 
ATOM      4  C4  BNZ d   1       4.895   0.674   3.055  0.00  0.00     0.000 A 
ATOM      5  C5  BNZ d   1       5.075   0.257   4.359  0.00  0.00     0.000 A 
ATOM      6  C6  BNZ d   1       5.615   1.118   5.287  0.00  0.00     0.000 A 
ENDROOT
TORSDOF 0
ENDMDL
