MODEL 1
REMARK minimizedAffinity -1.74435294
REMARK minimizedRMSD -1
REMARK  0 active torsions:
REMARK  status: ('A' for Active; 'I' for Inactive)
ROOT
ATOM      1  C1  BNZ d   1       6.000   1.331   2.535  0.00  0.00     0.000 A 
ATOM      2  C2  BNZ d   1       5.986   0.686   3.744  0.00  0.00     0.000 A 
ATOM      3  C3  BNZ d   1       5.955   1.393   4.913  0.00  0.00     0.000 A 
ATOM      4  C4  BNZ d   1       5.977   2.741   4.875  0.00  0.00     0.000 A 
ATOM      5  C5  BNZ d   1       6.000   3.405   3.665  0.00  0.00     0.000 A 
ATOM      6  C6  BNZ d   1       5.993   2.691   2.489  0.00  0.00     0.000 A 
ENDROOT
TORSDOF 0
ENDMDL
