MODEL 1
REMARK minimizedAffinity -1.24619222
REMARK minimizedRMSD -1
REMARK  0 active torsions:
REMARK  status: ('A' for Active; 'I' for Inactive)
ROOT
ATOM      1  C1  BNZ d   1       5.990   0.098   2.925  0.00  0.00     0.000 A 
ATOM      2  C2  BNZ d   1       5.985   1.371   2.419  0.00  0.00     0.000 A 
ATOM      3  C3  BNZ d   1       6.000   2.454   3.252  0.00  0.00     0.000 A 
ATOM      4  C4  BNZ d   1       5.979   2.265   4.588  0.00  0.00     0.000 A 
ATOM      5  C5  BNZ d   1       5.975   0.988   5.112  0.00  0.00     0.000 A 
ATOM      6  C6  BNZ d   1       5.999  -0.101   4.271  0.00  0.00     0.000 A 
ENDROOT
TORSDOF 0
ENDMDL
