MODEL 1
REMARK minimizedAffinity -1.80856991
REMARK minimizedRMSD -1
REMARK  0 active torsions:
REMARK  status: ('A' for Active; 'I' for Inactive)
ROOT
ATOM      1  C1  BNZ d   1       5.694   1.439   4.845  0.00  0.00     0.000 A 
ATOM      2  C2  BNZ d   1       5.724   0.700   5.998  0.00  0.00     0.000 A 
ATOM      3  C3  BNZ d   1       5.887  -0.656   5.956  0.00  0.00     0.000 A 
ATOM      4  C4  BNZ d   1       5.980  -1.276   4.762  0.00  0.00     0.000 A 
ATOM      5  C5  BNZ d   1       5.942  -0.547   3.590  0.00  0.00     0.000 A 
ATOM      6  C6  BNZ d   1       5.817   0.823   3.638  0.00  0.00     0.000 A 
ENDROOT
TORSDOF 0
ENDMDL
