MODEL 1
REMARK minimizedAffinity -2.66620374
REMARK minimizedRMSD -1
REMARK  0 active torsions:
REMARK  status: ('A' for Active; 'I' for Inactive)
ROOT
ATOM      1  C1  BNZ d   1       5.923  -0.077   5.999  0.00  0.00     0.000 A 
ATOM      2  C2  BNZ d   1       6.000   1.291   6.000  0.00  0.00     0.000 A 
ATOM      3  C3  BNZ d   1       5.673   2.010   4.885  0.00  0.00     0.000 A 
ATOM      4  C4  BNZ d   1       5.310   1.362   3.760  0.00  0.00     0.000 A 
ATOM      5  C5  BNZ d   1       5.237  -0.017   3.741  0.00  0.00     0.000 A 
ATOM      6  C6  BNZ d   1       5.529  -0.737   4.877  0.00  0.00     0.000 A 
ENDROOT
TORSDOF 0
ENDMDL
