MODEL 1
REMARK minimizedAffinity 2.64552021
REMARK minimizedRMSD -1
REMARK  0 active torsions:
REMARK  status: ('A' for Active; 'I' for Inactive)
ROOT
ATOM      1  C1  BNZ d   1       5.998   1.896   2.396  0.00  0.00     0.000 A 
ATOM      2  C2  BNZ d   1       6.000   3.122   3.006  0.00  0.00     0.000 A 
ATOM      3  C3  BNZ d   1       5.456   3.287   4.249  0.00  0.00     0.000 A 
ATOM      4  C4  BNZ d   1       4.875   2.236   4.863  0.00  0.00     0.000 A 
ATOM      5  C5  BNZ d   1       4.857   0.995   4.258  0.00  0.00     0.000 A 
ATOM      6  C6  BNZ d   1       5.440   0.824   3.023  0.00  0.00     0.000 A 
ENDROOT
TORSDOF 0
ENDMDL
