MODEL 1
REMARK minimizedAffinity -3.14632726
REMARK minimizedRMSD -1
REMARK  0 active torsions:
REMARK  status: ('A' for Active; 'I' for Inactive)
ROOT
ATOM      1  C1  BNZ d   1       6.000   1.058   3.088  0.00  0.00     0.000 A 
ATOM      2  C2  BNZ d   1       5.999  -0.034   3.914  0.00  0.00     0.000 A 
ATOM      3  C3  BNZ d   1       5.591   0.071   5.214  0.00  0.00     0.000 A 
ATOM      4  C4  BNZ d   1       5.222   1.275   5.698  0.00  0.00     0.000 A 
ATOM      5  C5  BNZ d   1       5.226   2.388   4.880  0.00  0.00     0.000 A 
ATOM      6  C6  BNZ d   1       5.601   2.270   3.562  0.00  0.00     0.000 A 
ENDROOT
TORSDOF 0
ENDMDL
