MODEL 1
REMARK minimizedAffinity -0.162841141
REMARK minimizedRMSD -1
REMARK  0 active torsions:
REMARK  status: ('A' for Active; 'I' for Inactive)
ROOT
ATOM      1  C1  BNZ d   1       5.957   0.686   4.753  0.00  0.00     0.000 A 
ATOM      2  C2  BNZ d   1       5.956   0.001   5.938  0.00  0.00     0.000 A 
ATOM      3  C3  BNZ d   1       5.993  -1.365   5.957  0.00  0.00     0.000 A 
ATOM      4  C4  BNZ d   1       5.991  -2.045   4.792  0.00  0.00     0.000 A 
ATOM      5  C5  BNZ d   1       5.983  -1.369   3.588  0.00  0.00     0.000 A 
ATOM      6  C6  BNZ d   1       5.985   0.007   3.573  0.00  0.00     0.000 A 
ENDROOT
TORSDOF 0
ENDMDL
