MODEL 1
REMARK minimizedAffinity -2.66035414
REMARK minimizedRMSD -1
REMARK  0 active torsions:
REMARK  status: ('A' for Active; 'I' for Inactive)
ROOT
ATOM      1  C1  BNZ d   1       5.205   0.239   4.764  0.00  0.00     0.000 A 
ATOM      2  C2  BNZ d   1       4.903   1.076   3.723  0.00  0.00     0.000 A 
ATOM      3  C3  BNZ d   1       5.168   2.414   3.801  0.00  0.00     0.000 A 
ATOM      4  C4  BNZ d   1       5.697   2.920   4.934  0.00  0.00     0.000 A 
ATOM      5  C5  BNZ d   1       5.999   2.091   5.996  0.00  0.00     0.000 A 
ATOM      6  C6  BNZ d   1       5.766   0.738   5.899  0.00  0.00     0.000 A 
ENDROOT
TORSDOF 0
ENDMDL
