MODEL 1
REMARK minimizedAffinity -0.529563308
REMARK minimizedRMSD -1
REMARK  0 active torsions:
REMARK  status: ('A' for Active; 'I' for Inactive)
ROOT
ATOM      1  C1  BNZ d   1       5.995   3.357   3.144  0.00  0.00     0.000 A 
ATOM      2  C2  BNZ d   1       5.997   2.210   2.396  0.00  0.00     0.000 A 
ATOM      3  C3  BNZ d   1       5.975   0.982   2.996  0.00  0.00     0.000 A 
ATOM      4  C4  BNZ d   1       5.991   0.903   4.343  0.00  0.00     0.000 A 
ATOM      5  C5  BNZ d   1       5.997   2.050   5.111  0.00  0.00     0.000 A 
ATOM      6  C6  BNZ d   1       5.980   3.284   4.503  0.00  0.00     0.000 A 
ENDROOT
TORSDOF 0
ENDMDL
