MODEL 1
REMARK minimizedAffinity -1.78193903
REMARK minimizedRMSD -1
REMARK  0 active torsions:
REMARK  status: ('A' for Active; 'I' for Inactive)
ROOT
ATOM      1  C1  BNZ d   1       5.948   1.320   4.645  0.00  0.00     0.000 A 
ATOM      2  C2  BNZ d   1       5.947   0.180   5.404  0.00  0.00     0.000 A 
ATOM      3  C3  BNZ d   1       5.993  -1.052   4.815  0.00  0.00     0.000 A 
ATOM      4  C4  BNZ d   1       5.999  -1.145   3.470  0.00  0.00     0.000 A 
ATOM      5  C5  BNZ d   1       5.992  -0.005   2.691  0.00  0.00     0.000 A 
ATOM      6  C6  BNZ d   1       5.985   1.235   3.288  0.00  0.00     0.000 A 
ENDROOT
TORSDOF 0
ENDMDL
