MODEL 1
REMARK minimizedAffinity -2.5188148
REMARK minimizedRMSD -1
REMARK  0 active torsions:
REMARK  status: ('A' for Active; 'I' for Inactive)
ROOT
ATOM      1  C1  BNZ d   1       5.943   1.388   3.580  0.00  0.00     0.000 A 
ATOM      2  C2  BNZ d   1       5.957   0.019   3.610  0.00  0.00     0.000 A 
ATOM      3  C3  BNZ d   1       5.966  -0.655   4.799  0.00  0.00     0.000 A 
ATOM      4  C4  BNZ d   1       6.000   0.039   5.954  0.00  0.00     0.000 A 
ATOM      5  C5  BNZ d   1       5.995   1.420   5.941  0.00  0.00     0.000 A 
ATOM      6  C6  BNZ d   1       5.947   2.095   4.743  0.00  0.00     0.000 A 
ENDROOT
TORSDOF 0
ENDMDL
