MODEL 1
REMARK minimizedAffinity -3.30449152
REMARK minimizedRMSD -1
REMARK  0 active torsions:
REMARK  status: ('A' for Active; 'I' for Inactive)
ROOT
ATOM      1  C1  BNZ d   1       5.530   1.712   4.547  0.00  0.00     0.000 A 
ATOM      2  C2  BNZ d   1       5.681   0.861   3.484  0.00  0.00     0.000 A 
ATOM      3  C3  BNZ d   1       5.624  -0.493   3.658  0.00  0.00     0.000 A 
ATOM      4  C4  BNZ d   1       5.457  -0.996   4.898  0.00  0.00     0.000 A 
ATOM      5  C5  BNZ d   1       5.313  -0.152   5.981  0.00  0.00     0.000 A 
ATOM      6  C6  BNZ d   1       5.331   1.211   5.797  0.00  0.00     0.000 A 
ENDROOT
TORSDOF 0
ENDMDL
