MODEL 1
REMARK minimizedAffinity -0.967017591
REMARK minimizedRMSD -1
REMARK  0 active torsions:
REMARK  status: ('A' for Active; 'I' for Inactive)
ROOT
ATOM      1  C1  BNZ d   1       5.985   0.103   3.465  0.00  0.00     0.000 A 
ATOM      2  C2  BNZ d   1       5.947  -0.726   4.554  0.00  0.00     0.000 A 
ATOM      3  C3  BNZ d   1       5.911  -0.215   5.822  0.00  0.00     0.000 A 
ATOM      4  C4  BNZ d   1       5.953   1.122   5.999  0.00  0.00     0.000 A 
ATOM      5  C5  BNZ d   1       6.000   1.970   4.911  0.00  0.00     0.000 A 
ATOM      6  C6  BNZ d   1       5.997   1.453   3.636  0.00  0.00     0.000 A 
ENDROOT
TORSDOF 0
ENDMDL
