MODEL 1
REMARK minimizedAffinity -0.211410597
REMARK minimizedRMSD -1
REMARK  0 active torsions:
REMARK  status: ('A' for Active; 'I' for Inactive)
ROOT
ATOM      1  C1  BNZ d   1       6.000  -0.140   5.689  0.00  0.00     0.000 A 
ATOM      2  C2  BNZ d   1       5.994   1.229   5.690  0.00  0.00     0.000 A 
ATOM      3  C3  BNZ d   1       5.965   1.930   4.517  0.00  0.00     0.000 A 
ATOM      4  C4  BNZ d   1       5.983   1.262   3.345  0.00  0.00     0.000 A 
ATOM      5  C5  BNZ d   1       5.998  -0.119   3.328  0.00  0.00     0.000 A 
ATOM      6  C6  BNZ d   1       5.988  -0.821   4.511  0.00  0.00     0.000 A 
ENDROOT
TORSDOF 0
ENDMDL
