MODEL 1
REMARK minimizedAffinity -3.71610332
REMARK minimizedRMSD -1
REMARK  0 active torsions:
REMARK  status: ('A' for Active; 'I' for Inactive)
ROOT
ATOM      1  C1  BNZ d   1       5.112   0.011   5.806  0.00  0.00     0.000 A 
ATOM      2  C2  BNZ d   1       5.193   1.376   5.740  0.00  0.00     0.000 A 
ATOM      3  C3  BNZ d   1       5.283   2.015   4.535  0.00  0.00     0.000 A 
ATOM      4  C4  BNZ d   1       5.333   1.287   3.401  0.00  0.00     0.000 A 
ATOM      5  C5  BNZ d   1       5.262  -0.091   3.451  0.00  0.00     0.000 A 
ATOM      6  C6  BNZ d   1       5.132  -0.729   4.663  0.00  0.00     0.000 A 
ENDROOT
TORSDOF 0
ENDMDL
