MODEL 1
REMARK minimizedAffinity 16.8112068
REMARK minimizedRMSD -1
REMARK  0 active torsions:
REMARK  status: ('A' for Active; 'I' for Inactive)
ROOT
ATOM      1  C   UNL d   1       0.884  -1.450  -1.565  0.00  0.00     0.023 A 
ATOM      2  C1  UNL d   1       2.086  -0.757  -1.707  0.00  0.00     0.003 A 
ATOM      3  C2  UNL d   1       2.609  -0.515  -2.979  0.00  0.00     0.048 A 
ATOM      4  C3  UNL d   1       1.924  -0.970  -4.105  0.00  0.00     0.023 A 
ATOM      5  C4  UNL d   1       0.721  -1.664  -3.969  0.00  0.00     0.048 A 
ATOM      6  C5  UNL d   1       0.202  -1.903  -2.695  0.00  0.00     0.003 A 
ATOM      7  I   UNL d   1       2.700  -0.612  -6.000  0.00  0.00    -0.146 I 
ENDROOT
TORSDOF 0
ENDMDL
