MODEL 1
REMARK minimizedAffinity 11.9164896
REMARK minimizedRMSD -1
REMARK  0 active torsions:
REMARK  status: ('A' for Active; 'I' for Inactive)
ROOT
ATOM      1  C   UNL d   1       2.130  -3.793  -1.215  0.00  0.00     0.023 A 
ATOM      2  C1  UNL d   1       1.356  -3.850  -2.374  0.00  0.00     0.003 A 
ATOM      3  C2  UNL d   1       1.066  -2.681  -3.081  0.00  0.00     0.048 A 
ATOM      4  C3  UNL d   1       1.554  -1.458  -2.623  0.00  0.00     0.023 A 
ATOM      5  C4  UNL d   1       2.329  -1.395  -1.463  0.00  0.00     0.048 A 
ATOM      6  C5  UNL d   1       2.615  -2.566  -0.760  0.00  0.00     0.003 A 
ATOM      7  I   UNL d   1       1.124   0.283  -3.673  0.00  0.00    -0.146 I 
ENDROOT
TORSDOF 0
ENDMDL
