MODEL 1
REMARK minimizedAffinity 13.7453279
REMARK minimizedRMSD -1
REMARK  0 active torsions:
REMARK  status: ('A' for Active; 'I' for Inactive)
ROOT
ATOM      1  C   UNL d   1       2.342  -1.136  -0.577  0.00  0.00     0.023 A 
ATOM      2  C1  UNL d   1       2.285  -2.510  -0.344  0.00  0.00     0.003 A 
ATOM      3  C2  UNL d   1       1.520  -3.330  -1.176  0.00  0.00     0.048 A 
ATOM      4  C3  UNL d   1       0.815  -2.769  -2.240  0.00  0.00     0.023 A 
ATOM      5  C4  UNL d   1       0.869  -1.394  -2.478  0.00  0.00     0.048 A 
ATOM      6  C5  UNL d   1       1.635  -0.579  -1.643  0.00  0.00     0.003 A 
ATOM      7  I   UNL d   1      -0.324  -3.987  -3.480  0.00  0.00    -0.146 I 
ENDROOT
TORSDOF 0
ENDMDL
