MODEL 1
REMARK minimizedAffinity 14.2399521
REMARK minimizedRMSD -1
REMARK  0 active torsions:
REMARK  status: ('A' for Active; 'I' for Inactive)
ROOT
ATOM      1  C   UNL d   1      -3.120  -3.148  -3.374  0.00  0.00     0.023 A 
ATOM      2  C1  UNL d   1      -1.819  -2.644  -3.374  0.00  0.00     0.003 A 
ATOM      3  C2  UNL d   1      -0.752  -3.461  -2.995  0.00  0.00     0.048 A 
ATOM      4  C3  UNL d   1      -0.993  -4.782  -2.618  0.00  0.00     0.023 A 
ATOM      5  C4  UNL d   1      -2.292  -5.291  -2.617  0.00  0.00     0.048 A 
ATOM      6  C5  UNL d   1      -3.356  -4.470  -2.996  0.00  0.00     0.003 A 
ATOM      7  I   UNL d   1       0.594  -6.000  -2.054  0.00  0.00    -0.146 I 
ENDROOT
TORSDOF 0
ENDMDL
