MODEL 1
REMARK minimizedAffinity 14.8957157
REMARK minimizedRMSD -1
REMARK  0 active torsions:
REMARK  status: ('A' for Active; 'I' for Inactive)
ROOT
ATOM      1  C   UNL d   1       2.398   1.499   4.062  0.00  0.00     0.023 A 
ATOM      2  C1  UNL d   1       2.252   1.729   5.430  0.00  0.00     0.003 A 
ATOM      3  C2  UNL d   1       0.978   1.846   5.988  0.00  0.00     0.048 A 
ATOM      4  C3  UNL d   1      -0.147   1.731   5.172  0.00  0.00     0.023 A 
ATOM      5  C4  UNL d   1      -0.007   1.499   3.803  0.00  0.00     0.048 A 
ATOM      6  C5  UNL d   1       1.270   1.384   3.249  0.00  0.00     0.003 A 
ATOM      7  I   UNL d   1      -2.046   1.905   6.000  0.00  0.00    -0.146 I 
ENDROOT
TORSDOF 0
ENDMDL
