MODEL 1
REMARK minimizedAffinity 11.0089674
REMARK minimizedRMSD -1
REMARK  0 active torsions:
REMARK  status: ('A' for Active; 'I' for Inactive)
ROOT
ATOM      1  C   UNL d   1      -1.875   2.618  -4.356  0.00  0.00     0.023 A 
ATOM      2  C1  UNL d   1      -2.262   3.765  -3.662  0.00  0.00     0.003 A 
ATOM      3  C2  UNL d   1      -3.322   4.543  -4.132  0.00  0.00     0.048 A 
ATOM      4  C3  UNL d   1      -3.993   4.167  -5.296  0.00  0.00     0.023 A 
ATOM      5  C4  UNL d   1      -3.610   3.019  -5.992  0.00  0.00     0.048 A 
ATOM      6  C5  UNL d   1      -2.549   2.245  -5.519  0.00  0.00     0.003 A 
ATOM      7  I   UNL d   1      -5.571   5.322  -5.997  0.00  0.00    -0.146 I 
ENDROOT
TORSDOF 0
ENDMDL
