MODEL 1
REMARK minimizedAffinity 15.1532135
REMARK minimizedRMSD -1
REMARK  0 active torsions:
REMARK  status: ('A' for Active; 'I' for Inactive)
ROOT
ATOM      1  C   UNL d   1       1.278   1.979   3.267  0.00  0.00     0.023 A 
ATOM      2  C1  UNL d   1       0.218   1.325   2.639  0.00  0.00     0.003 A 
ATOM      3  C2  UNL d   1       0.384   0.794   1.358  0.00  0.00     0.048 A 
ATOM      4  C3  UNL d   1       1.614   0.919   0.712  0.00  0.00     0.023 A 
ATOM      5  C4  UNL d   1       2.678   1.571   1.337  0.00  0.00     0.048 A 
ATOM      6  C5  UNL d   1       2.507   2.102   2.617  0.00  0.00     0.003 A 
ATOM      7  I   UNL d   1       1.864   0.128  -1.194  0.00  0.00    -0.146 I 
ENDROOT
TORSDOF 0
ENDMDL
