MODEL 1
REMARK minimizedAffinity 23.1292324
REMARK minimizedRMSD -1
REMARK  0 active torsions:
REMARK  status: ('A' for Active; 'I' for Inactive)
ROOT
ATOM      1  C   UNL d   1       0.470  -1.540  -2.078  0.00  0.00     0.023 A 
ATOM      2  C1  UNL d   1       0.893  -1.932  -0.808  0.00  0.00     0.003 A 
ATOM      3  C2  UNL d   1       1.839  -1.170  -0.120  0.00  0.00     0.048 A 
ATOM      4  C3  UNL d   1       2.357  -0.016  -0.708  0.00  0.00     0.023 A 
ATOM      5  C4  UNL d   1       1.936   0.380  -1.978  0.00  0.00     0.048 A 
ATOM      6  C5  UNL d   1       0.991  -0.386  -2.663  0.00  0.00     0.003 A 
ATOM      7  I   UNL d   1       3.766   1.120   0.314  0.00  0.00    -0.146 I 
ENDROOT
TORSDOF 0
ENDMDL
