MODEL 1
REMARK minimizedAffinity 7.2674551
REMARK minimizedRMSD -1
REMARK  0 active torsions:
REMARK  status: ('A' for Active; 'I' for Inactive)
ROOT
ATOM      1  C   UNL d   1      -5.364   2.323   4.533  0.00  0.00     0.023 A 
ATOM      2  C1  UNL d   1      -4.523   1.400   3.911  0.00  0.00     0.003 A 
ATOM      3  C2  UNL d   1      -3.198   1.268   4.330  0.00  0.00     0.048 A 
ATOM      4  C3  UNL d   1      -2.720   2.061   5.373  0.00  0.00     0.023 A 
ATOM      5  C4  UNL d   1      -3.559   2.984   6.000  0.00  0.00     0.048 A 
ATOM      6  C5  UNL d   1      -4.883   3.114   5.577  0.00  0.00     0.003 A 
ATOM      7  I   UNL d   1      -0.748   1.866   5.999  0.00  0.00    -0.146 I 
ENDROOT
TORSDOF 0
ENDMDL
