MODEL 1
REMARK minimizedAffinity 14.7956352
REMARK minimizedRMSD -1
REMARK  0 active torsions:
REMARK  status: ('A' for Active; 'I' for Inactive)
ROOT
ATOM      1  C   UNL d   1       0.744  -1.898  -2.668  0.00  0.00     0.023 A 
ATOM      2  C1  UNL d   1       1.098  -2.366  -1.403  0.00  0.00     0.003 A 
ATOM      3  C2  UNL d   1       1.867  -1.568  -0.552  0.00  0.00     0.048 A 
ATOM      4  C3  UNL d   1       2.276  -0.303  -0.973  0.00  0.00     0.023 A 
ATOM      5  C4  UNL d   1       1.923   0.169  -2.239  0.00  0.00     0.048 A 
ATOM      6  C5  UNL d   1       1.156  -0.633  -3.086  0.00  0.00     0.003 A 
ATOM      7  I   UNL d   1       3.420   0.886   0.290  0.00  0.00    -0.146 I 
ENDROOT
TORSDOF 0
ENDMDL
