MODEL 1
REMARK minimizedAffinity -1.12502658
REMARK minimizedRMSD -1
REMARK  0 active torsions:
REMARK  status: ('A' for Active; 'I' for Inactive)
ROOT
ATOM      1  C   UNL d   1      -1.058  -6.000  -4.238  0.00  0.00     0.023 A 
ATOM      2  C1  UNL d   1      -1.782  -5.254  -3.308  0.00  0.00     0.003 A 
ATOM      3  C2  UNL d   1      -2.888  -4.506  -3.719  0.00  0.00     0.048 A 
ATOM      4  C3  UNL d   1      -3.264  -4.509  -5.061  0.00  0.00     0.023 A 
ATOM      5  C4  UNL d   1      -2.543  -5.254  -5.996  0.00  0.00     0.048 A 
ATOM      6  C5  UNL d   1      -1.438  -6.000  -5.580  0.00  0.00     0.003 A 
ATOM      7  I   UNL d   1      -4.909  -3.396  -5.675  0.00  0.00    -0.146 I 
ENDROOT
TORSDOF 0
ENDMDL
