MODEL 1
REMARK minimizedAffinity 8.72986317
REMARK minimizedRMSD -1
REMARK  0 active torsions:
REMARK  status: ('A' for Active; 'I' for Inactive)
ROOT
ATOM      1  C   UNL d   1      -0.578  -5.439  -3.199  0.00  0.00     0.023 A 
ATOM      2  C1  UNL d   1      -1.194  -4.444  -2.440  0.00  0.00     0.003 A 
ATOM      3  C2  UNL d   1      -2.157  -3.616  -3.020  0.00  0.00     0.048 A 
ATOM      4  C3  UNL d   1      -2.500  -3.789  -4.361  0.00  0.00     0.023 A 
ATOM      5  C4  UNL d   1      -1.888  -4.785  -5.124  0.00  0.00     0.048 A 
ATOM      6  C5  UNL d   1      -0.925  -5.609  -4.539  0.00  0.00     0.003 A 
ATOM      7  I   UNL d   1      -3.933  -2.559  -5.228  0.00  0.00    -0.146 I 
ENDROOT
TORSDOF 0
ENDMDL
