MODEL 1
REMARK minimizedAffinity 9.06278133
REMARK minimizedRMSD -1
REMARK  0 active torsions:
REMARK  status: ('A' for Active; 'I' for Inactive)
ROOT
ATOM      1  C   UNL d   1       0.699  -2.626  -1.843  0.00  0.00     0.023 A 
ATOM      2  C1  UNL d   1       1.514  -2.900  -0.745  0.00  0.00     0.003 A 
ATOM      3  C2  UNL d   1       2.358  -1.911  -0.235  0.00  0.00     0.048 A 
ATOM      4  C3  UNL d   1       2.382  -0.650  -0.828  0.00  0.00     0.023 A 
ATOM      5  C4  UNL d   1       1.567  -0.370  -1.927  0.00  0.00     0.048 A 
ATOM      6  C5  UNL d   1       0.726  -1.362  -2.434  0.00  0.00     0.003 A 
ATOM      7  I   UNL d   1       3.637   0.824  -0.072  0.00  0.00    -0.146 I 
ENDROOT
TORSDOF 0
ENDMDL
