MODEL 1
REMARK minimizedAffinity 12.2989559
REMARK minimizedRMSD -1
REMARK  0 active torsions:
REMARK  status: ('A' for Active; 'I' for Inactive)
ROOT
ATOM      1  C   UNL d   1       1.661  -1.434  -1.086  0.00  0.00     0.023 A 
ATOM      2  C1  UNL d   1       1.629  -0.357  -1.971  0.00  0.00     0.003 A 
ATOM      3  C2  UNL d   1       2.137  -0.498  -3.264  0.00  0.00     0.048 A 
ATOM      4  C3  UNL d   1       2.676  -1.721  -3.665  0.00  0.00     0.023 A 
ATOM      5  C4  UNL d   1       2.709  -2.801  -2.782  0.00  0.00     0.048 A 
ATOM      6  C5  UNL d   1       2.200  -2.655  -1.491  0.00  0.00     0.003 A 
ATOM      7  I   UNL d   1       3.433  -1.934  -5.588  0.00  0.00    -0.146 I 
ENDROOT
TORSDOF 0
ENDMDL
