MODEL 1
REMARK minimizedAffinity 5.14585352
REMARK minimizedRMSD -1
REMARK  1 active torsions:
REMARK  status: ('A' for Active; 'I' for Inactive)
REMARK    1  A    between atoms: C1_2  and  C2_3 
ROOT
ATOM      1  C2  UNL d   1      -0.793   4.744  -0.846  0.00  0.00    -0.073 A 
ATOM      2  C3  UNL d   1       0.021   3.610  -0.749  0.00  0.00    -0.002 A 
ATOM      3  C4  UNL d   1      -0.367   2.530   0.045  0.00  0.00     0.004 A 
ATOM      4  C5  UNL d   1      -1.573   2.570   0.743  0.00  0.00    -0.004 A 
ATOM      5  C6  UNL d   1      -2.406   3.690   0.650  0.00  0.00    -0.075 A 
ATOM      6  C7  UNL d   1      -3.706   3.749   1.397  0.00  0.00     0.076 C 
ATOM      7  C8  UNL d   1      -2.008   4.771  -0.147  0.00  0.00     0.001 A 
ENDROOT
BRANCH   1   8
ATOM      8  C1  UNL d   1      -0.381   5.911  -1.707  0.00  0.00     0.053 C 
ATOM      9  C   UNL d   1       1.129   5.998  -1.864  0.00  0.00     0.018 C 
ENDBRANCH   1   8
TORSDOF 1
ENDMDL
