MODEL 1
REMARK minimizedAffinity 1.64346528
REMARK minimizedRMSD -1
REMARK  1 active torsions:
REMARK  status: ('A' for Active; 'I' for Inactive)
REMARK    1  A    between atoms: C1_2  and  C2_3 
ROOT
ATOM      1  C2  UNL d   1      -2.011   4.016  -0.073  0.00  0.00    -0.073 A 
ATOM      2  C3  UNL d   1      -2.041   2.923   0.801  0.00  0.00    -0.002 A 
ATOM      3  C4  UNL d   1      -3.029   2.832   1.782  0.00  0.00     0.004 A 
ATOM      4  C5  UNL d   1      -4.001   3.826   1.895  0.00  0.00    -0.004 A 
ATOM      5  C6  UNL d   1      -3.995   4.920   1.024  0.00  0.00    -0.075 A 
ATOM      6  C7  UNL d   1      -5.031   6.000   1.133  0.00  0.00     0.076 C 
ATOM      7  C8  UNL d   1      -2.997   5.006   0.043  0.00  0.00     0.001 A 
ENDROOT
BRANCH   1   8
ATOM      8  C1  UNL d   1      -0.950   4.116  -1.137  0.00  0.00     0.053 C 
ATOM      9  C   UNL d   1       0.310   3.353  -0.760  0.00  0.00     0.018 C 
ENDBRANCH   1   8
TORSDOF 1
ENDMDL
