MODEL 1
REMARK minimizedAffinity 11.1922293
REMARK minimizedRMSD -1
REMARK  1 active torsions:
REMARK  status: ('A' for Active; 'I' for Inactive)
REMARK    1  A    between atoms: C1_2  and  C2_3 
ROOT
ATOM      1  C2  UNL d   1      -3.006   2.925  -3.220  0.00  0.00    -0.073 A 
ATOM      2  C3  UNL d   1      -4.095   2.234  -2.675  0.00  0.00    -0.002 A 
ATOM      3  C4  UNL d   1      -4.206   0.853  -2.838  0.00  0.00     0.004 A 
ATOM      4  C5  UNL d   1      -3.229   0.148  -3.540  0.00  0.00    -0.004 A 
ATOM      5  C6  UNL d   1      -2.128   0.818  -4.082  0.00  0.00    -0.075 A 
ATOM      6  C7  UNL d   1      -1.070   0.074  -4.843  0.00  0.00     0.076 C 
ATOM      7  C8  UNL d   1      -2.024   2.206  -3.917  0.00  0.00     0.001 A 
ENDROOT
BRANCH   1   8
ATOM      8  C1  UNL d   1      -2.878   4.415  -3.041  0.00  0.00     0.053 C 
ATOM      9  C   UNL d   1      -3.157   5.170  -4.331  0.00  0.00     0.018 C 
ENDBRANCH   1   8
TORSDOF 1
ENDMDL
