MODEL 1
REMARK minimizedAffinity 14.3876371
REMARK minimizedRMSD -1
REMARK  1 active torsions:
REMARK  status: ('A' for Active; 'I' for Inactive)
REMARK    1  A    between atoms: C1_2  and  C2_3 
ROOT
ATOM      1  C2  UNL d   1      -1.908   3.356  -1.638  0.00  0.00    -0.073 A 
ATOM      2  C3  UNL d   1      -1.239   2.333  -0.957  0.00  0.00    -0.002 A 
ATOM      3  C4  UNL d   1       0.143   2.394  -0.773  0.00  0.00     0.004 A 
ATOM      4  C5  UNL d   1       0.868   3.481  -1.262  0.00  0.00    -0.004 A 
ATOM      5  C6  UNL d   1       0.216   4.519  -1.935  0.00  0.00    -0.075 A 
ATOM      6  C7  UNL d   1       0.982   5.693  -2.469  0.00  0.00     0.076 C 
ATOM      7  C8  UNL d   1      -1.172   4.449  -2.118  0.00  0.00     0.001 A 
ENDROOT
BRANCH   1   8
ATOM      8  C1  UNL d   1      -3.401   3.298  -1.833  0.00  0.00     0.053 C 
ATOM      9  C   UNL d   1      -4.095   2.557  -0.701  0.00  0.00     0.018 C 
ENDBRANCH   1   8
TORSDOF 1
ENDMDL
