MODEL 1
REMARK minimizedAffinity -3.62668347
REMARK minimizedRMSD -1
REMARK  1 active torsions:
REMARK  status: ('A' for Active; 'I' for Inactive)
REMARK    1  A    between atoms: C1_2  and  C2_3 
ROOT
ATOM      1  C2  UNL d   1      -3.273   4.735   1.112  0.00  0.00    -0.073 A 
ATOM      2  C3  UNL d   1      -3.601   3.578   1.828  0.00  0.00    -0.002 A 
ATOM      3  C4  UNL d   1      -2.852   2.412   1.664  0.00  0.00     0.004 A 
ATOM      4  C5  UNL d   1      -1.765   2.393   0.790  0.00  0.00    -0.004 A 
ATOM      5  C6  UNL d   1      -1.414   3.543   0.075  0.00  0.00    -0.075 A 
ATOM      6  C7  UNL d   1      -0.248   3.538  -0.870  0.00  0.00     0.076 C 
ATOM      7  C8  UNL d   1      -2.172   4.709   0.243  0.00  0.00     0.001 A 
ENDROOT
BRANCH   1   8
ATOM      8  C1  UNL d   1      -4.075   5.998   1.291  0.00  0.00     0.053 C 
ATOM      9  C   UNL d   1      -5.435   5.727   1.913  0.00  0.00     0.018 C 
ENDBRANCH   1   8
TORSDOF 1
ENDMDL
