MODEL 1
REMARK minimizedAffinity 7.29677582
REMARK minimizedRMSD -1
REMARK  1 active torsions:
REMARK  status: ('A' for Active; 'I' for Inactive)
REMARK    1  A    between atoms: C1_2  and  C2_3 
ROOT
ATOM      1  C2  UNL d   1       0.774   4.858  -1.643  0.00  0.00    -0.073 A 
ATOM      2  C3  UNL d   1       1.242   3.624  -1.178  0.00  0.00    -0.002 A 
ATOM      3  C4  UNL d   1       0.355   2.568  -0.965  0.00  0.00     0.004 A 
ATOM      4  C5  UNL d   1      -1.007   2.733  -1.221  0.00  0.00    -0.004 A 
ATOM      5  C6  UNL d   1      -1.492   3.955  -1.697  0.00  0.00    -0.075 A 
ATOM      6  C7  UNL d   1      -2.953   4.150  -1.976  0.00  0.00     0.076 C 
ATOM      7  C8  UNL d   1      -0.594   5.011  -1.906  0.00  0.00     0.001 A 
ENDROOT
BRANCH   1   8
ATOM      8  C1  UNL d   1       1.730   5.999  -1.881  0.00  0.00     0.053 C 
ATOM      9  C   UNL d   1       2.276   5.998  -3.300  0.00  0.00     0.018 C 
ENDBRANCH   1   8
TORSDOF 1
ENDMDL
