MODEL 1
REMARK minimizedAffinity -1.55632603
REMARK minimizedRMSD -1
REMARK  1 active torsions:
REMARK  status: ('A' for Active; 'I' for Inactive)
REMARK    1  A    between atoms: C1_2  and  C2_3 
ROOT
ATOM      1  C2  UNL d   1      -2.991   4.737   1.013  0.00  0.00    -0.073 A 
ATOM      2  C3  UNL d   1      -2.739   3.947   2.140  0.00  0.00    -0.002 A 
ATOM      3  C4  UNL d   1      -1.879   2.851   2.054  0.00  0.00     0.004 A 
ATOM      4  C5  UNL d   1      -1.258   2.539   0.845  0.00  0.00    -0.004 A 
ATOM      5  C6  UNL d   1      -1.488   3.324  -0.289  0.00  0.00    -0.075 A 
ATOM      6  C7  UNL d   1      -0.829   3.000  -1.598  0.00  0.00     0.076 C 
ATOM      7  C8  UNL d   1      -2.355   4.421  -0.196  0.00  0.00     0.001 A 
ENDROOT
BRANCH   1   8
ATOM      8  C1  UNL d   1      -3.913   5.926   1.102  0.00  0.00     0.053 C 
ATOM      9  C   UNL d   1      -5.251   5.563   1.727  0.00  0.00     0.018 C 
ENDBRANCH   1   8
TORSDOF 1
ENDMDL
