MODEL 1
REMARK minimizedAffinity -4.43108463
REMARK minimizedRMSD -1
REMARK  0 active torsions:
REMARK  status: ('A' for Active; 'I' for Inactive)
ROOT
ATOM      1  C   UNL d   1      -3.194  -4.118  -5.604  0.00  0.00     0.124 A 
ATOM      2  C1  UNL d   1      -2.154  -3.217  -5.424  0.00  0.00     0.062 A 
ATOM      3  C2  UNL d   1      -2.404  -1.848  -5.438  0.00  0.00     0.162 A 
ATOM      4  C3  UNL d   1      -3.700  -1.371  -5.630  0.00  0.00    -0.034 A 
ATOM      5  C4  UNL d   1      -4.741  -2.283  -5.812  0.00  0.00     0.162 A 
ATOM      6  C5  UNL d   1      -4.486  -3.651  -5.798  0.00  0.00     0.062 A 
ATOM      7  F   UNL d   1      -5.493  -4.520  -5.972  0.00  0.00    -0.097 F 
ATOM      8  F1  UNL d   1      -6.000  -1.859  -6.000  0.00  0.00    -0.096 F 
ATOM      9  I   UNL d   1      -4.078   0.676  -5.651  0.00  0.00    -0.060 I 
ATOM     10  F2  UNL d   1      -1.380  -1.000  -5.261  0.00  0.00    -0.096 F 
ATOM     11  F3  UNL d   1      -0.904  -3.666  -5.238  0.00  0.00    -0.097 F 
ATOM     12  F4  UNL d   1      -2.951  -5.435  -5.592  0.00  0.00    -0.092 F 
ENDROOT
TORSDOF 0
ENDMDL
