MODEL 1
REMARK minimizedAffinity -1.47869015
REMARK minimizedRMSD -1
REMARK  0 active torsions:
REMARK  status: ('A' for Active; 'I' for Inactive)
ROOT
ATOM      1  C   UNL d   1      -4.282  -2.335  -5.627  0.00  0.00     0.124 A 
ATOM      2  C1  UNL d   1      -4.680  -3.659  -5.756  0.00  0.00     0.062 A 
ATOM      3  C2  UNL d   1      -3.748  -4.685  -5.634  0.00  0.00     0.162 A 
ATOM      4  C3  UNL d   1      -2.408  -4.392  -5.380  0.00  0.00    -0.034 A 
ATOM      5  C4  UNL d   1      -2.015  -3.058  -5.252  0.00  0.00     0.162 A 
ATOM      6  C5  UNL d   1      -2.951  -2.036  -5.375  0.00  0.00     0.062 A 
ATOM      7  F   UNL d   1      -2.565  -0.758  -5.250  0.00  0.00    -0.097 F 
ATOM      8  F1  UNL d   1      -0.735  -2.741  -5.008  0.00  0.00    -0.096 F 
ATOM      9  I   UNL d   1      -1.010  -5.923  -5.196  0.00  0.00    -0.060 I 
ATOM     10  F2  UNL d   1      -4.160  -5.955  -5.763  0.00  0.00    -0.096 F 
ATOM     11  F3  UNL d   1      -5.966  -3.951  -6.000  0.00  0.00    -0.097 F 
ATOM     12  F4  UNL d   1      -5.181  -1.350  -5.746  0.00  0.00    -0.092 F 
ENDROOT
TORSDOF 0
ENDMDL
