MODEL 1
REMARK minimizedAffinity 4.93982029
REMARK minimizedRMSD -1
REMARK  0 active torsions:
REMARK  status: ('A' for Active; 'I' for Inactive)
ROOT
ATOM      1  C   UNL d   1       0.455   0.581   0.046  0.00  0.00     0.124 A 
ATOM      2  C1  UNL d   1       1.396   1.424  -0.530  0.00  0.00     0.062 A 
ATOM      3  C2  UNL d   1       2.461   0.894  -1.252  0.00  0.00     0.162 A 
ATOM      4  C3  UNL d   1       2.590  -0.487  -1.404  0.00  0.00    -0.034 A 
ATOM      5  C4  UNL d   1       1.640  -1.328  -0.822  0.00  0.00     0.162 A 
ATOM      6  C5  UNL d   1       0.578  -0.793  -0.101  0.00  0.00     0.062 A 
ATOM      7  F   UNL d   1      -0.330  -1.609   0.455  0.00  0.00    -0.097 F 
ATOM      8  F1  UNL d   1       1.735  -2.660  -0.948  0.00  0.00    -0.096 F 
ATOM      9  I   UNL d   1       4.181  -1.283  -2.484  0.00  0.00    -0.060 I 
ATOM     10  F2  UNL d   1       3.355   1.731  -1.797  0.00  0.00    -0.096 F 
ATOM     11  F3  UNL d   1       1.279   2.752  -0.389  0.00  0.00    -0.097 F 
ATOM     12  F4  UNL d   1      -0.569   1.094   0.742  0.00  0.00    -0.092 F 
ENDROOT
TORSDOF 0
ENDMDL
