MODEL 1
REMARK minimizedAffinity 10.4112616
REMARK minimizedRMSD -1
REMARK  0 active torsions:
REMARK  status: ('A' for Active; 'I' for Inactive)
ROOT
ATOM      1  C   UNL d   1       0.014  -3.676  -3.682  0.00  0.00     0.124 A 
ATOM      2  C1  UNL d   1      -0.607  -4.837  -4.122  0.00  0.00     0.062 A 
ATOM      3  C2  UNL d   1      -1.922  -4.798  -4.575  0.00  0.00     0.162 A 
ATOM      4  C3  UNL d   1      -2.626  -3.594  -4.593  0.00  0.00    -0.034 A 
ATOM      5  C4  UNL d   1      -1.995  -2.430  -4.148  0.00  0.00     0.162 A 
ATOM      6  C5  UNL d   1      -0.680  -2.474  -3.696  0.00  0.00     0.062 A 
ATOM      7  F   UNL d   1      -0.082  -1.352  -3.271  0.00  0.00    -0.097 F 
ATOM      8  F1  UNL d   1      -2.642  -1.256  -4.151  0.00  0.00    -0.096 F 
ATOM      9  I   UNL d   1      -4.592  -3.532  -5.271  0.00  0.00    -0.060 I 
ATOM     10  F2  UNL d   1      -2.497  -5.935  -4.995  0.00  0.00    -0.096 F 
ATOM     11  F3  UNL d   1       0.061  -5.999  -4.109  0.00  0.00    -0.097 F 
ATOM     12  F4  UNL d   1       1.279  -3.716  -3.245  0.00  0.00    -0.092 F 
ENDROOT
TORSDOF 0
ENDMDL
