MODEL 1
REMARK minimizedAffinity 11.3726349
REMARK minimizedRMSD -1
REMARK  0 active torsions:
REMARK  status: ('A' for Active; 'I' for Inactive)
ROOT
ATOM      1  C   UNL d   1      -2.383   4.175  -5.785  0.00  0.00     0.124 A 
ATOM      2  C1  UNL d   1      -3.707   4.585  -5.866  0.00  0.00     0.062 A 
ATOM      3  C2  UNL d   1      -4.729   3.642  -5.914  0.00  0.00     0.162 A 
ATOM      4  C3  UNL d   1      -4.433   2.280  -5.880  0.00  0.00    -0.034 A 
ATOM      5  C4  UNL d   1      -3.099   1.875  -5.799  0.00  0.00     0.162 A 
ATOM      6  C5  UNL d   1      -2.080   2.821  -5.752  0.00  0.00     0.062 A 
ATOM      7  F   UNL d   1      -0.802   2.424  -5.674  0.00  0.00    -0.097 F 
ATOM      8  F1  UNL d   1      -2.779   0.573  -5.765  0.00  0.00    -0.096 F 
ATOM      9  I   UNL d   1      -5.959   0.867  -5.951  0.00  0.00    -0.060 I 
ATOM     10  F2  UNL d   1      -5.999   4.067  -5.992  0.00  0.00    -0.096 F 
ATOM     11  F3  UNL d   1      -4.001   5.893  -5.899  0.00  0.00    -0.097 F 
ATOM     12  F4  UNL d   1      -1.401   5.084  -5.741  0.00  0.00    -0.092 F 
ENDROOT
TORSDOF 0
ENDMDL
