MODEL 1
REMARK minimizedAffinity 16.5023956
REMARK minimizedRMSD -1
REMARK  0 active torsions:
REMARK  status: ('A' for Active; 'I' for Inactive)
ROOT
ATOM      1  C   UNL d   1      -2.693  -2.390  -4.406  0.00  0.00     0.124 A 
ATOM      2  C1  UNL d   1      -2.350  -3.732  -4.319  0.00  0.00     0.062 A 
ATOM      3  C2  UNL d   1      -3.230  -4.710  -4.773  0.00  0.00     0.162 A 
ATOM      4  C3  UNL d   1      -4.462  -4.350  -5.320  0.00  0.00    -0.034 A 
ATOM      5  C4  UNL d   1      -4.800  -2.998  -5.403  0.00  0.00     0.162 A 
ATOM      6  C5  UNL d   1      -3.917  -2.024  -4.948  0.00  0.00     0.062 A 
ATOM      7  F   UNL d   1      -4.250  -0.728  -5.032  0.00  0.00    -0.097 F 
ATOM      8  F1  UNL d   1      -5.976  -2.617  -5.923  0.00  0.00    -0.096 F 
ATOM      9  I   UNL d   1      -5.780  -5.810  -6.000  0.00  0.00    -0.060 I 
ATOM     10  F2  UNL d   1      -2.872  -6.000  -4.677  0.00  0.00    -0.096 F 
ATOM     11  F3  UNL d   1      -1.168  -4.088  -3.796  0.00  0.00    -0.097 F 
ATOM     12  F4  UNL d   1      -1.845  -1.451  -3.968  0.00  0.00    -0.092 F 
ENDROOT
TORSDOF 0
ENDMDL
