MODEL 1
REMARK minimizedAffinity 6.0244112
REMARK minimizedRMSD -1
REMARK  0 active torsions:
REMARK  status: ('A' for Active; 'I' for Inactive)
ROOT
ATOM      1  C   UNL d   1       0.627   1.010   0.179  0.00  0.00     0.124 A 
ATOM      2  C1  UNL d   1       1.674   1.904   0.002  0.00  0.00     0.062 A 
ATOM      3  C2  UNL d   1       2.871   1.477  -0.565  0.00  0.00     0.162 A 
ATOM      4  C3  UNL d   1       3.028   0.149  -0.960  0.00  0.00    -0.034 A 
ATOM      5  C4  UNL d   1       1.972  -0.745  -0.778  0.00  0.00     0.162 A 
ATOM      6  C5  UNL d   1       0.777  -0.313  -0.211  0.00  0.00     0.062 A 
ATOM      7  F   UNL d   1      -0.233  -1.179  -0.041  0.00  0.00    -0.097 F 
ATOM      8  F1  UNL d   1       2.089  -2.029  -1.147  0.00  0.00    -0.096 F 
ATOM      9  I   UNL d   1       4.817  -0.494  -1.808  0.00  0.00    -0.060 I 
ATOM     10  F2  UNL d   1       3.866   2.363  -0.724  0.00  0.00    -0.096 F 
ATOM     11  F3  UNL d   1       1.532   3.183   0.379  0.00  0.00    -0.097 F 
ATOM     12  F4  UNL d   1      -0.523   1.423   0.726  0.00  0.00    -0.092 F 
ENDROOT
TORSDOF 0
ENDMDL
