MODEL 1
REMARK minimizedAffinity 13.9030285
REMARK minimizedRMSD -1
REMARK  0 active torsions:
REMARK  status: ('A' for Active; 'I' for Inactive)
ROOT
ATOM      1  C   UNL d   1       1.382   1.195   0.598  0.00  0.00     0.124 A 
ATOM      2  C1  UNL d   1       0.870   0.007   1.100  0.00  0.00     0.062 A 
ATOM      3  C2  UNL d   1       0.307  -0.932   0.240  0.00  0.00     0.162 A 
ATOM      4  C3  UNL d   1       0.252  -0.685  -1.132  0.00  0.00    -0.034 A 
ATOM      5  C4  UNL d   1       0.768   0.513  -1.629  0.00  0.00     0.162 A 
ATOM      6  C5  UNL d   1       1.330   1.447  -0.766  0.00  0.00     0.062 A 
ATOM      7  F   UNL d   1       1.824   2.595  -1.252  0.00  0.00    -0.097 F 
ATOM      8  F1  UNL d   1       0.732   0.781  -2.943  0.00  0.00    -0.096 F 
ATOM      9  I   UNL d   1      -0.589  -2.086  -2.421  0.00  0.00    -0.060 I 
ATOM     10  F2  UNL d   1      -0.180  -2.071   0.753  0.00  0.00    -0.096 F 
ATOM     11  F3  UNL d   1       0.918  -0.239   2.418  0.00  0.00    -0.097 F 
ATOM     12  F4  UNL d   1       1.923   2.096   1.428  0.00  0.00    -0.092 F 
ENDROOT
TORSDOF 0
ENDMDL
