MODEL 1
REMARK minimizedAffinity 13.1418877
REMARK minimizedRMSD -1
REMARK  0 active torsions:
REMARK  status: ('A' for Active; 'I' for Inactive)
ROOT
ATOM      1  C   UNL d   1      -2.508  -4.704  -4.726  0.00  0.00     0.124 A 
ATOM      2  C1  UNL d   1      -2.171  -3.512  -4.099  0.00  0.00     0.062 A 
ATOM      3  C2  UNL d   1      -3.060  -2.441  -4.108  0.00  0.00     0.162 A 
ATOM      4  C3  UNL d   1      -4.295  -2.557  -4.745  0.00  0.00    -0.034 A 
ATOM      5  C4  UNL d   1      -4.627  -3.759  -5.374  0.00  0.00     0.162 A 
ATOM      6  C5  UNL d   1      -3.735  -4.826  -5.362  0.00  0.00     0.062 A 
ATOM      7  F   UNL d   1      -4.062  -5.977  -5.968  0.00  0.00    -0.097 F 
ATOM      8  F1  UNL d   1      -5.806  -3.904  -5.996  0.00  0.00    -0.096 F 
ATOM      9  I   UNL d   1      -5.627  -0.958  -4.761  0.00  0.00    -0.060 I 
ATOM     10  F2  UNL d   1      -2.708  -1.301  -3.495  0.00  0.00    -0.096 F 
ATOM     11  F3  UNL d   1      -0.986  -3.391  -3.484  0.00  0.00    -0.097 F 
ATOM     12  F4  UNL d   1      -1.650  -5.733  -4.717  0.00  0.00    -0.092 F 
ENDROOT
TORSDOF 0
ENDMDL
