MODEL 1
REMARK minimizedAffinity 10.8630648
REMARK minimizedRMSD -1
REMARK  0 active torsions:
REMARK  status: ('A' for Active; 'I' for Inactive)
ROOT
ATOM      1  C   UNL d   1       1.489   1.024   0.454  0.00  0.00     0.124 A 
ATOM      2  C1  UNL d   1       0.517   0.122   0.865  0.00  0.00     0.062 A 
ATOM      3  C2  UNL d   1      -0.164  -0.648  -0.074  0.00  0.00     0.162 A 
ATOM      4  C3  UNL d   1       0.125  -0.520  -1.432  0.00  0.00    -0.034 A 
ATOM      5  C4  UNL d   1       1.104   0.390  -1.837  0.00  0.00     0.162 A 
ATOM      6  C5  UNL d   1       1.781   1.157  -0.896  0.00  0.00     0.062 A 
ATOM      7  F   UNL d   1       2.720   2.028  -1.294  0.00  0.00    -0.097 F 
ATOM      8  F1  UNL d   1       1.407   0.538  -3.136  0.00  0.00    -0.096 F 
ATOM      9  I   UNL d   1      -0.891  -1.670  -2.839  0.00  0.00    -0.060 I 
ATOM     10  F2  UNL d   1      -1.098  -1.511   0.351  0.00  0.00    -0.096 F 
ATOM     11  F3  UNL d   1       0.232  -0.007   2.168  0.00  0.00    -0.097 F 
ATOM     12  F4  UNL d   1       2.142   1.765   1.359  0.00  0.00    -0.092 F 
ENDROOT
TORSDOF 0
ENDMDL
