MODEL 1
REMARK minimizedAffinity 0.165690809
REMARK minimizedRMSD -1
REMARK  0 active torsions:
REMARK  status: ('A' for Active; 'I' for Inactive)
ROOT
ATOM      1  C   UNL d   1      -3.121  -4.722  -5.042  0.00  0.00     0.124 A 
ATOM      2  C1  UNL d   1      -2.140  -3.742  -4.966  0.00  0.00     0.062 A 
ATOM      3  C2  UNL d   1      -2.455  -2.414  -5.240  0.00  0.00     0.162 A 
ATOM      4  C3  UNL d   1      -3.757  -2.057  -5.590  0.00  0.00    -0.034 A 
ATOM      5  C4  UNL d   1      -4.738  -3.048  -5.665  0.00  0.00     0.162 A 
ATOM      6  C5  UNL d   1      -4.418  -4.374  -5.391  0.00  0.00     0.062 A 
ATOM      7  F   UNL d   1      -5.367  -5.319  -5.465  0.00  0.00    -0.097 F 
ATOM      8  F1  UNL d   1      -6.000  -2.740  -6.000  0.00  0.00    -0.096 F 
ATOM      9  I   UNL d   1      -4.232  -0.073  -6.000  0.00  0.00    -0.060 I 
ATOM     10  F2  UNL d   1      -1.488  -1.489  -5.159  0.00  0.00    -0.096 F 
ATOM     11  F3  UNL d   1      -0.886  -4.076  -4.630  0.00  0.00    -0.097 F 
ATOM     12  F4  UNL d   1      -2.815  -5.999  -4.780  0.00  0.00    -0.092 F 
ENDROOT
TORSDOF 0
ENDMDL
