MODEL 1
REMARK minimizedAffinity 3.90448046
REMARK minimizedRMSD -1
REMARK  0 active torsions:
REMARK  status: ('A' for Active; 'I' for Inactive)
ROOT
ATOM      1  C   UNL d   1       3.211   4.507   3.128  0.00  0.00     0.124 A 
ATOM      2  C1  UNL d   1       2.340   4.739   2.072  0.00  0.00     0.062 A 
ATOM      3  C2  UNL d   1       1.779   3.671   1.379  0.00  0.00     0.162 A 
ATOM      4  C3  UNL d   1       2.087   2.359   1.740  0.00  0.00    -0.034 A 
ATOM      5  C4  UNL d   1       2.964   2.133   2.803  0.00  0.00     0.162 A 
ATOM      6  C5  UNL d   1       3.522   3.205   3.492  0.00  0.00     0.062 A 
ATOM      7  F   UNL d   1       4.363   2.978   4.512  0.00  0.00    -0.097 F 
ATOM      8  F1  UNL d   1       3.281   0.884   3.176  0.00  0.00    -0.096 F 
ATOM      9  I   UNL d   1       1.250   0.758   0.707  0.00  0.00    -0.060 I 
ATOM     10  F2  UNL d   1       0.941   3.925   0.363  0.00  0.00    -0.096 F 
ATOM     11  F3  UNL d   1       2.039   5.997   1.718  0.00  0.00    -0.097 F 
ATOM     12  F4  UNL d   1       3.750   5.537   3.792  0.00  0.00    -0.092 F 
ENDROOT
TORSDOF 0
ENDMDL
