MODEL 1
REMARK minimizedAffinity -0.796099484
REMARK minimizedRMSD -1
REMARK  0 active torsions:
REMARK  status: ('A' for Active; 'I' for Inactive)
ROOT
ATOM      1  C   UNL d   1      -2.979  -4.365  -5.098  0.00  0.00     0.124 A 
ATOM      2  C1  UNL d   1      -4.288  -4.108  -5.479  0.00  0.00     0.062 A 
ATOM      3  C2  UNL d   1      -4.729  -2.796  -5.631  0.00  0.00     0.162 A 
ATOM      4  C3  UNL d   1      -3.859  -1.731  -5.402  0.00  0.00    -0.034 A 
ATOM      5  C4  UNL d   1      -2.543  -1.997  -5.018  0.00  0.00     0.162 A 
ATOM      6  C5  UNL d   1      -2.107  -3.309  -4.868  0.00  0.00     0.062 A 
ATOM      7  F   UNL d   1      -0.842  -3.556  -4.500  0.00  0.00    -0.097 F 
ATOM      8  F1  UNL d   1      -1.680  -0.996  -4.790  0.00  0.00    -0.096 F 
ATOM      9  I   UNL d   1      -4.514   0.232  -5.627  0.00  0.00    -0.060 I 
ATOM     10  F2  UNL d   1      -6.000  -2.578  -6.000  0.00  0.00    -0.096 F 
ATOM     11  F3  UNL d   1      -5.132  -5.126  -5.701  0.00  0.00    -0.097 F 
ATOM     12  F4  UNL d   1      -2.558  -5.628  -4.952  0.00  0.00    -0.092 F 
ENDROOT
TORSDOF 0
ENDMDL
