MODEL 1
REMARK minimizedAffinity 13.3384371
REMARK minimizedRMSD -1
REMARK  0 active torsions:
REMARK  status: ('A' for Active; 'I' for Inactive)
ROOT
ATOM      1  C   UNL d   1       1.504   1.465   0.538  0.00  0.00     0.124 A 
ATOM      2  C1  UNL d   1       1.179   0.181   0.952  0.00  0.00     0.062 A 
ATOM      3  C2  UNL d   1       0.439  -0.656   0.121  0.00  0.00     0.162 A 
ATOM      4  C3  UNL d   1       0.020  -0.210  -1.133  0.00  0.00    -0.034 A 
ATOM      5  C4  UNL d   1       0.350   1.083  -1.541  0.00  0.00     0.162 A 
ATOM      6  C5  UNL d   1       1.090   1.915  -0.707  0.00  0.00     0.062 A 
ATOM      7  F   UNL d   1       1.403   3.156  -1.108  0.00  0.00    -0.097 F 
ATOM      8  F1  UNL d   1      -0.037   1.543  -2.740  0.00  0.00    -0.096 F 
ATOM      9  I   UNL d   1      -1.086  -1.458  -2.378  0.00  0.00    -0.060 I 
ATOM     10  F2  UNL d   1       0.139  -1.892   0.546  0.00  0.00    -0.096 F 
ATOM     11  F3  UNL d   1       1.577  -0.256   2.155  0.00  0.00    -0.097 F 
ATOM     12  F4  UNL d   1       2.215   2.268   1.340  0.00  0.00    -0.092 F 
ENDROOT
TORSDOF 0
ENDMDL
