MODEL 1
REMARK minimizedAffinity 8.38715363
REMARK minimizedRMSD -1
REMARK  0 active torsions:
REMARK  status: ('A' for Active; 'I' for Inactive)
ROOT
ATOM      1  C   UNL d   1       0.938   1.427   0.527  0.00  0.00     0.124 A 
ATOM      2  C1  UNL d   1       0.657   1.814  -0.776  0.00  0.00     0.062 A 
ATOM      3  C2  UNL d   1       0.161   0.888  -1.689  0.00  0.00     0.162 A 
ATOM      4  C3  UNL d   1      -0.058  -0.434  -1.303  0.00  0.00    -0.034 A 
ATOM      5  C4  UNL d   1       0.228  -0.816   0.009  0.00  0.00     0.162 A 
ATOM      6  C5  UNL d   1       0.723   0.113   0.918  0.00  0.00     0.062 A 
ATOM      7  F   UNL d   1       0.994  -0.263   2.177  0.00  0.00    -0.097 F 
ATOM      8  F1  UNL d   1       0.028  -2.079   0.414  0.00  0.00    -0.096 F 
ATOM      9  I   UNL d   1      -0.800  -1.821  -2.666  0.00  0.00    -0.060 I 
ATOM     10  F2  UNL d   1      -0.101   1.290  -2.942  0.00  0.00    -0.096 F 
ATOM     11  F3  UNL d   1       0.865   3.082  -1.157  0.00  0.00    -0.097 F 
ATOM     12  F4  UNL d   1       1.416   2.319   1.404  0.00  0.00    -0.092 F 
ENDROOT
TORSDOF 0
ENDMDL
