MODEL 1
REMARK minimizedAffinity -2.1835134
REMARK minimizedRMSD -1
REMARK  0 active torsions:
REMARK  status: ('A' for Active; 'I' for Inactive)
ROOT
ATOM      1  C   UNL d   1      -1.385  -3.683  -4.150  0.00  0.00     0.124 A 
ATOM      2  C1  UNL d   1      -2.235  -2.598  -3.985  0.00  0.00     0.062 A 
ATOM      3  C2  UNL d   1      -3.540  -2.653  -4.465  0.00  0.00     0.162 A 
ATOM      4  C3  UNL d   1      -4.005  -3.797  -5.113  0.00  0.00    -0.034 A 
ATOM      5  C4  UNL d   1      -3.144  -4.884  -5.276  0.00  0.00     0.162 A 
ATOM      6  C5  UNL d   1      -1.840  -4.825  -4.795  0.00  0.00     0.062 A 
ATOM      7  F   UNL d   1      -1.021  -5.874  -4.955  0.00  0.00    -0.097 F 
ATOM      8  F1  UNL d   1      -3.558  -5.999  -5.895  0.00  0.00    -0.096 F 
ATOM      9  I   UNL d   1      -5.956  -3.882  -5.832  0.00  0.00    -0.060 I 
ATOM     10  F2  UNL d   1      -4.340  -1.589  -4.292  0.00  0.00    -0.096 F 
ATOM     11  F3  UNL d   1      -1.797  -1.494  -3.363  0.00  0.00    -0.097 F 
ATOM     12  F4  UNL d   1      -0.129  -3.628  -3.688  0.00  0.00    -0.092 F 
ENDROOT
TORSDOF 0
ENDMDL
