MODEL 1
REMARK minimizedAffinity 10.4244499
REMARK minimizedRMSD -1
REMARK  0 active torsions:
REMARK  status: ('A' for Active; 'I' for Inactive)
ROOT
ATOM      1  C   UNL d   1      -1.565   2.859  -5.045  0.00  0.00     0.124 A 
ATOM      2  C1  UNL d   1      -2.679   2.034  -4.970  0.00  0.00     0.062 A 
ATOM      3  C2  UNL d   1      -3.946   2.542  -5.242  0.00  0.00     0.162 A 
ATOM      4  C3  UNL d   1      -4.107   3.882  -5.593  0.00  0.00    -0.034 A 
ATOM      5  C4  UNL d   1      -2.982   4.706  -5.665  0.00  0.00     0.162 A 
ATOM      6  C5  UNL d   1      -1.718   4.194  -5.393  0.00  0.00     0.062 A 
ATOM      7  F   UNL d   1      -0.643   4.993  -5.466  0.00  0.00    -0.097 F 
ATOM      8  F1  UNL d   1      -3.101   6.000  -6.000  0.00  0.00    -0.096 F 
ATOM      9  I   UNL d   1      -6.000   4.645  -6.000  0.00  0.00    -0.060 I 
ATOM     10  F2  UNL d   1      -5.004   1.721  -5.161  0.00  0.00    -0.096 F 
ATOM     11  F3  UNL d   1      -2.534   0.744  -4.634  0.00  0.00    -0.097 F 
ATOM     12  F4  UNL d   1      -0.347   2.368  -4.783  0.00  0.00    -0.092 F 
ENDROOT
TORSDOF 0
ENDMDL
