MODEL 1
REMARK minimizedAffinity 5.34589815
REMARK minimizedRMSD -1
REMARK  0 active torsions:
REMARK  status: ('A' for Active; 'I' for Inactive)
ROOT
ATOM      1  C   UNL d   1      -1.724  -3.054  -2.583  0.00  0.00     0.124 A 
ATOM      2  C1  UNL d   1      -1.403  -3.029  -1.233  0.00  0.00     0.062 A 
ATOM      3  C2  UNL d   1      -0.749  -1.928  -0.689  0.00  0.00     0.162 A 
ATOM      4  C3  UNL d   1      -0.412  -0.840  -1.495  0.00  0.00    -0.034 A 
ATOM      5  C4  UNL d   1      -0.737  -0.873  -2.852  0.00  0.00     0.162 A 
ATOM      6  C5  UNL d   1      -1.391  -1.976  -3.392  0.00  0.00     0.062 A 
ATOM      7  F   UNL d   1      -1.699  -1.998  -4.696  0.00  0.00    -0.097 F 
ATOM      8  F1  UNL d   1      -0.427   0.156  -3.656  0.00  0.00    -0.096 F 
ATOM      9  I   UNL d   1       0.566   0.809  -0.685  0.00  0.00    -0.060 I 
ATOM     10  F2  UNL d   1      -0.452  -1.931   0.619  0.00  0.00    -0.096 F 
ATOM     11  F3  UNL d   1      -1.723  -4.070  -0.450  0.00  0.00    -0.097 F 
ATOM     12  F4  UNL d   1      -2.352  -4.115  -3.105  0.00  0.00    -0.092 F 
ENDROOT
TORSDOF 0
ENDMDL
