MODEL 1
REMARK minimizedAffinity 12.6285381
REMARK minimizedRMSD -1
REMARK  2 active torsions:
REMARK  status: ('A' for Active; 'I' for Inactive)
REMARK    1  A    between atoms: C1_2  and  C2_3 
REMARK    2  A    between atoms: C2_3  and  C3_4 
ROOT
ATOM      1  C3  UNL d   1       0.918   0.347   3.459  0.00  0.00    -0.075 A 
ATOM      2  C4  UNL d   1       0.698  -0.243   4.713  0.00  0.00     0.002 A 
ATOM      3  C5  UNL d   1       1.303  -1.456   5.041  0.00  0.00     0.002 A 
ATOM      4  C6  UNL d   1       2.127  -2.099   4.119  0.00  0.00    -0.004 A 
ATOM      5  C7  UNL d   1       2.339  -1.531   2.865  0.00  0.00     0.002 A 
ATOM      6  C8  UNL d   1       1.738  -0.315   2.535  0.00  0.00     0.002 A 
ENDROOT
BRANCH   1   7
ATOM      7  C2  UNL d   1       0.289   1.674   3.109  0.00  0.00     0.056 C 
BRANCH   7   8
ATOM      8  C1  UNL d   1       1.302   2.786   2.817  0.00  0.00     0.007 C 
ATOM      9  C   UNL d   1       2.259   3.045   3.972  0.00  0.00     0.009 C 
ENDBRANCH   7   8
ENDBRANCH   1   7
TORSDOF 2
ENDMDL
