MODEL 1
REMARK minimizedAffinity 8.25048542
REMARK minimizedRMSD -1
REMARK  2 active torsions:
REMARK  status: ('A' for Active; 'I' for Inactive)
REMARK    1  A    between atoms: C1_2  and  C2_3 
REMARK    2  A    between atoms: C2_3  and  C3_4 
ROOT
ATOM      1  C3  UNL d   1       0.486   2.510   1.882  0.00  0.00    -0.075 A 
ATOM      2  C4  UNL d   1       1.492   1.964   2.693  0.00  0.00     0.002 A 
ATOM      3  C5  UNL d   1       1.164   1.130   3.763  0.00  0.00     0.002 A 
ATOM      4  C6  UNL d   1      -0.170   0.840   4.040  0.00  0.00    -0.004 A 
ATOM      5  C7  UNL d   1      -1.178   1.390   3.251  0.00  0.00     0.002 A 
ATOM      6  C8  UNL d   1      -0.853   2.221   2.177  0.00  0.00     0.002 A 
ENDROOT
BRANCH   1   7
ATOM      7  C2  UNL d   1       0.836   3.389   0.705  0.00  0.00     0.056 C 
BRANCH   7   8
ATOM      8  C1  UNL d   1      -0.379   3.882  -0.088  0.00  0.00     0.007 C 
ATOM      9  C   UNL d   1      -0.047   5.007  -1.059  0.00  0.00     0.009 C 
ENDBRANCH   7   8
ENDBRANCH   1   7
TORSDOF 2
ENDMDL
