MODEL 1
REMARK minimizedAffinity 6.62684155
REMARK minimizedRMSD -1
REMARK  2 active torsions:
REMARK  status: ('A' for Active; 'I' for Inactive)
REMARK    1  A    between atoms: C1_2  and  C2_3 
REMARK    2  A    between atoms: C2_3  and  C3_4 
ROOT
ATOM      1  C3  UNL d   1       0.545   3.998   1.290  0.00  0.00    -0.075 A 
ATOM      2  C4  UNL d   1       0.725   5.380   1.130  0.00  0.00     0.002 A 
ATOM      3  C5  UNL d   1       0.425   5.997  -0.084  0.00  0.00     0.002 A 
ATOM      4  C6  UNL d   1      -0.049   5.242  -1.154  0.00  0.00    -0.004 A 
ATOM      5  C7  UNL d   1      -0.217   3.867  -1.012  0.00  0.00     0.002 A 
ATOM      6  C8  UNL d   1       0.079   3.247   0.203  0.00  0.00     0.002 A 
ENDROOT
BRANCH   1   7
ATOM      7  C2  UNL d   1       0.841   3.328   2.611  0.00  0.00     0.056 C 
BRANCH   7   8
ATOM      8  C1  UNL d   1       2.335   3.183   2.916  0.00  0.00     0.007 C 
ATOM      9  C   UNL d   1       2.699   3.583   4.340  0.00  0.00     0.009 C 
ENDBRANCH   7   8
ENDBRANCH   1   7
TORSDOF 2
ENDMDL
