MODEL 1
REMARK minimizedAffinity 8.80399609
REMARK minimizedRMSD -1
REMARK  2 active torsions:
REMARK  status: ('A' for Active; 'I' for Inactive)
REMARK    1  A    between atoms: C1_2  and  C2_3 
REMARK    2  A    between atoms: C2_3  and  C3_4 
ROOT
ATOM      1  C3  UNL d   1       0.231   5.139  -0.823  0.00  0.00    -0.075 A 
ATOM      2  C4  UNL d   1      -0.531   5.998  -0.018  0.00  0.00     0.002 A 
ATOM      3  C5  UNL d   1      -1.106   5.535   1.166  0.00  0.00     0.002 A 
ATOM      4  C6  UNL d   1      -0.936   4.208   1.554  0.00  0.00    -0.004 A 
ATOM      5  C7  UNL d   1      -0.196   3.341   0.753  0.00  0.00     0.002 A 
ATOM      6  C8  UNL d   1       0.385   3.803  -0.429  0.00  0.00     0.002 A 
ENDROOT
BRANCH   1   7
ATOM      7  C2  UNL d   1       0.881   5.641  -2.090  0.00  0.00     0.056 C 
BRANCH   7   8
ATOM      8  C1  UNL d   1      -0.029   5.587  -3.322  0.00  0.00     0.007 C 
ATOM      9  C   UNL d   1       0.677   5.992  -4.609  0.00  0.00     0.009 C 
ENDBRANCH   7   8
ENDBRANCH   1   7
TORSDOF 2
ENDMDL
