MODEL 1
REMARK minimizedAffinity 7.52157688
REMARK minimizedRMSD -1
REMARK  2 active torsions:
REMARK  status: ('A' for Active; 'I' for Inactive)
REMARK    1  A    between atoms: C1_2  and  C2_3 
REMARK    2  A    between atoms: C2_3  and  C3_4 
ROOT
ATOM      1  C3  UNL d   1      -3.004  -5.861  -5.243  0.00  0.00    -0.075 A 
ATOM      2  C4  UNL d   1      -3.083  -5.820  -3.844  0.00  0.00     0.002 A 
ATOM      3  C5  UNL d   1      -4.320  -5.881  -3.202  0.00  0.00     0.002 A 
ATOM      4  C6  UNL d   1      -5.492  -5.974  -3.950  0.00  0.00    -0.004 A 
ATOM      5  C7  UNL d   1      -5.426  -5.999  -5.341  0.00  0.00     0.002 A 
ATOM      6  C8  UNL d   1      -4.189  -5.942  -5.986  0.00  0.00     0.002 A 
ENDROOT
BRANCH   1   7
ATOM      7  C2  UNL d   1      -1.666  -5.824  -5.943  0.00  0.00     0.056 C 
BRANCH   7   8
ATOM      8  C1  UNL d   1      -0.593  -5.026  -5.195  0.00  0.00     0.007 C 
ATOM      9  C   UNL d   1       0.343  -5.902  -4.373  0.00  0.00     0.009 C 
ENDBRANCH   7   8
ENDBRANCH   1   7
TORSDOF 2
ENDMDL
