MODEL 1
REMARK minimizedAffinity -3.2198751
REMARK minimizedRMSD -1
REMARK  0 active torsions:
REMARK  status: ('A' for Active; 'I' for Inactive)
ROOT
ATOM      1  C   UNL d   1       0.662  -0.946   1.409  0.00  0.00     0.023 A 
ATOM      2  C1  UNL d   1       1.702  -1.540   0.694  0.00  0.00     0.003 A 
ATOM      3  C2  UNL d   1       2.522  -2.487   1.310  0.00  0.00     0.048 A 
ATOM      4  C3  UNL d   1       2.297  -2.836   2.641  0.00  0.00     0.023 A 
ATOM      5  C4  UNL d   1       1.258  -2.245   3.361  0.00  0.00     0.048 A 
ATOM      6  C5  UNL d   1       0.440  -1.298   2.741  0.00  0.00     0.003 A 
ATOM      7  I   UNL d   1       3.518  -4.245   3.560  0.00  0.00    -0.146 I 
ENDROOT
TORSDOF 0
ENDMDL
