MODEL 1
REMARK minimizedAffinity 3.62873244
REMARK minimizedRMSD -1
REMARK  0 active torsions:
REMARK  status: ('A' for Active; 'I' for Inactive)
ROOT
ATOM      1  C   UNL d   1       0.959  -3.780   2.778  0.00  0.00     0.023 A 
ATOM      2  C1  UNL d   1       1.742  -3.629   1.634  0.00  0.00     0.003 A 
ATOM      3  C2  UNL d   1       1.528  -2.548   0.777  0.00  0.00     0.048 A 
ATOM      4  C3  UNL d   1       0.528  -1.620   1.070  0.00  0.00     0.023 A 
ATOM      5  C4  UNL d   1      -0.257  -1.767   2.214  0.00  0.00     0.048 A 
ATOM      6  C5  UNL d   1      -0.040  -2.850   3.068  0.00  0.00     0.003 A 
ATOM      7  I   UNL d   1       0.207  -0.010  -0.204  0.00  0.00    -0.146 I 
ENDROOT
TORSDOF 0
ENDMDL
