MODEL 1
REMARK minimizedAffinity 5.23885155
REMARK minimizedRMSD -1
REMARK  0 active torsions:
REMARK  status: ('A' for Active; 'I' for Inactive)
ROOT
ATOM      1  C   UNL d   1       0.374  -2.636   2.952  0.00  0.00     0.023 A 
ATOM      2  C1  UNL d   1      -0.506  -1.554   2.908  0.00  0.00     0.003 A 
ATOM      3  C2  UNL d   1      -0.560  -0.742   1.774  0.00  0.00     0.048 A 
ATOM      4  C3  UNL d   1       0.268  -1.017   0.686  0.00  0.00     0.023 A 
ATOM      5  C4  UNL d   1       1.149  -2.099   0.725  0.00  0.00     0.048 A 
ATOM      6  C5  UNL d   1       1.200  -2.909   1.862  0.00  0.00     0.003 A 
ATOM      7  I   UNL d   1       0.190   0.191  -1.003  0.00  0.00    -0.146 I 
ENDROOT
TORSDOF 0
ENDMDL
