MODEL 1
REMARK minimizedAffinity 1.62129104
REMARK minimizedRMSD -1
REMARK  0 active torsions:
REMARK  status: ('A' for Active; 'I' for Inactive)
ROOT
ATOM      1  C   UNL d   1       0.133  -2.397   2.916  0.00  0.00     0.023 A 
ATOM      2  C1  UNL d   1       1.259  -2.842   2.223  0.00  0.00     0.003 A 
ATOM      3  C2  UNL d   1       1.799  -2.067   1.194  0.00  0.00     0.048 A 
ATOM      4  C3  UNL d   1       1.208  -0.848   0.863  0.00  0.00     0.023 A 
ATOM      5  C4  UNL d   1       0.081  -0.399   1.554  0.00  0.00     0.048 A 
ATOM      6  C5  UNL d   1      -0.455  -1.177   2.582  0.00  0.00     0.003 A 
ATOM      7  I   UNL d   1       2.009   0.306  -0.668  0.00  0.00    -0.146 I 
ENDROOT
TORSDOF 0
ENDMDL
