MODEL 1
REMARK minimizedAffinity 9.19780159
REMARK minimizedRMSD -1
REMARK  0 active torsions:
REMARK  status: ('A' for Active; 'I' for Inactive)
ROOT
ATOM      1  C   UNL d   1       4.849   1.029   0.331  0.00  0.00     0.023 A 
ATOM      2  C1  UNL d   1       3.675   0.392  -0.072  0.00  0.00     0.003 A 
ATOM      3  C2  UNL d   1       3.651  -0.995  -0.232  0.00  0.00     0.048 A 
ATOM      4  C3  UNL d   1       4.804  -1.739   0.014  0.00  0.00     0.023 A 
ATOM      5  C4  UNL d   1       5.981  -1.107   0.419  0.00  0.00     0.048 A 
ATOM      6  C5  UNL d   1       6.000   0.280   0.577  0.00  0.00     0.003 A 
ATOM      7  I   UNL d   1       4.771  -3.804  -0.223  0.00  0.00    -0.146 I 
ENDROOT
TORSDOF 0
ENDMDL
