MODEL 1
REMARK minimizedAffinity 6.24219275
REMARK minimizedRMSD -1
REMARK  0 active torsions:
REMARK  status: ('A' for Active; 'I' for Inactive)
ROOT
ATOM      1  C   UNL d   1      -1.712  -0.028   3.262  0.00  0.00     0.023 A 
ATOM      2  C1  UNL d   1      -0.501   0.662   3.222  0.00  0.00     0.003 A 
ATOM      3  C2  UNL d   1       0.622   0.072   2.638  0.00  0.00     0.048 A 
ATOM      4  C3  UNL d   1       0.526  -1.209   2.095  0.00  0.00     0.023 A 
ATOM      5  C4  UNL d   1      -0.685  -1.903   2.131  0.00  0.00     0.048 A 
ATOM      6  C5  UNL d   1      -1.804  -1.309   2.717  0.00  0.00     0.003 A 
ATOM      7  I   UNL d   1       2.195  -2.090   1.224  0.00  0.00    -0.146 I 
ENDROOT
TORSDOF 0
ENDMDL
