MODEL 1
REMARK minimizedAffinity -1.91752112
REMARK minimizedRMSD -1
REMARK  0 active torsions:
REMARK  status: ('A' for Active; 'I' for Inactive)
ROOT
ATOM      1  C   UNL d   1       5.257  -4.309   2.206  0.00  0.00     0.023 A 
ATOM      2  C1  UNL d   1       4.280  -3.940   3.131  0.00  0.00     0.003 A 
ATOM      3  C2  UNL d   1       3.187  -3.172   2.725  0.00  0.00     0.048 A 
ATOM      4  C3  UNL d   1       3.076  -2.777   1.392  0.00  0.00     0.023 A 
ATOM      5  C4  UNL d   1       4.051  -3.144   0.463  0.00  0.00     0.048 A 
ATOM      6  C5  UNL d   1       5.142  -3.912   0.874  0.00  0.00     0.003 A 
ATOM      7  I   UNL d   1       1.450  -1.634   0.786  0.00  0.00    -0.146 I 
ENDROOT
TORSDOF 0
ENDMDL
