MODEL 1
REMARK minimizedAffinity 3.48460698
REMARK minimizedRMSD -1
REMARK  0 active torsions:
REMARK  status: ('A' for Active; 'I' for Inactive)
ROOT
ATOM      1  C   UNL d   1       0.572   4.057   4.544  0.00  0.00     0.023 A 
ATOM      2  C1  UNL d   1       0.755   5.439   4.553  0.00  0.00     0.003 A 
ATOM      3  C2  UNL d   1       1.890   5.998   3.962  0.00  0.00     0.048 A 
ATOM      4  C3  UNL d   1       2.837   5.169   3.363  0.00  0.00     0.023 A 
ATOM      5  C4  UNL d   1       2.657   3.785   3.350  0.00  0.00     0.048 A 
ATOM      6  C5  UNL d   1       1.522   3.230   3.943  0.00  0.00     0.003 A 
ATOM      7  I   UNL d   1       4.527   5.999   2.482  0.00  0.00    -0.146 I 
ENDROOT
TORSDOF 0
ENDMDL
