MODEL 1
REMARK minimizedAffinity 0.41713655
REMARK minimizedRMSD -1
REMARK  0 active torsions:
REMARK  status: ('A' for Active; 'I' for Inactive)
ROOT
ATOM      1  C   UNL d   1      -0.801  -0.737   2.179  0.00  0.00     0.023 A 
ATOM      2  C1  UNL d   1      -0.064  -0.706   0.995  0.00  0.00     0.003 A 
ATOM      3  C2  UNL d   1       0.896  -1.688   0.743  0.00  0.00     0.048 A 
ATOM      4  C3  UNL d   1       1.113  -2.699   1.679  0.00  0.00     0.023 A 
ATOM      5  C4  UNL d   1       0.378  -2.734   2.865  0.00  0.00     0.048 A 
ATOM      6  C5  UNL d   1      -0.581  -1.749   3.113  0.00  0.00     0.003 A 
ATOM      7  I   UNL d   1       2.541  -4.162   1.306  0.00  0.00    -0.146 I 
ENDROOT
TORSDOF 0
ENDMDL
