MODEL 1
REMARK minimizedAffinity 0.983710468
REMARK minimizedRMSD -1
REMARK  0 active torsions:
REMARK  status: ('A' for Active; 'I' for Inactive)
ROOT
ATOM      1  C   UNL d   1       3.118   1.286  -1.701  0.00  0.00     0.023 A 
ATOM      2  C1  UNL d   1       3.891   0.966  -0.585  0.00  0.00     0.003 A 
ATOM      3  C2  UNL d   1       3.573  -0.151   0.190  0.00  0.00     0.048 A 
ATOM      4  C3  UNL d   1       2.480  -0.945  -0.157  0.00  0.00     0.023 A 
ATOM      5  C4  UNL d   1       1.704  -0.629  -1.274  0.00  0.00     0.048 A 
ATOM      6  C5  UNL d   1       2.026   0.489  -2.045  0.00  0.00     0.003 A 
ATOM      7  I   UNL d   1       2.004  -2.608   0.994  0.00  0.00    -0.146 I 
ENDROOT
TORSDOF 0
ENDMDL
