MODEL 1
REMARK minimizedAffinity -5.23698187
REMARK minimizedRMSD -1
REMARK  0 active torsions:
REMARK  status: ('A' for Active; 'I' for Inactive)
ROOT
ATOM      1  C   UNL d   1      -2.459   2.092   1.273  0.00  0.00     0.078 C 
ATOM      2  C1  UNL d   1      -1.408   1.102   0.869  0.00  0.00    -0.077 A 
ATOM      3  C2  UNL d   1      -0.992   0.093   1.746  0.00  0.00    -0.001 A 
ATOM      4  C3  UNL d   1      -0.006  -0.816   1.360  0.00  0.00     0.003 A 
ATOM      5  C4  UNL d   1       0.575  -0.724   0.096  0.00  0.00    -0.005 A 
ATOM      6  C5  UNL d   1       0.169   0.279  -0.782  0.00  0.00     0.003 A 
ATOM      7  C6  UNL d   1      -0.817   1.188  -0.398  0.00  0.00    -0.001 A 
ENDROOT
TORSDOF 0
ENDMDL
