MODEL 1
REMARK minimizedAffinity -5.48871422
REMARK minimizedRMSD -1
REMARK  0 active torsions:
REMARK  status: ('A' for Active; 'I' for Inactive)
ROOT
ATOM      1  C   UNL d   1       0.388  -2.295  -1.023  0.00  0.00     0.078 C 
ATOM      2  C1  UNL d   1      -0.161  -1.174  -0.191  0.00  0.00    -0.077 A 
ATOM      3  C2  UNL d   1       0.124   0.161  -0.502  0.00  0.00    -0.001 A 
ATOM      4  C3  UNL d   1      -0.385   1.194   0.286  0.00  0.00     0.003 A 
ATOM      5  C4  UNL d   1      -1.181   0.902   1.392  0.00  0.00    -0.005 A 
ATOM      6  C5  UNL d   1      -1.468  -0.423   1.711  0.00  0.00     0.003 A 
ATOM      7  C6  UNL d   1      -0.960  -1.457   0.923  0.00  0.00    -0.001 A 
ENDROOT
TORSDOF 0
ENDMDL
