MODEL 1
REMARK minimizedAffinity -5.27432442
REMARK minimizedRMSD -1
REMARK  0 active torsions:
REMARK  status: ('A' for Active; 'I' for Inactive)
ROOT
ATOM      1  C   UNL d   1       1.225   0.313  -1.182  0.00  0.00     0.078 C 
ATOM      2  C1  UNL d   1       0.061   0.553  -0.268  0.00  0.00    -0.077 A 
ATOM      3  C2  UNL d   1      -0.978   1.417  -0.635  0.00  0.00    -0.001 A 
ATOM      4  C3  UNL d   1      -2.051   1.638   0.230  0.00  0.00     0.003 A 
ATOM      5  C4  UNL d   1      -2.095   1.000   1.468  0.00  0.00    -0.005 A 
ATOM      6  C5  UNL d   1      -1.064   0.140   1.843  0.00  0.00     0.003 A 
ATOM      7  C6  UNL d   1       0.009  -0.082   0.979  0.00  0.00    -0.001 A 
ENDROOT
TORSDOF 0
ENDMDL
