MODEL 1
REMARK minimizedAffinity -4.76909018
REMARK minimizedRMSD -1
REMARK  0 active torsions:
REMARK  status: ('A' for Active; 'I' for Inactive)
ROOT
ATOM      1  C   UNL d   1       0.963  -0.354  -0.817  0.00  0.00     0.078 C 
ATOM      2  C1  UNL d   1      -0.157   0.257  -0.029  0.00  0.00    -0.077 A 
ATOM      3  C2  UNL d   1      -0.432  -0.164   1.278  0.00  0.00    -0.001 A 
ATOM      4  C3  UNL d   1      -1.484   0.406   1.997  0.00  0.00     0.003 A 
ATOM      5  C4  UNL d   1      -2.270   1.399   1.417  0.00  0.00    -0.005 A 
ATOM      6  C5  UNL d   1      -2.006   1.823   0.116  0.00  0.00     0.003 A 
ATOM      7  C6  UNL d   1      -0.954   1.254  -0.604  0.00  0.00    -0.001 A 
ENDROOT
TORSDOF 0
ENDMDL
