MODEL 1
REMARK minimizedAffinity -4.33989716
REMARK minimizedRMSD -1
REMARK  0 active torsions:
REMARK  status: ('A' for Active; 'I' for Inactive)
ROOT
ATOM      1  C   UNL d   1       0.569  -0.554  -1.126  0.00  0.00     0.078 C 
ATOM      2  C1  UNL d   1      -0.326   0.263  -0.241  0.00  0.00    -0.077 A 
ATOM      3  C2  UNL d   1      -1.354   1.045  -0.781  0.00  0.00    -0.001 A 
ATOM      4  C3  UNL d   1      -2.173   1.808   0.054  0.00  0.00     0.003 A 
ATOM      5  C4  UNL d   1      -1.971   1.796   1.432  0.00  0.00    -0.005 A 
ATOM      6  C5  UNL d   1      -0.948   1.023   1.978  0.00  0.00     0.003 A 
ATOM      7  C6  UNL d   1      -0.129   0.260   1.145  0.00  0.00    -0.001 A 
ENDROOT
TORSDOF 0
ENDMDL
