MODEL 1
REMARK minimizedAffinity -5.0684166
REMARK minimizedRMSD -1
REMARK  0 active torsions:
REMARK  status: ('A' for Active; 'I' for Inactive)
ROOT
ATOM      1  C   UNL d   1       0.781  -0.454  -0.538  0.00  0.00     0.078 C 
ATOM      2  C1  UNL d   1      -0.288   0.325   0.169  0.00  0.00    -0.077 A 
ATOM      3  C2  UNL d   1      -0.174   0.635   1.530  0.00  0.00    -0.001 A 
ATOM      4  C3  UNL d   1      -1.181   1.352   2.177  0.00  0.00     0.003 A 
ATOM      5  C4  UNL d   1      -2.310   1.765   1.472  0.00  0.00    -0.005 A 
ATOM      6  C5  UNL d   1      -2.433   1.459   0.119  0.00  0.00     0.003 A 
ATOM      7  C6  UNL d   1      -1.427   0.742  -0.531  0.00  0.00    -0.001 A 
ENDROOT
TORSDOF 0
ENDMDL
