MODEL 1
REMARK minimizedAffinity -2.65170026
REMARK minimizedRMSD -1
REMARK  0 active torsions:
REMARK  status: ('A' for Active; 'I' for Inactive)
ROOT
ATOM      1  C   UNL d   1      -2.393   1.667   1.603  0.00  0.00     0.078 C 
ATOM      2  C1  UNL d   1      -1.315   0.899   0.898  0.00  0.00    -0.077 A 
ATOM      3  C2  UNL d   1      -0.960   1.201  -0.422  0.00  0.00    -0.001 A 
ATOM      4  C3  UNL d   1       0.039   0.471  -1.069  0.00  0.00     0.003 A 
ATOM      5  C4  UNL d   1       0.690  -0.566  -0.404  0.00  0.00    -0.005 A 
ATOM      6  C5  UNL d   1       0.341  -0.876   0.909  0.00  0.00     0.003 A 
ATOM      7  C6  UNL d   1      -0.657  -0.147   1.557  0.00  0.00    -0.001 A 
ENDROOT
TORSDOF 0
ENDMDL
