MODEL 1
REMARK minimizedAffinity -5.48335123
REMARK minimizedRMSD -1
REMARK  0 active torsions:
REMARK  status: ('A' for Active; 'I' for Inactive)
ROOT
ATOM      1  C   UNL d   1       0.575  -1.212  -0.685  0.00  0.00     0.078 C 
ATOM      2  C1  UNL d   1      -0.225  -0.233   0.120  0.00  0.00    -0.077 A 
ATOM      3  C2  UNL d   1      -0.449  -0.436   1.488  0.00  0.00    -0.001 A 
ATOM      4  C3  UNL d   1      -1.205   0.479   2.223  0.00  0.00     0.003 A 
ATOM      5  C4  UNL d   1      -1.744   1.602   1.599  0.00  0.00    -0.005 A 
ATOM      6  C5  UNL d   1      -1.529   1.812   0.239  0.00  0.00     0.003 A 
ATOM      7  C6  UNL d   1      -0.774   0.898  -0.498  0.00  0.00    -0.001 A 
ENDROOT
TORSDOF 0
ENDMDL
