MODEL 1
REMARK minimizedAffinity -5.24846983
REMARK minimizedRMSD -1
REMARK  0 active torsions:
REMARK  status: ('A' for Active; 'I' for Inactive)
ROOT
ATOM      1  C   UNL d   1       0.091  -1.129  -0.897  0.00  0.00     0.078 C 
ATOM      2  C1  UNL d   1      -0.586  -0.068  -0.081  0.00  0.00    -0.077 A 
ATOM      3  C2  UNL d   1      -1.480   0.834  -0.671  0.00  0.00    -0.001 A 
ATOM      4  C3  UNL d   1      -2.095   1.823   0.099  0.00  0.00     0.003 A 
ATOM      5  C4  UNL d   1      -1.823   1.919   1.462  0.00  0.00    -0.005 A 
ATOM      6  C5  UNL d   1      -0.934   1.027   2.057  0.00  0.00     0.003 A 
ATOM      7  C6  UNL d   1      -0.317   0.038   1.289  0.00  0.00    -0.001 A 
ENDROOT
TORSDOF 0
ENDMDL
