MODEL 1
REMARK minimizedAffinity -5.04288292
REMARK minimizedRMSD -1
REMARK  0 active torsions:
REMARK  status: ('A' for Active; 'I' for Inactive)
ROOT
ATOM      1  C   UNL d   1       0.246   2.221  -1.360  0.00  0.00     0.078 C 
ATOM      2  C1  UNL d   1      -0.218   1.353  -0.228  0.00  0.00    -0.077 A 
ATOM      3  C2  UNL d   1       0.398   0.124   0.038  0.00  0.00    -0.001 A 
ATOM      4  C3  UNL d   1      -0.051  -0.678   1.088  0.00  0.00     0.003 A 
ATOM      5  C4  UNL d   1      -1.119  -0.260   1.880  0.00  0.00    -0.005 A 
ATOM      6  C5  UNL d   1      -1.740   0.960   1.622  0.00  0.00     0.003 A 
ATOM      7  C6  UNL d   1      -1.292   1.763   0.572  0.00  0.00    -0.001 A 
ENDROOT
TORSDOF 0
ENDMDL
