MODEL 1
REMARK minimizedAffinity -5.09294748
REMARK minimizedRMSD -1
REMARK  0 active torsions:
REMARK  status: ('A' for Active; 'I' for Inactive)
ROOT
ATOM      1  C   UNL d   1       0.662  -0.424  -0.420  0.00  0.00     0.078 C 
ATOM      2  C1  UNL d   1      -0.301   0.398   0.384  0.00  0.00    -0.077 A 
ATOM      3  C2  UNL d   1      -1.238   1.228  -0.243  0.00  0.00    -0.001 A 
ATOM      4  C3  UNL d   1      -2.123   1.995   0.517  0.00  0.00     0.003 A 
ATOM      5  C4  UNL d   1      -2.078   1.940   1.909  0.00  0.00    -0.005 A 
ATOM      6  C5  UNL d   1      -1.147   1.119   2.542  0.00  0.00     0.003 A 
ATOM      7  C6  UNL d   1      -0.262   0.351   1.783  0.00  0.00    -0.001 A 
ENDROOT
TORSDOF 0
ENDMDL
