MODEL 1
REMARK minimizedAffinity -5.73688412
REMARK minimizedRMSD -1
REMARK  0 active torsions:
REMARK  status: ('A' for Active; 'I' for Inactive)
ROOT
ATOM      1  C   UNL d   1       0.766  -1.217  -0.640  0.00  0.00     0.078 C 
ATOM      2  C1  UNL d   1      -0.050  -0.198   0.098  0.00  0.00    -0.077 A 
ATOM      3  C2  UNL d   1      -0.560  -0.469   1.374  0.00  0.00    -0.001 A 
ATOM      4  C3  UNL d   1      -1.326   0.486   2.045  0.00  0.00     0.003 A 
ATOM      5  C4  UNL d   1      -1.589   1.717   1.448  0.00  0.00    -0.005 A 
ATOM      6  C5  UNL d   1      -1.087   1.995   0.178  0.00  0.00     0.003 A 
ATOM      7  C6  UNL d   1      -0.321   1.041  -0.495  0.00  0.00    -0.001 A 
ENDROOT
TORSDOF 0
ENDMDL
