MODEL 1
REMARK minimizedAffinity -3.82925797
REMARK minimizedRMSD -1
REMARK  0 active torsions:
REMARK  status: ('A' for Active; 'I' for Inactive)
ROOT
ATOM      1  C   UNL d   1       0.465  -1.327  -1.028  0.00  0.00     0.078 C 
ATOM      2  C1  UNL d   1       0.082  -0.197  -0.121  0.00  0.00    -0.077 A 
ATOM      3  C2  UNL d   1      -0.628  -0.431   1.064  0.00  0.00    -0.001 A 
ATOM      4  C3  UNL d   1      -0.986   0.632   1.894  0.00  0.00     0.003 A 
ATOM      5  C4  UNL d   1      -0.641   1.937   1.549  0.00  0.00    -0.005 A 
ATOM      6  C5  UNL d   1       0.063   2.181   0.371  0.00  0.00     0.003 A 
ATOM      7  C6  UNL d   1       0.422   1.119  -0.461  0.00  0.00    -0.001 A 
ENDROOT
TORSDOF 0
ENDMDL
