MODEL 1
REMARK minimizedAffinity -4.28288603
REMARK minimizedRMSD -1
REMARK  0 active torsions:
REMARK  status: ('A' for Active; 'I' for Inactive)
ROOT
ATOM      1  C   UNL d   1      -0.014  -1.225  -0.753  0.00  0.00     0.078 C 
ATOM      2  C1  UNL d   1      -0.630  -0.170   0.116  0.00  0.00    -0.077 A 
ATOM      3  C2  UNL d   1      -0.516  -0.228   1.511  0.00  0.00    -0.001 A 
ATOM      4  C3  UNL d   1      -1.103   0.756   2.308  0.00  0.00     0.003 A 
ATOM      5  C4  UNL d   1      -1.810   1.804   1.720  0.00  0.00    -0.005 A 
ATOM      6  C5  UNL d   1      -1.930   1.868   0.334  0.00  0.00     0.003 A 
ATOM      7  C6  UNL d   1      -1.344   0.885  -0.465  0.00  0.00    -0.001 A 
ENDROOT
TORSDOF 0
ENDMDL
