MODEL 1
REMARK minimizedAffinity -3.79217839
REMARK minimizedRMSD -1
REMARK  0 active torsions:
REMARK  status: ('A' for Active; 'I' for Inactive)
ROOT
ATOM      1  C   UNL d   1       0.482  -0.736  -0.875  0.00  0.00     0.078 C 
ATOM      2  C1  UNL d   1      -0.156   0.028   0.246  0.00  0.00    -0.077 A 
ATOM      3  C2  UNL d   1      -0.730  -0.636   1.337  0.00  0.00    -0.001 A 
ATOM      4  C3  UNL d   1      -1.329   0.089   2.368  0.00  0.00     0.003 A 
ATOM      5  C4  UNL d   1      -1.361   1.481   2.318  0.00  0.00    -0.005 A 
ATOM      6  C5  UNL d   1      -0.794   2.151   1.236  0.00  0.00     0.003 A 
ATOM      7  C6  UNL d   1      -0.195   1.428   0.203  0.00  0.00    -0.001 A 
ENDROOT
TORSDOF 0
ENDMDL
