MODEL 1
REMARK minimizedAffinity 5.7133069
REMARK minimizedRMSD -1
REMARK  0 active torsions:
REMARK  status: ('A' for Active; 'I' for Inactive)
ROOT
ATOM      1  C   UNL d   1       2.279  -5.888  -1.096  0.00  0.00     0.023 A 
ATOM      2  C1  UNL d   1       3.266  -5.939  -2.081  0.00  0.00     0.003 A 
ATOM      3  C2  UNL d   1       4.078  -4.828  -2.315  0.00  0.00     0.048 A 
ATOM      4  C3  UNL d   1       3.900  -3.670  -1.560  0.00  0.00     0.023 A 
ATOM      5  C4  UNL d   1       2.914  -3.614  -0.573  0.00  0.00     0.048 A 
ATOM      6  C5  UNL d   1       2.104  -4.727  -0.343  0.00  0.00     0.003 A 
ATOM      7  I   UNL d   1       5.109  -2.015  -1.907  0.00  0.00    -0.146 I 
ENDROOT
TORSDOF 0
ENDMDL
