MODEL 1
REMARK minimizedAffinity 6.26528788
REMARK minimizedRMSD -1
REMARK  0 active torsions:
REMARK  status: ('A' for Active; 'I' for Inactive)
ROOT
ATOM      1  C   UNL d   1      -0.674   3.814  -1.467  0.00  0.00     0.023 A 
ATOM      2  C1  UNL d   1      -0.420   4.583  -0.331  0.00  0.00     0.003 A 
ATOM      3  C2  UNL d   1      -0.119   3.960   0.882  0.00  0.00     0.048 A 
ATOM      4  C3  UNL d   1      -0.073   2.568   0.952  0.00  0.00     0.023 A 
ATOM      5  C4  UNL d   1      -0.326   1.795  -0.182  0.00  0.00     0.048 A 
ATOM      6  C5  UNL d   1      -0.627   2.422  -1.393  0.00  0.00     0.003 A 
ATOM      7  I   UNL d   1       0.375   1.639   2.756  0.00  0.00    -0.146 I 
ENDROOT
TORSDOF 0
ENDMDL
