MODEL 1
REMARK minimizedAffinity 4.5547595
REMARK minimizedRMSD -1
REMARK  0 active torsions:
REMARK  status: ('A' for Active; 'I' for Inactive)
ROOT
ATOM      1  C   UNL d   1       5.374  -2.756  -0.976  0.00  0.00     0.023 A 
ATOM      2  C1  UNL d   1       4.291  -3.347  -0.323  0.00  0.00     0.003 A 
ATOM      3  C2  UNL d   1       2.998  -2.869  -0.541  0.00  0.00     0.048 A 
ATOM      4  C3  UNL d   1       2.793  -1.801  -1.413  0.00  0.00     0.023 A 
ATOM      5  C4  UNL d   1       3.872  -1.207  -2.069  0.00  0.00     0.048 A 
ATOM      6  C5  UNL d   1       5.164  -1.687  -1.848  0.00  0.00     0.003 A 
ATOM      7  I   UNL d   1       0.868  -1.088  -1.739  0.00  0.00    -0.146 I 
ENDROOT
TORSDOF 0
ENDMDL
