MODEL 1
REMARK minimizedAffinity 6.33017683
REMARK minimizedRMSD -1
REMARK  0 active torsions:
REMARK  status: ('A' for Active; 'I' for Inactive)
ROOT
ATOM      1  C   UNL d   1      -1.591  -1.854  -1.866  0.00  0.00     0.023 A 
ATOM      2  C1  UNL d   1      -0.271  -1.411  -1.949  0.00  0.00     0.003 A 
ATOM      3  C2  UNL d   1       0.057  -0.111  -1.557  0.00  0.00     0.048 A 
ATOM      4  C3  UNL d   1      -0.941   0.740  -1.083  0.00  0.00     0.023 A 
ATOM      5  C4  UNL d   1      -2.263   0.301  -0.997  0.00  0.00     0.048 A 
ATOM      6  C5  UNL d   1      -2.586  -0.999  -1.391  0.00  0.00     0.003 A 
ATOM      7  I   UNL d   1      -0.456   2.675  -0.499  0.00  0.00    -0.146 I 
ENDROOT
TORSDOF 0
ENDMDL
