MODEL 1
REMARK minimizedAffinity 1.76261139
REMARK minimizedRMSD -1
REMARK  0 active torsions:
REMARK  status: ('A' for Active; 'I' for Inactive)
ROOT
ATOM      1  C   UNL d   1       1.431   3.467   2.665  0.00  0.00     0.023 A 
ATOM      2  C1  UNL d   1       1.011   4.106   1.499  0.00  0.00     0.003 A 
ATOM      3  C2  UNL d   1      -0.072   3.601   0.775  0.00  0.00     0.048 A 
ATOM      4  C3  UNL d   1      -0.730   2.456   1.225  0.00  0.00     0.023 A 
ATOM      5  C4  UNL d   1      -0.313   1.814   2.392  0.00  0.00     0.048 A 
ATOM      6  C5  UNL d   1       0.770   2.322   3.111  0.00  0.00     0.003 A 
ATOM      7  I   UNL d   1      -2.341   1.703   0.150  0.00  0.00    -0.146 I 
ENDROOT
TORSDOF 0
ENDMDL
