MODEL 1
REMARK minimizedAffinity -2.57562971
REMARK minimizedRMSD -1
REMARK  0 active torsions:
REMARK  status: ('A' for Active; 'I' for Inactive)
ROOT
ATOM      1  C4' PXY d   1       0.769   0.295   2.132  0.00  0.00     0.077 C 
ATOM      2  C1' PXY d   1       0.438  -1.048  -3.481  0.00  0.00     0.077 C 
ATOM      3  C1  PXY d   1       0.527  -0.709  -2.006  0.00  0.00    -0.082 A 
ATOM      4  C2  PXY d   1      -0.118   0.347  -1.538  0.00  0.00     0.003 A 
ATOM      5  C3  PXY d   1      -0.022   0.687  -0.213  0.00  0.00     0.003 A 
ATOM      6  C4  PXY d   1       0.699  -0.092   0.652  0.00  0.00    -0.082 A 
ATOM      7  C5  PXY d   1       1.352  -1.177   0.184  0.00  0.00     0.003 A 
ATOM      8  C6  PXY d   1       1.275  -1.481  -1.172  0.00  0.00     0.003 A 
ENDROOT
TORSDOF 0
ENDMDL
