MODEL 1
REMARK minimizedAffinity -3.39345264
REMARK minimizedRMSD -1
REMARK  0 active torsions:
REMARK  status: ('A' for Active; 'I' for Inactive)
ROOT
ATOM      1  C4' PXY d   1       0.418  -1.571  -3.121  0.00  0.00     0.077 C 
ATOM      2  C1' PXY d   1       0.353   0.490   2.280  0.00  0.00     0.077 C 
ATOM      3  C1  PXY d   1       0.360  -0.043   0.860  0.00  0.00    -0.082 A 
ATOM      4  C2  PXY d   1       0.870  -1.239   0.613  0.00  0.00     0.003 A 
ATOM      5  C3  PXY d   1       0.913  -1.722  -0.669  0.00  0.00     0.003 A 
ATOM      6  C4  PXY d   1       0.381  -0.997  -1.702  0.00  0.00    -0.082 A 
ATOM      7  C5  PXY d   1      -0.150   0.219  -1.456  0.00  0.00     0.003 A 
ATOM      8  C6  PXY d   1      -0.147   0.710  -0.153  0.00  0.00     0.003 A 
ENDROOT
TORSDOF 0
ENDMDL
