MODEL 1
REMARK minimizedAffinity -3.37119889
REMARK minimizedRMSD -1
REMARK  0 active torsions:
REMARK  status: ('A' for Active; 'I' for Inactive)
ROOT
ATOM      1  C4' PXY d   1       0.689  -0.927  -3.658  0.00  0.00     0.077 C 
ATOM      2  C1' PXY d   1       0.431   0.249   1.996  0.00  0.00     0.077 C 
ATOM      3  C1  PXY d   1       0.493  -0.048   0.511  0.00  0.00    -0.082 A 
ATOM      4  C2  PXY d   1       0.573  -1.303   0.097  0.00  0.00     0.003 A 
ATOM      5  C3  PXY d   1       0.662  -1.587  -1.241  0.00  0.00     0.003 A 
ATOM      6  C4  PXY d   1       0.615  -0.581  -2.168  0.00  0.00    -0.082 A 
ATOM      7  C5  PXY d   1       0.522   0.701  -1.755  0.00  0.00     0.003 A 
ATOM      8  C6  PXY d   1       0.474   0.971  -0.390  0.00  0.00     0.003 A 
ENDROOT
TORSDOF 0
ENDMDL
