MODEL 1
REMARK minimizedAffinity -3.79455495
REMARK minimizedRMSD -1
REMARK  0 active torsions:
REMARK  status: ('A' for Active; 'I' for Inactive)
ROOT
ATOM      1  C4' PXY d   1      -1.870   0.615   3.437  0.00  0.00     0.077 C 
ATOM      2  C1' PXY d   1       0.632  -0.123  -1.721  0.00  0.00     0.077 C 
ATOM      3  C1  PXY d   1      -0.034   0.077  -0.374  0.00  0.00    -0.082 A 
ATOM      4  C2  PXY d   1       0.698   0.052   0.728  0.00  0.00     0.003 A 
ATOM      5  C3  PXY d   1       0.107   0.199   1.956  0.00  0.00     0.003 A 
ATOM      6  C4  PXY d   1      -1.239   0.427   2.055  0.00  0.00    -0.082 A 
ATOM      7  C5  PXY d   1      -1.991   0.465   0.935  0.00  0.00     0.003 A 
ATOM      8  C6  PXY d   1      -1.379   0.272  -0.300  0.00  0.00     0.003 A 
ENDROOT
TORSDOF 0
ENDMDL
