MODEL 1
REMARK minimizedAffinity -1.14248574
REMARK minimizedRMSD -1
REMARK  0 active torsions:
REMARK  status: ('A' for Active; 'I' for Inactive)
ROOT
ATOM      1  C4' PXY d   1       0.265  -0.994  -3.785  0.00  0.00     0.077 C 
ATOM      2  C1' PXY d   1       0.037   0.358   1.830  0.00  0.00     0.077 C 
ATOM      3  C1  PXY d   1       0.090   0.014   0.355  0.00  0.00    -0.082 A 
ATOM      4  C2  PXY d   1       0.306  -1.237  -0.018  0.00  0.00     0.003 A 
ATOM      5  C3  PXY d   1       0.388  -1.561  -1.348  0.00  0.00     0.003 A 
ATOM      6  C4  PXY d   1       0.195  -0.603  -2.307  0.00  0.00    -0.082 A 
ATOM      7  C5  PXY d   1      -0.037   0.674  -1.935  0.00  0.00     0.003 A 
ATOM      8  C6  PXY d   1      -0.075   0.989  -0.579  0.00  0.00     0.003 A 
ENDROOT
TORSDOF 0
ENDMDL
