MODEL 1
REMARK minimizedAffinity -0.877113938
REMARK minimizedRMSD -1
REMARK  0 active torsions:
REMARK  status: ('A' for Active; 'I' for Inactive)
ROOT
ATOM      1  C4' PXY d   1       1.040  -1.040  -3.122  0.00  0.00     0.077 C 
ATOM      2  C1' PXY d   1       0.822   0.389   2.475  0.00  0.00     0.077 C 
ATOM      3  C1  PXY d   1       0.867   0.019   1.006  0.00  0.00    -0.082 A 
ATOM      4  C2  PXY d   1       1.691  -0.932   0.596  0.00  0.00     0.003 A 
ATOM      5  C3  PXY d   1       1.768  -1.258  -0.734  0.00  0.00     0.003 A 
ATOM      6  C4  PXY d   1       0.955  -0.640  -1.646  0.00  0.00    -0.082 A 
ATOM      7  C5  PXY d   1       0.104   0.324  -1.234  0.00  0.00     0.003 A 
ATOM      8  C6  PXY d   1       0.071   0.668   0.114  0.00  0.00     0.003 A 
ENDROOT
TORSDOF 0
ENDMDL
