MODEL 1
REMARK minimizedAffinity -4.6734767
REMARK minimizedRMSD -1
REMARK  0 active torsions:
REMARK  status: ('A' for Active; 'I' for Inactive)
ROOT
ATOM      1  C4' PXY d   1       0.716  -1.164  -3.350  0.00  0.00     0.077 C 
ATOM      2  C1' PXY d   1       0.681   0.350   2.229  0.00  0.00     0.077 C 
ATOM      3  C1  PXY d   1       0.682  -0.037   0.763  0.00  0.00    -0.082 A 
ATOM      4  C2  PXY d   1       0.920  -1.292   0.418  0.00  0.00     0.003 A 
ATOM      5  C3  PXY d   1       0.957  -1.652  -0.904  0.00  0.00     0.003 A 
ATOM      6  C4  PXY d   1       0.695  -0.730  -1.882  0.00  0.00    -0.082 A 
ATOM      7  C5  PXY d   1       0.442   0.551  -1.538  0.00  0.00     0.003 A 
ATOM      8  C6  PXY d   1       0.449   0.905  -0.192  0.00  0.00     0.003 A 
ENDROOT
TORSDOF 0
ENDMDL
