MODEL 1
REMARK minimizedAffinity -4.54429483
REMARK minimizedRMSD -1
REMARK  0 active torsions:
REMARK  status: ('A' for Active; 'I' for Inactive)
ROOT
ATOM      1  C4' PXY d   1       0.928  -1.434  -3.494  0.00  0.00     0.077 C 
ATOM      2  C1' PXY d   1       0.779   0.381   1.992  0.00  0.00     0.077 C 
ATOM      3  C1  PXY d   1       0.831  -0.098   0.555  0.00  0.00    -0.082 A 
ATOM      4  C2  PXY d   1      -0.033   0.381  -0.326  0.00  0.00     0.003 A 
ATOM      5  C3  PXY d   1      -0.021  -0.066  -1.622  0.00  0.00     0.003 A 
ATOM      6  C4  PXY d   1       0.919  -0.972  -2.034  0.00  0.00    -0.082 A 
ATOM      7  C5  PXY d   1       1.811  -1.457  -1.144  0.00  0.00     0.003 A 
ATOM      8  C6  PXY d   1       1.755  -1.022   0.177  0.00  0.00     0.003 A 
ENDROOT
TORSDOF 0
ENDMDL
