MODEL 1
REMARK minimizedAffinity -4.78902435
REMARK minimizedRMSD -1
REMARK  0 active torsions:
REMARK  status: ('A' for Active; 'I' for Inactive)
ROOT
ATOM      1  C4' PXY d   1       0.164  -1.390  -3.848  0.00  0.00     0.077 C 
ATOM      2  C1' PXY d   1       0.012   0.228   1.699  0.00  0.00     0.077 C 
ATOM      3  C1  PXY d   1       0.043  -0.187   0.242  0.00  0.00    -0.082 A 
ATOM      4  C2  PXY d   1       0.414  -1.415  -0.081  0.00  0.00     0.003 A 
ATOM      5  C3  PXY d   1       0.479  -1.798  -1.396  0.00  0.00     0.003 A 
ATOM      6  C4  PXY d   1       0.109  -0.930  -2.389  0.00  0.00    -0.082 A 
ATOM      7  C5  PXY d   1      -0.281   0.322  -2.067  0.00  0.00     0.003 A 
ATOM      8  C6  PXY d   1      -0.300   0.703  -0.729  0.00  0.00     0.003 A 
ENDROOT
TORSDOF 0
ENDMDL
