MODEL 1
REMARK minimizedAffinity -3.817904
REMARK minimizedRMSD -1
REMARK  0 active torsions:
REMARK  status: ('A' for Active; 'I' for Inactive)
ROOT
ATOM      1  C4' PXY d   1       1.019  -0.899  -3.644  0.00  0.00     0.077 C 
ATOM      2  C1' PXY d   1       0.246   0.492   1.913  0.00  0.00     0.077 C 
ATOM      3  C1  PXY d   1       0.440   0.136   0.452  0.00  0.00    -0.082 A 
ATOM      4  C2  PXY d   1       0.848  -1.079   0.123  0.00  0.00     0.003 A 
ATOM      5  C3  PXY d   1       1.059  -1.407  -1.191  0.00  0.00     0.003 A 
ATOM      6  C4  PXY d   1       0.800  -0.499  -2.183  0.00  0.00    -0.082 A 
ATOM      7  C5  PXY d   1       0.374   0.739  -1.856  0.00  0.00     0.003 A 
ATOM      8  C6  PXY d   1       0.205   1.066  -0.513  0.00  0.00     0.003 A 
ENDROOT
TORSDOF 0
ENDMDL
