MODEL 1
REMARK minimizedAffinity -2.33727932
REMARK minimizedRMSD -1
REMARK  0 active torsions:
REMARK  status: ('A' for Active; 'I' for Inactive)
ROOT
ATOM      1  C4' PXY d   1       1.047  -0.379  -2.994  0.00  0.00     0.077 C 
ATOM      2  C1' PXY d   1       0.069  -0.003   2.691  0.00  0.00     0.077 C 
ATOM      3  C1  PXY d   1       0.313  -0.100   1.198  0.00  0.00    -0.082 A 
ATOM      4  C2  PXY d   1       1.422  -0.668   0.752  0.00  0.00     0.003 A 
ATOM      5  C3  PXY d   1       1.673  -0.736  -0.595  0.00  0.00     0.003 A 
ATOM      6  C4  PXY d   1       0.755  -0.266  -1.495  0.00  0.00    -0.082 A 
ATOM      7  C5  PXY d   1      -0.384   0.304  -1.048  0.00  0.00     0.003 A 
ATOM      8  C6  PXY d   1      -0.601   0.401   0.323  0.00  0.00     0.003 A 
ENDROOT
TORSDOF 0
ENDMDL
