MODEL 1
REMARK minimizedAffinity -1.09453464
REMARK minimizedRMSD -1
REMARK  0 active torsions:
REMARK  status: ('A' for Active; 'I' for Inactive)
ROOT
ATOM      1  C4' PXY d   1       0.133   0.266   2.742  0.00  0.00     0.077 C 
ATOM      2  C1' PXY d   1       0.901  -0.329  -2.957  0.00  0.00     0.077 C 
ATOM      3  C1  PXY d   1       0.701  -0.186  -1.461  0.00  0.00    -0.082 A 
ATOM      4  C2  PXY d   1       0.016   0.843  -0.988  0.00  0.00     0.003 A 
ATOM      5  C3  PXY d   1      -0.146   1.005   0.364  0.00  0.00     0.003 A 
ATOM      6  C4  PXY d   1       0.352   0.076   1.238  0.00  0.00    -0.082 A 
ATOM      7  C5  PXY d   1       1.042  -0.982   0.762  0.00  0.00     0.003 A 
ATOM      8  C6  PXY d   1       1.231  -1.106  -0.611  0.00  0.00     0.003 A 
ENDROOT
TORSDOF 0
ENDMDL
