MODEL 1
REMARK minimizedAffinity -4.07543945
REMARK minimizedRMSD -1
REMARK  0 active torsions:
REMARK  status: ('A' for Active; 'I' for Inactive)
ROOT
ATOM      1  C4' PXY d   1       0.497  -1.267  -3.168  0.00  0.00     0.077 C 
ATOM      2  C1' PXY d   1       0.127   0.373   2.362  0.00  0.00     0.077 C 
ATOM      3  C1  PXY d   1       0.217  -0.046   0.908  0.00  0.00    -0.082 A 
ATOM      4  C2  PXY d   1       0.415  -1.319   0.606  0.00  0.00     0.003 A 
ATOM      5  C3  PXY d   1       0.531  -1.711  -0.703  0.00  0.00     0.003 A 
ATOM      6  C4  PXY d   1       0.390  -0.799  -1.714  0.00  0.00    -0.082 A 
ATOM      7  C5  PXY d   1       0.177   0.500  -1.414  0.00  0.00     0.003 A 
ATOM      8  C6  PXY d   1       0.103   0.884  -0.078  0.00  0.00     0.003 A 
ENDROOT
TORSDOF 0
ENDMDL
