MODEL 1
REMARK minimizedAffinity -1.4123112
REMARK minimizedRMSD -1
REMARK  0 active torsions:
REMARK  status: ('A' for Active; 'I' for Inactive)
ROOT
ATOM      1  C4' PXY d   1       0.748  -1.060  -2.759  0.00  0.00     0.077 C 
ATOM      2  C1' PXY d   1       0.513   0.664   2.753  0.00  0.00     0.077 C 
ATOM      3  C1  PXY d   1       0.563   0.218   1.305  0.00  0.00    -0.082 A 
ATOM      4  C2  PXY d   1       1.264  -0.855   0.975  0.00  0.00     0.003 A 
ATOM      5  C3  PXY d   1       1.347  -1.253  -0.334  0.00  0.00     0.003 A 
ATOM      6  C4  PXY d   1       0.661  -0.579  -1.308  0.00  0.00    -0.082 A 
ATOM      7  C5  PXY d   1      -0.065   0.510  -0.978  0.00  0.00     0.003 A 
ATOM      8  C6  PXY d   1      -0.103   0.923   0.351  0.00  0.00     0.003 A 
ENDROOT
TORSDOF 0
ENDMDL
