MODEL 1
REMARK minimizedAffinity -2.17390561
REMARK minimizedRMSD -1
REMARK  0 active torsions:
REMARK  status: ('A' for Active; 'I' for Inactive)
ROOT
ATOM      1  C4' PXY d   1       1.127  -0.441  -2.599  0.00  0.00     0.077 C 
ATOM      2  C1' PXY d   1      -0.111   0.482   2.971  0.00  0.00     0.077 C 
ATOM      3  C1  PXY d   1       0.201   0.242   1.507  0.00  0.00    -0.082 A 
ATOM      4  C2  PXY d   1       1.249  -0.493   1.174  0.00  0.00     0.003 A 
ATOM      5  C3  PXY d   1       1.564  -0.694  -0.145  0.00  0.00     0.003 A 
ATOM      6  C4  PXY d   1       0.768  -0.180  -1.134  0.00  0.00    -0.082 A 
ATOM      7  C5  PXY d   1      -0.309   0.562  -0.802  0.00  0.00     0.003 A 
ATOM      8  C6  PXY d   1      -0.588   0.788   0.543  0.00  0.00     0.003 A 
ENDROOT
TORSDOF 0
ENDMDL
