MODEL 1
REMARK minimizedAffinity -2.00280738
REMARK minimizedRMSD -1
REMARK  0 active torsions:
REMARK  status: ('A' for Active; 'I' for Inactive)
ROOT
ATOM      1  C4' PXY d   1       0.811   0.464   1.373  0.00  0.00     0.077 C 
ATOM      2  C1' PXY d   1       0.411  -1.535  -4.037  0.00  0.00     0.077 C 
ATOM      3  C1  PXY d   1       0.515  -0.998  -2.623  0.00  0.00    -0.082 A 
ATOM      4  C2  PXY d   1       1.098  -1.730  -1.687  0.00  0.00     0.003 A 
ATOM      5  C3  PXY d   1       1.172  -1.274  -0.396  0.00  0.00     0.003 A 
ATOM      6  C4  PXY d   1       0.692  -0.033  -0.071  0.00  0.00    -0.082 A 
ATOM      7  C5  PXY d   1       0.106   0.724  -1.022  0.00  0.00     0.003 A 
ATOM      8  C6  PXY d   1       0.004   0.225  -2.318  0.00  0.00     0.003 A 
ENDROOT
TORSDOF 0
ENDMDL
