MODEL 1
REMARK minimizedAffinity -3.99909568
REMARK minimizedRMSD -1
REMARK  0 active torsions:
REMARK  status: ('A' for Active; 'I' for Inactive)
ROOT
ATOM      1  C4' PXY d   1       0.020   0.181   2.191  0.00  0.00     0.077 C 
ATOM      2  C1' PXY d   1       0.849  -0.673  -3.465  0.00  0.00     0.077 C 
ATOM      3  C1  PXY d   1       0.631  -0.462  -1.980  0.00  0.00    -0.082 A 
ATOM      4  C2  PXY d   1       0.089   0.667  -1.552  0.00  0.00     0.003 A 
ATOM      5  C3  PXY d   1      -0.086   0.887  -0.210  0.00  0.00     0.003 A 
ATOM      6  C4  PXY d   1       0.250  -0.079   0.700  0.00  0.00    -0.082 A 
ATOM      7  C5  PXY d   1       0.794  -1.237   0.271  0.00  0.00     0.003 A 
ATOM      8  C6  PXY d   1       1.001  -1.425  -1.093  0.00  0.00     0.003 A 
ENDROOT
TORSDOF 0
ENDMDL
