MODEL 1
REMARK minimizedAffinity -1.46097672
REMARK minimizedRMSD -1
REMARK  0 active torsions:
REMARK  status: ('A' for Active; 'I' for Inactive)
ROOT
ATOM      1  C4' PXY d   1       0.742  -1.857  -3.746  0.00  0.00     0.077 C 
ATOM      2  C1' PXY d   1       0.095   0.999   1.238  0.00  0.00     0.077 C 
ATOM      3  C1  PXY d   1       0.258   0.259  -0.076  0.00  0.00    -0.082 A 
ATOM      4  C2  PXY d   1       0.509  -1.040  -0.068  0.00  0.00     0.003 A 
ATOM      5  C3  PXY d   1       0.691  -1.718  -1.245  0.00  0.00     0.003 A 
ATOM      6  C4  PXY d   1       0.561  -1.071  -2.445  0.00  0.00    -0.082 A 
ATOM      7  C5  PXY d   1       0.294   0.252  -2.462  0.00  0.00     0.003 A 
ATOM      8  C6  PXY d   1       0.154   0.931  -1.254  0.00  0.00     0.003 A 
ENDROOT
TORSDOF 0
ENDMDL
