MODEL 1
REMARK minimizedAffinity -4.59616804
REMARK minimizedRMSD -1
REMARK  0 active torsions:
REMARK  status: ('A' for Active; 'I' for Inactive)
ROOT
ATOM      1  C4' PXY d   1       0.109  -0.037   2.374  0.00  0.00     0.077 C 
ATOM      2  C1' PXY d   1       1.135  -0.466  -3.298  0.00  0.00     0.077 C 
ATOM      3  C1  PXY d   1       0.873  -0.364  -1.809  0.00  0.00    -0.082 A 
ATOM      4  C2  PXY d   1      -0.206   0.268  -1.376  0.00  0.00     0.003 A 
ATOM      5  C3  PXY d   1      -0.441   0.398  -0.031  0.00  0.00     0.003 A 
ATOM      6  C4  PXY d   1       0.408  -0.172   0.879  0.00  0.00    -0.082 A 
ATOM      7  C5  PXY d   1       1.505  -0.828   0.445  0.00  0.00     0.003 A 
ATOM      8  C6  PXY d   1       1.748  -0.913  -0.923  0.00  0.00     0.003 A 
ENDROOT
TORSDOF 0
ENDMDL
