MODEL 1
REMARK minimizedAffinity 10.0582771
REMARK minimizedRMSD -1
REMARK  1 active torsions:
REMARK  status: ('A' for Active; 'I' for Inactive)
REMARK    1  A    between atoms: C1_2  and  C2_3 
ROOT
ATOM      1  C2  UNL d   1      -3.607  -3.996   1.322  0.00  0.00    -0.077 A 
ATOM      2  C3  UNL d   1      -4.521  -3.027   1.759  0.00  0.00     0.002 A 
ATOM      3  C4  UNL d   1      -4.340  -2.389   2.988  0.00  0.00     0.002 A 
ATOM      4  C5  UNL d   1      -3.244  -2.710   3.787  0.00  0.00    -0.004 A 
ATOM      5  C6  UNL d   1      -2.331  -3.674   3.361  0.00  0.00     0.002 A 
ATOM      6  C7  UNL d   1      -2.511  -4.313   2.134  0.00  0.00     0.002 A 
ENDROOT
BRANCH   1   7
ATOM      7  C1  UNL d   1      -3.774  -4.650  -0.025  0.00  0.00     0.055 C 
ATOM      8  C   UNL d   1      -3.069  -5.997  -0.078  0.00  0.00     0.019 C 
ENDBRANCH   1   7
TORSDOF 1
ENDMDL
