MODEL 1
REMARK minimizedAffinity 11.1637478
REMARK minimizedRMSD -1
REMARK  1 active torsions:
REMARK  status: ('A' for Active; 'I' for Inactive)
REMARK    1  A    between atoms: C1_2  and  C2_3 
ROOT
ATOM      1  C2  UNL d   1       3.714  -1.923  -0.132  0.00  0.00    -0.077 A 
ATOM      2  C3  UNL d   1       3.173  -1.195   0.938  0.00  0.00     0.002 A 
ATOM      3  C4  UNL d   1       2.107  -1.712   1.677  0.00  0.00     0.002 A 
ATOM      4  C5  UNL d   1       1.576  -2.960   1.357  0.00  0.00    -0.004 A 
ATOM      5  C6  UNL d   1       2.105  -3.690   0.294  0.00  0.00     0.002 A 
ATOM      6  C7  UNL d   1       3.170  -3.175  -0.446  0.00  0.00     0.002 A 
ENDROOT
BRANCH   1   7
ATOM      7  C1  UNL d   1       4.895  -1.389  -0.899  0.00  0.00     0.055 C 
ATOM      8  C   UNL d   1       4.453  -0.647  -2.151  0.00  0.00     0.019 C 
ENDBRANCH   1   7
TORSDOF 1
ENDMDL
