MODEL 1
REMARK minimizedAffinity 10.1800032
REMARK minimizedRMSD -1
REMARK  1 active torsions:
REMARK  status: ('A' for Active; 'I' for Inactive)
REMARK    1  A    between atoms: C1_2  and  C2_3 
ROOT
ATOM      1  C2  UNL d   1      -0.983   2.596  -1.301  0.00  0.00    -0.077 A 
ATOM      2  C3  UNL d   1      -2.036   2.612  -0.376  0.00  0.00     0.002 A 
ATOM      3  C4  UNL d   1      -3.360   2.681  -0.813  0.00  0.00     0.002 A 
ATOM      4  C5  UNL d   1      -3.643   2.730  -2.177  0.00  0.00    -0.004 A 
ATOM      5  C6  UNL d   1      -2.603   2.717  -3.105  0.00  0.00     0.002 A 
ATOM      6  C7  UNL d   1      -1.279   2.649  -2.669  0.00  0.00     0.002 A 
ENDROOT
BRANCH   1   7
ATOM      7  C1  UNL d   1       0.444   2.472  -0.833  0.00  0.00     0.055 C 
ATOM      8  C   UNL d   1       1.354   3.447  -1.566  0.00  0.00     0.019 C 
ENDBRANCH   1   7
TORSDOF 1
ENDMDL
