MODEL 1
REMARK minimizedAffinity 4.82278728
REMARK minimizedRMSD -1
REMARK  1 active torsions:
REMARK  status: ('A' for Active; 'I' for Inactive)
REMARK    1  A    between atoms: C1_2  and  C2_3 
ROOT
ATOM      1  C2  UNL d   1       1.801  -1.295   1.160  0.00  0.00    -0.077 A 
ATOM      2  C3  UNL d   1       2.350  -0.005   1.146  0.00  0.00     0.002 A 
ATOM      3  C4  UNL d   1       3.613   0.220   0.594  0.00  0.00     0.002 A 
ATOM      4  C5  UNL d   1       4.335  -0.840   0.048  0.00  0.00    -0.004 A 
ATOM      5  C6  UNL d   1       3.798  -2.127   0.060  0.00  0.00     0.002 A 
ATOM      6  C7  UNL d   1       2.537  -2.353   0.612  0.00  0.00     0.002 A 
ENDROOT
BRANCH   1   7
ATOM      7  C1  UNL d   1       0.419  -1.530   1.711  0.00  0.00     0.055 C 
ATOM      8  C   UNL d   1       0.201  -0.762   3.006  0.00  0.00     0.019 C 
ENDBRANCH   1   7
TORSDOF 1
ENDMDL
