MODEL 1
REMARK minimizedAffinity 3.68748665
REMARK minimizedRMSD -1
REMARK  1 active torsions:
REMARK  status: ('A' for Active; 'I' for Inactive)
REMARK    1  A    between atoms: C1_2  and  C2_3 
ROOT
ATOM      1  C2  UNL d   1       2.270  -4.968  -5.053  0.00  0.00    -0.077 A 
ATOM      2  C3  UNL d   1       1.234  -5.853  -5.385  0.00  0.00     0.002 A 
ATOM      3  C4  UNL d   1       0.131  -5.997  -4.541  0.00  0.00     0.002 A 
ATOM      4  C5  UNL d   1       0.052  -5.257  -3.363  0.00  0.00    -0.004 A 
ATOM      5  C6  UNL d   1       1.077  -4.376  -3.024  0.00  0.00     0.002 A 
ATOM      6  C7  UNL d   1       2.181  -4.231  -3.865  0.00  0.00     0.002 A 
ENDROOT
BRANCH   1   7
ATOM      7  C1  UNL d   1       3.436  -4.775  -5.986  0.00  0.00     0.055 C 
ATOM      8  C   UNL d   1       4.343  -5.997  -6.000  0.00  0.00     0.019 C 
ENDBRANCH   1   7
TORSDOF 1
ENDMDL
