MODEL 1
REMARK minimizedAffinity 2.98811412
REMARK minimizedRMSD -1
REMARK  1 active torsions:
REMARK  status: ('A' for Active; 'I' for Inactive)
REMARK    1  A    between atoms: C1_2  and  C2_3 
ROOT
ATOM      1  C2  UNL d   1       2.615  -5.634  -5.255  0.00  0.00    -0.077 A 
ATOM      2  C3  UNL d   1       2.624  -5.519  -3.858  0.00  0.00     0.002 A 
ATOM      3  C4  UNL d   1       1.447  -5.228  -3.166  0.00  0.00     0.002 A 
ATOM      4  C5  UNL d   1       0.252  -5.053  -3.861  0.00  0.00    -0.004 A 
ATOM      5  C6  UNL d   1       0.234  -5.163  -5.251  0.00  0.00     0.002 A 
ATOM      6  C7  UNL d   1       1.409  -5.453  -5.945  0.00  0.00     0.002 A 
ENDROOT
BRANCH   1   7
ATOM      7  C1  UNL d   1       3.874  -5.996  -5.999  0.00  0.00     0.055 C 
ATOM      8  C   UNL d   1       4.869  -4.845  -5.998  0.00  0.00     0.019 C 
ENDBRANCH   1   7
TORSDOF 1
ENDMDL
