MODEL 1
REMARK minimizedAffinity 8.90006733
REMARK minimizedRMSD -1
REMARK  1 active torsions:
REMARK  status: ('A' for Active; 'I' for Inactive)
REMARK    1  A    between atoms: C1_2  and  C2_3 
ROOT
ATOM      1  C2  UNL d   1       0.415  -0.679   3.537  0.00  0.00    -0.077 A 
ATOM      2  C3  UNL d   1      -0.907  -1.138   3.604  0.00  0.00     0.002 A 
ATOM      3  C4  UNL d   1      -1.569  -1.206   4.832  0.00  0.00     0.002 A 
ATOM      4  C5  UNL d   1      -0.919  -0.813   5.999  0.00  0.00    -0.004 A 
ATOM      5  C6  UNL d   1       0.398  -0.357   5.942  0.00  0.00     0.002 A 
ATOM      6  C7  UNL d   1       1.061  -0.289   4.717  0.00  0.00     0.002 A 
ENDROOT
BRANCH   1   7
ATOM      7  C1  UNL d   1       1.115  -0.558   2.208  0.00  0.00     0.055 C 
ATOM      8  C   UNL d   1       1.120  -1.884   1.462  0.00  0.00     0.019 C 
ENDBRANCH   1   7
TORSDOF 1
ENDMDL
