MODEL 1
REMARK minimizedAffinity 2.89459085
REMARK minimizedRMSD -1
REMARK  1 active torsions:
REMARK  status: ('A' for Active; 'I' for Inactive)
REMARK    1  A    between atoms: C1_2  and  C2_3 
ROOT
ATOM      1  C2  UNL d   1      -4.903  -4.711   1.318  0.00  0.00    -0.077 A 
ATOM      2  C3  UNL d   1      -4.450  -3.650   2.115  0.00  0.00     0.002 A 
ATOM      3  C4  UNL d   1      -4.456  -3.761   3.507  0.00  0.00     0.002 A 
ATOM      4  C5  UNL d   1      -4.909  -4.930   4.113  0.00  0.00    -0.004 A 
ATOM      5  C6  UNL d   1      -5.364  -5.990   3.329  0.00  0.00     0.002 A 
ATOM      6  C7  UNL d   1      -5.359  -5.881   1.937  0.00  0.00     0.002 A 
ENDROOT
BRANCH   1   7
ATOM      7  C1  UNL d   1      -4.851  -4.612  -0.184  0.00  0.00     0.055 C 
ATOM      8  C   UNL d   1      -5.010  -5.979  -0.834  0.00  0.00     0.019 C 
ENDBRANCH   1   7
TORSDOF 1
ENDMDL
