MODEL 1
REMARK minimizedAffinity 7.76624727
REMARK minimizedRMSD -1
REMARK  1 active torsions:
REMARK  status: ('A' for Active; 'I' for Inactive)
REMARK    1  A    between atoms: C1_2  and  C2_3 
ROOT
ATOM      1  C2  UNL d   1       5.050  -1.994  -3.540  0.00  0.00    -0.077 A 
ATOM      2  C3  UNL d   1       5.994  -3.000  -3.791  0.00  0.00     0.002 A 
ATOM      3  C4  UNL d   1       6.000  -3.672  -5.015  0.00  0.00     0.002 A 
ATOM      4  C5  UNL d   1       5.069  -3.344  -5.997  0.00  0.00    -0.004 A 
ATOM      5  C6  UNL d   1       4.125  -2.346  -5.756  0.00  0.00     0.002 A 
ATOM      6  C7  UNL d   1       4.116  -1.673  -4.534  0.00  0.00     0.002 A 
ENDROOT
BRANCH   1   7
ATOM      7  C1  UNL d   1       5.073  -1.233  -2.240  0.00  0.00     0.055 C 
ATOM      8  C   UNL d   1       5.994  -1.896  -1.227  0.00  0.00     0.019 C 
ENDBRANCH   1   7
TORSDOF 1
ENDMDL
