MODEL 1
REMARK minimizedAffinity -3.81963539
REMARK minimizedRMSD -1
REMARK  1 active torsions:
REMARK  status: ('A' for Active; 'I' for Inactive)
REMARK    1  A    between atoms: C1_2  and  C2_3 
ROOT
ATOM      1  C2  UNL d   1       1.149  -1.536   2.229  0.00  0.00    -0.077 A 
ATOM      2  C3  UNL d   1       0.547  -2.802   2.240  0.00  0.00     0.002 A 
ATOM      3  C4  UNL d   1       1.048  -3.830   1.438  0.00  0.00     0.002 A 
ATOM      4  C5  UNL d   1       2.155  -3.603   0.624  0.00  0.00    -0.004 A 
ATOM      5  C6  UNL d   1       2.760  -2.347   0.605  0.00  0.00     0.002 A 
ATOM      6  C7  UNL d   1       2.260  -1.318   1.405  0.00  0.00     0.002 A 
ENDROOT
BRANCH   1   7
ATOM      7  C1  UNL d   1       0.640  -0.442   3.130  0.00  0.00     0.055 C 
ATOM      8  C   UNL d   1       1.688  -0.037   4.157  0.00  0.00     0.019 C 
ENDBRANCH   1   7
TORSDOF 1
ENDMDL
