MODEL 1
REMARK minimizedAffinity 13.8904238
REMARK minimizedRMSD -1
REMARK  1 active torsions:
REMARK  status: ('A' for Active; 'I' for Inactive)
REMARK    1  A    between atoms: C1_2  and  C2_3 
ROOT
ATOM      1  C2  UNL d   1       3.491  -2.096  -0.029  0.00  0.00    -0.077 A 
ATOM      2  C3  UNL d   1       2.945  -1.183   0.884  0.00  0.00     0.002 A 
ATOM      3  C4  UNL d   1       1.706  -1.433   1.478  0.00  0.00     0.002 A 
ATOM      4  C5  UNL d   1       1.005  -2.597   1.169  0.00  0.00    -0.004 A 
ATOM      5  C6  UNL d   1       1.539  -3.510   0.260  0.00  0.00     0.002 A 
ATOM      6  C7  UNL d   1       2.776  -3.261  -0.335  0.00  0.00     0.002 A 
ENDROOT
BRANCH   1   7
ATOM      7  C1  UNL d   1       4.849  -1.852  -0.633  0.00  0.00     0.055 C 
ATOM      8  C   UNL d   1       4.742  -1.099  -1.951  0.00  0.00     0.019 C 
ENDBRANCH   1   7
TORSDOF 1
ENDMDL
