MODEL 1
REMARK minimizedAffinity 13.1971178
REMARK minimizedRMSD -1
REMARK  1 active torsions:
REMARK  status: ('A' for Active; 'I' for Inactive)
REMARK    1  A    between atoms: C1_2  and  C2_3 
ROOT
ATOM      1  C2  UNL d   1      -1.954   3.496  -3.438  0.00  0.00    -0.077 A 
ATOM      2  C3  UNL d   1      -3.272   3.213  -3.823  0.00  0.00     0.002 A 
ATOM      3  C4  UNL d   1      -3.754   3.640  -5.062  0.00  0.00     0.002 A 
ATOM      4  C5  UNL d   1      -2.923   4.347  -5.928  0.00  0.00    -0.004 A 
ATOM      5  C6  UNL d   1      -1.611   4.635  -5.555  0.00  0.00     0.002 A 
ATOM      6  C7  UNL d   1      -1.128   4.211  -4.316  0.00  0.00     0.002 A 
ENDROOT
BRANCH   1   7
ATOM      7  C1  UNL d   1      -1.418   2.995  -2.123  0.00  0.00     0.055 C 
ATOM      8  C   UNL d   1       0.103   3.019  -2.100  0.00  0.00     0.019 C 
ENDBRANCH   1   7
TORSDOF 1
ENDMDL
