MODEL 1
REMARK minimizedAffinity 9.33074856
REMARK minimizedRMSD -1
REMARK  1 active torsions:
REMARK  status: ('A' for Active; 'I' for Inactive)
REMARK    1  A    between atoms: C1_2  and  C2_3 
ROOT
ATOM      1  C2  UNL d   1       0.221   3.755  -1.082  0.00  0.00    -0.077 A 
ATOM      2  C3  UNL d   1       0.151   5.149  -1.223  0.00  0.00     0.002 A 
ATOM      3  C4  UNL d   1       0.761   5.985  -0.285  0.00  0.00     0.002 A 
ATOM      4  C5  UNL d   1       1.447   5.437   0.797  0.00  0.00    -0.004 A 
ATOM      5  C6  UNL d   1       1.520   4.053   0.947  0.00  0.00     0.002 A 
ATOM      6  C7  UNL d   1       0.911   3.216   0.011  0.00  0.00     0.002 A 
ENDROOT
BRANCH   1   7
ATOM      7  C1  UNL d   1      -0.394   2.852  -2.118  0.00  0.00     0.055 C 
ATOM      8  C   UNL d   1      -1.599   3.505  -2.778  0.00  0.00     0.019 C 
ENDBRANCH   1   7
TORSDOF 1
ENDMDL
