MODEL 1
REMARK minimizedAffinity -4.38710594
REMARK minimizedRMSD -1
REMARK  0 active torsions:
REMARK  status: ('A' for Active; 'I' for Inactive)
ROOT
ATOM      1  N1  IND d   1       0.633  -0.614   0.062  0.00  0.00    -0.196 N 
ATOM      2  C2  IND d   1      -0.728  -0.607  -0.065  0.00  0.00     0.054 A 
ATOM      3  C3  IND d   1      -1.301  -0.091   1.045  0.00  0.00    -0.031 A 
ATOM      4  C4  IND d   1      -0.195   0.896   3.149  0.00  0.00     0.051 A 
ATOM      5  C5  IND d   1       1.024   1.077   3.742  0.00  0.00    -0.031 A 
ATOM      6  C6  IND d   1       2.198   0.698   3.124  0.00  0.00     0.015 A 
ATOM      7  C7  IND d   1       2.199   0.133   1.881  0.00  0.00    -0.016 A 
ATOM      8  C8  IND d   1       0.963  -0.059   1.279  0.00  0.00    -0.047 A 
ATOM      9  C9  IND d   1      -0.235   0.284   1.919  0.00  0.00    -0.096 A 
ATOM     10  HN1 IND d   1       1.190  -0.914  -0.521  0.00  0.00     0.298 HD
ENDROOT
TORSDOF 0
ENDMDL
