MODEL 1
REMARK minimizedAffinity 14.2829618
REMARK minimizedRMSD -1
REMARK  0 active torsions:
REMARK  status: ('A' for Active; 'I' for Inactive)
ROOT
ATOM      1  N1  IND d   1      -1.517   0.379  -1.388  0.00  0.00    -0.196 N 
ATOM      2  C2  IND d   1      -0.554  -0.065  -2.251  0.00  0.00     0.054 A 
ATOM      3  C3  IND d   1       0.223  -0.994  -1.650  0.00  0.00    -0.031 A 
ATOM      4  C4  IND d   1       0.033  -2.007   0.709  0.00  0.00     0.051 A 
ATOM      5  C5  IND d   1      -0.665  -1.892   1.878  0.00  0.00    -0.031 A 
ATOM      6  C6  IND d   1      -1.706  -0.997   2.020  0.00  0.00     0.015 A 
ATOM      7  C7  IND d   1      -2.097  -0.189   0.990  0.00  0.00    -0.016 A 
ATOM      8  C8  IND d   1      -1.385  -0.299  -0.197  0.00  0.00    -0.047 A 
ATOM      9  C9  IND d   1      -0.300  -1.174  -0.333  0.00  0.00    -0.096 A 
ATOM     10  HN1 IND d   1      -2.106   0.982  -1.561  0.00  0.00     0.298 HD
ENDROOT
TORSDOF 0
ENDMDL
