MODEL 1
REMARK minimizedAffinity 1.22030199
REMARK minimizedRMSD -1
REMARK  0 active torsions:
REMARK  status: ('A' for Active; 'I' for Inactive)
ROOT
ATOM      1  N1  IND d   1       4.594   5.135   3.692  0.00  0.00    -0.196 N 
ATOM      2  C2  IND d   1       5.363   5.999   4.421  0.00  0.00     0.054 A 
ATOM      3  C3  IND d   1       5.984   5.343   5.426  0.00  0.00    -0.031 A 
ATOM      4  C4  IND d   1       5.963   2.833   6.000  0.00  0.00     0.051 A 
ATOM      5  C5  IND d   1       5.377   1.652   5.642  0.00  0.00    -0.031 A 
ATOM      6  C6  IND d   1       4.485   1.568   4.593  0.00  0.00     0.015 A 
ATOM      7  C7  IND d   1       4.152   2.667   3.852  0.00  0.00    -0.016 A 
ATOM      8  C8  IND d   1       4.739   3.870   4.217  0.00  0.00    -0.047 A 
ATOM      9  C9  IND d   1       5.613   3.969   5.307  0.00  0.00    -0.096 A 
ATOM     10  HN1 IND d   1       4.103   5.347   3.019  0.00  0.00     0.298 HD
ENDROOT
TORSDOF 0
ENDMDL
