MODEL 1
REMARK minimizedAffinity -3.54799485
REMARK minimizedRMSD -1
REMARK  0 active torsions:
REMARK  status: ('A' for Active; 'I' for Inactive)
ROOT
ATOM      1  N1  IND d   1      -4.494   3.273  -5.926  0.00  0.00    -0.196 N 
ATOM      2  C2  IND d   1      -3.136   3.126  -6.000  0.00  0.00     0.054 A 
ATOM      3  C3  IND d   1      -2.527   3.923  -5.094  0.00  0.00    -0.031 A 
ATOM      4  C4  IND d   1      -3.564   5.474  -3.321  0.00  0.00     0.051 A 
ATOM      5  C5  IND d   1      -4.764   5.969  -2.891  0.00  0.00    -0.031 A 
ATOM      6  C6  IND d   1      -5.959   5.580  -3.461  0.00  0.00     0.015 A 
ATOM      7  C7  IND d   1      -6.000   4.669  -4.479  0.00  0.00    -0.016 A 
ATOM      8  C8  IND d   1      -4.783   4.170  -4.922  0.00  0.00    -0.047 A 
ATOM      9  C9  IND d   1      -3.564   4.593  -4.376  0.00  0.00    -0.096 A 
ATOM     10  HN1 IND d   1      -5.069   2.872  -6.423  0.00  0.00     0.298 HD
ENDROOT
TORSDOF 0
ENDMDL
