MODEL 1
REMARK minimizedAffinity 13.8220158
REMARK minimizedRMSD -1
REMARK  0 active torsions:
REMARK  status: ('A' for Active; 'I' for Inactive)
ROOT
ATOM      1  N1  IND d   1      -5.645   4.035   5.864  0.00  0.00    -0.196 N 
ATOM      2  C2  IND d   1      -5.993   5.350   6.000  0.00  0.00     0.054 A 
ATOM      3  C3  IND d   1      -5.948   5.975   4.802  0.00  0.00    -0.031 A 
ATOM      4  C4  IND d   1      -5.428   5.011   2.472  0.00  0.00     0.051 A 
ATOM      5  C5  IND d   1      -5.018   3.867   1.847  0.00  0.00    -0.031 A 
ATOM      6  C6  IND d   1      -4.794   2.696   2.543  0.00  0.00     0.015 A 
ATOM      7  C7  IND d   1      -4.984   2.623   3.894  0.00  0.00    -0.016 A 
ATOM      8  C8  IND d   1      -5.393   3.784   4.533  0.00  0.00    -0.047 A 
ATOM      9  C9  IND d   1      -5.581   4.986   3.839  0.00  0.00    -0.096 A 
ATOM     10  HN1 IND d   1      -5.592   3.462   6.502  0.00  0.00     0.298 HD
ENDROOT
TORSDOF 0
ENDMDL
