MODEL 1
REMARK minimizedAffinity 11.3026695
REMARK minimizedRMSD -1
REMARK  0 active torsions:
REMARK  status: ('A' for Active; 'I' for Inactive)
ROOT
ATOM      1  N1  IND d   1      -3.074  -2.757   2.782  0.00  0.00    -0.196 N 
ATOM      2  C2  IND d   1      -2.483  -3.986   2.680  0.00  0.00     0.054 A 
ATOM      3  C3  IND d   1      -1.619  -4.007   1.640  0.00  0.00    -0.031 A 
ATOM      4  C4  IND d   1      -0.944  -2.111   0.036  0.00  0.00     0.051 A 
ATOM      5  C5  IND d   1      -1.242  -0.817  -0.289  0.00  0.00    -0.031 A 
ATOM      6  C6  IND d   1      -2.183  -0.088   0.410  0.00  0.00     0.015 A 
ATOM      7  C7  IND d   1      -2.856  -0.625   1.471  0.00  0.00    -0.016 A 
ATOM      8  C8  IND d   1      -2.561  -1.941   1.798  0.00  0.00    -0.047 A 
ATOM      9  C9  IND d   1      -1.638  -2.699   1.067  0.00  0.00    -0.096 A 
ATOM     10  HN1 IND d   1      -3.667  -2.533   3.363  0.00  0.00     0.298 HD
ENDROOT
TORSDOF 0
ENDMDL
