MODEL 1
REMARK minimizedAffinity 18.0059814
REMARK minimizedRMSD -1
REMARK  0 active torsions:
REMARK  status: ('A' for Active; 'I' for Inactive)
ROOT
ATOM      1  N1  IND d   1      -0.353  -4.449   2.541  0.00  0.00    -0.196 N 
ATOM      2  C2  IND d   1      -1.514  -5.163   2.639  0.00  0.00     0.054 A 
ATOM      3  C3  IND d   1      -2.536  -4.479   2.077  0.00  0.00    -0.031 A 
ATOM      4  C4  IND d   1      -2.510  -2.217   0.848  0.00  0.00     0.051 A 
ATOM      5  C5  IND d   1      -1.688  -1.170   0.535  0.00  0.00    -0.031 A 
ATOM      6  C6  IND d   1      -0.352  -1.164   0.880  0.00  0.00     0.015 A 
ATOM      7  C7  IND d   1       0.218  -2.214   1.543  0.00  0.00    -0.016 A 
ATOM      8  C8  IND d   1      -0.615  -3.275   1.868  0.00  0.00    -0.047 A 
ATOM      9  C9  IND d   1      -1.981  -3.269   1.558  0.00  0.00    -0.096 A 
ATOM     10  HN1 IND d   1       0.413  -4.691   2.848  0.00  0.00     0.298 HD
ENDROOT
TORSDOF 0
ENDMDL
