MODEL 1
REMARK minimizedAffinity 4.04018307
REMARK minimizedRMSD -1
REMARK  0 active torsions:
REMARK  status: ('A' for Active; 'I' for Inactive)
ROOT
ATOM      1  N1  IND d   1      -5.822   4.735   5.947  0.00  0.00    -0.196 N 
ATOM      2  C2  IND d   1      -5.303   5.999   6.000  0.00  0.00     0.054 A 
ATOM      3  C3  IND d   1      -3.953   5.955   5.959  0.00  0.00    -0.031 A 
ATOM      4  C4  IND d   1      -2.389   3.926   5.702  0.00  0.00     0.051 A 
ATOM      5  C5  IND d   1      -2.395   2.561   5.651  0.00  0.00    -0.031 A 
ATOM      6  C6  IND d   1      -3.568   1.835   5.694  0.00  0.00     0.015 A 
ATOM      7  C7  IND d   1      -4.785   2.452   5.779  0.00  0.00    -0.016 A 
ATOM      8  C8  IND d   1      -4.781   3.838   5.838  0.00  0.00    -0.047 A 
ATOM      9  C9  IND d   1      -3.592   4.578   5.837  0.00  0.00    -0.096 A 
ATOM     10  HN1 IND d   1      -6.657   4.533   5.977  0.00  0.00     0.298 HD
ENDROOT
TORSDOF 0
ENDMDL
