MODEL 1
REMARK minimizedAffinity 11.5665102
REMARK minimizedRMSD -1
REMARK  0 active torsions:
REMARK  status: ('A' for Active; 'I' for Inactive)
ROOT
ATOM      1  N1  IND d   1       5.040   3.202  -2.523  0.00  0.00    -0.196 N 
ATOM      2  C2  IND d   1       5.994   2.266  -2.237  0.00  0.00     0.054 A 
ATOM      3  C3  IND d   1       5.999   1.989  -0.914  0.00  0.00    -0.031 A 
ATOM      4  C4  IND d   1       4.462   2.878   0.949  0.00  0.00     0.051 A 
ATOM      5  C5  IND d   1       3.462   3.780   1.182  0.00  0.00    -0.031 A 
ATOM      6  C6  IND d   1       2.924   4.550   0.170  0.00  0.00     0.015 A 
ATOM      7  C7  IND d   1       3.361   4.436  -1.119  0.00  0.00    -0.016 A 
ATOM      8  C8  IND d   1       4.381   3.526  -1.358  0.00  0.00    -0.047 A 
ATOM      9  C9  IND d   1       4.960   2.774  -0.328  0.00  0.00    -0.096 A 
ATOM     10  HN1 IND d   1       4.879   3.533  -3.300  0.00  0.00     0.298 HD
ENDROOT
TORSDOF 0
ENDMDL
