MODEL 1
REMARK minimizedAffinity 6.90791845
REMARK minimizedRMSD -1
REMARK  0 active torsions:
REMARK  status: ('A' for Active; 'I' for Inactive)
ROOT
ATOM      1  N1  IND d   1      -2.620  -1.906   5.289  0.00  0.00    -0.196 N 
ATOM      2  C2  IND d   1      -3.275  -2.905   5.953  0.00  0.00     0.054 A 
ATOM      3  C3  IND d   1      -3.207  -4.059   5.253  0.00  0.00    -0.031 A 
ATOM      4  C4  IND d   1      -1.984  -4.561   3.043  0.00  0.00     0.051 A 
ATOM      5  C5  IND d   1      -1.277  -3.957   2.042  0.00  0.00    -0.031 A 
ATOM      6  C6  IND d   1      -0.973  -2.611   2.074  0.00  0.00     0.015 A 
ATOM      7  C7  IND d   1      -1.357  -1.819   3.118  0.00  0.00    -0.016 A 
ATOM      8  C8  IND d   1      -2.081  -2.428   4.133  0.00  0.00    -0.047 A 
ATOM      9  C9  IND d   1      -2.429  -3.784   4.086  0.00  0.00    -0.096 A 
ATOM     10  HN1 IND d   1      -2.556  -1.089   5.549  0.00  0.00     0.298 HD
ENDROOT
TORSDOF 0
ENDMDL
