MODEL 1
REMARK minimizedAffinity 1.04500496
REMARK minimizedRMSD -1
REMARK  0 active torsions:
REMARK  status: ('A' for Active; 'I' for Inactive)
ROOT
ATOM      1  N1  IND d   1      -4.076   4.815   5.775  0.00  0.00    -0.196 N 
ATOM      2  C2  IND d   1      -5.420   4.672   5.980  0.00  0.00     0.054 A 
ATOM      3  C3  IND d   1      -5.998   4.074   4.914  0.00  0.00    -0.031 A 
ATOM      4  C4  IND d   1      -4.913   3.153   2.769  0.00  0.00     0.051 A 
ATOM      5  C5  IND d   1      -3.717   3.083   2.111  0.00  0.00    -0.031 A 
ATOM      6  C6  IND d   1      -2.556   3.595   2.653  0.00  0.00     0.015 A 
ATOM      7  C7  IND d   1      -2.545   4.188   3.884  0.00  0.00    -0.016 A 
ATOM      8  C8  IND d   1      -3.759   4.267   4.552  0.00  0.00    -0.047 A 
ATOM      9  C9  IND d   1      -4.948   3.788   3.988  0.00  0.00    -0.096 A 
ATOM     10  HN1 IND d   1      -3.522   5.184   6.319  0.00  0.00     0.298 HD
ENDROOT
TORSDOF 0
ENDMDL
