MODEL 1
REMARK minimizedAffinity 12.4441309
REMARK minimizedRMSD -1
REMARK  0 active torsions:
REMARK  status: ('A' for Active; 'I' for Inactive)
ROOT
ATOM      1  N1  IND d   1      -0.557  -2.852  -1.645  0.00  0.00    -0.196 N 
ATOM      2  C2  IND d   1      -0.895  -1.829  -2.486  0.00  0.00     0.054 A 
ATOM      3  C3  IND d   1      -1.265  -0.740  -1.776  0.00  0.00    -0.031 A 
ATOM      4  C4  IND d   1      -1.292  -0.381   0.773  0.00  0.00     0.051 A 
ATOM      5  C5  IND d   1      -1.101  -1.039   1.956  0.00  0.00    -0.031 A 
ATOM      6  C6  IND d   1      -0.709  -2.362   1.999  0.00  0.00     0.015 A 
ATOM      7  C7  IND d   1      -0.481  -3.075   0.856  0.00  0.00    -0.016 A 
ATOM      8  C8  IND d   1      -0.680  -2.412  -0.346  0.00  0.00    -0.047 A 
ATOM      9  C9  IND d   1      -1.119  -1.082  -0.397  0.00  0.00    -0.096 A 
ATOM     10  HN1 IND d   1      -0.309  -3.639  -1.887  0.00  0.00     0.298 HD
ENDROOT
TORSDOF 0
ENDMDL
