MODEL 1
REMARK minimizedAffinity -0.437744826
REMARK minimizedRMSD -1
REMARK  0 active torsions:
REMARK  status: ('A' for Active; 'I' for Inactive)
ROOT
ATOM      1  N1  IND d   1      -3.045   4.150  -5.998  0.00  0.00    -0.196 N 
ATOM      2  C2  IND d   1      -2.152   3.625  -5.106  0.00  0.00     0.054 A 
ATOM      3  C3  IND d   1      -2.530   3.910  -3.839  0.00  0.00    -0.031 A 
ATOM      4  C4  IND d   1      -4.630   5.136  -2.996  0.00  0.00     0.051 A 
ATOM      5  C5  IND d   1      -5.723   5.829  -3.436  0.00  0.00    -0.031 A 
ATOM      6  C6  IND d   1      -5.985   5.999  -4.780  0.00  0.00     0.015 A 
ATOM      7  C7  IND d   1      -5.168   5.470  -5.738  0.00  0.00    -0.016 A 
ATOM      8  C8  IND d   1      -4.054   4.772  -5.294  0.00  0.00    -0.047 A 
ATOM      9  C9  IND d   1      -3.759   4.632  -3.932  0.00  0.00    -0.096 A 
ATOM     10  HN1 IND d   1      -2.987   4.100  -6.854  0.00  0.00     0.298 HD
ENDROOT
TORSDOF 0
ENDMDL
