MODEL 1
REMARK minimizedAffinity 6.75971079
REMARK minimizedRMSD -1
REMARK  0 active torsions:
REMARK  status: ('A' for Active; 'I' for Inactive)
ROOT
ATOM      1  N1  IND d   1      -1.682   1.928  -5.003  0.00  0.00    -0.196 N 
ATOM      2  C2  IND d   1      -0.777   2.829  -5.491  0.00  0.00     0.054 A 
ATOM      3  C3  IND d   1       0.384   2.750  -4.804  0.00  0.00    -0.031 A 
ATOM      4  C4  IND d   1       1.055   1.144  -2.906  0.00  0.00     0.051 A 
ATOM      5  C5  IND d   1       0.552   0.167  -2.094  0.00  0.00    -0.031 A 
ATOM      6  C6  IND d   1      -0.746  -0.285  -2.214  0.00  0.00     0.015 A 
ATOM      7  C7  IND d   1      -1.591   0.219  -3.163  0.00  0.00    -0.016 A 
ATOM      8  C8  IND d   1      -1.086   1.216  -3.985  0.00  0.00    -0.047 A 
ATOM      9  C9  IND d   1       0.218   1.709  -3.840  0.00  0.00    -0.096 A 
ATOM     10  HN1 IND d   1      -2.487   1.823  -5.285  0.00  0.00     0.298 HD
ENDROOT
TORSDOF 0
ENDMDL
