MODEL 1
REMARK minimizedAffinity 11.1566706
REMARK minimizedRMSD -1
REMARK  0 active torsions:
REMARK  status: ('A' for Active; 'I' for Inactive)
ROOT
ATOM      1  N1  IND d   1       5.995   5.989   4.972  0.00  0.00    -0.196 N 
ATOM      2  C2  IND d   1       5.364   5.314   5.979  0.00  0.00     0.054 A 
ATOM      3  C3  IND d   1       4.590   4.328   5.472  0.00  0.00    -0.031 A 
ATOM      4  C4  IND d   1       4.289   3.578   3.028  0.00  0.00     0.051 A 
ATOM      5  C5  IND d   1       4.632   3.914   1.748  0.00  0.00    -0.031 A 
ATOM      6  C6  IND d   1       5.467   4.978   1.472  0.00  0.00     0.015 A 
ATOM      7  C7  IND d   1       6.000   5.742   2.471  0.00  0.00    -0.016 A 
ATOM      8  C8  IND d   1       5.648   5.409   3.771  0.00  0.00    -0.047 A 
ATOM      9  C9  IND d   1       4.768   4.357   4.055  0.00  0.00    -0.096 A 
ATOM     10  HN1 IND d   1       6.520   6.662   5.071  0.00  0.00     0.298 HD
ENDROOT
TORSDOF 0
ENDMDL
