MODEL 1
REMARK minimizedAffinity 1.97224021
REMARK minimizedRMSD -1
REMARK  0 active torsions:
REMARK  status: ('A' for Active; 'I' for Inactive)
ROOT
ATOM      1  N1  IND d   1       0.173  -0.328   1.761  0.00  0.00    -0.196 N 
ATOM      2  C2  IND d   1       0.308   1.012   1.524  0.00  0.00     0.054 A 
ATOM      3  C3  IND d   1      -0.057   1.304   0.255  0.00  0.00    -0.031 A 
ATOM      4  C4  IND d   1      -1.001  -0.243  -1.573  0.00  0.00     0.051 A 
ATOM      5  C5  IND d   1      -1.270  -1.556  -1.839  0.00  0.00    -0.031 A 
ATOM      6  C6  IND d   1      -1.071  -2.546  -0.900  0.00  0.00     0.015 A 
ATOM      7  C7  IND d   1      -0.603  -2.258   0.351  0.00  0.00    -0.016 A 
ATOM      8  C8  IND d   1      -0.322  -0.926   0.623  0.00  0.00    -0.047 A 
ATOM      9  C9  IND d   1      -0.482   0.078  -0.341  0.00  0.00    -0.096 A 
ATOM     10  HN1 IND d   1       0.366  -0.729   2.496  0.00  0.00     0.298 HD
ENDROOT
TORSDOF 0
ENDMDL
