MODEL 1
REMARK minimizedAffinity 11.0801754
REMARK minimizedRMSD -1
REMARK  0 active torsions:
REMARK  status: ('A' for Active; 'I' for Inactive)
ROOT
ATOM      1  N1  IND d   1      -4.128   2.255  -4.130  0.00  0.00    -0.196 N 
ATOM      2  C2  IND d   1      -5.181   3.067  -3.814  0.00  0.00     0.054 A 
ATOM      3  C3  IND d   1      -6.000   2.453  -2.930  0.00  0.00    -0.031 A 
ATOM      4  C4  IND d   1      -5.750   0.158  -1.791  0.00  0.00     0.051 A 
ATOM      5  C5  IND d   1      -4.969  -0.963  -1.787  0.00  0.00    -0.031 A 
ATOM      6  C6  IND d   1      -3.844  -1.071  -2.578  0.00  0.00     0.015 A 
ATOM      7  C7  IND d   1      -3.449  -0.051  -3.397  0.00  0.00    -0.016 A 
ATOM      8  C8  IND d   1      -4.244   1.087  -3.409  0.00  0.00    -0.047 A 
ATOM      9  C9  IND d   1      -5.411   1.184  -2.640  0.00  0.00    -0.096 A 
ATOM     10  HN1 IND d   1      -3.499   2.443  -4.685  0.00  0.00     0.298 HD
ENDROOT
TORSDOF 0
ENDMDL
