MODEL 1
REMARK minimizedAffinity 3.046206
REMARK minimizedRMSD -1
REMARK  0 active torsions:
REMARK  status: ('A' for Active; 'I' for Inactive)
ROOT
ATOM      1  N1  IND d   1       2.248  -5.962  -4.720  0.00  0.00    -0.196 N 
ATOM      2  C2  IND d   1       2.738  -5.999  -5.995  0.00  0.00     0.054 A 
ATOM      3  C3  IND d   1       4.059  -5.711  -6.000  0.00  0.00    -0.031 A 
ATOM      4  C4  IND d   1       5.639  -5.246  -4.021  0.00  0.00     0.051 A 
ATOM      5  C5  IND d   1       5.645  -5.069  -2.666  0.00  0.00    -0.031 A 
ATOM      6  C6  IND d   1       4.496  -5.185  -1.910  0.00  0.00     0.015 A 
ATOM      7  C7  IND d   1       3.295  -5.495  -2.483  0.00  0.00    -0.016 A 
ATOM      8  C8  IND d   1       3.284  -5.669  -3.860  0.00  0.00    -0.047 A 
ATOM      9  C9  IND d   1       4.439  -5.511  -4.637  0.00  0.00    -0.096 A 
ATOM     10  HN1 IND d   1       1.430  -6.098  -4.492  0.00  0.00     0.298 HD
ENDROOT
TORSDOF 0
ENDMDL
