MODEL 1
REMARK minimizedAffinity 2.2680285
REMARK minimizedRMSD -1
REMARK  0 active torsions:
REMARK  status: ('A' for Active; 'I' for Inactive)
ROOT
ATOM      1  N1  IND d   1       1.301  -1.249   4.170  0.00  0.00    -0.196 N 
ATOM      2  C2  IND d   1       2.066  -0.724   3.165  0.00  0.00     0.054 A 
ATOM      3  C3  IND d   1       2.611  -1.715   2.423  0.00  0.00    -0.031 A 
ATOM      4  C4  IND d   1       2.299  -4.263   2.615  0.00  0.00     0.051 A 
ATOM      5  C5  IND d   1       1.721  -5.221   3.400  0.00  0.00    -0.031 A 
ATOM      6  C6  IND d   1       0.956  -4.898   4.502  0.00  0.00     0.015 A 
ATOM      7  C7  IND d   1       0.730  -3.598   4.855  0.00  0.00    -0.016 A 
ATOM      8  C8  IND d   1       1.321  -2.622   4.065  0.00  0.00    -0.047 A 
ATOM      9  C9  IND d   1       2.134  -2.945   2.970  0.00  0.00    -0.096 A 
ATOM     10  HN1 IND d   1       0.879  -0.796   4.767  0.00  0.00     0.298 HD
ENDROOT
TORSDOF 0
ENDMDL
