MODEL 1
REMARK minimizedAffinity 1.98882413
REMARK minimizedRMSD -1
REMARK  0 active torsions:
REMARK  status: ('A' for Active; 'I' for Inactive)
ROOT
ATOM      1  N1  IND d   1       1.043  -1.395   4.184  0.00  0.00    -0.196 N 
ATOM      2  C2  IND d   1       1.354  -2.511   3.458  0.00  0.00     0.054 A 
ATOM      3  C3  IND d   1       2.098  -2.179   2.380  0.00  0.00    -0.031 A 
ATOM      4  C4  IND d   1       3.008   0.121   1.666  0.00  0.00     0.051 A 
ATOM      5  C5  IND d   1       2.958   1.447   1.992  0.00  0.00    -0.031 A 
ATOM      6  C6  IND d   1       2.256   1.903   3.089  0.00  0.00     0.015 A 
ATOM      7  C7  IND d   1       1.583   1.044   3.911  0.00  0.00    -0.016 A 
ATOM      8  C8  IND d   1       1.625  -0.303   3.579  0.00  0.00    -0.047 A 
ATOM      9  C9  IND d   1       2.301  -0.766   2.443  0.00  0.00    -0.096 A 
ATOM     10  HN1 IND d   1       0.564  -1.378   4.898  0.00  0.00     0.298 HD
ENDROOT
TORSDOF 0
ENDMDL
