MODEL 1
REMARK minimizedAffinity 1.37758422
REMARK minimizedRMSD -1
REMARK  0 active torsions:
REMARK  status: ('A' for Active; 'I' for Inactive)
ROOT
ATOM      1  N1  IND d   1       4.045  -5.989  -5.772  0.00  0.00    -0.196 N 
ATOM      2  C2  IND d   1       5.411  -5.960  -5.746  0.00  0.00     0.054 A 
ATOM      3  C3  IND d   1       5.856  -5.921  -4.470  0.00  0.00    -0.031 A 
ATOM      4  C4  IND d   1       4.522  -5.998  -2.269  0.00  0.00     0.051 A 
ATOM      5  C5  IND d   1       3.245  -5.990  -1.783  0.00  0.00    -0.031 A 
ATOM      6  C6  IND d   1       2.147  -5.984  -2.619  0.00  0.00     0.015 A 
ATOM      7  C7  IND d   1       2.286  -5.998  -3.978  0.00  0.00    -0.016 A 
ATOM      8  C8  IND d   1       3.581  -5.998  -4.475  0.00  0.00    -0.047 A 
ATOM      9  C9  IND d   1       4.699  -5.961  -3.632  0.00  0.00    -0.096 A 
ATOM     10  HN1 IND d   1       3.557  -6.000  -6.480  0.00  0.00     0.298 HD
ENDROOT
TORSDOF 0
ENDMDL
