MODEL 1
REMARK minimizedAffinity 13.5800428
REMARK minimizedRMSD -1
REMARK  0 active torsions:
REMARK  status: ('A' for Active; 'I' for Inactive)
ROOT
ATOM      1  N1  IND d   1       4.429  -2.521  -3.019  0.00  0.00    -0.196 N 
ATOM      2  C2  IND d   1       3.518  -1.635  -2.515  0.00  0.00     0.054 A 
ATOM      3  C3  IND d   1       2.726  -2.242  -1.603  0.00  0.00    -0.031 A 
ATOM      4  C4  IND d   1       2.813  -4.655  -0.710  0.00  0.00     0.051 A 
ATOM      5  C5  IND d   1       3.449  -5.850  -0.895  0.00  0.00    -0.031 A 
ATOM      6  C6  IND d   1       4.467  -5.999  -1.815  0.00  0.00     0.015 A 
ATOM      7  C7  IND d   1       4.896  -4.951  -2.579  0.00  0.00    -0.016 A 
ATOM      8  C8  IND d   1       4.247  -3.737  -2.398  0.00  0.00    -0.047 A 
ATOM      9  C9  IND d   1       3.185  -3.591  -1.496  0.00  0.00    -0.096 A 
ATOM     10  HN1 IND d   1       5.016  -2.348  -3.623  0.00  0.00     0.298 HD
ENDROOT
TORSDOF 0
ENDMDL
