MODEL 1
REMARK minimizedAffinity 12.4408531
REMARK minimizedRMSD -1
REMARK  0 active torsions:
REMARK  status: ('A' for Active; 'I' for Inactive)
ROOT
ATOM      1  N1  IND d   1      -5.960   3.882  -2.597  0.00  0.00    -0.196 N 
ATOM      2  C2  IND d   1      -5.999   2.638  -3.162  0.00  0.00     0.054 A 
ATOM      3  C3  IND d   1      -5.952   1.685  -2.204  0.00  0.00    -0.031 A 
ATOM      4  C4  IND d   1      -5.910   1.941   0.357  0.00  0.00     0.051 A 
ATOM      5  C5  IND d   1      -5.826   2.883   1.344  0.00  0.00    -0.031 A 
ATOM      6  C6  IND d   1      -5.785   4.233   1.062  0.00  0.00     0.015 A 
ATOM      7  C7  IND d   1      -5.837   4.694  -0.223  0.00  0.00    -0.016 A 
ATOM      8  C8  IND d   1      -5.915   3.741  -1.228  0.00  0.00    -0.047 A 
ATOM      9  C9  IND d   1      -5.914   2.368  -0.950  0.00  0.00    -0.096 A 
ATOM     10  HN1 IND d   1      -5.962   4.628  -3.026  0.00  0.00     0.298 HD
ENDROOT
TORSDOF 0
ENDMDL
