MODEL 1
REMARK minimizedAffinity 5.86610794
REMARK minimizedRMSD -1
REMARK  0 active torsions:
REMARK  status: ('A' for Active; 'I' for Inactive)
ROOT
ATOM      1  N1  IND d   1       4.810  -5.966  -2.686  0.00  0.00    -0.196 N 
ATOM      2  C2  IND d   1       4.044  -5.935  -1.554  0.00  0.00     0.054 A 
ATOM      3  C3  IND d   1       2.731  -5.904  -1.875  0.00  0.00    -0.031 A 
ATOM      4  C4  IND d   1       1.611  -5.999  -4.191  0.00  0.00     0.051 A 
ATOM      5  C5  IND d   1       1.898  -5.998  -5.527  0.00  0.00    -0.031 A 
ATOM      6  C6  IND d   1       3.196  -5.988  -5.994  0.00  0.00     0.015 A 
ATOM      7  C7  IND d   1       4.261  -5.991  -5.139  0.00  0.00    -0.016 A 
ATOM      8  C8  IND d   1       3.973  -5.986  -3.781  0.00  0.00    -0.047 A 
ATOM      9  C9  IND d   1       2.658  -5.953  -3.301  0.00  0.00    -0.096 A 
ATOM     10  HN1 IND d   1       5.669  -5.972  -2.711  0.00  0.00     0.298 HD
ENDROOT
TORSDOF 0
ENDMDL
