MODEL 1
REMARK minimizedAffinity 5.96452284
REMARK minimizedRMSD -1
REMARK  0 active torsions:
REMARK  status: ('A' for Active; 'I' for Inactive)
ROOT
ATOM      1  N1  IND d   1       0.706  -1.405   2.701  0.00  0.00    -0.196 N 
ATOM      2  C2  IND d   1       1.395  -0.278   2.348  0.00  0.00     0.054 A 
ATOM      3  C3  IND d   1       2.726  -0.485   2.461  0.00  0.00    -0.031 A 
ATOM      4  C4  IND d   1       3.998  -2.628   3.108  0.00  0.00     0.051 A 
ATOM      5  C5  IND d   1       3.800  -3.906   3.551  0.00  0.00    -0.031 A 
ATOM      6  C6  IND d   1       2.536  -4.427   3.734  0.00  0.00     0.015 A 
ATOM      7  C7  IND d   1       1.416  -3.690   3.469  0.00  0.00    -0.016 A 
ATOM      8  C8  IND d   1       1.613  -2.389   3.026  0.00  0.00    -0.047 A 
ATOM      9  C9  IND d   1       2.894  -1.841   2.879  0.00  0.00    -0.096 A 
ATOM     10  HN1 IND d   1      -0.150  -1.485   2.717  0.00  0.00     0.298 HD
ENDROOT
TORSDOF 0
ENDMDL
