MODEL 1
REMARK minimizedAffinity -2.70338011
REMARK minimizedRMSD -1
REMARK  1 active torsions:
REMARK  status: ('A' for Active; 'I' for Inactive)
REMARK    1  A    between atoms: C1_2  and  C2_3 
ROOT
ATOM      1  C2  UNL d   1       0.473  -0.731  -2.591  0.00  0.00    -0.073 A 
ATOM      2  C3  UNL d   1       1.073   0.385  -3.185  0.00  0.00    -0.002 A 
ATOM      3  C4  UNL d   1       0.829   0.687  -4.526  0.00  0.00     0.004 A 
ATOM      4  C5  UNL d   1      -0.021  -0.118  -5.283  0.00  0.00    -0.004 A 
ATOM      5  C6  UNL d   1      -0.640  -1.231  -4.704  0.00  0.00    -0.075 A 
ATOM      6  C7  UNL d   1      -1.556  -2.109  -5.506  0.00  0.00     0.076 C 
ATOM      7  C8  UNL d   1      -0.388  -1.529  -3.358  0.00  0.00     0.001 A 
ENDROOT
BRANCH   1   8
ATOM      8  C1  UNL d   1       0.728  -1.057  -1.143  0.00  0.00     0.053 C 
ATOM      9  C   UNL d   1      -0.044  -0.140  -0.207  0.00  0.00     0.018 C 
ENDBRANCH   1   8
TORSDOF 1
ENDMDL
