MODEL 1
REMARK minimizedAffinity -5.00664759
REMARK minimizedRMSD -1
REMARK  1 active torsions:
REMARK  status: ('A' for Active; 'I' for Inactive)
REMARK    1  A    between atoms: C1_2  and  C2_3 
ROOT
ATOM      1  C2  UNL d   1       0.772  -0.595  -0.689  0.00  0.00    -0.073 A 
ATOM      2  C3  UNL d   1       1.937  -1.243  -0.263  0.00  0.00    -0.002 A 
ATOM      3  C4  UNL d   1       2.422  -1.045   1.030  0.00  0.00     0.004 A 
ATOM      4  C5  UNL d   1       1.745  -0.204   1.913  0.00  0.00    -0.004 A 
ATOM      5  C6  UNL d   1       0.572   0.444   1.510  0.00  0.00    -0.075 A 
ATOM      6  C7  UNL d   1      -0.167   1.354   2.446  0.00  0.00     0.076 C 
ATOM      7  C8  UNL d   1       0.093   0.242   0.209  0.00  0.00     0.001 A 
ENDROOT
BRANCH   1   8
ATOM      8  C1  UNL d   1       0.242  -0.810  -2.082  0.00  0.00     0.053 C 
ATOM      9  C   UNL d   1       1.117  -0.148  -3.134  0.00  0.00     0.018 C 
ENDBRANCH   1   8
TORSDOF 1
ENDMDL
