MODEL 1
REMARK minimizedAffinity -4.81919193
REMARK minimizedRMSD -1
REMARK  1 active torsions:
REMARK  status: ('A' for Active; 'I' for Inactive)
REMARK    1  A    between atoms: C1_2  and  C2_3 
ROOT
ATOM      1  C2  UNL d   1       0.218   0.061   0.389  0.00  0.00    -0.073 A 
ATOM      2  C3  UNL d   1       1.454  -0.496   0.735  0.00  0.00    -0.002 A 
ATOM      3  C4  UNL d   1       1.913  -0.431   2.052  0.00  0.00     0.004 A 
ATOM      4  C5  UNL d   1       1.138   0.184   3.035  0.00  0.00    -0.004 A 
ATOM      5  C6  UNL d   1      -0.105   0.737   2.711  0.00  0.00    -0.075 A 
ATOM      6  C7  UNL d   1      -0.949   1.404   3.756  0.00  0.00     0.076 C 
ATOM      7  C8  UNL d   1      -0.557   0.670   1.386  0.00  0.00     0.001 A 
ENDROOT
BRANCH   1   8
ATOM      8  C1  UNL d   1      -0.284  -0.013  -1.030  0.00  0.00     0.053 C 
ATOM      9  C   UNL d   1       0.850  -0.193  -2.027  0.00  0.00     0.018 C 
ENDBRANCH   1   8
TORSDOF 1
ENDMDL
