MODEL 1
REMARK minimizedAffinity -5.38746595
REMARK minimizedRMSD -1
REMARK  1 active torsions:
REMARK  status: ('A' for Active; 'I' for Inactive)
REMARK    1  A    between atoms: C1_2  and  C2_3 
ROOT
ATOM      1  C2  UNL d   1      -0.034   0.202  -0.297  0.00  0.00    -0.073 A 
ATOM      2  C3  UNL d   1      -1.341  -0.103  -0.692  0.00  0.00    -0.002 A 
ATOM      3  C4  UNL d   1      -2.411   0.127   0.173  0.00  0.00     0.004 A 
ATOM      4  C5  UNL d   1      -2.187   0.670   1.438  0.00  0.00    -0.004 A 
ATOM      5  C6  UNL d   1      -0.889   0.994   1.847  0.00  0.00    -0.075 A 
ATOM      6  C7  UNL d   1      -0.631   1.577   3.205  0.00  0.00     0.076 C 
ATOM      7  C8  UNL d   1       0.181   0.757   0.973  0.00  0.00     0.001 A 
ENDROOT
BRANCH   1   8
ATOM      8  C1  UNL d   1       1.125  -0.038  -1.230  0.00  0.00     0.053 C 
ATOM      9  C   UNL d   1       0.829   0.442  -2.642  0.00  0.00     0.018 C 
ENDBRANCH   1   8
TORSDOF 1
ENDMDL
