MODEL 1
REMARK minimizedAffinity 8.80168056
REMARK minimizedRMSD -1
REMARK  0 active torsions:
REMARK  status: ('A' for Active; 'I' for Inactive)
ROOT
ATOM      1  O1  BZF d   1       5.032  -0.886   0.279  0.00  0.00    -0.204 OA
ATOM      2  C2  BZF d   1       4.946  -0.845  -1.099  0.00  0.00     0.174 A 
ATOM      3  C3  BZF d   1       3.658  -0.826  -1.498  0.00  0.00    -0.012 A 
ATOM      4  C3A BZF d   1       2.892  -0.763  -0.291  0.00  0.00    -0.107 A 
ATOM      5  C4  BZF d   1       1.552  -0.705  -0.032  0.00  0.00     0.055 A 
ATOM      6  C5  BZF d   1       1.128  -0.727   1.259  0.00  0.00    -0.016 A 
ATOM      7  C6  BZF d   1       2.014  -0.813   2.313  0.00  0.00     0.022 A 
ATOM      8  C7  BZF d   1       3.352  -0.869   2.106  0.00  0.00     0.029 A 
ATOM      9  C7A BZF d   1       3.786  -0.813   0.804  0.00  0.00     0.058 A 
ENDROOT
TORSDOF 0
ENDMDL
