MODEL 1
REMARK minimizedAffinity 11.4438076
REMARK minimizedRMSD -1
REMARK  0 active torsions:
REMARK  status: ('A' for Active; 'I' for Inactive)
ROOT
ATOM      1  O1  BZF d   1      -1.357   1.085   2.557  0.00  0.00    -0.204 OA
ATOM      2  C2  BZF d   1      -2.111   0.285   1.720  0.00  0.00     0.174 A 
ATOM      3  C3  BZF d   1      -1.316  -0.510   0.975  0.00  0.00    -0.012 A 
ATOM      4  C3A BZF d   1       0.013  -0.253   1.437  0.00  0.00    -0.107 A 
ATOM      5  C4  BZF d   1       1.239  -0.749   1.094  0.00  0.00     0.055 A 
ATOM      6  C5  BZF d   1       2.349  -0.234   1.685  0.00  0.00    -0.016 A 
ATOM      7  C6  BZF d   1       2.271   0.780   2.617  0.00  0.00     0.022 A 
ATOM      8  C7  BZF d   1       1.077   1.301   2.993  0.00  0.00     0.029 A 
ATOM      9  C7A BZF d   1      -0.049   0.760   2.422  0.00  0.00     0.058 A 
ENDROOT
TORSDOF 0
ENDMDL
