MODEL 1
REMARK minimizedAffinity 14.9480486
REMARK minimizedRMSD -1
REMARK  0 active torsions:
REMARK  status: ('A' for Active; 'I' for Inactive)
ROOT
ATOM      1  O1  BZF d   1       0.087   1.723   1.983  0.00  0.00    -0.204 OA
ATOM      2  C2  BZF d   1      -0.240   2.398   3.143  0.00  0.00     0.174 A 
ATOM      3  C3  BZF d   1      -0.178   1.575   4.210  0.00  0.00    -0.012 A 
ATOM      4  C3A BZF d   1       0.302   0.329   3.695  0.00  0.00    -0.107 A 
ATOM      5  C4  BZF d   1       0.587  -0.877   4.270  0.00  0.00     0.055 A 
ATOM      6  C5  BZF d   1       0.967  -1.913   3.477  0.00  0.00    -0.016 A 
ATOM      7  C6  BZF d   1       1.067  -1.781   2.108  0.00  0.00     0.022 A 
ATOM      8  C7  BZF d   1       0.799  -0.603   1.493  0.00  0.00     0.029 A 
ATOM      9  C7A BZF d   1       0.447   0.455   2.294  0.00  0.00     0.058 A 
ENDROOT
TORSDOF 0
ENDMDL
