MODEL 1
REMARK minimizedAffinity 17.3209343
REMARK minimizedRMSD -1
REMARK  0 active torsions:
REMARK  status: ('A' for Active; 'I' for Inactive)
ROOT
ATOM      1  O1  BZF d   1      -1.115  -0.045   1.983  0.00  0.00    -0.204 OA
ATOM      2  C2  BZF d   1      -1.191   1.334   1.954  0.00  0.00     0.174 A 
ATOM      3  C3  BZF d   1      -0.151   1.885   2.613  0.00  0.00    -0.012 A 
ATOM      4  C3A BZF d   1       0.673   0.782   3.003  0.00  0.00    -0.107 A 
ATOM      5  C4  BZF d   1       1.858   0.688   3.675  0.00  0.00     0.055 A 
ATOM      6  C5  BZF d   1       2.361  -0.543   3.958  0.00  0.00    -0.016 A 
ATOM      7  C6  BZF d   1       1.703  -1.698   3.589  0.00  0.00     0.022 A 
ATOM      8  C7  BZF d   1       0.527  -1.655   2.917  0.00  0.00     0.029 A 
ATOM      9  C7A BZF d   1       0.033  -0.413   2.600  0.00  0.00     0.058 A 
ENDROOT
TORSDOF 0
ENDMDL
