MODEL 1
REMARK minimizedAffinity 11.0748377
REMARK minimizedRMSD -1
REMARK  0 active torsions:
REMARK  status: ('A' for Active; 'I' for Inactive)
ROOT
ATOM      1  O1  BZF d   1      -0.100  -1.309   2.717  0.00  0.00    -0.204 OA
ATOM      2  C2  BZF d   1      -0.378  -0.026   2.287  0.00  0.00     0.174 A 
ATOM      3  C3  BZF d   1       0.364   0.876   2.961  0.00  0.00    -0.012 A 
ATOM      4  C3A BZF d   1       1.223   0.102   3.804  0.00  0.00    -0.107 A 
ATOM      5  C4  BZF d   1       2.200   0.427   4.701  0.00  0.00     0.055 A 
ATOM      6  C5  BZF d   1       2.798  -0.564   5.415  0.00  0.00    -0.016 A 
ATOM      7  C6  BZF d   1       2.440  -1.887   5.260  0.00  0.00     0.022 A 
ATOM      8  C7  BZF d   1       1.480  -2.259   4.379  0.00  0.00     0.029 A 
ATOM      9  C7A BZF d   1       0.897  -1.264   3.633  0.00  0.00     0.058 A 
ENDROOT
TORSDOF 0
ENDMDL
