MODEL 1
REMARK minimizedAffinity 6.12752581
REMARK minimizedRMSD -1
REMARK  0 active torsions:
REMARK  status: ('A' for Active; 'I' for Inactive)
ROOT
ATOM      1  O1  BZF d   1       1.349  -0.657   1.182  0.00  0.00    -0.204 OA
ATOM      2  C2  BZF d   1       2.632  -0.158   1.287  0.00  0.00     0.174 A 
ATOM      3  C3  BZF d   1       2.654   0.946   2.062  0.00  0.00    -0.012 A 
ATOM      4  C3A BZF d   1       1.314   1.096   2.542  0.00  0.00    -0.107 A 
ATOM      5  C4  BZF d   1       0.708   1.999   3.368  0.00  0.00     0.055 A 
ATOM      6  C5  BZF d   1      -0.631   1.907   3.577  0.00  0.00    -0.016 A 
ATOM      7  C6  BZF d   1      -1.395   0.930   2.973  0.00  0.00     0.022 A 
ATOM      8  C7  BZF d   1      -0.838   0.009   2.149  0.00  0.00     0.029 A 
ATOM      9  C7A BZF d   1       0.521   0.079   1.962  0.00  0.00     0.058 A 
ENDROOT
TORSDOF 0
ENDMDL
