MODEL 1
REMARK minimizedAffinity 9.15151119
REMARK minimizedRMSD -1
REMARK  0 active torsions:
REMARK  status: ('A' for Active; 'I' for Inactive)
ROOT
ATOM      1  O1  BZF d   1       5.203  -0.686   0.437  0.00  0.00    -0.204 OA
ATOM      2  C2  BZF d   1       5.487  -0.495  -0.901  0.00  0.00     0.174 A 
ATOM      3  C3  BZF d   1       4.375  -0.152  -1.583  0.00  0.00    -0.012 A 
ATOM      4  C3A BZF d   1       3.348  -0.038  -0.593  0.00  0.00    -0.107 A 
ATOM      5  C4  BZF d   1       2.024   0.292  -0.648  0.00  0.00     0.055 A 
ATOM      6  C5  BZF d   1       1.282   0.239   0.489  0.00  0.00    -0.016 A 
ATOM      7  C6  BZF d   1       1.831  -0.143   1.696  0.00  0.00     0.022 A 
ATOM      8  C7  BZF d   1       3.141  -0.473   1.802  0.00  0.00     0.029 A 
ATOM      9  C7A BZF d   1       3.900  -0.389   0.660  0.00  0.00     0.058 A 
ENDROOT
TORSDOF 0
ENDMDL
