MODEL 1
REMARK minimizedAffinity 7.19563103
REMARK minimizedRMSD -1
REMARK  0 active torsions:
REMARK  status: ('A' for Active; 'I' for Inactive)
ROOT
ATOM      1  O1  BZF d   1      -0.830  -3.896  -1.174  0.00  0.00    -0.204 OA
ATOM      2  C2  BZF d   1      -1.156  -2.571  -0.958  0.00  0.00     0.174 A 
ATOM      3  C3  BZF d   1      -1.618  -2.002  -2.090  0.00  0.00    -0.012 A 
ATOM      4  C3A BZF d   1      -1.666  -3.060  -3.051  0.00  0.00    -0.107 A 
ATOM      5  C4  BZF d   1      -2.054  -3.124  -4.359  0.00  0.00     0.055 A 
ATOM      6  C5  BZF d   1      -1.908  -4.294  -5.035  0.00  0.00    -0.016 A 
ATOM      7  C6  BZF d   1      -1.372  -5.416  -4.437  0.00  0.00     0.022 A 
ATOM      8  C7  BZF d   1      -0.977  -5.402  -3.141  0.00  0.00     0.029 A 
ATOM      9  C7A BZF d   1      -1.155  -4.231  -2.445  0.00  0.00     0.058 A 
ENDROOT
TORSDOF 0
ENDMDL
