MODEL 1
REMARK minimizedAffinity 17.3898392
REMARK minimizedRMSD -1
REMARK  0 active torsions:
REMARK  status: ('A' for Active; 'I' for Inactive)
ROOT
ATOM      1  O1  BZF d   1       2.981   2.374   0.962  0.00  0.00    -0.204 OA
ATOM      2  C2  BZF d   1       2.469   2.957  -0.181  0.00  0.00     0.174 A 
ATOM      3  C3  BZF d   1       1.865   2.036  -0.959  0.00  0.00    -0.012 A 
ATOM      4  C3A BZF d   1       1.927   0.816  -0.214  0.00  0.00    -0.107 A 
ATOM      5  C4  BZF d   1       1.483  -0.454  -0.453  0.00  0.00     0.055 A 
ATOM      6  C5  BZF d   1       1.770  -1.433   0.444  0.00  0.00    -0.016 A 
ATOM      7  C6  BZF d   1       2.502  -1.180   1.586  0.00  0.00     0.022 A 
ATOM      8  C7  BZF d   1       2.959   0.064   1.868  0.00  0.00     0.029 A 
ATOM      9  C7A BZF d   1       2.643   1.062   0.980  0.00  0.00     0.058 A 
ENDROOT
TORSDOF 0
ENDMDL
