MODEL 1
REMARK minimizedAffinity 7.15124655
REMARK minimizedRMSD -1
REMARK  0 active torsions:
REMARK  status: ('A' for Active; 'I' for Inactive)
ROOT
ATOM      1  O1  BZF d   1      -5.352   2.436  -1.412  0.00  0.00    -0.204 OA
ATOM      2  C2  BZF d   1      -5.442   1.532  -0.371  0.00  0.00     0.174 A 
ATOM      3  C3  BZF d   1      -5.642   2.169   0.801  0.00  0.00    -0.012 A 
ATOM      4  C3A BZF d   1      -5.772   3.552   0.459  0.00  0.00    -0.107 A 
ATOM      5  C4  BZF d   1      -6.000   4.683   1.190  0.00  0.00     0.055 A 
ATOM      6  C5  BZF d   1      -5.997   5.888   0.562  0.00  0.00    -0.016 A 
ATOM      7  C6  BZF d   1      -5.766   5.999  -0.793  0.00  0.00     0.022 A 
ATOM      8  C7  BZF d   1      -5.540   4.906  -1.562  0.00  0.00     0.029 A 
ATOM      9  C7A BZF d   1      -5.575   3.684  -0.935  0.00  0.00     0.058 A 
ENDROOT
TORSDOF 0
ENDMDL
