MODEL 1
REMARK minimizedAffinity 5.09313393
REMARK minimizedRMSD -1
REMARK  0 active torsions:
REMARK  status: ('A' for Active; 'I' for Inactive)
ROOT
ATOM      1  C   UNL d   1       0.100   3.050   0.142  0.00  0.00     0.077 C 
ATOM      2  C1  UNL d   1      -0.511   3.999  -0.846  0.00  0.00    -0.074 A 
ATOM      3  C2  UNL d   1      -1.847   4.397  -0.730  0.00  0.00    -0.005 A 
ATOM      4  C3  UNL d   1      -2.398   5.287  -1.651  0.00  0.00     0.006 A 
ATOM      5  C4  UNL d   1      -1.621   5.788  -2.696  0.00  0.00    -0.005 A 
ATOM      6  C5  UNL d   1      -0.283   5.403  -2.827  0.00  0.00    -0.074 A 
ATOM      7  C6  UNL d   1       0.569   5.940  -3.939  0.00  0.00     0.077 C 
ATOM      8  C7  UNL d   1       0.266   4.513  -1.894  0.00  0.00    -0.001 A 
ENDROOT
TORSDOF 0
ENDMDL
