MODEL 1
REMARK minimizedAffinity 11.0897264
REMARK minimizedRMSD -1
REMARK  0 active torsions:
REMARK  status: ('A' for Active; 'I' for Inactive)
ROOT
ATOM      1  C   UNL d   1      -2.583   4.559  -2.811  0.00  0.00     0.077 C 
ATOM      2  C1  UNL d   1      -1.318   4.448  -2.012  0.00  0.00    -0.074 A 
ATOM      3  C2  UNL d   1      -0.149   5.098  -2.422  0.00  0.00    -0.005 A 
ATOM      4  C3  UNL d   1       1.016   4.993  -1.663  0.00  0.00     0.006 A 
ATOM      5  C4  UNL d   1       1.026   4.238  -0.490  0.00  0.00    -0.005 A 
ATOM      6  C5  UNL d   1      -0.134   3.582  -0.064  0.00  0.00    -0.074 A 
ATOM      7  C6  UNL d   1      -0.144   2.775   1.200  0.00  0.00     0.077 C 
ATOM      8  C7  UNL d   1      -1.303   3.698  -0.828  0.00  0.00    -0.001 A 
ENDROOT
TORSDOF 0
ENDMDL
