MODEL 1
REMARK minimizedAffinity 3.24112988
REMARK minimizedRMSD -1
REMARK  0 active torsions:
REMARK  status: ('A' for Active; 'I' for Inactive)
ROOT
ATOM      1  C   UNL d   1      -0.424   5.330  -3.194  0.00  0.00     0.077 C 
ATOM      2  C1  UNL d   1      -0.024   4.589  -1.952  0.00  0.00    -0.074 A 
ATOM      3  C2  UNL d   1       0.903   5.133  -1.058  0.00  0.00    -0.005 A 
ATOM      4  C3  UNL d   1       1.258   4.437   0.098  0.00  0.00     0.006 A 
ATOM      5  C4  UNL d   1       0.690   3.192   0.370  0.00  0.00    -0.005 A 
ATOM      6  C5  UNL d   1      -0.240   2.633  -0.512  0.00  0.00    -0.074 A 
ATOM      7  C6  UNL d   1      -0.867   1.300  -0.229  0.00  0.00     0.077 C 
ATOM      8  C7  UNL d   1      -0.596   3.341  -1.668  0.00  0.00    -0.001 A 
ENDROOT
TORSDOF 0
ENDMDL
