MODEL 1
REMARK minimizedAffinity 10.5462627
REMARK minimizedRMSD -1
REMARK  0 active torsions:
REMARK  status: ('A' for Active; 'I' for Inactive)
ROOT
ATOM      1  C   UNL d   1       0.418  -1.017  -0.754  0.00  0.00     0.077 C 
ATOM      2  C1  UNL d   1       0.058  -2.230  -1.560  0.00  0.00    -0.074 A 
ATOM      3  C2  UNL d   1      -0.651  -2.112  -2.759  0.00  0.00    -0.005 A 
ATOM      4  C3  UNL d   1      -0.970  -3.249  -3.503  0.00  0.00     0.006 A 
ATOM      5  C4  UNL d   1      -0.584  -4.512  -3.054  0.00  0.00    -0.005 A 
ATOM      6  C5  UNL d   1       0.127  -4.650  -1.857  0.00  0.00    -0.074 A 
ATOM      7  C6  UNL d   1       0.558  -6.000  -1.366  0.00  0.00     0.077 C 
ATOM      8  C7  UNL d   1       0.449  -3.503  -1.120  0.00  0.00    -0.001 A 
ENDROOT
TORSDOF 0
ENDMDL
