MODEL 1
REMARK minimizedAffinity 7.11070204
REMARK minimizedRMSD -1
REMARK  0 active torsions:
REMARK  status: ('A' for Active; 'I' for Inactive)
ROOT
ATOM      1  C   UNL d   1      -4.433  -3.022   5.477  0.00  0.00     0.077 C 
ATOM      2  C1  UNL d   1      -4.758  -1.709   4.830  0.00  0.00    -0.074 A 
ATOM      3  C2  UNL d   1      -5.715  -0.852   5.383  0.00  0.00    -0.005 A 
ATOM      4  C3  UNL d   1      -5.999   0.371   4.775  0.00  0.00     0.006 A 
ATOM      5  C4  UNL d   1      -5.332   0.748   3.609  0.00  0.00    -0.005 A 
ATOM      6  C5  UNL d   1      -4.371  -0.096   3.042  0.00  0.00    -0.074 A 
ATOM      7  C6  UNL d   1      -3.638   0.299   1.795  0.00  0.00     0.077 C 
ATOM      8  C7  UNL d   1      -4.086  -1.319   3.663  0.00  0.00    -0.001 A 
ENDROOT
TORSDOF 0
ENDMDL
