MODEL 1
REMARK minimizedAffinity 0.881608367
REMARK minimizedRMSD -1
REMARK  0 active torsions:
REMARK  status: ('A' for Active; 'I' for Inactive)
ROOT
ATOM      1  C   UNL d   1       0.212   4.056  -0.307  0.00  0.00     0.077 C 
ATOM      2  C1  UNL d   1       0.727   3.503   0.989  0.00  0.00    -0.074 A 
ATOM      3  C2  UNL d   1       1.943   3.941   1.524  0.00  0.00    -0.005 A 
ATOM      4  C3  UNL d   1       2.405   3.424   2.735  0.00  0.00     0.006 A 
ATOM      5  C4  UNL d   1       1.657   2.468   3.421  0.00  0.00    -0.005 A 
ATOM      6  C5  UNL d   1       0.438   2.019   2.903  0.00  0.00    -0.074 A 
ATOM      7  C6  UNL d   1      -0.383   0.999   3.633  0.00  0.00     0.077 C 
ATOM      8  C7  UNL d   1      -0.023   2.548   1.689  0.00  0.00    -0.001 A 
ENDROOT
TORSDOF 0
ENDMDL
