MODEL 1
REMARK minimizedAffinity 1.03205371
REMARK minimizedRMSD -1
REMARK  0 active torsions:
REMARK  status: ('A' for Active; 'I' for Inactive)
ROOT
ATOM      1  C   UNL d   1      -6.000   2.623  -0.582  0.00  0.00     0.077 C 
ATOM      2  C1  UNL d   1      -5.737   2.952  -2.022  0.00  0.00    -0.074 A 
ATOM      3  C2  UNL d   1      -5.238   4.205  -2.393  0.00  0.00    -0.005 A 
ATOM      4  C3  UNL d   1      -4.990   4.493  -3.735  0.00  0.00     0.006 A 
ATOM      5  C4  UNL d   1      -5.238   3.534  -4.718  0.00  0.00    -0.005 A 
ATOM      6  C5  UNL d   1      -5.737   2.276  -4.365  0.00  0.00    -0.074 A 
ATOM      7  C6  UNL d   1      -6.000   1.230  -5.407  0.00  0.00     0.077 C 
ATOM      8  C7  UNL d   1      -5.977   1.991  -3.014  0.00  0.00    -0.001 A 
ENDROOT
TORSDOF 0
ENDMDL
