MODEL 1
REMARK minimizedAffinity 3.57371879
REMARK minimizedRMSD -1
REMARK  0 active torsions:
REMARK  status: ('A' for Active; 'I' for Inactive)
ROOT
ATOM      1  C   UNL d   1       0.230   5.924  -4.084  0.00  0.00     0.077 C 
ATOM      2  C1  UNL d   1      -0.387   5.456  -2.800  0.00  0.00    -0.074 A 
ATOM      3  C2  UNL d   1      -1.591   5.999  -2.341  0.00  0.00    -0.005 A 
ATOM      4  C3  UNL d   1      -2.158   5.547  -1.150  0.00  0.00     0.006 A 
ATOM      5  C4  UNL d   1      -1.528   4.547  -0.407  0.00  0.00    -0.005 A 
ATOM      6  C5  UNL d   1      -0.324   3.992  -0.851  0.00  0.00    -0.074 A 
ATOM      7  C6  UNL d   1       0.361   2.910  -0.070  0.00  0.00     0.077 C 
ATOM      8  C7  UNL d   1       0.236   4.447  -2.053  0.00  0.00    -0.001 A 
ENDROOT
TORSDOF 0
ENDMDL
