MODEL 1
REMARK minimizedAffinity 11.8107862
REMARK minimizedRMSD -1
REMARK  0 active torsions:
REMARK  status: ('A' for Active; 'I' for Inactive)
ROOT
ATOM      1  C   UNL d   1      -0.349   4.211  -1.560  0.00  0.00     0.077 C 
ATOM      2  C1  UNL d   1       0.132   3.783  -0.206  0.00  0.00    -0.074 A 
ATOM      3  C2  UNL d   1       1.467   3.959   0.172  0.00  0.00    -0.005 A 
ATOM      4  C3  UNL d   1       1.897   3.564   1.439  0.00  0.00     0.006 A 
ATOM      5  C4  UNL d   1       0.999   2.990   2.339  0.00  0.00    -0.005 A 
ATOM      6  C5  UNL d   1      -0.340   2.807   1.979  0.00  0.00    -0.074 A 
ATOM      7  C6  UNL d   1      -1.321   2.201   2.938  0.00  0.00     0.077 C 
ATOM      8  C7  UNL d   1      -0.767   3.213   0.707  0.00  0.00    -0.001 A 
ENDROOT
TORSDOF 0
ENDMDL
