MODEL 1
REMARK minimizedAffinity -1.42174864
REMARK minimizedRMSD -1
REMARK  0 active torsions:
REMARK  status: ('A' for Active; 'I' for Inactive)
ROOT
ATOM      1  C   UNL d   1      -2.325  -0.315   2.530  0.00  0.00     0.078 C 
ATOM      2  C1  UNL d   1      -0.843  -0.109   2.436  0.00  0.00    -0.077 A 
ATOM      3  C2  UNL d   1      -0.310   1.014   1.792  0.00  0.00    -0.001 A 
ATOM      4  C3  UNL d   1       1.072   1.188   1.703  0.00  0.00     0.003 A 
ATOM      5  C4  UNL d   1       1.933   0.242   2.255  0.00  0.00    -0.005 A 
ATOM      6  C5  UNL d   1       1.412  -0.881   2.896  0.00  0.00     0.003 A 
ATOM      7  C6  UNL d   1       0.030  -1.056   2.986  0.00  0.00    -0.001 A 
ENDROOT
TORSDOF 0
ENDMDL
