MODEL 1
REMARK minimizedAffinity -1.11164546
REMARK minimizedRMSD -1
REMARK  0 active torsions:
REMARK  status: ('A' for Active; 'I' for Inactive)
ROOT
ATOM      1  C   UNL d   1       0.303  -0.016   2.816  0.00  0.00     0.078 C 
ATOM      2  C1  UNL d   1      -1.126   0.220   2.426  0.00  0.00    -0.077 A 
ATOM      3  C2  UNL d   1      -1.496   0.333   1.081  0.00  0.00    -0.001 A 
ATOM      4  C3  UNL d   1      -2.829   0.563   0.732  0.00  0.00     0.003 A 
ATOM      5  C4  UNL d   1      -3.800   0.682   1.724  0.00  0.00    -0.005 A 
ATOM      6  C5  UNL d   1      -3.440   0.572   3.066  0.00  0.00     0.003 A 
ATOM      7  C6  UNL d   1      -2.109   0.343   3.416  0.00  0.00    -0.001 A 
ENDROOT
TORSDOF 0
ENDMDL
