MODEL 1
REMARK minimizedAffinity -0.323820859
REMARK minimizedRMSD -1
REMARK  0 active torsions:
REMARK  status: ('A' for Active; 'I' for Inactive)
ROOT
ATOM      1  C   UNL d   1       0.274  -0.309   3.415  0.00  0.00     0.078 C 
ATOM      2  C1  UNL d   1      -0.158   0.149   2.054  0.00  0.00    -0.077 A 
ATOM      3  C2  UNL d   1      -1.485   0.000   1.631  0.00  0.00    -0.001 A 
ATOM      4  C3  UNL d   1      -1.871   0.423   0.358  0.00  0.00     0.003 A 
ATOM      5  C4  UNL d   1      -0.936   0.995  -0.503  0.00  0.00    -0.005 A 
ATOM      6  C5  UNL d   1       0.386   1.146  -0.091  0.00  0.00     0.003 A 
ATOM      7  C6  UNL d   1       0.774   0.724   1.182  0.00  0.00    -0.001 A 
ENDROOT
TORSDOF 0
ENDMDL
