MODEL 1
REMARK minimizedAffinity 4.87476969
REMARK minimizedRMSD -1
REMARK  0 active torsions:
REMARK  status: ('A' for Active; 'I' for Inactive)
ROOT
ATOM      1  C   UNL d   1       0.047  -0.227   2.972  0.00  0.00     0.078 C 
ATOM      2  C1  UNL d   1      -1.218   0.003   2.201  0.00  0.00    -0.077 A 
ATOM      3  C2  UNL d   1      -2.467  -0.054   2.831  0.00  0.00    -0.001 A 
ATOM      4  C3  UNL d   1      -3.637   0.152   2.099  0.00  0.00     0.003 A 
ATOM      5  C4  UNL d   1      -3.570   0.415   0.732  0.00  0.00    -0.005 A 
ATOM      6  C5  UNL d   1      -2.332   0.472   0.096  0.00  0.00     0.003 A 
ATOM      7  C6  UNL d   1      -1.160   0.266   0.826  0.00  0.00    -0.001 A 
ENDROOT
TORSDOF 0
ENDMDL
