MODEL 1
REMARK minimizedAffinity -3.51122594
REMARK minimizedRMSD -1
REMARK  0 active torsions:
REMARK  status: ('A' for Active; 'I' for Inactive)
ROOT
ATOM      1  C   UNL d   1      -0.800  -1.413   3.741  0.00  0.00     0.078 C 
ATOM      2  C1  UNL d   1      -1.763  -0.732   2.816  0.00  0.00    -0.077 A 
ATOM      3  C2  UNL d   1      -3.141  -0.750   3.068  0.00  0.00    -0.001 A 
ATOM      4  C3  UNL d   1      -4.027  -0.121   2.193  0.00  0.00     0.003 A 
ATOM      5  C4  UNL d   1      -3.546   0.530   1.058  0.00  0.00    -0.005 A 
ATOM      6  C5  UNL d   1      -2.178   0.551   0.798  0.00  0.00     0.003 A 
ATOM      7  C6  UNL d   1      -1.290  -0.078   1.672  0.00  0.00    -0.001 A 
ENDROOT
TORSDOF 0
ENDMDL
