MODEL 1
REMARK minimizedAffinity -5.3798089
REMARK minimizedRMSD -1
REMARK  0 active torsions:
REMARK  status: ('A' for Active; 'I' for Inactive)
ROOT
ATOM      1  C   UNL d   1      -2.879  -1.192   5.736  0.00  0.00     0.078 C 
ATOM      2  C1  UNL d   1      -2.104  -0.887   4.489  0.00  0.00    -0.077 A 
ATOM      3  C2  UNL d   1      -0.703  -0.885   4.493  0.00  0.00    -0.001 A 
ATOM      4  C3  UNL d   1       0.005  -0.589   3.327  0.00  0.00     0.003 A 
ATOM      5  C4  UNL d   1      -0.678  -0.293   2.150  0.00  0.00    -0.005 A 
ATOM      6  C5  UNL d   1      -2.071  -0.290   2.137  0.00  0.00     0.003 A 
ATOM      7  C6  UNL d   1      -2.781  -0.586   3.301  0.00  0.00    -0.001 A 
ENDROOT
TORSDOF 0
ENDMDL
