MODEL 1
REMARK minimizedAffinity -0.703391969
REMARK minimizedRMSD -1
REMARK  0 active torsions:
REMARK  status: ('A' for Active; 'I' for Inactive)
ROOT
ATOM      1  C   UNL d   1       0.522  -0.469   3.056  0.00  0.00     0.078 C 
ATOM      2  C1  UNL d   1      -0.810  -0.083   2.485  0.00  0.00    -0.077 A 
ATOM      3  C2  UNL d   1      -1.849   0.358   3.314  0.00  0.00    -0.001 A 
ATOM      4  C3  UNL d   1      -3.087   0.705   2.770  0.00  0.00     0.003 A 
ATOM      5  C4  UNL d   1      -3.298   0.614   1.396  0.00  0.00    -0.005 A 
ATOM      6  C5  UNL d   1      -2.271   0.174   0.563  0.00  0.00     0.003 A 
ATOM      7  C6  UNL d   1      -1.032  -0.173   1.105  0.00  0.00    -0.001 A 
ENDROOT
TORSDOF 0
ENDMDL
