MODEL 1
REMARK minimizedAffinity 2.82152891
REMARK minimizedRMSD -1
REMARK  0 active torsions:
REMARK  status: ('A' for Active; 'I' for Inactive)
ROOT
ATOM      1  C   UNL d   1       6.000  -2.785   4.447  0.00  0.00     0.078 C 
ATOM      2  C1  UNL d   1       5.990  -1.434   3.797  0.00  0.00    -0.077 A 
ATOM      3  C2  UNL d   1       5.986  -1.304   2.403  0.00  0.00    -0.001 A 
ATOM      4  C3  UNL d   1       5.986  -0.040   1.812  0.00  0.00     0.003 A 
ATOM      5  C4  UNL d   1       5.992   1.105   2.607  0.00  0.00    -0.005 A 
ATOM      6  C5  UNL d   1       5.998   0.985   3.995  0.00  0.00     0.003 A 
ATOM      7  C6  UNL d   1       5.998  -0.278   4.588  0.00  0.00    -0.001 A 
ENDROOT
TORSDOF 0
ENDMDL
