MODEL 1
REMARK minimizedAffinity 3.52542496
REMARK minimizedRMSD -1
REMARK  0 active torsions:
REMARK  status: ('A' for Active; 'I' for Inactive)
ROOT
ATOM      1  C   UNL d   1       0.055   0.065   3.135  0.00  0.00     0.078 C 
ATOM      2  C1  UNL d   1      -1.206   0.259   2.347  0.00  0.00    -0.077 A 
ATOM      3  C2  UNL d   1      -1.299  -0.169   1.017  0.00  0.00    -0.001 A 
ATOM      4  C3  UNL d   1      -2.476   0.027   0.293  0.00  0.00     0.003 A 
ATOM      5  C4  UNL d   1      -3.569   0.652   0.890  0.00  0.00    -0.005 A 
ATOM      6  C5  UNL d   1      -3.485   1.084   2.212  0.00  0.00     0.003 A 
ATOM      7  C6  UNL d   1      -2.309   0.889   2.938  0.00  0.00    -0.001 A 
ENDROOT
TORSDOF 0
ENDMDL
