MODEL 1
REMARK minimizedAffinity 4.49095201
REMARK minimizedRMSD -1
REMARK  0 active torsions:
REMARK  status: ('A' for Active; 'I' for Inactive)
ROOT
ATOM      1  C   UNL d   1       0.578  -0.011   3.148  0.00  0.00     0.078 C 
ATOM      2  C1  UNL d   1      -0.646   0.846   3.030  0.00  0.00    -0.077 A 
ATOM      3  C2  UNL d   1      -0.637   2.179   3.458  0.00  0.00    -0.001 A 
ATOM      4  C3  UNL d   1      -1.787   2.963   3.351  0.00  0.00     0.003 A 
ATOM      5  C4  UNL d   1      -2.955   2.423   2.817  0.00  0.00    -0.005 A 
ATOM      6  C5  UNL d   1      -2.974   1.096   2.390  0.00  0.00     0.003 A 
ATOM      7  C6  UNL d   1      -1.825   0.311   2.496  0.00  0.00    -0.001 A 
ENDROOT
TORSDOF 0
ENDMDL
