MODEL 1
REMARK minimizedAffinity 5.08233118
REMARK minimizedRMSD -1
REMARK  0 active torsions:
REMARK  status: ('A' for Active; 'I' for Inactive)
ROOT
ATOM      1  C   UNL d   1      -0.741  -4.282   1.511  0.00  0.00     0.078 C 
ATOM      2  C1  UNL d   1       0.493  -4.854   2.142  0.00  0.00    -0.077 A 
ATOM      3  C2  UNL d   1       1.725  -4.823   1.477  0.00  0.00    -0.001 A 
ATOM      4  C3  UNL d   1       2.863  -5.367   2.073  0.00  0.00     0.003 A 
ATOM      5  C4  UNL d   1       2.782  -5.948   3.337  0.00  0.00    -0.005 A 
ATOM      6  C5  UNL d   1       1.560  -5.986   4.006  0.00  0.00     0.003 A 
ATOM      7  C6  UNL d   1       0.421  -5.442   3.412  0.00  0.00    -0.001 A 
ENDROOT
TORSDOF 0
ENDMDL
