MODEL 1
REMARK minimizedAffinity 2.55042815
REMARK minimizedRMSD -1
REMARK  0 active torsions:
REMARK  status: ('A' for Active; 'I' for Inactive)
ROOT
ATOM      1  C   UNL d   1      -3.326  -0.071   0.866  0.00  0.00     0.078 C 
ATOM      2  C1  UNL d   1      -2.383  -0.863   0.011  0.00  0.00    -0.077 A 
ATOM      3  C2  UNL d   1      -2.191  -2.233   0.227  0.00  0.00    -0.001 A 
ATOM      4  C3  UNL d   1      -1.303  -2.956  -0.571  0.00  0.00     0.003 A 
ATOM      5  C4  UNL d   1      -0.599  -2.318  -1.590  0.00  0.00    -0.005 A 
ATOM      6  C5  UNL d   1      -0.781  -0.954  -1.811  0.00  0.00     0.003 A 
ATOM      7  C6  UNL d   1      -1.669  -0.230  -1.014  0.00  0.00    -0.001 A 
ENDROOT
TORSDOF 0
ENDMDL
