MODEL 1
REMARK minimizedAffinity 0.643820226
REMARK minimizedRMSD -1
REMARK  0 active torsions:
REMARK  status: ('A' for Active; 'I' for Inactive)
ROOT
ATOM      1  C   UNL d   1      -1.506  -1.410  -1.858  0.00  0.00     0.078 C 
ATOM      2  C1  UNL d   1      -2.172  -0.556  -0.821  0.00  0.00    -0.077 A 
ATOM      3  C2  UNL d   1      -1.422   0.100   0.163  0.00  0.00    -0.001 A 
ATOM      4  C3  UNL d   1      -2.056   0.884   1.128  0.00  0.00     0.003 A 
ATOM      5  C4  UNL d   1      -3.443   1.018   1.120  0.00  0.00    -0.005 A 
ATOM      6  C5  UNL d   1      -4.198   0.367   0.146  0.00  0.00     0.003 A 
ATOM      7  C6  UNL d   1      -3.566  -0.418  -0.820  0.00  0.00    -0.001 A 
ENDROOT
TORSDOF 0
ENDMDL
