MODEL 1
REMARK minimizedAffinity 12.8767633
REMARK minimizedRMSD -1
REMARK  0 active torsions:
REMARK  status: ('A' for Active; 'I' for Inactive)
ROOT
ATOM      1  C   UNL d   1       1.023   2.127   0.472  0.00  0.00     0.078 C 
ATOM      2  C1  UNL d   1       0.332   1.637   1.709  0.00  0.00    -0.077 A 
ATOM      3  C2  UNL d   1       0.426   0.297   2.105  0.00  0.00    -0.001 A 
ATOM      4  C3  UNL d   1      -0.230  -0.148   3.253  0.00  0.00     0.003 A 
ATOM      5  C4  UNL d   1      -0.986   0.741   4.016  0.00  0.00    -0.005 A 
ATOM      6  C5  UNL d   1      -1.087   2.076   3.629  0.00  0.00     0.003 A 
ATOM      7  C6  UNL d   1      -0.431   2.522   2.481  0.00  0.00    -0.001 A 
ENDROOT
TORSDOF 0
ENDMDL
