MODEL 1
REMARK minimizedAffinity 4.32010746
REMARK minimizedRMSD -1
REMARK  0 active torsions:
REMARK  status: ('A' for Active; 'I' for Inactive)
ROOT
ATOM      1  C   UNL d   1      -3.357  -0.356   0.392  0.00  0.00     0.078 C 
ATOM      2  C1  UNL d   1      -2.428  -1.196  -0.432  0.00  0.00    -0.077 A 
ATOM      3  C2  UNL d   1      -1.766  -0.661  -1.543  0.00  0.00    -0.001 A 
ATOM      4  C3  UNL d   1      -0.911  -1.458  -2.307  0.00  0.00     0.003 A 
ATOM      5  C4  UNL d   1      -0.713  -2.795  -1.969  0.00  0.00    -0.005 A 
ATOM      6  C5  UNL d   1      -1.369  -3.337  -0.866  0.00  0.00     0.003 A 
ATOM      7  C6  UNL d   1      -2.224  -2.542  -0.101  0.00  0.00    -0.001 A 
ENDROOT
TORSDOF 0
ENDMDL
