MODEL 1
REMARK minimizedAffinity 3.35714722
REMARK minimizedRMSD -1
REMARK  0 active torsions:
REMARK  status: ('A' for Active; 'I' for Inactive)
ROOT
ATOM      1  C   UNL d   1      -3.764  -0.073  -0.194  0.00  0.00     0.078 C 
ATOM      2  C1  UNL d   1      -2.801  -0.931  -0.958  0.00  0.00    -0.077 A 
ATOM      3  C2  UNL d   1      -2.830  -0.977  -2.358  0.00  0.00    -0.001 A 
ATOM      4  C3  UNL d   1      -1.934  -1.787  -3.056  0.00  0.00     0.003 A 
ATOM      5  C4  UNL d   1      -1.003  -2.560  -2.364  0.00  0.00    -0.005 A 
ATOM      6  C5  UNL d   1      -0.968  -2.522  -0.972  0.00  0.00     0.003 A 
ATOM      7  C6  UNL d   1      -1.863  -1.712  -0.271  0.00  0.00    -0.001 A 
ENDROOT
TORSDOF 0
ENDMDL
