MODEL 1
REMARK minimizedAffinity 7.9753046
REMARK minimizedRMSD -1
REMARK  1 active torsions:
REMARK  status: ('A' for Active; 'I' for Inactive)
REMARK    1  A    between atoms: C1_2  and  C2_3 
ROOT
ATOM      1  C2  UNL d   1      -2.917  -0.710   1.768  0.00  0.00    -0.077 A 
ATOM      2  C3  UNL d   1      -3.268  -1.313   0.553  0.00  0.00     0.002 A 
ATOM      3  C4  UNL d   1      -3.039  -0.653  -0.656  0.00  0.00     0.002 A 
ATOM      4  C5  UNL d   1      -2.454   0.612  -0.660  0.00  0.00    -0.004 A 
ATOM      5  C6  UNL d   1      -2.104   1.222   0.544  0.00  0.00     0.002 A 
ATOM      6  C7  UNL d   1      -2.333   0.563   1.753  0.00  0.00     0.002 A 
ENDROOT
BRANCH   1   7
ATOM      7  C1  UNL d   1      -3.118  -1.442   3.070  0.00  0.00     0.055 C 
ATOM      8  C   UNL d   1      -1.789  -1.727   3.755  0.00  0.00     0.019 C 
ENDBRANCH   1   7
TORSDOF 1
ENDMDL
