MODEL 1
REMARK minimizedAffinity 6.67807817
REMARK minimizedRMSD -1
REMARK  1 active torsions:
REMARK  status: ('A' for Active; 'I' for Inactive)
REMARK    1  A    between atoms: C1_2  and  C2_3 
ROOT
ATOM      1  C2  UNL d   1      -0.789  -0.881   3.006  0.00  0.00    -0.077 A 
ATOM      2  C3  UNL d   1      -0.209  -0.389   1.828  0.00  0.00     0.002 A 
ATOM      3  C4  UNL d   1      -0.962   0.377   0.936  0.00  0.00     0.002 A 
ATOM      4  C5  UNL d   1      -2.297   0.661   1.215  0.00  0.00    -0.004 A 
ATOM      5  C6  UNL d   1      -2.884   0.175   2.382  0.00  0.00     0.002 A 
ATOM      6  C7  UNL d   1      -2.133  -0.593   3.274  0.00  0.00     0.002 A 
ENDROOT
BRANCH   1   7
ATOM      7  C1  UNL d   1       0.035  -1.666   3.992  0.00  0.00     0.055 C 
ATOM      8  C   UNL d   1       1.515  -1.332   3.869  0.00  0.00     0.019 C 
ENDBRANCH   1   7
TORSDOF 1
ENDMDL
