MODEL 1
REMARK minimizedAffinity 0.659538925
REMARK minimizedRMSD -1
REMARK  1 active torsions:
REMARK  status: ('A' for Active; 'I' for Inactive)
REMARK    1  A    between atoms: C1_2  and  C2_3 
ROOT
ATOM      1  C2  UNL d   1      -0.644  -0.376   2.953  0.00  0.00    -0.077 A 
ATOM      2  C3  UNL d   1       0.241  -0.390   1.865  0.00  0.00     0.002 A 
ATOM      3  C4  UNL d   1      -0.217  -0.095   0.579  0.00  0.00     0.002 A 
ATOM      4  C5  UNL d   1      -1.558   0.218   0.370  0.00  0.00    -0.004 A 
ATOM      5  C6  UNL d   1      -2.446   0.233   1.445  0.00  0.00     0.002 A 
ATOM      6  C7  UNL d   1      -1.991  -0.062   2.731  0.00  0.00     0.002 A 
ENDROOT
BRANCH   1   7
ATOM      7  C1  UNL d   1      -0.142  -0.645   4.347  0.00  0.00     0.055 C 
ATOM      8  C   UNL d   1       1.212  -1.338   4.325  0.00  0.00     0.019 C 
ENDBRANCH   1   7
TORSDOF 1
ENDMDL
