MODEL 1
REMARK minimizedAffinity -1.07915556
REMARK minimizedRMSD -1
REMARK  1 active torsions:
REMARK  status: ('A' for Active; 'I' for Inactive)
REMARK    1  A    between atoms: C1_2  and  C2_3 
ROOT
ATOM      1  C2  UNL d   1      -0.948  -0.614   2.723  0.00  0.00    -0.077 A 
ATOM      2  C3  UNL d   1      -0.529  -1.367   3.829  0.00  0.00     0.002 A 
ATOM      3  C4  UNL d   1      -1.464  -2.027   4.629  0.00  0.00     0.002 A 
ATOM      4  C5  UNL d   1      -2.822  -1.944   4.329  0.00  0.00    -0.004 A 
ATOM      5  C6  UNL d   1      -3.249  -1.197   3.232  0.00  0.00     0.002 A 
ATOM      6  C7  UNL d   1      -2.316  -0.535   2.432  0.00  0.00     0.002 A 
ENDROOT
BRANCH   1   7
ATOM      7  C1  UNL d   1       0.063   0.058   1.830  0.00  0.00     0.055 C 
ATOM      8  C   UNL d   1      -0.350  -0.023   0.368  0.00  0.00     0.019 C 
ENDBRANCH   1   7
TORSDOF 1
ENDMDL
