MODEL 1
REMARK minimizedAffinity -1.8314693
REMARK minimizedRMSD -1
REMARK  1 active torsions:
REMARK  status: ('A' for Active; 'I' for Inactive)
REMARK    1  A    between atoms: C1_2  and  C2_3 
ROOT
ATOM      1  C2  UNL d   1       4.002   5.287   2.825  0.00  0.00    -0.077 A 
ATOM      2  C3  UNL d   1       5.054   5.987   3.433  0.00  0.00     0.002 A 
ATOM      3  C4  UNL d   1       5.977   5.316   4.238  0.00  0.00     0.002 A 
ATOM      4  C5  UNL d   1       5.860   3.943   4.439  0.00  0.00    -0.004 A 
ATOM      5  C6  UNL d   1       4.816   3.238   3.841  0.00  0.00     0.002 A 
ATOM      6  C7  UNL d   1       3.892   3.907   3.037  0.00  0.00     0.002 A 
ENDROOT
BRANCH   1   7
ATOM      7  C1  UNL d   1       3.035   6.000   1.917  0.00  0.00     0.055 C 
ATOM      8  C   UNL d   1       3.522   5.994   0.476  0.00  0.00     0.019 C 
ENDBRANCH   1   7
TORSDOF 1
ENDMDL
