MODEL 1
REMARK minimizedAffinity -4.54910231
REMARK minimizedRMSD -1
REMARK  0 active torsions:
REMARK  status: ('A' for Active; 'I' for Inactive)
ROOT
ATOM      1  C   UNL d   1       1.249  -0.834   3.130  0.00  0.00     0.078 C 
ATOM      2  C1  UNL d   1       0.620  -0.505   1.809  0.00  0.00    -0.077 A 
ATOM      3  C2  UNL d   1       1.338  -0.639   0.615  0.00  0.00    -0.001 A 
ATOM      4  C3  UNL d   1       0.743  -0.319  -0.607  0.00  0.00     0.003 A 
ATOM      5  C4  UNL d   1      -0.572   0.138  -0.645  0.00  0.00    -0.005 A 
ATOM      6  C5  UNL d   1      -1.294   0.278   0.538  0.00  0.00     0.003 A 
ATOM      7  C6  UNL d   1      -0.701  -0.042   1.760  0.00  0.00    -0.001 A 
ENDROOT
TORSDOF 0
ENDMDL
