MODEL 1
REMARK minimizedAffinity -5.23449707
REMARK minimizedRMSD -1
REMARK  0 active torsions:
REMARK  status: ('A' for Active; 'I' for Inactive)
ROOT
ATOM      1  C   UNL d   1      -0.360   0.067  -1.242  0.00  0.00     0.078 C 
ATOM      2  C1  UNL d   1       0.184  -0.324   0.100  0.00  0.00    -0.077 A 
ATOM      3  C2  UNL d   1      -0.621  -0.280   1.245  0.00  0.00    -0.001 A 
ATOM      4  C3  UNL d   1      -0.099  -0.638   2.489  0.00  0.00     0.003 A 
ATOM      5  C4  UNL d   1       1.231  -1.039   2.600  0.00  0.00    -0.005 A 
ATOM      6  C5  UNL d   1       2.040  -1.083   1.467  0.00  0.00     0.003 A 
ATOM      7  C6  UNL d   1       1.520  -0.727   0.222  0.00  0.00    -0.001 A 
ENDROOT
TORSDOF 0
ENDMDL
