MODEL 1
REMARK minimizedAffinity -3.33273959
REMARK minimizedRMSD -1
REMARK  0 active torsions:
REMARK  status: ('A' for Active; 'I' for Inactive)
ROOT
ATOM      1  C   UNL d   1       0.366  -1.138   2.663  0.00  0.00     0.078 C 
ATOM      2  C1  UNL d   1       0.272  -0.630   1.256  0.00  0.00    -0.077 A 
ATOM      3  C2  UNL d   1       1.028  -1.207   0.228  0.00  0.00    -0.001 A 
ATOM      4  C3  UNL d   1       0.937  -0.717  -1.076  0.00  0.00     0.003 A 
ATOM      5  C4  UNL d   1       0.092   0.353  -1.364  0.00  0.00    -0.005 A 
ATOM      6  C5  UNL d   1      -0.662   0.935  -0.347  0.00  0.00     0.003 A 
ATOM      7  C6  UNL d   1      -0.573   0.446   0.957  0.00  0.00    -0.001 A 
ENDROOT
TORSDOF 0
ENDMDL
