MODEL 1
REMARK minimizedAffinity -5.01471472
REMARK minimizedRMSD -1
REMARK  0 active torsions:
REMARK  status: ('A' for Active; 'I' for Inactive)
ROOT
ATOM      1  C   UNL d   1      -2.611  -0.090   0.722  0.00  0.00     0.078 C 
ATOM      2  C1  UNL d   1      -1.173  -0.487   0.874  0.00  0.00    -0.077 A 
ATOM      3  C2  UNL d   1      -0.330  -0.583  -0.240  0.00  0.00    -0.001 A 
ATOM      4  C3  UNL d   1       1.004  -0.962  -0.085  0.00  0.00     0.003 A 
ATOM      5  C4  UNL d   1       1.507  -1.251   1.182  0.00  0.00    -0.005 A 
ATOM      6  C5  UNL d   1       0.675  -1.160   2.296  0.00  0.00     0.003 A 
ATOM      7  C6  UNL d   1      -0.659  -0.780   2.143  0.00  0.00    -0.001 A 
ENDROOT
TORSDOF 0
ENDMDL
