MODEL 1
REMARK minimizedAffinity -4.2175951
REMARK minimizedRMSD -1
REMARK  0 active torsions:
REMARK  status: ('A' for Active; 'I' for Inactive)
ROOT
ATOM      1  C   UNL d   1      -0.682   0.229  -0.692  0.00  0.00     0.078 C 
ATOM      2  C1  UNL d   1      -0.021  -0.280   0.554  0.00  0.00    -0.077 A 
ATOM      3  C2  UNL d   1       1.371  -0.419   0.626  0.00  0.00    -0.001 A 
ATOM      4  C3  UNL d   1       1.972  -0.903   1.789  0.00  0.00     0.003 A 
ATOM      5  C4  UNL d   1       1.190  -1.252   2.889  0.00  0.00    -0.005 A 
ATOM      6  C5  UNL d   1      -0.195  -1.118   2.826  0.00  0.00     0.003 A 
ATOM      7  C6  UNL d   1      -0.799  -0.635   1.663  0.00  0.00    -0.001 A 
ENDROOT
TORSDOF 0
ENDMDL
