MODEL 1
REMARK minimizedAffinity -5.11940622
REMARK minimizedRMSD -1
REMARK  0 active torsions:
REMARK  status: ('A' for Active; 'I' for Inactive)
ROOT
ATOM      1  C   UNL d   1      -0.406   0.700  -0.870  0.00  0.00     0.078 C 
ATOM      2  C1  UNL d   1       0.250  -0.027   0.266  0.00  0.00    -0.077 A 
ATOM      3  C2  UNL d   1       1.464  -0.700   0.086  0.00  0.00    -0.001 A 
ATOM      4  C3  UNL d   1       2.058  -1.381   1.150  0.00  0.00     0.003 A 
ATOM      5  C4  UNL d   1       1.444  -1.397   2.400  0.00  0.00    -0.005 A 
ATOM      6  C5  UNL d   1       0.234  -0.732   2.588  0.00  0.00     0.003 A 
ATOM      7  C6  UNL d   1      -0.361  -0.050   1.526  0.00  0.00    -0.001 A 
ENDROOT
TORSDOF 0
ENDMDL
