MODEL 1
REMARK minimizedAffinity -4.21723223
REMARK minimizedRMSD -1
REMARK  0 active torsions:
REMARK  status: ('A' for Active; 'I' for Inactive)
ROOT
ATOM      1  C   UNL d   1      -0.347   0.214  -0.983  0.00  0.00     0.078 C 
ATOM      2  C1  UNL d   1       0.101  -0.154   0.400  0.00  0.00    -0.077 A 
ATOM      3  C2  UNL d   1      -0.769  -0.049   1.492  0.00  0.00    -0.001 A 
ATOM      4  C3  UNL d   1      -0.335  -0.386   2.775  0.00  0.00     0.003 A 
ATOM      5  C4  UNL d   1       0.970  -0.827   2.979  0.00  0.00    -0.005 A 
ATOM      6  C5  UNL d   1       1.844  -0.933   1.899  0.00  0.00     0.003 A 
ATOM      7  C6  UNL d   1       1.412  -0.597   0.615  0.00  0.00    -0.001 A 
ENDROOT
TORSDOF 0
ENDMDL
