MODEL 1
REMARK minimizedAffinity -3.66343951
REMARK minimizedRMSD -1
REMARK  0 active torsions:
REMARK  status: ('A' for Active; 'I' for Inactive)
ROOT
ATOM      1  C   UNL d   1       1.120  -1.094  -1.333  0.00  0.00     0.078 C 
ATOM      2  C1  UNL d   1       0.896  -0.491   0.021  0.00  0.00    -0.077 A 
ATOM      3  C2  UNL d   1       0.357   0.793   0.159  0.00  0.00    -0.001 A 
ATOM      4  C3  UNL d   1       0.163   1.346   1.426  0.00  0.00     0.003 A 
ATOM      5  C4  UNL d   1       0.507   0.621   2.565  0.00  0.00    -0.005 A 
ATOM      6  C5  UNL d   1       1.047  -0.657   2.438  0.00  0.00     0.003 A 
ATOM      7  C6  UNL d   1       1.241  -1.211   1.172  0.00  0.00    -0.001 A 
ENDROOT
TORSDOF 0
ENDMDL
