MODEL 1
REMARK minimizedAffinity 1.90216637
REMARK minimizedRMSD -1
REMARK  0 active torsions:
REMARK  status: ('A' for Active; 'I' for Inactive)
ROOT
ATOM      1  C   UNL d   1      -1.412   0.053   2.927  0.00  0.00     0.078 C 
ATOM      2  C1  UNL d   1      -0.021  -0.506   2.899  0.00  0.00    -0.077 A 
ATOM      3  C2  UNL d   1       1.089   0.309   3.153  0.00  0.00    -0.001 A 
ATOM      4  C3  UNL d   1       2.379  -0.223   3.115  0.00  0.00     0.003 A 
ATOM      5  C4  UNL d   1       2.572  -1.571   2.821  0.00  0.00    -0.005 A 
ATOM      6  C5  UNL d   1       1.474  -2.390   2.565  0.00  0.00     0.003 A 
ATOM      7  C6  UNL d   1       0.183  -1.860   2.603  0.00  0.00    -0.001 A 
ENDROOT
TORSDOF 0
ENDMDL
