MODEL 1
REMARK minimizedAffinity 11.6298676
REMARK minimizedRMSD -1
REMARK  0 active torsions:
REMARK  status: ('A' for Active; 'I' for Inactive)
ROOT
ATOM      1  C2' OXE d   1      -3.461   1.033   3.118  0.00  0.00     0.078 C 
ATOM      2  C1' OXE d   1      -3.557   1.060   5.924  0.00  0.00     0.078 C 
ATOM      3  C1  OXE d   1      -3.600  -0.279   5.231  0.00  0.00    -0.078 A 
ATOM      4  C2  OXE d   1      -3.600  -0.281   3.857  0.00  0.00    -0.078 A 
ATOM      5  C3  OXE d   1      -3.584  -1.491   3.169  0.00  0.00     0.003 A 
ATOM      6  C4  OXE d   1      -3.723  -2.701   3.859  0.00  0.00    -0.002 A 
ATOM      7  C5  OXE d   1      -3.764  -2.719   5.258  0.00  0.00    -0.002 A 
ATOM      8  C6  OXE d   1      -3.661  -1.523   5.958  0.00  0.00     0.003 A 
ENDROOT
TORSDOF 0
ENDMDL
