MODEL 1
REMARK minimizedAffinity 11.0152569
REMARK minimizedRMSD -1
REMARK  0 active torsions:
REMARK  status: ('A' for Active; 'I' for Inactive)
ROOT
ATOM      1  C2' OXE d   1       3.084  -3.006  -0.388  0.00  0.00     0.078 C 
ATOM      2  C1' OXE d   1       1.329  -1.381  -1.858  0.00  0.00     0.078 C 
ATOM      3  C1  OXE d   1       2.393  -0.701  -1.033  0.00  0.00    -0.078 A 
ATOM      4  C2  OXE d   1       3.217  -1.503  -0.280  0.00  0.00    -0.078 A 
ATOM      5  C3  OXE d   1       4.250  -0.930   0.457  0.00  0.00     0.003 A 
ATOM      6  C4  OXE d   1       4.360   0.462   0.559  0.00  0.00    -0.002 A 
ATOM      7  C5  OXE d   1       3.506   1.298  -0.168  0.00  0.00    -0.002 A 
ATOM      8  C6  OXE d   1       2.546   0.732  -1.000  0.00  0.00     0.003 A 
ENDROOT
TORSDOF 0
ENDMDL
