MODEL 1
REMARK minimizedAffinity 10.7537518
REMARK minimizedRMSD -1
REMARK  0 active torsions:
REMARK  status: ('A' for Active; 'I' for Inactive)
ROOT
ATOM      1  C2' OXE d   1      -3.046   1.886   5.585  0.00  0.00     0.078 C 
ATOM      2  C1' OXE d   1      -3.273   1.538   2.809  0.00  0.00     0.078 C 
ATOM      3  C1  OXE d   1      -3.464   0.327   3.688  0.00  0.00    -0.078 A 
ATOM      4  C2  OXE d   1      -3.305   0.498   5.042  0.00  0.00    -0.078 A 
ATOM      5  C3  OXE d   1      -3.524  -0.575   5.902  0.00  0.00     0.003 A 
ATOM      6  C4  OXE d   1      -3.754  -1.858   5.391  0.00  0.00    -0.002 A 
ATOM      7  C5  OXE d   1      -3.880  -2.061   4.013  0.00  0.00    -0.002 A 
ATOM      8  C6  OXE d   1      -3.781  -0.974   3.152  0.00  0.00     0.003 A 
ENDROOT
TORSDOF 0
ENDMDL
