MODEL 1
REMARK minimizedAffinity 7.07747555
REMARK minimizedRMSD -1
REMARK  0 active torsions:
REMARK  status: ('A' for Active; 'I' for Inactive)
ROOT
ATOM      1  C2' OXE d   1       5.009   2.425   0.653  0.00  0.00     0.078 C 
ATOM      2  C1' OXE d   1       2.987   2.730  -1.270  0.00  0.00     0.078 C 
ATOM      3  C1  OXE d   1       3.183   1.362  -0.667  0.00  0.00    -0.078 A 
ATOM      4  C2  OXE d   1       4.205   1.211   0.239  0.00  0.00    -0.078 A 
ATOM      5  C3  OXE d   1       4.394  -0.017   0.866  0.00  0.00     0.003 A 
ATOM      6  C4  OXE d   1       3.653  -1.137   0.471  0.00  0.00    -0.002 A 
ATOM      7  C5  OXE d   1       2.633  -1.014  -0.479  0.00  0.00    -0.002 A 
ATOM      8  C6  OXE d   1       2.357   0.235  -1.025  0.00  0.00     0.003 A 
ENDROOT
TORSDOF 0
ENDMDL
