MODEL 1
REMARK minimizedAffinity 24.9374142
REMARK minimizedRMSD -1
REMARK  0 active torsions:
REMARK  status: ('A' for Active; 'I' for Inactive)
ROOT
ATOM      1  C2' OXE d   1       2.699  -2.403  -0.180  0.00  0.00     0.078 C 
ATOM      2  C1' OXE d   1       1.235  -0.633  -1.794  0.00  0.00     0.078 C 
ATOM      3  C1  OXE d   1       2.339  -0.059  -0.941  0.00  0.00    -0.078 A 
ATOM      4  C2  OXE d   1       3.019  -0.925  -0.120  0.00  0.00    -0.078 A 
ATOM      5  C3  OXE d   1       4.082  -0.457   0.647  0.00  0.00     0.003 A 
ATOM      6  C4  OXE d   1       4.365   0.913   0.705  0.00  0.00    -0.002 A 
ATOM      7  C5  OXE d   1       3.658   1.819  -0.094  0.00  0.00    -0.002 A 
ATOM      8  C6  OXE d   1       2.672   1.344  -0.953  0.00  0.00     0.003 A 
ENDROOT
TORSDOF 0
ENDMDL
