MODEL 1
REMARK minimizedAffinity 13.6256733
REMARK minimizedRMSD -1
REMARK  0 active torsions:
REMARK  status: ('A' for Active; 'I' for Inactive)
ROOT
ATOM      1  C2' OXE d   1       2.304  -0.279  -1.186  0.00  0.00     0.078 C 
ATOM      2  C1' OXE d   1       4.337   1.277  -0.034  0.00  0.00     0.078 C 
ATOM      3  C1  OXE d   1       2.986   1.275   0.637  0.00  0.00    -0.078 A 
ATOM      4  C2  OXE d   1       1.985   0.548   0.041  0.00  0.00    -0.078 A 
ATOM      5  C3  OXE d   1       0.735   0.468   0.649  0.00  0.00     0.003 A 
ATOM      6  C4  OXE d   1       0.445   1.243   1.778  0.00  0.00    -0.002 A 
ATOM      7  C5  OXE d   1       1.439   2.023   2.378  0.00  0.00    -0.002 A 
ATOM      8  C6  OXE d   1       2.724   2.016   1.846  0.00  0.00     0.003 A 
ENDROOT
TORSDOF 0
ENDMDL
