MODEL 1
REMARK minimizedAffinity 13.4199028
REMARK minimizedRMSD -1
REMARK  0 active torsions:
REMARK  status: ('A' for Active; 'I' for Inactive)
ROOT
ATOM      1  C2' OXE d   1       2.365  -4.361  -0.406  0.00  0.00     0.078 C 
ATOM      2  C1' OXE d   1       0.736  -3.285  -2.424  0.00  0.00     0.078 C 
ATOM      3  C1  OXE d   1       1.731  -2.367  -1.758  0.00  0.00    -0.078 A 
ATOM      4  C2  OXE d   1       2.491  -2.890  -0.740  0.00  0.00    -0.078 A 
ATOM      5  C3  OXE d   1       3.462  -2.101  -0.129  0.00  0.00     0.003 A 
ATOM      6  C4  OXE d   1       3.565  -0.739  -0.437  0.00  0.00    -0.002 A 
ATOM      7  C5  OXE d   1       2.773  -0.177  -1.443  0.00  0.00    -0.002 A 
ATOM      8  C6  OXE d   1       1.882  -0.985  -2.141  0.00  0.00     0.003 A 
ENDROOT
TORSDOF 0
ENDMDL
