MODEL 1
REMARK minimizedAffinity 6.61036253
REMARK minimizedRMSD -1
REMARK  0 active torsions:
REMARK  status: ('A' for Active; 'I' for Inactive)
ROOT
ATOM      1  C2' OXE d   1       2.919  -2.844  -0.012  0.00  0.00     0.078 C 
ATOM      2  C1' OXE d   1       1.902  -1.399  -2.194  0.00  0.00     0.078 C 
ATOM      3  C1  OXE d   1       2.731  -0.651  -1.180  0.00  0.00    -0.078 A 
ATOM      4  C2  OXE d   1       3.186  -1.356  -0.091  0.00  0.00    -0.078 A 
ATOM      5  C3  OXE d   1       4.000  -0.727   0.846  0.00  0.00     0.003 A 
ATOM      6  C4  OXE d   1       4.234   0.652   0.771  0.00  0.00    -0.002 A 
ATOM      7  C5  OXE d   1       3.747   1.396  -0.309  0.00  0.00    -0.002 A 
ATOM      8  C6  OXE d   1       3.032   0.753  -1.313  0.00  0.00     0.003 A 
ENDROOT
TORSDOF 0
ENDMDL
