MODEL 1
REMARK minimizedAffinity 20.4181213
REMARK minimizedRMSD -1
REMARK  0 active torsions:
REMARK  status: ('A' for Active; 'I' for Inactive)
ROOT
ATOM      1  C2' OXE d   1      -2.847  -0.908   3.966  0.00  0.00     0.078 C 
ATOM      2  C1' OXE d   1      -4.003   1.344   2.753  0.00  0.00     0.078 C 
ATOM      3  C1  OXE d   1      -2.507   1.183   2.656  0.00  0.00    -0.078 A 
ATOM      4  C2  OXE d   1      -1.945   0.102   3.292  0.00  0.00    -0.078 A 
ATOM      5  C3  OXE d   1      -0.575  -0.123   3.188  0.00  0.00     0.003 A 
ATOM      6  C4  OXE d   1       0.254   0.822   2.572  0.00  0.00    -0.002 A 
ATOM      7  C5  OXE d   1      -0.293   1.950   1.952  0.00  0.00    -0.002 A 
ATOM      8  C6  OXE d   1      -1.673   2.123   1.948  0.00  0.00     0.003 A 
ENDROOT
TORSDOF 0
ENDMDL
