MODEL 1
REMARK minimizedAffinity 16.3619556
REMARK minimizedRMSD -1
REMARK  0 active torsions:
REMARK  status: ('A' for Active; 'I' for Inactive)
ROOT
ATOM      1  C2' OXE d   1       2.947  -4.249  -0.501  0.00  0.00     0.078 C 
ATOM      2  C1' OXE d   1       1.443  -4.012  -2.860  0.00  0.00     0.078 C 
ATOM      3  C1  OXE d   1       1.739  -2.753  -2.085  0.00  0.00    -0.078 A 
ATOM      4  C2  OXE d   1       2.436  -2.884  -0.908  0.00  0.00    -0.078 A 
ATOM      5  C3  OXE d   1       2.782  -1.748  -0.182  0.00  0.00     0.003 A 
ATOM      6  C4  OXE d   1       2.297  -0.490  -0.559  0.00  0.00    -0.002 A 
ATOM      7  C5  OXE d   1       1.552  -0.340  -1.733  0.00  0.00    -0.002 A 
ATOM      8  C6  OXE d   1       1.301  -1.452  -2.528  0.00  0.00     0.003 A 
ENDROOT
TORSDOF 0
ENDMDL
