MODEL 1
REMARK minimizedAffinity 4.75485182
REMARK minimizedRMSD -1
REMARK  0 active torsions:
REMARK  status: ('A' for Active; 'I' for Inactive)
ROOT
ATOM      1  C2' OXE d   1       1.947  -0.458  -1.583  0.00  0.00     0.078 C 
ATOM      2  C1' OXE d   1       3.829   0.737   0.123  0.00  0.00     0.078 C 
ATOM      3  C1  OXE d   1       3.850  -0.766  -0.005  0.00  0.00    -0.078 A 
ATOM      4  C2  OXE d   1       2.895  -1.345  -0.806  0.00  0.00    -0.078 A 
ATOM      5  C3  OXE d   1       2.903  -2.723  -1.002  0.00  0.00     0.003 A 
ATOM      6  C4  OXE d   1       3.777  -3.538  -0.272  0.00  0.00    -0.002 A 
ATOM      7  C5  OXE d   1       4.731  -2.971   0.580  0.00  0.00    -0.002 A 
ATOM      8  C6  OXE d   1       4.809  -1.587   0.691  0.00  0.00     0.003 A 
ENDROOT
TORSDOF 0
ENDMDL
