MODEL 1
REMARK minimizedAffinity 20.9964542
REMARK minimizedRMSD -1
REMARK  0 active torsions:
REMARK  status: ('A' for Active; 'I' for Inactive)
ROOT
ATOM      1  C2' OXE d   1       1.510   0.731   6.000  0.00  0.00     0.078 C 
ATOM      2  C1' OXE d   1      -0.131   2.918   5.364  0.00  0.00     0.078 C 
ATOM      3  C1  OXE d   1      -0.037   1.794   4.362  0.00  0.00    -0.078 A 
ATOM      4  C2  OXE d   1       0.805   0.750   4.661  0.00  0.00    -0.078 A 
ATOM      5  C3  OXE d   1       0.887  -0.338   3.796  0.00  0.00     0.003 A 
ATOM      6  C4  OXE d   1       0.240  -0.308   2.555  0.00  0.00    -0.002 A 
ATOM      7  C5  OXE d   1      -0.591   0.765   2.214  0.00  0.00    -0.002 A 
ATOM      8  C6  OXE d   1      -0.773   1.801   3.123  0.00  0.00     0.003 A 
ENDROOT
TORSDOF 0
ENDMDL
