MODEL 1
REMARK minimizedAffinity 16.2996483
REMARK minimizedRMSD -1
REMARK  0 active torsions:
REMARK  status: ('A' for Active; 'I' for Inactive)
ROOT
ATOM      1  C2' OXE d   1      -3.791  -0.807   2.242  0.00  0.00     0.078 C 
ATOM      2  C1' OXE d   1      -3.911   1.657   3.581  0.00  0.00     0.078 C 
ATOM      3  C1  OXE d   1      -2.565   1.193   3.082  0.00  0.00    -0.078 A 
ATOM      4  C2  OXE d   1      -2.508  -0.036   2.469  0.00  0.00    -0.078 A 
ATOM      5  C3  OXE d   1      -1.302  -0.488   1.942  0.00  0.00     0.003 A 
ATOM      6  C4  OXE d   1      -0.119   0.227   2.165  0.00  0.00    -0.002 A 
ATOM      7  C5  OXE d   1      -0.148   1.462   2.822  0.00  0.00    -0.002 A 
ATOM      8  C6  OXE d   1      -1.367   1.978   3.248  0.00  0.00     0.003 A 
ENDROOT
TORSDOF 0
ENDMDL
