MODEL 1
REMARK minimizedAffinity 14.2049313
REMARK minimizedRMSD -1
REMARK  0 active torsions:
REMARK  status: ('A' for Active; 'I' for Inactive)
ROOT
ATOM      1  C2' OXE d   1      -5.761  -2.201   1.935  0.00  0.00     0.078 C 
ATOM      2  C1' OXE d   1      -4.756  -2.611   4.524  0.00  0.00     0.078 C 
ATOM      3  C1  OXE d   1      -4.347  -1.352   3.802  0.00  0.00    -0.078 A 
ATOM      4  C2  OXE d   1      -4.806  -1.182   2.518  0.00  0.00    -0.078 A 
ATOM      5  C3  OXE d   1      -4.504  -0.012   1.827  0.00  0.00     0.003 A 
ATOM      6  C4  OXE d   1      -3.612   0.921   2.369  0.00  0.00    -0.002 A 
ATOM      7  C5  OXE d   1      -3.101   0.748   3.660  0.00  0.00    -0.002 A 
ATOM      8  C6  OXE d   1      -3.492  -0.359   4.405  0.00  0.00     0.003 A 
ENDROOT
TORSDOF 0
ENDMDL
