MODEL 1
REMARK minimizedAffinity 13.5503817
REMARK minimizedRMSD -1
REMARK  0 active torsions:
REMARK  status: ('A' for Active; 'I' for Inactive)
ROOT
ATOM      1  C2' OXE d   1      -3.095   0.350   1.085  0.00  0.00     0.078 C 
ATOM      2  C1' OXE d   1      -3.605   1.850   3.403  0.00  0.00     0.078 C 
ATOM      3  C1  OXE d   1      -2.213   1.300   3.213  0.00  0.00    -0.078 A 
ATOM      4  C2  OXE d   1      -1.985   0.528   2.099  0.00  0.00    -0.078 A 
ATOM      5  C3  OXE d   1      -0.705   0.041   1.847  0.00  0.00     0.003 A 
ATOM      6  C4  OXE d   1       0.313   0.202   2.795  0.00  0.00    -0.002 A 
ATOM      7  C5  OXE d   1       0.091   0.951   3.955  0.00  0.00    -0.002 A 
ATOM      8  C6  OXE d   1      -1.152   1.542   4.158  0.00  0.00     0.003 A 
ENDROOT
TORSDOF 0
ENDMDL
