MODEL 1
REMARK minimizedAffinity 11.7217512
REMARK minimizedRMSD -1
REMARK  0 active torsions:
REMARK  status: ('A' for Active; 'I' for Inactive)
ROOT
ATOM      1  C2' OXE d   1      -4.559   3.552   5.999  0.00  0.00     0.078 C 
ATOM      2  C1' OXE d   1      -5.929   3.203   3.574  0.00  0.00     0.078 C 
ATOM      3  C1  OXE d   1      -4.863   2.197   3.930  0.00  0.00    -0.078 A 
ATOM      4  C2  OXE d   1      -4.165   2.402   5.096  0.00  0.00    -0.078 A 
ATOM      5  C3  OXE d   1      -3.209   1.474   5.500  0.00  0.00     0.003 A 
ATOM      6  C4  OXE d   1      -2.844   0.419   4.655  0.00  0.00    -0.002 A 
ATOM      7  C5  OXE d   1      -3.515   0.215   3.444  0.00  0.00    -0.002 A 
ATOM      8  C6  OXE d   1      -4.553   1.068   3.088  0.00  0.00     0.003 A 
ENDROOT
TORSDOF 0
ENDMDL
