MODEL 1
REMARK minimizedAffinity 5.86577463
REMARK minimizedRMSD -1
REMARK  0 active torsions:
REMARK  status: ('A' for Active; 'I' for Inactive)
ROOT
ATOM      1  C2' OXE d   1       0.106  -4.555  -3.493  0.00  0.00     0.078 C 
ATOM      2  C1' OXE d   1      -2.242  -5.139  -2.070  0.00  0.00     0.078 C 
ATOM      3  C1  OXE d   1      -2.384  -4.554  -3.453  0.00  0.00    -0.078 A 
ATOM      4  C2  OXE d   1      -1.230  -4.228  -4.123  0.00  0.00    -0.078 A 
ATOM      5  C3  OXE d   1      -1.303  -3.735  -5.423  0.00  0.00     0.003 A 
ATOM      6  C4  OXE d   1      -2.543  -3.426  -5.995  0.00  0.00    -0.002 A 
ATOM      7  C5  OXE d   1      -3.731  -3.714  -5.314  0.00  0.00    -0.002 A 
ATOM      8  C6  OXE d   1      -3.670  -4.316  -4.062  0.00  0.00     0.003 A 
ENDROOT
TORSDOF 0
ENDMDL
