MODEL 1
REMARK minimizedAffinity 11.4405928
REMARK minimizedRMSD -1
REMARK  0 active torsions:
REMARK  status: ('A' for Active; 'I' for Inactive)
ROOT
ATOM      1  C2' OXE d   1      -3.284   0.054   1.899  0.00  0.00     0.078 C 
ATOM      2  C1' OXE d   1      -3.489   2.026   3.886  0.00  0.00     0.078 C 
ATOM      3  C1  OXE d   1      -2.114   1.504   3.552  0.00  0.00    -0.078 A 
ATOM      4  C2  OXE d   1      -2.028   0.506   2.611  0.00  0.00    -0.078 A 
ATOM      5  C3  OXE d   1      -0.779   0.027   2.226  0.00  0.00     0.003 A 
ATOM      6  C4  OXE d   1       0.378   0.443   2.897  0.00  0.00    -0.002 A 
ATOM      7  C5  OXE d   1       0.308   1.430   3.886  0.00  0.00    -0.002 A 
ATOM      8  C6  OXE d   1      -0.922   2.000   4.195  0.00  0.00     0.003 A 
ENDROOT
TORSDOF 0
ENDMDL
