MODEL 1
REMARK minimizedAffinity -5.26022243
REMARK minimizedRMSD -1
REMARK  1 active torsions:
REMARK  status: ('A' for Active; 'I' for Inactive)
REMARK    1  A    between atoms: C3_4  and  O_7 
ROOT
ATOM      1  C   UNL d   1      -2.960  -2.246   0.719  0.00  0.00    -0.033 A 
ATOM      2  C1  UNL d   1      -1.925  -2.689   1.546  0.00  0.00     0.039 A 
ATOM      3  C2  UNL d   1      -0.687  -2.045   1.524  0.00  0.00    -0.080 A 
ATOM      4  C3  UNL d   1      -0.496  -0.959   0.674  0.00  0.00     0.150 A 
ATOM      5  C4  UNL d   1      -1.524  -0.509  -0.149  0.00  0.00    -0.007 A 
ATOM      6  C5  UNL d   1      -2.759  -1.155  -0.127  0.00  0.00     0.039 A 
ENDROOT
BRANCH   4   7
ATOM      7  O   UNL d   1       0.696  -0.301   0.615  0.00  0.00    -0.526 OA
ATOM      8  H5  UNL d   1       1.320  -0.740   1.217  0.00  0.00     0.418 HD
ENDBRANCH   4   7
TORSDOF 1
ENDMDL
