MODEL 1
REMARK minimizedAffinity -5.12662697
REMARK minimizedRMSD -1
REMARK  1 active torsions:
REMARK  status: ('A' for Active; 'I' for Inactive)
REMARK    1  A    between atoms: C3_4  and  O_7 
ROOT
ATOM      1  C   UNL d   1       0.414  -0.041  -1.154  0.00  0.00    -0.033 A 
ATOM      2  C1  UNL d   1       0.024  -0.655   0.038  0.00  0.00     0.039 A 
ATOM      3  C2  UNL d   1      -1.331  -0.768   0.357  0.00  0.00    -0.080 A 
ATOM      4  C3  UNL d   1      -2.284  -0.265  -0.525  0.00  0.00     0.150 A 
ATOM      5  C4  UNL d   1      -1.903   0.344  -1.716  0.00  0.00    -0.007 A 
ATOM      6  C5  UNL d   1      -0.550   0.457  -2.032  0.00  0.00     0.039 A 
ENDROOT
BRANCH   4   7
ATOM      7  O   UNL d   1      -3.618  -0.348  -0.255  0.00  0.00    -0.526 OA
ATOM      8  H5  UNL d   1      -3.731  -0.766   0.615  0.00  0.00     0.418 HD
ENDBRANCH   4   7
TORSDOF 1
ENDMDL
