MODEL 1
REMARK minimizedAffinity -4.13900852
REMARK minimizedRMSD -1
REMARK  1 active torsions:
REMARK  status: ('A' for Active; 'I' for Inactive)
REMARK    1  A    between atoms: C3_4  and  O_7 
ROOT
ATOM      1  C   UNL d   1       0.420  -0.024  -0.376  0.00  0.00    -0.033 A 
ATOM      2  C1  UNL d   1      -0.195  -0.228   0.861  0.00  0.00     0.039 A 
ATOM      3  C2  UNL d   1      -1.587  -0.257   0.954  0.00  0.00    -0.080 A 
ATOM      4  C3  UNL d   1      -2.353  -0.082  -0.195  0.00  0.00     0.150 A 
ATOM      5  C4  UNL d   1      -1.747   0.118  -1.431  0.00  0.00    -0.007 A 
ATOM      6  C5  UNL d   1      -0.356   0.148  -1.522  0.00  0.00     0.039 A 
ENDROOT
BRANCH   4   7
ATOM      7  O   UNL d   1      -3.715  -0.098  -0.154  0.00  0.00    -0.526 OA
ATOM      8  H5  UNL d   1      -3.993  -0.217   0.770  0.00  0.00     0.418 HD
ENDBRANCH   4   7
TORSDOF 1
ENDMDL
