MODEL 1
REMARK minimizedAffinity -4.28160667
REMARK minimizedRMSD -1
REMARK  1 active torsions:
REMARK  status: ('A' for Active; 'I' for Inactive)
REMARK    1  A    between atoms: C3_4  and  O_7 
ROOT
ATOM      1  C   UNL d   1      -2.615  -1.080  -0.623  0.00  0.00    -0.033 A 
ATOM      2  C1  UNL d   1      -1.748  -0.621  -1.615  0.00  0.00     0.039 A 
ATOM      3  C2  UNL d   1      -0.559   0.022  -1.263  0.00  0.00    -0.080 A 
ATOM      4  C3  UNL d   1      -0.251   0.199   0.083  0.00  0.00     0.150 A 
ATOM      5  C4  UNL d   1      -1.109  -0.260   1.077  0.00  0.00    -0.007 A 
ATOM      6  C5  UNL d   1      -2.295  -0.901   0.723  0.00  0.00     0.039 A 
ENDROOT
BRANCH   4   7
ATOM      7  O   UNL d   1       0.895   0.825   0.475  0.00  0.00    -0.526 OA
ATOM      8  H5  UNL d   1       1.375   1.113  -0.319  0.00  0.00     0.418 HD
ENDBRANCH   4   7
TORSDOF 1
ENDMDL
