MODEL 1
REMARK minimizedAffinity -4.58598042
REMARK minimizedRMSD -1
REMARK  1 active torsions:
REMARK  status: ('A' for Active; 'I' for Inactive)
REMARK    1  A    between atoms: C3_4  and  O_7 
ROOT
ATOM      1  C   UNL d   1       1.148  -0.411  -0.366  0.00  0.00    -0.033 A 
ATOM      2  C1  UNL d   1       0.618  -0.816   0.861  0.00  0.00     0.039 A 
ATOM      3  C2  UNL d   1      -0.765  -0.868   1.043  0.00  0.00    -0.080 A 
ATOM      4  C3  UNL d   1      -1.606  -0.513  -0.009  0.00  0.00     0.150 A 
ATOM      5  C4  UNL d   1      -1.085  -0.112  -1.234  0.00  0.00    -0.007 A 
ATOM      6  C5  UNL d   1       0.297  -0.060  -1.414  0.00  0.00     0.039 A 
ENDROOT
BRANCH   4   7
ATOM      7  O   UNL d   1      -2.963  -0.542   0.123  0.00  0.00    -0.526 OA
ATOM      8  H5  UNL d   1      -3.178  -0.811   1.032  0.00  0.00     0.418 HD
ENDBRANCH   4   7
TORSDOF 1
ENDMDL
