MODEL 1
REMARK minimizedAffinity -5.49116611
REMARK minimizedRMSD -1
REMARK  1 active torsions:
REMARK  status: ('A' for Active; 'I' for Inactive)
REMARK    1  A    between atoms: C3_4  and  O_7 
ROOT
ATOM      1  C   UNL d   1       0.408  -0.400   0.348  0.00  0.00    -0.033 A 
ATOM      2  C1  UNL d   1      -0.068   0.107  -0.863  0.00  0.00     0.039 A 
ATOM      3  C2  UNL d   1      -1.440   0.124  -1.124  0.00  0.00    -0.080 A 
ATOM      4  C3  UNL d   1      -2.324  -0.367  -0.167  0.00  0.00     0.150 A 
ATOM      5  C4  UNL d   1      -1.857  -0.870   1.043  0.00  0.00    -0.007 A 
ATOM      6  C5  UNL d   1      -0.487  -0.887   1.302  0.00  0.00     0.039 A 
ENDROOT
BRANCH   4   7
ATOM      7  O   UNL d   1      -3.670  -0.375  -0.378  0.00  0.00    -0.526 OA
ATOM      8  H5  UNL d   1      -3.844  -0.025  -1.268  0.00  0.00     0.418 HD
ENDBRANCH   4   7
TORSDOF 1
ENDMDL
