MODEL 1
REMARK minimizedAffinity -5.4877739
REMARK minimizedRMSD -1
REMARK  1 active torsions:
REMARK  status: ('A' for Active; 'I' for Inactive)
REMARK    1  A    between atoms: C3_4  and  O_7 
ROOT
ATOM      1  C   UNL d   1      -2.686  -0.669  -0.213  0.00  0.00    -0.033 A 
ATOM      2  C1  UNL d   1      -2.066  -0.790   1.032  0.00  0.00     0.039 A 
ATOM      3  C2  UNL d   1      -0.704  -0.513   1.166  0.00  0.00    -0.080 A 
ATOM      4  C3  UNL d   1       0.025  -0.116   0.048  0.00  0.00     0.150 A 
ATOM      5  C4  UNL d   1      -0.587   0.011  -1.194  0.00  0.00    -0.007 A 
ATOM      6  C5  UNL d   1      -1.947  -0.267  -1.326  0.00  0.00     0.039 A 
ENDROOT
BRANCH   4   7
ATOM      7  O   UNL d   1       1.358   0.160   0.128  0.00  0.00    -0.526 OA
ATOM      8  H5  UNL d   1       1.651   0.002   1.041  0.00  0.00     0.418 HD
ENDBRANCH   4   7
TORSDOF 1
ENDMDL
