MODEL 1
REMARK minimizedAffinity -4.31584263
REMARK minimizedRMSD -1
REMARK  1 active torsions:
REMARK  status: ('A' for Active; 'I' for Inactive)
REMARK    1  A    between atoms: C3_4  and  O_7 
ROOT
ATOM      1  C   UNL d   1      -2.900  -1.754  -0.038  0.00  0.00    -0.033 A 
ATOM      2  C1  UNL d   1      -2.135  -2.060   1.089  0.00  0.00     0.039 A 
ATOM      3  C2  UNL d   1      -0.925  -1.402   1.314  0.00  0.00    -0.080 A 
ATOM      4  C3  UNL d   1      -0.491  -0.440   0.406  0.00  0.00     0.150 A 
ATOM      5  C4  UNL d   1      -1.249  -0.127  -0.717  0.00  0.00    -0.007 A 
ATOM      6  C5  UNL d   1      -2.457  -0.786  -0.941  0.00  0.00     0.039 A 
ENDROOT
BRANCH   4   7
ATOM      7  O   UNL d   1       0.686   0.225   0.581  0.00  0.00    -0.526 OA
ATOM      8  H5  UNL d   1       1.116  -0.116   1.383  0.00  0.00     0.418 HD
ENDBRANCH   4   7
TORSDOF 1
ENDMDL
