MODEL 1
REMARK minimizedAffinity -5.69893312
REMARK minimizedRMSD -1
REMARK  1 active torsions:
REMARK  status: ('A' for Active; 'I' for Inactive)
REMARK    1  A    between atoms: C3_4  and  O_7 
ROOT
ATOM      1  C   UNL d   1       0.317   0.029  -0.747  0.00  0.00    -0.033 A 
ATOM      2  C1  UNL d   1      -0.143  -0.657   0.379  0.00  0.00     0.039 A 
ATOM      3  C2  UNL d   1      -1.514  -0.810   0.593  0.00  0.00    -0.080 A 
ATOM      4  C3  UNL d   1      -2.414  -0.275  -0.325  0.00  0.00     0.150 A 
ATOM      5  C4  UNL d   1      -1.962   0.406  -1.451  0.00  0.00    -0.007 A 
ATOM      6  C5  UNL d   1      -0.593   0.559  -1.662  0.00  0.00     0.039 A 
ENDROOT
BRANCH   4   7
ATOM      7  O   UNL d   1      -3.761  -0.395  -0.156  0.00  0.00    -0.526 OA
ATOM      8  H5  UNL d   1      -3.926  -0.864   0.679  0.00  0.00     0.418 HD
ENDBRANCH   4   7
TORSDOF 1
ENDMDL
