MODEL 1
REMARK minimizedAffinity -5.05242109
REMARK minimizedRMSD -1
REMARK  1 active torsions:
REMARK  status: ('A' for Active; 'I' for Inactive)
REMARK    1  A    between atoms: C3_4  and  O_7 
ROOT
ATOM      1  C   UNL d   1      -0.708   0.154  -0.905  0.00  0.00    -0.033 A 
ATOM      2  C1  UNL d   1       0.606  -0.006  -0.461  0.00  0.00     0.039 A 
ATOM      3  C2  UNL d   1       0.909  -0.983   0.490  0.00  0.00    -0.080 A 
ATOM      4  C3  UNL d   1      -0.109  -1.792   0.987  0.00  0.00     0.150 A 
ATOM      5  C4  UNL d   1      -1.419  -1.641   0.545  0.00  0.00    -0.007 A 
ATOM      6  C5  UNL d   1      -1.720  -0.665  -0.403  0.00  0.00     0.039 A 
ENDROOT
BRANCH   4   7
ATOM      7  O   UNL d   1       0.138  -2.756   1.919  0.00  0.00    -0.526 OA
ATOM      8  H5  UNL d   1       1.081  -2.726   2.151  0.00  0.00     0.418 HD
ENDBRANCH   4   7
TORSDOF 1
ENDMDL
