MODEL 1
REMARK minimizedAffinity -5.37753963
REMARK minimizedRMSD -1
REMARK  1 active torsions:
REMARK  status: ('A' for Active; 'I' for Inactive)
REMARK    1  A    between atoms: C3_4  and  O_7 
ROOT
ATOM      1  C   UNL d   1      -3.061  -0.683  -0.017  0.00  0.00    -0.033 A 
ATOM      2  C1  UNL d   1      -1.864  -0.013   0.241  0.00  0.00     0.039 A 
ATOM      3  C2  UNL d   1      -0.881  -0.614   1.029  0.00  0.00    -0.080 A 
ATOM      4  C3  UNL d   1      -1.107  -1.884   1.552  0.00  0.00     0.150 A 
ATOM      5  C4  UNL d   1      -2.295  -2.560   1.296  0.00  0.00    -0.007 A 
ATOM      6  C5  UNL d   1      -3.276  -1.957   0.509  0.00  0.00     0.039 A 
ENDROOT
BRANCH   4   7
ATOM      7  O   UNL d   1      -0.179  -2.509   2.331  0.00  0.00    -0.526 OA
ATOM      8  H5  UNL d   1       0.579  -1.912   2.447  0.00  0.00     0.418 HD
ENDBRANCH   4   7
TORSDOF 1
ENDMDL
