MODEL 1
REMARK minimizedAffinity -3.08686447
REMARK minimizedRMSD -1
REMARK  1 active torsions:
REMARK  status: ('A' for Active; 'I' for Inactive)
REMARK    1  A    between atoms: C3_4  and  O_7 
ROOT
ATOM      1  C   UNL d   1       2.529   1.874   1.091  0.00  0.00    -0.033 A 
ATOM      2  C1  UNL d   1       2.548   3.179   1.589  0.00  0.00     0.039 A 
ATOM      3  C2  UNL d   1       2.737   4.256   0.721  0.00  0.00    -0.080 A 
ATOM      4  C3  UNL d   1       2.903   4.016  -0.640  0.00  0.00     0.150 A 
ATOM      5  C4  UNL d   1       2.881   2.719  -1.143  0.00  0.00    -0.007 A 
ATOM      6  C5  UNL d   1       2.694   1.644  -0.275  0.00  0.00     0.039 A 
ENDROOT
BRANCH   4   7
ATOM      7  O   UNL d   1       3.095   5.034  -1.526  0.00  0.00    -0.526 OA
ATOM      8  H5  UNL d   1       3.115   5.871  -1.032  0.00  0.00     0.418 HD
ENDBRANCH   4   7
TORSDOF 1
ENDMDL
