MODEL 1
REMARK minimizedAffinity -4.3939352
REMARK minimizedRMSD -1
REMARK  1 active torsions:
REMARK  status: ('A' for Active; 'I' for Inactive)
REMARK    1  A    between atoms: C3_4  and  O_7 
ROOT
ATOM      1  C   UNL d   1       2.970   3.102  -0.420  0.00  0.00    -0.033 A 
ATOM      2  C1  UNL d   1       3.212   4.454  -0.673  0.00  0.00     0.039 A 
ATOM      3  C2  UNL d   1       3.958   4.834  -1.790  0.00  0.00    -0.080 A 
ATOM      4  C3  UNL d   1       4.456   3.855  -2.645  0.00  0.00     0.150 A 
ATOM      5  C4  UNL d   1       4.216   2.507  -2.401  0.00  0.00    -0.007 A 
ATOM      6  C5  UNL d   1       3.471   2.129  -1.284  0.00  0.00     0.039 A 
ENDROOT
BRANCH   4   7
ATOM      7  O   UNL d   1       5.193   4.177  -3.745  0.00  0.00    -0.526 OA
ATOM      8  H5  UNL d   1       5.302   5.143  -3.771  0.00  0.00     0.418 HD
ENDBRANCH   4   7
TORSDOF 1
ENDMDL
