MODEL 1
REMARK minimizedAffinity -3.90348697
REMARK minimizedRMSD -1
REMARK  1 active torsions:
REMARK  status: ('A' for Active; 'I' for Inactive)
REMARK    1  A    between atoms: C3_4  and  O_7 
ROOT
ATOM      1  C   UNL d   1       3.764   3.762  -2.246  0.00  0.00    -0.033 A 
ATOM      2  C1  UNL d   1       3.743   2.378  -2.061  0.00  0.00     0.039 A 
ATOM      3  C2  UNL d   1       3.117   1.832  -0.939  0.00  0.00    -0.080 A 
ATOM      4  C3  UNL d   1       2.516   2.678  -0.012  0.00  0.00     0.150 A 
ATOM      5  C4  UNL d   1       2.530   4.057  -0.192  0.00  0.00    -0.007 A 
ATOM      6  C5  UNL d   1       3.156   4.601  -1.312  0.00  0.00     0.039 A 
ENDROOT
BRANCH   4   7
ATOM      7  O   UNL d   1       1.898   2.191   1.101  0.00  0.00    -0.526 OA
ATOM      8  H5  UNL d   1       1.992   1.224   1.108  0.00  0.00     0.418 HD
ENDBRANCH   4   7
TORSDOF 1
ENDMDL
