MODEL 1
REMARK minimizedAffinity -3.62925577
REMARK minimizedRMSD -1
REMARK  1 active torsions:
REMARK  status: ('A' for Active; 'I' for Inactive)
REMARK    1  A    between atoms: C3_4  and  O_7 
ROOT
ATOM      1  C   UNL d   1      -0.643  -0.060  -1.817  0.00  0.00    -0.033 A 
ATOM      2  C1  UNL d   1       0.444  -0.076  -0.941  0.00  0.00     0.039 A 
ATOM      3  C2  UNL d   1       0.484  -0.998   0.107  0.00  0.00    -0.080 A 
ATOM      4  C3  UNL d   1      -0.566  -1.898   0.266  0.00  0.00     0.150 A 
ATOM      5  C4  UNL d   1      -1.650  -1.890  -0.606  0.00  0.00    -0.007 A 
ATOM      6  C5  UNL d   1      -1.689  -0.968  -1.650  0.00  0.00     0.039 A 
ENDROOT
BRANCH   4   7
ATOM      7  O   UNL d   1      -0.573  -2.813   1.276  0.00  0.00    -0.526 OA
ATOM      8  H5  UNL d   1       0.224  -2.682   1.816  0.00  0.00     0.418 HD
ENDBRANCH   4   7
TORSDOF 1
ENDMDL
