MODEL 1
REMARK minimizedAffinity -4.06688166
REMARK minimizedRMSD -1
REMARK  1 active torsions:
REMARK  status: ('A' for Active; 'I' for Inactive)
REMARK    1  A    between atoms: C3_4  and  O_7 
ROOT
ATOM      1  C   UNL d   1      -0.510   0.159  -1.122  0.00  0.00    -0.033 A 
ATOM      2  C1  UNL d   1       0.752   0.263  -0.534  0.00  0.00     0.039 A 
ATOM      3  C2  UNL d   1       1.133  -0.630   0.470  0.00  0.00    -0.080 A 
ATOM      4  C3  UNL d   1       0.244  -1.622   0.875  0.00  0.00     0.150 A 
ATOM      5  C4  UNL d   1      -1.014  -1.734   0.290  0.00  0.00    -0.007 A 
ATOM      6  C5  UNL d   1      -1.392  -0.841  -0.711  0.00  0.00     0.039 A 
ENDROOT
BRANCH   4   7
ATOM      7  O   UNL d   1       0.568  -2.514   1.854  0.00  0.00    -0.526 OA
ATOM      8  H5  UNL d   1       1.456  -2.297   2.185  0.00  0.00     0.418 HD
ENDBRANCH   4   7
TORSDOF 1
ENDMDL
