MODEL 1
REMARK minimizedAffinity -4.27774811
REMARK minimizedRMSD -1
REMARK  1 active torsions:
REMARK  status: ('A' for Active; 'I' for Inactive)
REMARK    1  A    between atoms: C3_4  and  O_7 
ROOT
ATOM      1  C   UNL d   1       2.295   2.138   1.515  0.00  0.00    -0.033 A 
ATOM      2  C1  UNL d   1       2.501   3.506   1.708  0.00  0.00     0.039 A 
ATOM      3  C2  UNL d   1       2.701   4.345   0.610  0.00  0.00    -0.080 A 
ATOM      4  C3  UNL d   1       2.692   3.806  -0.673  0.00  0.00     0.150 A 
ATOM      5  C4  UNL d   1       2.484   2.445  -0.873  0.00  0.00    -0.007 A 
ATOM      6  C5  UNL d   1       2.285   1.608   0.224  0.00  0.00     0.039 A 
ENDROOT
BRANCH   4   7
ATOM      7  O   UNL d   1       2.888   4.584  -1.775  0.00  0.00    -0.526 OA
ATOM      8  H5  UNL d   1       3.047   5.497  -1.483  0.00  0.00     0.418 HD
ENDBRANCH   4   7
TORSDOF 1
ENDMDL
