MODEL 1
REMARK minimizedAffinity -1.66129994
REMARK minimizedRMSD -1
REMARK  0 active torsions:
REMARK  status: ('A' for Active; 'I' for Inactive)
ROOT
ATOM      1  C4' PXY d   1       3.383  -4.139   0.602  0.00  0.00     0.077 C 
ATOM      2  C1' PXY d   1      -1.663  -2.732   3.046  0.00  0.00     0.077 C 
ATOM      3  C1  PXY d   1      -0.343  -3.094   2.394  0.00  0.00    -0.082 A 
ATOM      4  C2  PXY d   1       0.292  -4.193   2.769  0.00  0.00     0.003 A 
ATOM      5  C3  PXY d   1       1.503  -4.518   2.213  0.00  0.00     0.003 A 
ATOM      6  C4  PXY d   1       2.043  -3.739   1.226  0.00  0.00    -0.082 A 
ATOM      7  C5  PXY d   1       1.396  -2.623   0.830  0.00  0.00     0.003 A 
ATOM      8  C6  PXY d   1       0.189  -2.288   1.436  0.00  0.00     0.003 A 
ENDROOT
TORSDOF 0
ENDMDL
