MODEL 1
REMARK minimizedAffinity 2.68540072
REMARK minimizedRMSD -1
REMARK  0 active torsions:
REMARK  status: ('A' for Active; 'I' for Inactive)
ROOT
ATOM      1  C4' PXY d   1      -1.189  -2.026   1.723  0.00  0.00     0.077 C 
ATOM      2  C1' PXY d   1       3.561   0.597  -0.269  0.00  0.00     0.077 C 
ATOM      3  C1  PXY d   1       2.317  -0.084   0.265  0.00  0.00    -0.082 A 
ATOM      4  C2  PXY d   1       1.939  -1.247  -0.242  0.00  0.00     0.003 A 
ATOM      5  C3  PXY d   1       0.799  -1.861   0.206  0.00  0.00     0.003 A 
ATOM      6  C4  PXY d   1       0.066  -1.307   1.221  0.00  0.00    -0.082 A 
ATOM      7  C5  PXY d   1       0.451  -0.126   1.752  0.00  0.00     0.003 A 
ATOM      8  C6  PXY d   1       1.589   0.502   1.254  0.00  0.00     0.003 A 
ENDROOT
TORSDOF 0
ENDMDL
