MODEL 1
REMARK minimizedAffinity -1.24429238
REMARK minimizedRMSD -1
REMARK  0 active torsions:
REMARK  status: ('A' for Active; 'I' for Inactive)
ROOT
ATOM      1  C4' PXY d   1       3.890  -3.807   0.223  0.00  0.00     0.077 C 
ATOM      2  C1' PXY d   1      -1.150  -2.525   2.746  0.00  0.00     0.077 C 
ATOM      3  C1  PXY d   1       0.166  -2.860   2.073  0.00  0.00    -0.082 A 
ATOM      4  C2  PXY d   1       1.081  -3.552   2.732  0.00  0.00     0.003 A 
ATOM      5  C3  PXY d   1       2.289  -3.836   2.150  0.00  0.00     0.003 A 
ATOM      6  C4  PXY d   1       2.543  -3.454   0.860  0.00  0.00    -0.082 A 
ATOM      7  C5  PXY d   1       1.611  -2.757   0.176  0.00  0.00     0.003 A 
ATOM      8  C6  PXY d   1       0.407  -2.443   0.800  0.00  0.00     0.003 A 
ENDROOT
TORSDOF 0
ENDMDL
