MODEL 1
REMARK minimizedAffinity 2.47592402
REMARK minimizedRMSD -1
REMARK  0 active torsions:
REMARK  status: ('A' for Active; 'I' for Inactive)
ROOT
ATOM      1  C4' PXY d   1       1.261   3.382  -5.998  0.00  0.00     0.077 C 
ATOM      2  C1' PXY d   1      -3.824   5.870  -4.831  0.00  0.00     0.077 C 
ATOM      3  C1  PXY d   1      -2.488   5.227  -5.145  0.00  0.00    -0.082 A 
ATOM      4  C2  PXY d   1      -2.341   3.920  -5.004  0.00  0.00     0.003 A 
ATOM      5  C3  PXY d   1      -1.130   3.327  -5.252  0.00  0.00     0.003 A 
ATOM      6  C4  PXY d   1      -0.073   4.072  -5.701  0.00  0.00    -0.082 A 
ATOM      7  C5  PXY d   1      -0.217   5.405  -5.858  0.00  0.00     0.003 A 
ATOM      8  C6  PXY d   1      -1.443   5.994  -5.561  0.00  0.00     0.003 A 
ENDROOT
TORSDOF 0
ENDMDL
