MODEL 1
REMARK minimizedAffinity 4.67886209
REMARK minimizedRMSD -1
REMARK  0 active torsions:
REMARK  status: ('A' for Active; 'I' for Inactive)
ROOT
ATOM      1  C4' PXY d   1       3.509  -5.179   1.757  0.00  0.00     0.077 C 
ATOM      2  C1' PXY d   1      -0.120  -0.787   0.782  0.00  0.00     0.077 C 
ATOM      3  C1  PXY d   1       0.830  -1.943   1.025  0.00  0.00    -0.082 A 
ATOM      4  C2  PXY d   1       1.007  -2.396   2.256  0.00  0.00     0.003 A 
ATOM      5  C3  PXY d   1       1.887  -3.420   2.498  0.00  0.00     0.003 A 
ATOM      6  C4  PXY d   1       2.552  -4.021   1.463  0.00  0.00    -0.082 A 
ATOM      7  C5  PXY d   1       2.369  -3.571   0.204  0.00  0.00     0.003 A 
ATOM      8  C6  PXY d   1       1.503  -2.504  -0.016  0.00  0.00     0.003 A 
ENDROOT
TORSDOF 0
ENDMDL
