MODEL 1
REMARK minimizedAffinity 0.139350995
REMARK minimizedRMSD -1
REMARK  0 active torsions:
REMARK  status: ('A' for Active; 'I' for Inactive)
ROOT
ATOM      1  C4' PXY d   1      -4.505   2.224  -3.750  0.00  0.00     0.077 C 
ATOM      2  C1' PXY d   1      -3.399  -3.004  -5.955  0.00  0.00     0.077 C 
ATOM      3  C1  PXY d   1      -3.693  -1.629  -5.389  0.00  0.00    -0.082 A 
ATOM      4  C2  PXY d   1      -3.068  -1.225  -4.294  0.00  0.00     0.003 A 
ATOM      5  C3  PXY d   1      -3.346   0.003  -3.750  0.00  0.00     0.003 A 
ATOM      6  C4  PXY d   1      -4.232   0.847  -4.363  0.00  0.00    -0.082 A 
ATOM      7  C5  PXY d   1      -4.866   0.447  -5.485  0.00  0.00     0.003 A 
ATOM      8  C6  PXY d   1      -4.601  -0.820  -5.999  0.00  0.00     0.003 A 
ENDROOT
TORSDOF 0
ENDMDL
