MODEL 1
REMARK minimizedAffinity 4.40059233
REMARK minimizedRMSD -1
REMARK  0 active torsions:
REMARK  status: ('A' for Active; 'I' for Inactive)
ROOT
ATOM      1  C4' PXY d   1      -1.319  -3.059   2.474  0.00  0.00     0.077 C 
ATOM      2  C1' PXY d   1       2.703   0.575   0.465  0.00  0.00     0.077 C 
ATOM      3  C1  PXY d   1       1.655  -0.389   0.987  0.00  0.00    -0.082 A 
ATOM      4  C2  PXY d   1       0.412   0.029   1.160  0.00  0.00     0.003 A 
ATOM      5  C3  PXY d   1      -0.541  -0.820   1.662  0.00  0.00     0.003 A 
ATOM      6  C4  PXY d   1      -0.230  -2.124   1.940  0.00  0.00    -0.082 A 
ATOM      7  C5  PXY d   1       1.034  -2.560   1.756  0.00  0.00     0.003 A 
ATOM      8  C6  PXY d   1       1.996  -1.672   1.285  0.00  0.00     0.003 A 
ENDROOT
TORSDOF 0
ENDMDL
