MODEL 1
REMARK minimizedAffinity -3.09955382
REMARK minimizedRMSD -1
REMARK  0 active torsions:
REMARK  status: ('A' for Active; 'I' for Inactive)
ROOT
ATOM      1  C   UNL d   1      -0.051   0.370  -1.582  0.00  0.00     0.077 C 
ATOM      2  C1  UNL d   1      -0.297   0.341  -0.103  0.00  0.00    -0.074 A 
ATOM      3  C2  UNL d   1       0.766   0.241   0.801  0.00  0.00    -0.005 A 
ATOM      4  C3  UNL d   1       0.522   0.225   2.174  0.00  0.00     0.006 A 
ATOM      5  C4  UNL d   1      -0.785   0.309   2.656  0.00  0.00    -0.005 A 
ATOM      6  C5  UNL d   1      -1.860   0.411   1.768  0.00  0.00    -0.074 A 
ATOM      7  C6  UNL d   1      -3.270   0.512   2.270  0.00  0.00     0.077 C 
ATOM      8  C7  UNL d   1      -1.606   0.433   0.390  0.00  0.00    -0.001 A 
ENDROOT
TORSDOF 0
ENDMDL
