MODEL 1
REMARK minimizedAffinity -0.838223398
REMARK minimizedRMSD -1
REMARK  0 active torsions:
REMARK  status: ('A' for Active; 'I' for Inactive)
ROOT
ATOM      1  C   UNL d   1      -0.810   0.002   3.380  0.00  0.00     0.077 C 
ATOM      2  C1  UNL d   1      -1.076   0.053   1.905  0.00  0.00    -0.074 A 
ATOM      3  C2  UNL d   1      -2.383   0.128   1.413  0.00  0.00    -0.005 A 
ATOM      4  C3  UNL d   1      -2.614   0.184   0.038  0.00  0.00     0.006 A 
ATOM      5  C4  UNL d   1      -1.543   0.166  -0.856  0.00  0.00    -0.005 A 
ATOM      6  C5  UNL d   1      -0.230   0.092  -0.382  0.00  0.00    -0.074 A 
ATOM      7  C6  UNL d   1       0.933   0.081  -1.329  0.00  0.00     0.077 C 
ATOM      8  C7  UNL d   1      -0.005   0.042   1.001  0.00  0.00    -0.001 A 
ENDROOT
TORSDOF 0
ENDMDL
