MODEL 1
REMARK minimizedAffinity -4.47826529
REMARK minimizedRMSD -1
REMARK  0 active torsions:
REMARK  status: ('A' for Active; 'I' for Inactive)
ROOT
ATOM      1  C   UNL d   1       2.317   1.149   0.982  0.00  0.00     0.077 C 
ATOM      2  C1  UNL d   1       0.902   0.652   0.940  0.00  0.00    -0.074 A 
ATOM      3  C2  UNL d   1       0.237   0.481  -0.278  0.00  0.00    -0.005 A 
ATOM      4  C3  UNL d   1      -1.075   0.009  -0.302  0.00  0.00     0.006 A 
ATOM      5  C4  UNL d   1      -1.735  -0.296   0.889  0.00  0.00    -0.005 A 
ATOM      6  C5  UNL d   1      -1.085  -0.133   2.117  0.00  0.00    -0.074 A 
ATOM      7  C6  UNL d   1      -1.775  -0.465   3.406  0.00  0.00     0.077 C 
ATOM      8  C7  UNL d   1       0.236   0.336   2.132  0.00  0.00    -0.001 A 
ENDROOT
TORSDOF 0
ENDMDL
