MODEL 1
REMARK minimizedAffinity -5.2638464
REMARK minimizedRMSD -1
REMARK  0 active torsions:
REMARK  status: ('A' for Active; 'I' for Inactive)
ROOT
ATOM      1  C   UNL d   1      -2.617  -0.003   2.631  0.00  0.00     0.077 C 
ATOM      2  C1  UNL d   1      -1.310   0.083   1.901  0.00  0.00    -0.074 A 
ATOM      3  C2  UNL d   1      -0.095   0.036   2.592  0.00  0.00    -0.005 A 
ATOM      4  C3  UNL d   1       1.112   0.107   1.898  0.00  0.00     0.006 A 
ATOM      5  C4  UNL d   1       1.118   0.226   0.508  0.00  0.00    -0.005 A 
ATOM      6  C5  UNL d   1      -0.087   0.274  -0.201  0.00  0.00    -0.074 A 
ATOM      7  C6  UNL d   1      -0.098   0.391  -1.696  0.00  0.00     0.077 C 
ATOM      8  C7  UNL d   1      -1.296   0.194   0.503  0.00  0.00    -0.001 A 
ENDROOT
TORSDOF 0
ENDMDL
