MODEL 1
REMARK minimizedAffinity -2.64963341
REMARK minimizedRMSD -1
REMARK  0 active torsions:
REMARK  status: ('A' for Active; 'I' for Inactive)
ROOT
ATOM      1  C   UNL d   1       3.340  -0.763  -3.409  0.00  0.00     0.077 C 
ATOM      2  C1  UNL d   1       1.866  -0.768  -3.130  0.00  0.00    -0.074 A 
ATOM      3  C2  UNL d   1       0.950  -1.157  -4.112  0.00  0.00    -0.005 A 
ATOM      4  C3  UNL d   1      -0.417  -1.165  -3.835  0.00  0.00     0.006 A 
ATOM      5  C4  UNL d   1      -0.881  -0.786  -2.575  0.00  0.00    -0.005 A 
ATOM      6  C5  UNL d   1       0.020  -0.394  -1.580  0.00  0.00    -0.074 A 
ATOM      7  C6  UNL d   1      -0.461   0.008  -0.218  0.00  0.00     0.077 C 
ATOM      8  C7  UNL d   1       1.393  -0.395  -1.864  0.00  0.00    -0.001 A 
ENDROOT
TORSDOF 0
ENDMDL
