MODEL 1
REMARK minimizedAffinity -3.30680585
REMARK minimizedRMSD -1
REMARK  0 active torsions:
REMARK  status: ('A' for Active; 'I' for Inactive)
ROOT
ATOM      1  C   UNL d   1      -1.806  -0.145   3.669  0.00  0.00     0.077 C 
ATOM      2  C1  UNL d   1      -0.764  -0.014   2.599  0.00  0.00    -0.074 A 
ATOM      3  C2  UNL d   1       0.598  -0.008   2.919  0.00  0.00    -0.005 A 
ATOM      4  C3  UNL d   1       1.556   0.105   1.911  0.00  0.00     0.006 A 
ATOM      5  C4  UNL d   1       1.163   0.213   0.577  0.00  0.00    -0.005 A 
ATOM      6  C5  UNL d   1      -0.194   0.208   0.238  0.00  0.00    -0.074 A 
ATOM      7  C6  UNL d   1      -0.632   0.314  -1.192  0.00  0.00     0.077 C 
ATOM      8  C7  UNL d   1      -1.150   0.088   1.255  0.00  0.00    -0.001 A 
ENDROOT
TORSDOF 0
ENDMDL
