MODEL 1
REMARK minimizedAffinity -2.84190345
REMARK minimizedRMSD -1
REMARK  0 active torsions:
REMARK  status: ('A' for Active; 'I' for Inactive)
ROOT
ATOM      1  C   UNL d   1       3.678  -0.448  -3.677  0.00  0.00     0.077 C 
ATOM      2  C1  UNL d   1       2.295  -0.351  -3.105  0.00  0.00    -0.074 A 
ATOM      3  C2  UNL d   1       1.199  -0.900  -3.778  0.00  0.00    -0.005 A 
ATOM      4  C3  UNL d   1      -0.080  -0.811  -3.229  0.00  0.00     0.006 A 
ATOM      5  C4  UNL d   1      -0.276  -0.172  -2.004  0.00  0.00    -0.005 A 
ATOM      6  C5  UNL d   1       0.808   0.383  -1.317  0.00  0.00    -0.074 A 
ATOM      7  C6  UNL d   1       0.617   1.064   0.006  0.00  0.00     0.077 C 
ATOM      8  C7  UNL d   1       2.092   0.282  -1.871  0.00  0.00    -0.001 A 
ENDROOT
TORSDOF 0
ENDMDL
