MODEL 1
REMARK minimizedAffinity -2.72837496
REMARK minimizedRMSD -1
REMARK  0 active torsions:
REMARK  status: ('A' for Active; 'I' for Inactive)
ROOT
ATOM      1  C   UNL d   1       2.156  -0.664  -3.557  0.00  0.00     0.077 C 
ATOM      2  C1  UNL d   1       1.162  -0.498  -2.446  0.00  0.00    -0.074 A 
ATOM      3  C2  UNL d   1      -0.174  -0.875  -2.615  0.00  0.00    -0.005 A 
ATOM      4  C3  UNL d   1      -1.086  -0.724  -1.570  0.00  0.00     0.006 A 
ATOM      5  C4  UNL d   1      -0.671  -0.195  -0.347  0.00  0.00    -0.005 A 
ATOM      6  C5  UNL d   1       0.662   0.187  -0.159  0.00  0.00    -0.074 A 
ATOM      7  C6  UNL d   1       1.126   0.749   1.152  0.00  0.00     0.077 C 
ATOM      8  C7  UNL d   1       1.573   0.026  -1.212  0.00  0.00    -0.001 A 
ENDROOT
TORSDOF 0
ENDMDL
