MODEL 1
REMARK minimizedAffinity -2.82590246
REMARK minimizedRMSD -1
REMARK  0 active torsions:
REMARK  status: ('A' for Active; 'I' for Inactive)
ROOT
ATOM      1  C   UNL d   1       2.136   0.040  -3.843  0.00  0.00     0.077 C 
ATOM      2  C1  UNL d   1       1.120  -0.222  -2.771  0.00  0.00    -0.074 A 
ATOM      3  C2  UNL d   1      -0.002  -1.017  -3.022  0.00  0.00    -0.005 A 
ATOM      4  C3  UNL d   1      -0.933  -1.259  -2.012  0.00  0.00     0.006 A 
ATOM      5  C4  UNL d   1      -0.751  -0.709  -0.742  0.00  0.00    -0.005 A 
ATOM      6  C5  UNL d   1       0.366   0.088  -0.472  0.00  0.00    -0.074 A 
ATOM      7  C6  UNL d   1       0.581   0.679   0.890  0.00  0.00     0.077 C 
ATOM      8  C7  UNL d   1       1.300   0.321  -1.490  0.00  0.00    -0.001 A 
ENDROOT
TORSDOF 0
ENDMDL
