MODEL 1
REMARK minimizedAffinity -4.50754213
REMARK minimizedRMSD -1
REMARK  0 active torsions:
REMARK  status: ('A' for Active; 'I' for Inactive)
ROOT
ATOM      1  C   UNL d   1      -3.009   0.222   2.210  0.00  0.00     0.077 C 
ATOM      2  C1  UNL d   1      -1.566   0.124   1.813  0.00  0.00    -0.074 A 
ATOM      3  C2  UNL d   1      -0.577  -0.158   2.761  0.00  0.00    -0.005 A 
ATOM      4  C3  UNL d   1       0.760  -0.255   2.376  0.00  0.00     0.006 A 
ATOM      5  C4  UNL d   1       1.121  -0.072   1.041  0.00  0.00    -0.005 A 
ATOM      6  C5  UNL d   1       0.146   0.210   0.078  0.00  0.00    -0.074 A 
ATOM      7  C6  UNL d   1       0.516   0.401  -1.363  0.00  0.00     0.077 C 
ATOM      8  C7  UNL d   1      -1.196   0.300   0.472  0.00  0.00    -0.001 A 
ENDROOT
TORSDOF 0
ENDMDL
