MODEL 1
REMARK minimizedAffinity -4.28989267
REMARK minimizedRMSD -1
REMARK  0 active torsions:
REMARK  status: ('A' for Active; 'I' for Inactive)
ROOT
ATOM      1  C   UNL d   1      -2.647   0.909   2.751  0.00  0.00     0.077 C 
ATOM      2  C1  UNL d   1      -1.643   0.911   1.637  0.00  0.00    -0.074 A 
ATOM      3  C2  UNL d   1      -2.053   0.936   0.300  0.00  0.00    -0.005 A 
ATOM      4  C3  UNL d   1      -1.107   0.946  -0.726  0.00  0.00     0.006 A 
ATOM      5  C4  UNL d   1       0.255   0.932  -0.425  0.00  0.00    -0.005 A 
ATOM      6  C5  UNL d   1       0.684   0.908   0.906  0.00  0.00    -0.074 A 
ATOM      7  C6  UNL d   1       2.145   0.902   1.246  0.00  0.00     0.077 C 
ATOM      8  C7  UNL d   1      -0.272   0.904   1.930  0.00  0.00    -0.001 A 
ENDROOT
TORSDOF 0
ENDMDL
