MODEL 1
REMARK minimizedAffinity -3.14828968
REMARK minimizedRMSD -1
REMARK  0 active torsions:
REMARK  status: ('A' for Active; 'I' for Inactive)
ROOT
ATOM      1  C   UNL d   1      -3.199   0.578   1.280  0.00  0.00     0.077 C 
ATOM      2  C1  UNL d   1      -1.723   0.479   1.031  0.00  0.00    -0.074 A 
ATOM      3  C2  UNL d   1      -0.810   0.545   2.088  0.00  0.00    -0.005 A 
ATOM      4  C3  UNL d   1       0.559   0.442   1.843  0.00  0.00     0.006 A 
ATOM      5  C4  UNL d   1       1.028   0.272   0.539  0.00  0.00    -0.005 A 
ATOM      6  C5  UNL d   1       0.130   0.203  -0.530  0.00  0.00    -0.074 A 
ATOM      7  C6  UNL d   1       0.617   0.011  -1.936  0.00  0.00     0.077 C 
ATOM      8  C7  UNL d   1      -1.244   0.301  -0.274  0.00  0.00    -0.001 A 
ENDROOT
TORSDOF 0
ENDMDL
