MODEL 1
REMARK minimizedAffinity -0.160867557
REMARK minimizedRMSD -1
REMARK  0 active torsions:
REMARK  status: ('A' for Active; 'I' for Inactive)
ROOT
ATOM      1  C   UNL d   1      -0.320   2.862   4.043  0.00  0.00     0.077 C 
ATOM      2  C1  UNL d   1      -1.081   1.952   3.126  0.00  0.00    -0.074 A 
ATOM      3  C2  UNL d   1      -2.443   1.707   3.324  0.00  0.00    -0.005 A 
ATOM      4  C3  UNL d   1      -3.140   0.865   2.457  0.00  0.00     0.006 A 
ATOM      5  C4  UNL d   1      -2.483   0.261   1.385  0.00  0.00    -0.005 A 
ATOM      6  C5  UNL d   1      -1.121   0.495   1.170  0.00  0.00    -0.074 A 
ATOM      7  C6  UNL d   1      -0.401  -0.139   0.017  0.00  0.00     0.077 C 
ATOM      8  C7  UNL d   1      -0.429   1.347   2.042  0.00  0.00    -0.001 A 
ENDROOT
TORSDOF 0
ENDMDL
