MODEL 1
REMARK minimizedAffinity 0.156355038
REMARK minimizedRMSD -1
REMARK  0 active torsions:
REMARK  status: ('A' for Active; 'I' for Inactive)
ROOT
ATOM      1  C   UNL d   1       0.505   0.430  -0.069  0.00  0.00     0.077 C 
ATOM      2  C1  UNL d   1       0.732  -0.265  -1.379  0.00  0.00    -0.074 A 
ATOM      3  C2  UNL d   1      -0.344  -0.743  -2.135  0.00  0.00    -0.005 A 
ATOM      4  C3  UNL d   1      -0.118  -1.378  -3.356  0.00  0.00     0.006 A 
ATOM      5  C4  UNL d   1       1.183  -1.541  -3.833  0.00  0.00    -0.005 A 
ATOM      6  C5  UNL d   1       2.271  -1.069  -3.092  0.00  0.00    -0.074 A 
ATOM      7  C6  UNL d   1       3.675  -1.227  -3.595  0.00  0.00     0.077 C 
ATOM      8  C7  UNL d   1       2.035  -0.425  -1.869  0.00  0.00    -0.001 A 
ENDROOT
TORSDOF 0
ENDMDL
