MODEL 1
REMARK minimizedAffinity -2.59697628
REMARK minimizedRMSD -1
REMARK  0 active torsions:
REMARK  status: ('A' for Active; 'I' for Inactive)
ROOT
ATOM      1  C   UNL d   1       1.156  -0.269  -1.517  0.00  0.00     0.077 C 
ATOM      2  C1  UNL d   1       0.539  -0.083  -0.162  0.00  0.00    -0.074 A 
ATOM      3  C2  UNL d   1       1.306  -0.211   1.000  0.00  0.00    -0.005 A 
ATOM      4  C3  UNL d   1       0.720  -0.026   2.253  0.00  0.00     0.006 A 
ATOM      5  C4  UNL d   1      -0.635   0.288   2.355  0.00  0.00    -0.005 A 
ATOM      6  C5  UNL d   1      -1.418   0.421   1.204  0.00  0.00    -0.074 A 
ATOM      7  C6  UNL d   1      -2.874   0.768   1.295  0.00  0.00     0.077 C 
ATOM      8  C7  UNL d   1      -0.821   0.241  -0.052  0.00  0.00    -0.001 A 
ENDROOT
TORSDOF 0
ENDMDL
