MODEL 1
REMARK minimizedAffinity -4.79484224
REMARK minimizedRMSD -1
REMARK  0 active torsions:
REMARK  status: ('A' for Active; 'I' for Inactive)
ROOT
ATOM      1  C   UNL d   1      -3.087   0.881   2.328  0.00  0.00     0.077 C 
ATOM      2  C1  UNL d   1      -1.699   0.506   1.903  0.00  0.00    -0.074 A 
ATOM      3  C2  UNL d   1      -0.694   0.281   2.849  0.00  0.00    -0.005 A 
ATOM      4  C3  UNL d   1       0.591  -0.076   2.439  0.00  0.00     0.006 A 
ATOM      5  C4  UNL d   1       0.883  -0.211   1.081  0.00  0.00    -0.005 A 
ATOM      6  C5  UNL d   1      -0.109   0.010   0.121  0.00  0.00    -0.074 A 
ATOM      7  C6  UNL d   1       0.185  -0.140  -1.342  0.00  0.00     0.077 C 
ATOM      8  C7  UNL d   1      -1.399   0.361   0.541  0.00  0.00    -0.001 A 
ENDROOT
TORSDOF 0
ENDMDL
