MODEL 1
REMARK minimizedAffinity -4.26049137
REMARK minimizedRMSD -1
REMARK  0 active torsions:
REMARK  status: ('A' for Active; 'I' for Inactive)
ROOT
ATOM      1  C   UNL d   1      -0.438   0.307   0.658  0.00  0.00     0.172 C 
ATOM      2  N   UNL d   1       0.675   1.221   0.764  0.00  0.00    -0.070 N 
ATOM      3  C1  UNL d   1       1.822   1.171   0.017  0.00  0.00    -0.004 A 
ATOM      4  C2  UNL d   1       2.632   2.212   0.418  0.00  0.00    -0.047 A 
ATOM      5  C3  UNL d   1       1.948   2.910   1.442  0.00  0.00    -0.047 A 
ATOM      6  C4  UNL d   1       0.740   2.275   1.636  0.00  0.00    -0.004 A 
ENDROOT
TORSDOF 0
ENDMDL
