MODEL 1
REMARK minimizedAffinity -3.74317312
REMARK minimizedRMSD -1
REMARK  0 active torsions:
REMARK  status: ('A' for Active; 'I' for Inactive)
ROOT
ATOM      1  C   UNL d   1      -0.596   0.748   0.032  0.00  0.00     0.172 C 
ATOM      2  N   UNL d   1       0.768   1.182   0.221  0.00  0.00    -0.070 N 
ATOM      3  C1  UNL d   1       1.166   2.273   0.946  0.00  0.00    -0.004 A 
ATOM      4  C2  UNL d   1       2.541   2.343   0.883  0.00  0.00    -0.047 A 
ATOM      5  C3  UNL d   1       2.985   1.258   0.091  0.00  0.00    -0.047 A 
ATOM      6  C4  UNL d   1       1.867   0.555  -0.306  0.00  0.00    -0.004 A 
ENDROOT
TORSDOF 0
ENDMDL
