MODEL 1
REMARK minimizedAffinity -4.09447002
REMARK minimizedRMSD -1
REMARK  0 active torsions:
REMARK  status: ('A' for Active; 'I' for Inactive)
ROOT
ATOM      1  C   UNL d   1      -0.041   0.147   0.753  0.00  0.00     0.172 C 
ATOM      2  N   UNL d   1       1.015   1.131   0.786  0.00  0.00    -0.070 N 
ATOM      3  C1  UNL d   1       2.235   1.013   0.176  0.00  0.00    -0.004 A 
ATOM      4  C2  UNL d   1       2.954   2.158   0.444  0.00  0.00    -0.047 A 
ATOM      5  C3  UNL d   1       2.137   2.993   1.243  0.00  0.00    -0.047 A 
ATOM      6  C4  UNL d   1       0.943   2.333   1.440  0.00  0.00    -0.004 A 
ENDROOT
TORSDOF 0
ENDMDL
