MODEL 1
REMARK minimizedAffinity -2.88056898
REMARK minimizedRMSD -1
REMARK  0 active torsions:
REMARK  status: ('A' for Active; 'I' for Inactive)
ROOT
ATOM      1  C   UNL d   1      -0.047   0.620  -0.001  0.00  0.00     0.172 C 
ATOM      2  N   UNL d   1       1.165   1.222   0.503  0.00  0.00    -0.070 N 
ATOM      3  C1  UNL d   1       1.231   2.297   1.348  0.00  0.00    -0.004 A 
ATOM      4  C2  UNL d   1       2.561   2.562   1.592  0.00  0.00    -0.047 A 
ATOM      5  C3  UNL d   1       3.322   1.613   0.868  0.00  0.00    -0.047 A 
ATOM      6  C4  UNL d   1       2.432   0.796   0.203  0.00  0.00    -0.004 A 
ENDROOT
TORSDOF 0
ENDMDL
