MODEL 1
REMARK minimizedAffinity -1.81507313
REMARK minimizedRMSD -1
REMARK  0 active torsions:
REMARK  status: ('A' for Active; 'I' for Inactive)
ROOT
ATOM      1  C   UNL d   1       0.321  -0.007  -1.145  0.00  0.00     0.172 C 
ATOM      2  N   UNL d   1      -0.756  -0.760  -1.744  0.00  0.00    -0.070 N 
ATOM      3  C1  UNL d   1      -1.104  -0.740  -3.068  0.00  0.00    -0.004 A 
ATOM      4  C2  UNL d   1      -2.176  -1.590  -3.236  0.00  0.00    -0.047 A 
ATOM      5  C3  UNL d   1      -2.483  -2.140  -1.969  0.00  0.00    -0.047 A 
ATOM      6  C4  UNL d   1      -1.588  -1.609  -1.063  0.00  0.00    -0.004 A 
ENDROOT
TORSDOF 0
ENDMDL
