MODEL 1
REMARK minimizedAffinity -3.97371745
REMARK minimizedRMSD -1
REMARK  0 active torsions:
REMARK  status: ('A' for Active; 'I' for Inactive)
ROOT
ATOM      1  C   UNL d   1       1.843  -0.470  -0.389  0.00  0.00     0.172 C 
ATOM      2  N   UNL d   1       1.832   0.802   0.293  0.00  0.00    -0.070 N 
ATOM      3  C1  UNL d   1       2.920   1.416   0.856  0.00  0.00    -0.004 A 
ATOM      4  C2  UNL d   1       2.495   2.606   1.405  0.00  0.00    -0.047 A 
ATOM      5  C3  UNL d   1       1.105   2.712   1.165  0.00  0.00    -0.047 A 
ATOM      6  C4  UNL d   1       0.720   1.581   0.475  0.00  0.00    -0.004 A 
ENDROOT
TORSDOF 0
ENDMDL
