MODEL 1
REMARK minimizedAffinity -1.131827
REMARK minimizedRMSD -1
REMARK  0 active torsions:
REMARK  status: ('A' for Active; 'I' for Inactive)
ROOT
ATOM      1  C   UNL d   1       0.516   0.591  -0.391  0.00  0.00     0.172 C 
ATOM      2  N   UNL d   1       1.026   1.441   0.659  0.00  0.00    -0.070 N 
ATOM      3  C1  UNL d   1       1.499   2.715   0.496  0.00  0.00    -0.004 A 
ATOM      4  C2  UNL d   1       1.889   3.182   1.733  0.00  0.00    -0.047 A 
ATOM      5  C3  UNL d   1       1.643   2.152   2.671  0.00  0.00    -0.047 A 
ATOM      6  C4  UNL d   1       1.108   1.086   1.980  0.00  0.00    -0.004 A 
ENDROOT
TORSDOF 0
ENDMDL
