MODEL 1
REMARK minimizedAffinity -3.66289091
REMARK minimizedRMSD -1
REMARK  0 active torsions:
REMARK  status: ('A' for Active; 'I' for Inactive)
ROOT
ATOM      1  C   UNL d   1      -0.505   0.019   0.258  0.00  0.00     0.172 C 
ATOM      2  N   UNL d   1       0.818   0.589   0.357  0.00  0.00    -0.070 N 
ATOM      3  C1  UNL d   1       1.122   1.816   0.883  0.00  0.00    -0.004 A 
ATOM      4  C2  UNL d   1       2.486   1.988   0.795  0.00  0.00    -0.047 A 
ATOM      5  C3  UNL d   1       3.021   0.824   0.193  0.00  0.00    -0.047 A 
ATOM      6  C4  UNL d   1       1.967  -0.025  -0.067  0.00  0.00    -0.004 A 
ENDROOT
TORSDOF 0
ENDMDL
