MODEL 1
REMARK minimizedAffinity -4.251019
REMARK minimizedRMSD -1
REMARK  0 active torsions:
REMARK  status: ('A' for Active; 'I' for Inactive)
ROOT
ATOM      1  C   UNL d   1       0.757   0.035  -0.579  0.00  0.00     0.172 C 
ATOM      2  N   UNL d   1       1.032   1.124   0.329  0.00  0.00    -0.070 N 
ATOM      3  C1  UNL d   1       2.252   1.717   0.519  0.00  0.00    -0.004 A 
ATOM      4  C2  UNL d   1       2.096   2.710   1.461  0.00  0.00    -0.047 A 
ATOM      5  C3  UNL d   1       0.736   2.714   1.851  0.00  0.00    -0.047 A 
ATOM      6  C4  UNL d   1       0.100   1.723   1.135  0.00  0.00    -0.004 A 
ENDROOT
TORSDOF 0
ENDMDL
