MODEL 1
REMARK minimizedAffinity -3.52098703
REMARK minimizedRMSD -1
REMARK  0 active torsions:
REMARK  status: ('A' for Active; 'I' for Inactive)
ROOT
ATOM      1  C   UNL d   1       3.026   0.498  -0.491  0.00  0.00     0.172 C 
ATOM      2  N   UNL d   1       1.992   1.215   0.218  0.00  0.00    -0.070 N 
ATOM      3  C1  UNL d   1       2.196   2.217   1.128  0.00  0.00    -0.004 A 
ATOM      4  C2  UNL d   1       0.963   2.639   1.575  0.00  0.00    -0.047 A 
ATOM      5  C3  UNL d   1      -0.017   1.862   0.911  0.00  0.00    -0.047 A 
ATOM      6  C4  UNL d   1       0.648   0.988   0.077  0.00  0.00    -0.004 A 
ENDROOT
TORSDOF 0
ENDMDL
