MODEL 1
REMARK minimizedAffinity -2.7970736
REMARK minimizedRMSD -1
REMARK  0 active torsions:
REMARK  status: ('A' for Active; 'I' for Inactive)
ROOT
ATOM      1  C   UNL d   1      -0.044  -0.519  -0.383  0.00  0.00     0.172 C 
ATOM      2  N   UNL d   1       0.224   0.682   0.372  0.00  0.00    -0.070 N 
ATOM      3  C1  UNL d   1       1.247   1.561   0.136  0.00  0.00    -0.004 A 
ATOM      4  C2  UNL d   1       1.159   2.571   1.070  0.00  0.00    -0.047 A 
ATOM      5  C3  UNL d   1       0.045   2.288   1.896  0.00  0.00    -0.047 A 
ATOM      6  C4  UNL d   1      -0.515   1.113   1.442  0.00  0.00    -0.004 A 
ENDROOT
TORSDOF 0
ENDMDL
