MODEL 1
REMARK minimizedAffinity -1.19361198
REMARK minimizedRMSD -1
REMARK  0 active torsions:
REMARK  status: ('A' for Active; 'I' for Inactive)
ROOT
ATOM      1  C   UNL d   1       1.688   2.040  -0.207  0.00  0.00     0.172 C 
ATOM      2  N   UNL d   1       0.837   0.876  -0.133  0.00  0.00    -0.070 N 
ATOM      3  C1  UNL d   1      -0.277   0.750   0.654  0.00  0.00    -0.004 A 
ATOM      4  C2  UNL d   1      -0.806  -0.504   0.438  0.00  0.00    -0.047 A 
ATOM      5  C3  UNL d   1       0.019  -1.155  -0.510  0.00  0.00    -0.047 A 
ATOM      6  C4  UNL d   1       1.028  -0.278  -0.846  0.00  0.00    -0.004 A 
ENDROOT
TORSDOF 0
ENDMDL
