MODEL 1
REMARK minimizedAffinity -3.6963737
REMARK minimizedRMSD -1
REMARK  0 active torsions:
REMARK  status: ('A' for Active; 'I' for Inactive)
ROOT
ATOM      1  C   UNL d   1      -0.424  -0.205  -0.546  0.00  0.00     0.172 C 
ATOM      2  N   UNL d   1       0.457   0.749   0.086  0.00  0.00    -0.070 N 
ATOM      3  C1  UNL d   1       0.079   1.711   0.984  0.00  0.00    -0.004 A 
ATOM      4  C2  UNL d   1       1.207   2.412   1.351  0.00  0.00    -0.047 A 
ATOM      5  C3  UNL d   1       2.301   1.854   0.647  0.00  0.00    -0.047 A 
ATOM      6  C4  UNL d   1       1.808   0.826  -0.128  0.00  0.00    -0.004 A 
ENDROOT
TORSDOF 0
ENDMDL
