MODEL 1
REMARK minimizedAffinity -3.88344526
REMARK minimizedRMSD -1
REMARK  0 active torsions:
REMARK  status: ('A' for Active; 'I' for Inactive)
ROOT
ATOM      1  C   UNL d   1      -0.018  -0.678  -0.427  0.00  0.00     0.172 C 
ATOM      2  N   UNL d   1       0.424   0.529   0.229  0.00  0.00    -0.070 N 
ATOM      3  C1  UNL d   1       1.603   1.183  -0.011  0.00  0.00    -0.004 A 
ATOM      4  C2  UNL d   1       1.650   2.286   0.814  0.00  0.00    -0.047 A 
ATOM      5  C3  UNL d   1       0.458   2.294   1.578  0.00  0.00    -0.047 A 
ATOM      6  C4  UNL d   1      -0.282   1.196   1.196  0.00  0.00    -0.004 A 
ENDROOT
TORSDOF 0
ENDMDL
