MODEL 1
REMARK minimizedAffinity -3.83941579
REMARK minimizedRMSD -1
REMARK  0 active torsions:
REMARK  status: ('A' for Active; 'I' for Inactive)
ROOT
ATOM      1  C   UNL d   1      -0.102  -0.729  -0.343  0.00  0.00     0.172 C 
ATOM      2  N   UNL d   1       0.278   0.465   0.376  0.00  0.00    -0.070 N 
ATOM      3  C1  UNL d   1       1.464   1.135   0.241  0.00  0.00    -0.004 A 
ATOM      4  C2  UNL d   1       1.438   2.216   1.096  0.00  0.00    -0.047 A 
ATOM      5  C3  UNL d   1       0.193   2.193   1.769  0.00  0.00    -0.047 A 
ATOM      6  C4  UNL d   1      -0.505   1.099   1.305  0.00  0.00    -0.004 A 
ENDROOT
TORSDOF 0
ENDMDL
