MODEL 1
REMARK minimizedAffinity -3.79634857
REMARK minimizedRMSD -1
REMARK  0 active torsions:
REMARK  status: ('A' for Active; 'I' for Inactive)
ROOT
ATOM      1  C   UNL d   1       3.086   1.492   0.051  0.00  0.00     0.172 C 
ATOM      2  N   UNL d   1       1.779   1.843   0.552  0.00  0.00    -0.070 N 
ATOM      3  C1  UNL d   1       0.704   1.000   0.639  0.00  0.00    -0.004 A 
ATOM      4  C2  UNL d   1      -0.351   1.712   1.167  0.00  0.00    -0.047 A 
ATOM      5  C3  UNL d   1       0.106   3.031   1.405  0.00  0.00    -0.047 A 
ATOM      6  C4  UNL d   1       1.427   3.084   1.015  0.00  0.00    -0.004 A 
ENDROOT
TORSDOF 0
ENDMDL
