MODEL 1
REMARK minimizedAffinity -4.212255
REMARK minimizedRMSD -1
REMARK  0 active torsions:
REMARK  status: ('A' for Active; 'I' for Inactive)
ROOT
ATOM      1  C   UNL d   1       0.130   0.107  -0.006  0.00  0.00     0.172 C 
ATOM      2  N   UNL d   1       1.103   1.057   0.479  0.00  0.00    -0.070 N 
ATOM      3  C1  UNL d   1       0.835   2.143   1.269  0.00  0.00    -0.004 A 
ATOM      4  C2  UNL d   1       2.025   2.793   1.511  0.00  0.00    -0.047 A 
ATOM      5  C3  UNL d   1       3.045   2.075   0.842  0.00  0.00    -0.047 A 
ATOM      6  C4  UNL d   1       2.446   1.005   0.211  0.00  0.00    -0.004 A 
ENDROOT
TORSDOF 0
ENDMDL
