MODEL 1
REMARK minimizedAffinity -2.47776341
REMARK minimizedRMSD -1
REMARK  0 active torsions:
REMARK  status: ('A' for Active; 'I' for Inactive)
ROOT
ATOM      1  C   UNL d   1      -0.340   0.887   0.754  0.00  0.00     0.172 C 
ATOM      2  N   UNL d   1       0.940   1.549   0.844  0.00  0.00    -0.070 N 
ATOM      3  C1  UNL d   1       1.173   2.761   1.437  0.00  0.00    -0.004 A 
ATOM      4  C2  UNL d   1       2.517   3.040   1.313  0.00  0.00    -0.047 A 
ATOM      5  C3  UNL d   1       3.112   1.959   0.621  0.00  0.00    -0.047 A 
ATOM      6  C4  UNL d   1       2.114   1.050   0.343  0.00  0.00    -0.004 A 
ENDROOT
TORSDOF 0
ENDMDL
