MODEL 1
REMARK minimizedAffinity -4.09255219
REMARK minimizedRMSD -1
REMARK  0 active torsions:
REMARK  status: ('A' for Active; 'I' for Inactive)
ROOT
ATOM      1  C   UNL d   1       0.140  -0.514  -0.299  0.00  0.00     0.172 C 
ATOM      2  N   UNL d   1       0.956   0.554   0.227  0.00  0.00    -0.070 N 
ATOM      3  C1  UNL d   1       0.500   1.631   0.939  0.00  0.00    -0.004 A 
ATOM      4  C2  UNL d   1       1.586   2.417   1.258  0.00  0.00    -0.047 A 
ATOM      5  C3  UNL d   1       2.735   1.790   0.719  0.00  0.00    -0.047 A 
ATOM      6  C4  UNL d   1       2.316   0.639   0.087  0.00  0.00    -0.004 A 
ENDROOT
TORSDOF 0
ENDMDL
