MODEL 1
REMARK minimizedAffinity -2.60672164
REMARK minimizedRMSD -1
REMARK  0 active torsions:
REMARK  status: ('A' for Active; 'I' for Inactive)
ROOT
ATOM      1  C   UNL d   1      -0.121  -0.092  -0.412  0.00  0.00     0.172 C 
ATOM      2  N   UNL d   1       1.140   0.568  -0.170  0.00  0.00    -0.070 N 
ATOM      3  C1  UNL d   1       1.303   1.777   0.451  0.00  0.00    -0.004 A 
ATOM      4  C2  UNL d   1       2.652   2.056   0.486  0.00  0.00    -0.047 A 
ATOM      5  C3  UNL d   1       3.324   0.977  -0.136  0.00  0.00    -0.047 A 
ATOM      6  C4  UNL d   1       2.364   0.070  -0.533  0.00  0.00    -0.004 A 
ENDROOT
TORSDOF 0
ENDMDL
