MODEL 1
REMARK minimizedAffinity -2.54446769
REMARK minimizedRMSD -1
REMARK  1 active torsions:
REMARK  status: ('A' for Active; 'I' for Inactive)
REMARK    1  A    between atoms: C3_4  and  O_7 
ROOT
ATOM      1  C   UNL d   1       1.080   2.709   0.806  0.00  0.00    -0.033 A 
ATOM      2  C1  UNL d   1       0.196   1.957   1.582  0.00  0.00     0.039 A 
ATOM      3  C2  UNL d   1      -0.080   0.631   1.241  0.00  0.00    -0.080 A 
ATOM      4  C3  UNL d   1       0.534   0.070   0.125  0.00  0.00     0.150 A 
ATOM      5  C4  UNL d   1       1.420   0.812  -0.649  0.00  0.00    -0.007 A 
ATOM      6  C5  UNL d   1       1.693   2.136  -0.308  0.00  0.00     0.039 A 
ENDROOT
BRANCH   4   7
ATOM      7  O   UNL d   1       0.293  -1.218  -0.249  0.00  0.00    -0.526 OA
ATOM      8  H5  UNL d   1      -0.361  -1.599   0.361  0.00  0.00     0.418 HD
ENDBRANCH   4   7
TORSDOF 1
ENDMDL
