MODEL 1
REMARK minimizedAffinity -3.36744666
REMARK minimizedRMSD -1
REMARK  1 active torsions:
REMARK  status: ('A' for Active; 'I' for Inactive)
REMARK    1  A    between atoms: C3_4  and  O_7 
ROOT
ATOM      1  C   UNL d   1      -0.361  -0.234   0.683  0.00  0.00    -0.033 A 
ATOM      2  C1  UNL d   1       0.422   0.458  -0.243  0.00  0.00     0.039 A 
ATOM      3  C2  UNL d   1       1.049   1.651   0.124  0.00  0.00    -0.080 A 
ATOM      4  C3  UNL d   1       0.885   2.139   1.417  0.00  0.00     0.150 A 
ATOM      5  C4  UNL d   1       0.110   1.452   2.345  0.00  0.00    -0.007 A 
ATOM      6  C5  UNL d   1      -0.516   0.262   1.978  0.00  0.00     0.039 A 
ENDROOT
BRANCH   4   7
ATOM      7  O   UNL d   1       1.473   3.301   1.819  0.00  0.00    -0.526 OA
ATOM      8  H5  UNL d   1       1.954   3.680   1.065  0.00  0.00     0.418 HD
ENDBRANCH   4   7
TORSDOF 1
ENDMDL
