MODEL 1
REMARK minimizedAffinity -5.16778898
REMARK minimizedRMSD -1
REMARK  1 active torsions:
REMARK  status: ('A' for Active; 'I' for Inactive)
REMARK    1  A    between atoms: C3_4  and  O_7 
ROOT
ATOM      1  C   UNL d   1       1.619   2.694   1.558  0.00  0.00    -0.033 A 
ATOM      2  C1  UNL d   1       0.322   2.300   1.893  0.00  0.00     0.039 A 
ATOM      3  C2  UNL d   1      -0.230   1.151   1.324  0.00  0.00    -0.080 A 
ATOM      4  C3  UNL d   1       0.525   0.405   0.422  0.00  0.00     0.150 A 
ATOM      5  C4  UNL d   1       1.819   0.790   0.086  0.00  0.00    -0.007 A 
ATOM      6  C5  UNL d   1       2.368   1.938   0.655  0.00  0.00     0.039 A 
ENDROOT
BRANCH   4   7
ATOM      7  O   UNL d   1       0.027  -0.721  -0.163  0.00  0.00    -0.526 OA
ATOM      8  H5  UNL d   1      -0.887  -0.848   0.141  0.00  0.00     0.418 HD
ENDBRANCH   4   7
TORSDOF 1
ENDMDL
