MODEL 1
REMARK minimizedAffinity -4.97352934
REMARK minimizedRMSD -1
REMARK  1 active torsions:
REMARK  status: ('A' for Active; 'I' for Inactive)
REMARK    1  A    between atoms: C3_4  and  O_7 
ROOT
ATOM      1  C   UNL d   1       0.041  -0.658   0.130  0.00  0.00    -0.033 A 
ATOM      2  C1  UNL d   1       1.251  -0.126  -0.318  0.00  0.00     0.039 A 
ATOM      3  C2  UNL d   1       1.661   1.138   0.110  0.00  0.00    -0.080 A 
ATOM      4  C3  UNL d   1       0.854   1.858   0.986  0.00  0.00     0.150 A 
ATOM      5  C4  UNL d   1      -0.351   1.333   1.440  0.00  0.00    -0.007 A 
ATOM      6  C5  UNL d   1      -0.760   0.071   1.011  0.00  0.00     0.039 A 
ENDROOT
BRANCH   4   7
ATOM      7  O   UNL d   1       1.210   3.098   1.428  0.00  0.00    -0.526 OA
ATOM      8  H5  UNL d   1       2.052   3.344   1.009  0.00  0.00     0.418 HD
ENDBRANCH   4   7
TORSDOF 1
ENDMDL
