MODEL 1
REMARK minimizedAffinity -4.98772287
REMARK minimizedRMSD -1
REMARK  1 active torsions:
REMARK  status: ('A' for Active; 'I' for Inactive)
REMARK    1  A    between atoms: C3_4  and  O_7 
ROOT
ATOM      1  C   UNL d   1       0.978   2.585   1.072  0.00  0.00    -0.033 A 
ATOM      2  C1  UNL d   1       0.806   2.227   2.411  0.00  0.00     0.039 A 
ATOM      3  C2  UNL d   1       1.761   1.435   3.052  0.00  0.00    -0.080 A 
ATOM      4  C3  UNL d   1       2.882   1.009   2.344  0.00  0.00     0.150 A 
ATOM      5  C4  UNL d   1       3.061   1.365   1.012  0.00  0.00    -0.007 A 
ATOM      6  C5  UNL d   1       2.106   2.155   0.373  0.00  0.00     0.039 A 
ENDROOT
BRANCH   4   7
ATOM      7  O   UNL d   1       3.838   0.231   2.926  0.00  0.00    -0.526 OA
ATOM      8  H5  UNL d   1       3.567   0.041   3.839  0.00  0.00     0.418 HD
ENDBRANCH   4   7
TORSDOF 1
ENDMDL
