MODEL 1
REMARK minimizedAffinity -5.08131504
REMARK minimizedRMSD -1
REMARK  1 active torsions:
REMARK  status: ('A' for Active; 'I' for Inactive)
REMARK    1  A    between atoms: C3_4  and  O_7 
ROOT
ATOM      1  C   UNL d   1       0.466  -0.270  -0.328  0.00  0.00    -0.033 A 
ATOM      2  C1  UNL d   1      -0.384  -0.065   0.761  0.00  0.00     0.039 A 
ATOM      3  C2  UNL d   1      -0.336   1.137   1.470  0.00  0.00    -0.080 A 
ATOM      4  C3  UNL d   1       0.564   2.124   1.081  0.00  0.00     0.150 A 
ATOM      5  C4  UNL d   1       1.412   1.929  -0.004  0.00  0.00    -0.007 A 
ATOM      6  C5  UNL d   1       1.363   0.728  -0.711  0.00  0.00     0.039 A 
ENDROOT
BRANCH   4   7
ATOM      7  O   UNL d   1       0.651   3.312   1.746  0.00  0.00    -0.526 OA
ATOM      8  H5  UNL d   1       0.026   3.294   2.490  0.00  0.00     0.418 HD
ENDBRANCH   4   7
TORSDOF 1
ENDMDL
