MODEL 1
REMARK minimizedAffinity -2.55959129
REMARK minimizedRMSD -1
REMARK  1 active torsions:
REMARK  status: ('A' for Active; 'I' for Inactive)
REMARK    1  A    between atoms: C3_4  and  O_7 
ROOT
ATOM      1  C   UNL d   1       0.065  -0.447   0.607  0.00  0.00    -0.033 A 
ATOM      2  C1  UNL d   1       1.156   0.092  -0.078  0.00  0.00     0.039 A 
ATOM      3  C2  UNL d   1       1.589   1.389   0.204  0.00  0.00    -0.080 A 
ATOM      4  C3  UNL d   1       0.924   2.136   1.172  0.00  0.00     0.150 A 
ATOM      5  C4  UNL d   1      -0.161   1.604   1.862  0.00  0.00    -0.007 A 
ATOM      6  C5  UNL d   1      -0.592   0.309   1.578  0.00  0.00     0.039 A 
ENDROOT
BRANCH   4   7
ATOM      7  O   UNL d   1       1.307   3.408   1.479  0.00  0.00    -0.526 OA
ATOM      8  H5  UNL d   1       2.051   3.652   0.903  0.00  0.00     0.418 HD
ENDBRANCH   4   7
TORSDOF 1
ENDMDL
