MODEL 1
REMARK minimizedAffinity -3.34205365
REMARK minimizedRMSD -1
REMARK  1 active torsions:
REMARK  status: ('A' for Active; 'I' for Inactive)
REMARK    1  A    between atoms: C3_4  and  O_7 
ROOT
ATOM      1  C   UNL d   1       2.297   1.621  -0.901  0.00  0.00    -0.033 A 
ATOM      2  C1  UNL d   1       0.998   1.936  -0.498  0.00  0.00     0.039 A 
ATOM      3  C2  UNL d   1       0.111   0.920  -0.136  0.00  0.00    -0.080 A 
ATOM      4  C3  UNL d   1       0.536  -0.405  -0.180  0.00  0.00     0.150 A 
ATOM      5  C4  UNL d   1       1.830  -0.726  -0.576  0.00  0.00    -0.007 A 
ATOM      6  C5  UNL d   1       2.713   0.290  -0.938  0.00  0.00     0.039 A 
ENDROOT
BRANCH   4   7
ATOM      7  O   UNL d   1      -0.295  -1.431   0.160  0.00  0.00    -0.526 OA
ATOM      8  H5  UNL d   1      -1.165  -1.061   0.385  0.00  0.00     0.418 HD
ENDBRANCH   4   7
TORSDOF 1
ENDMDL
