MODEL 1
REMARK minimizedAffinity -4.78093672
REMARK minimizedRMSD -1
REMARK  1 active torsions:
REMARK  status: ('A' for Active; 'I' for Inactive)
REMARK    1  A    between atoms: C3_4  and  O_7 
ROOT
ATOM      1  C   UNL d   1      -0.071  -0.666   0.296  0.00  0.00    -0.033 A 
ATOM      2  C1  UNL d   1       1.027  -0.207  -0.435  0.00  0.00     0.039 A 
ATOM      3  C2  UNL d   1       1.578   1.045  -0.157  0.00  0.00    -0.080 A 
ATOM      4  C3  UNL d   1       1.025   1.826   0.854  0.00  0.00     0.150 A 
ATOM      5  C4  UNL d   1      -0.065   1.373   1.589  0.00  0.00    -0.007 A 
ATOM      6  C5  UNL d   1      -0.616   0.123   1.309  0.00  0.00     0.039 A 
ENDROOT
BRANCH   4   7
ATOM      7  O   UNL d   1       1.526   3.057   1.159  0.00  0.00    -0.526 OA
ATOM      8  H5  UNL d   1       2.259   3.250   0.551  0.00  0.00     0.418 HD
ENDBRANCH   4   7
TORSDOF 1
ENDMDL
