MODEL 1
REMARK minimizedAffinity -3.61684966
REMARK minimizedRMSD -1
REMARK  1 active torsions:
REMARK  status: ('A' for Active; 'I' for Inactive)
REMARK    1  A    between atoms: C3_4  and  O_7 
ROOT
ATOM      1  C   UNL d   1       0.591   2.655   1.410  0.00  0.00    -0.033 A 
ATOM      2  C1  UNL d   1      -0.377   1.827   1.982  0.00  0.00     0.039 A 
ATOM      3  C2  UNL d   1      -0.617   0.559   1.448  0.00  0.00    -0.080 A 
ATOM      4  C3  UNL d   1       0.117   0.132   0.345  0.00  0.00     0.150 A 
ATOM      5  C4  UNL d   1       1.085   0.951  -0.227  0.00  0.00    -0.007 A 
ATOM      6  C5  UNL d   1       1.323   2.216   0.307  0.00  0.00     0.039 A 
ENDROOT
BRANCH   4   7
ATOM      7  O   UNL d   1      -0.085  -1.095  -0.214  0.00  0.00    -0.526 OA
ATOM      8  H5  UNL d   1      -0.804  -1.538   0.267  0.00  0.00     0.418 HD
ENDBRANCH   4   7
TORSDOF 1
ENDMDL
