MODEL 1
REMARK minimizedAffinity -2.38803482
REMARK minimizedRMSD -1
REMARK  1 active torsions:
REMARK  status: ('A' for Active; 'I' for Inactive)
REMARK    1  A    between atoms: C3_4  and  O_7 
ROOT
ATOM      1  C   UNL d   1      -0.476  -1.156   0.035  0.00  0.00    -0.033 A 
ATOM      2  C1  UNL d   1      -1.129  -0.795   1.215  0.00  0.00     0.039 A 
ATOM      3  C2  UNL d   1      -0.898   0.457   1.788  0.00  0.00    -0.080 A 
ATOM      4  C3  UNL d   1      -0.014   1.338   1.171  0.00  0.00     0.150 A 
ATOM      5  C4  UNL d   1       0.637   0.987  -0.008  0.00  0.00    -0.007 A 
ATOM      6  C5  UNL d   1       0.406  -0.265  -0.577  0.00  0.00     0.039 A 
ENDROOT
BRANCH   4   7
ATOM      7  O   UNL d   1       0.247   2.569   1.694  0.00  0.00    -0.526 OA
ATOM      8  H5  UNL d   1      -0.251   2.663   2.524  0.00  0.00     0.418 HD
ENDBRANCH   4   7
TORSDOF 1
ENDMDL
