MODEL 1
REMARK minimizedAffinity -3.55935526
REMARK minimizedRMSD -1
REMARK  1 active torsions:
REMARK  status: ('A' for Active; 'I' for Inactive)
REMARK    1  A    between atoms: C3_4  and  O_7 
ROOT
ATOM      1  C   UNL d   1       0.139  -0.272   0.367  0.00  0.00    -0.033 A 
ATOM      2  C1  UNL d   1       0.981  -0.072   1.462  0.00  0.00     0.039 A 
ATOM      3  C2  UNL d   1       1.399   1.218   1.797  0.00  0.00    -0.080 A 
ATOM      4  C3  UNL d   1       0.968   2.297   1.030  0.00  0.00     0.150 A 
ATOM      5  C4  UNL d   1       0.126   2.105  -0.060  0.00  0.00    -0.007 A 
ATOM      6  C5  UNL d   1      -0.290   0.816  -0.394  0.00  0.00     0.039 A 
ENDROOT
BRANCH   4   7
ATOM      7  O   UNL d   1       1.353   3.573   1.316  0.00  0.00    -0.526 OA
ATOM      8  H5  UNL d   1       1.956   3.549   2.077  0.00  0.00     0.418 HD
ENDBRANCH   4   7
TORSDOF 1
ENDMDL
