MODEL 1
REMARK minimizedAffinity -4.87665081
REMARK minimizedRMSD -1
REMARK  1 active torsions:
REMARK  status: ('A' for Active; 'I' for Inactive)
REMARK    1  A    between atoms: C3_4  and  O_7 
ROOT
ATOM      1  C   UNL d   1       0.720  -0.145   0.111  0.00  0.00    -0.033 A 
ATOM      2  C1  UNL d   1       0.108   0.324   1.275  0.00  0.00     0.039 A 
ATOM      3  C2  UNL d   1       0.386   1.609   1.743  0.00  0.00    -0.080 A 
ATOM      4  C3  UNL d   1       1.275   2.416   1.039  0.00  0.00     0.150 A 
ATOM      5  C4  UNL d   1       1.886   1.957  -0.124  0.00  0.00    -0.007 A 
ATOM      6  C5  UNL d   1       1.608   0.672  -0.589  0.00  0.00     0.039 A 
ENDROOT
BRANCH   4   7
ATOM      7  O   UNL d   1       1.581   3.676   1.460  0.00  0.00    -0.526 OA
ATOM      8  H5  UNL d   1       1.108   3.846   2.291  0.00  0.00     0.418 HD
ENDBRANCH   4   7
TORSDOF 1
ENDMDL
