MODEL 1
REMARK minimizedAffinity -3.34980202
REMARK minimizedRMSD -1
REMARK  1 active torsions:
REMARK  status: ('A' for Active; 'I' for Inactive)
REMARK    1  A    between atoms: C3_4  and  O_7 
ROOT
ATOM      1  C   UNL d   1       0.501  -1.671  -0.269  0.00  0.00    -0.033 A 
ATOM      2  C1  UNL d   1       1.625  -0.921  -0.621  0.00  0.00     0.039 A 
ATOM      3  C2  UNL d   1       1.714   0.423  -0.252  0.00  0.00    -0.080 A 
ATOM      4  C3  UNL d   1       0.675   1.003   0.469  0.00  0.00     0.150 A 
ATOM      5  C4  UNL d   1      -0.446   0.262   0.827  0.00  0.00    -0.007 A 
ATOM      6  C5  UNL d   1      -0.534  -1.080   0.457  0.00  0.00     0.039 A 
ENDROOT
BRANCH   4   7
ATOM      7  O   UNL d   1       0.714   2.313   0.847  0.00  0.00    -0.526 OA
ATOM      8  H5  UNL d   1       1.535   2.707   0.505  0.00  0.00     0.418 HD
ENDBRANCH   4   7
TORSDOF 1
ENDMDL
