MODEL 1
REMARK minimizedAffinity -4.33062792
REMARK minimizedRMSD -1
REMARK  1 active torsions:
REMARK  status: ('A' for Active; 'I' for Inactive)
REMARK    1  A    between atoms: C3_4  and  O_7 
ROOT
ATOM      1  C   UNL d   1      -0.153  -1.284  -0.052  0.00  0.00    -0.033 A 
ATOM      2  C1  UNL d   1      -1.097  -0.712   0.803  0.00  0.00     0.039 A 
ATOM      3  C2  UNL d   1      -0.871   0.554   1.348  0.00  0.00    -0.080 A 
ATOM      4  C3  UNL d   1       0.300   1.236   1.028  0.00  0.00     0.150 A 
ATOM      5  C4  UNL d   1       1.242   0.674   0.174  0.00  0.00    -0.007 A 
ATOM      6  C5  UNL d   1       1.015  -0.591  -0.368  0.00  0.00     0.039 A 
ENDROOT
BRANCH   4   7
ATOM      7  O   UNL d   1       0.566   2.472   1.539  0.00  0.00    -0.526 OA
ATOM      8  H5  UNL d   1      -0.159   2.722   2.135  0.00  0.00     0.418 HD
ENDBRANCH   4   7
TORSDOF 1
ENDMDL
