MODEL 1
REMARK minimizedAffinity 4.86058378
REMARK minimizedRMSD -1
REMARK  0 active torsions:
REMARK  status: ('A' for Active; 'I' for Inactive)
ROOT
ATOM      1  C   UNL d   1       1.784   1.114   2.223  0.00  0.00     0.078 C 
ATOM      2  C1  UNL d   1       2.191  -0.177   2.868  0.00  0.00    -0.077 A 
ATOM      3  C2  UNL d   1       1.616  -0.592   4.075  0.00  0.00    -0.001 A 
ATOM      4  C3  UNL d   1       2.012  -1.791   4.669  0.00  0.00     0.003 A 
ATOM      5  C4  UNL d   1       2.984  -2.585   4.064  0.00  0.00    -0.005 A 
ATOM      6  C5  UNL d   1       3.563  -2.179   2.863  0.00  0.00     0.003 A 
ATOM      7  C6  UNL d   1       3.169  -0.980   2.268  0.00  0.00    -0.001 A 
ENDROOT
TORSDOF 0
ENDMDL
