MODEL 1
REMARK minimizedAffinity 4.5629425
REMARK minimizedRMSD -1
REMARK  0 active torsions:
REMARK  status: ('A' for Active; 'I' for Inactive)
ROOT
ATOM      1  C   UNL d   1      -5.801   3.298  -3.785  0.00  0.00     0.078 C 
ATOM      2  C1  UNL d   1      -5.813   1.821  -4.043  0.00  0.00    -0.077 A 
ATOM      3  C2  UNL d   1      -6.000   0.908  -2.998  0.00  0.00    -0.001 A 
ATOM      4  C3  UNL d   1      -5.999  -0.465  -3.252  0.00  0.00     0.003 A 
ATOM      5  C4  UNL d   1      -5.810  -0.937  -4.549  0.00  0.00    -0.005 A 
ATOM      6  C5  UNL d   1      -5.622  -0.036  -5.595  0.00  0.00     0.003 A 
ATOM      7  C6  UNL d   1      -5.623   1.337  -5.344  0.00  0.00    -0.001 A 
ENDROOT
TORSDOF 0
ENDMDL
