MODEL 1
REMARK minimizedAffinity 9.0136137
REMARK minimizedRMSD -1
REMARK  0 active torsions:
REMARK  status: ('A' for Active; 'I' for Inactive)
ROOT
ATOM      1  C   UNL d   1       1.664  -1.281   3.052  0.00  0.00     0.078 C 
ATOM      2  C1  UNL d   1       2.435  -2.427   3.636  0.00  0.00    -0.077 A 
ATOM      3  C2  UNL d   1       2.235  -3.736   3.182  0.00  0.00    -0.001 A 
ATOM      4  C3  UNL d   1       2.953  -4.795   3.742  0.00  0.00     0.003 A 
ATOM      5  C4  UNL d   1       3.875  -4.555   4.759  0.00  0.00    -0.005 A 
ATOM      6  C5  UNL d   1       4.079  -3.255   5.218  0.00  0.00     0.003 A 
ATOM      7  C6  UNL d   1       3.362  -2.196   4.660  0.00  0.00    -0.001 A 
ENDROOT
TORSDOF 0
ENDMDL
