MODEL 1
REMARK minimizedAffinity -3.14377522
REMARK minimizedRMSD -1
REMARK  0 active torsions:
REMARK  status: ('A' for Active; 'I' for Inactive)
ROOT
ATOM      1  C   UNL d   1       2.995  -0.596  -3.762  0.00  0.00     0.078 C 
ATOM      2  C1  UNL d   1       3.878   0.405  -4.445  0.00  0.00    -0.077 A 
ATOM      3  C2  UNL d   1       5.165   0.058  -4.875  0.00  0.00    -0.001 A 
ATOM      4  C3  UNL d   1       5.979   1.003  -5.500  0.00  0.00     0.003 A 
ATOM      5  C4  UNL d   1       5.517   2.302  -5.699  0.00  0.00    -0.005 A 
ATOM      6  C5  UNL d   1       4.239   2.658  -5.273  0.00  0.00     0.003 A 
ATOM      7  C6  UNL d   1       3.423   1.714  -4.648  0.00  0.00    -0.001 A 
ENDROOT
TORSDOF 0
ENDMDL
