MODEL 1
REMARK minimizedAffinity -1.12699747
REMARK minimizedRMSD -1
REMARK  0 active torsions:
REMARK  status: ('A' for Active; 'I' for Inactive)
ROOT
ATOM      1  C   UNL d   1       5.539  -2.292   3.103  0.00  0.00     0.078 C 
ATOM      2  C1  UNL d   1       4.270  -1.493   3.077  0.00  0.00    -0.077 A 
ATOM      3  C2  UNL d   1       3.954  -0.676   1.985  0.00  0.00    -0.001 A 
ATOM      4  C3  UNL d   1       2.775   0.070   1.979  0.00  0.00     0.003 A 
ATOM      5  C4  UNL d   1       1.902   0.008   3.064  0.00  0.00    -0.005 A 
ATOM      6  C5  UNL d   1       2.209  -0.800   4.156  0.00  0.00     0.003 A 
ATOM      7  C6  UNL d   1       3.388  -1.547   4.164  0.00  0.00    -0.001 A 
ENDROOT
TORSDOF 0
ENDMDL
