MODEL 1
REMARK minimizedAffinity -1.63110006
REMARK minimizedRMSD -1
REMARK  0 active torsions:
REMARK  status: ('A' for Active; 'I' for Inactive)
ROOT
ATOM      1  C   UNL d   1       1.849   0.201  -2.775  0.00  0.00    -0.002 A 
ATOM      2  C1  UNL d   1       0.785  -0.657  -3.016  0.00  0.00     0.010 A 
ATOM      3  C2  UNL d   1      -0.113  -0.979  -1.996  0.00  0.00     0.041 A 
ATOM      4  C3  UNL d   1       0.078  -0.417  -0.718  0.00  0.00    -0.075 A 
ATOM      5  S   UNL d   1      -0.896  -0.668   0.683  0.00  0.00     0.015 SA
ATOM      6  C4  UNL d   1       0.078   0.358   1.634  0.00  0.00     0.022 A 
ATOM      7  C5  UNL d   1       1.124   0.887   0.916  0.00  0.00     0.026 A 
ATOM      8  C6  UNL d   1       1.141   0.449  -0.451  0.00  0.00    -0.082 A 
ATOM      9  C7  UNL d   1       2.035   0.756  -1.506  0.00  0.00     0.045 A 
ENDROOT
TORSDOF 0
ENDMDL
