MODEL 1
REMARK minimizedAffinity -1.28009415
REMARK minimizedRMSD -1
REMARK  0 active torsions:
REMARK  status: ('A' for Active; 'I' for Inactive)
ROOT
ATOM      1  C   UNL d   1      -1.469  -0.487   1.746  0.00  0.00    -0.002 A 
ATOM      2  C1  UNL d   1      -1.017  -1.550   0.976  0.00  0.00     0.010 A 
ATOM      3  C2  UNL d   1      -0.073  -1.345  -0.032  0.00  0.00     0.041 A 
ATOM      4  C3  UNL d   1       0.416  -0.042  -0.254  0.00  0.00    -0.075 A 
ATOM      5  S   UNL d   1       1.576   0.446  -1.432  0.00  0.00     0.015 SA
ATOM      6  C4  UNL d   1       1.501   2.076  -0.939  0.00  0.00     0.022 A 
ATOM      7  C5  UNL d   1       0.616   2.261   0.097  0.00  0.00     0.026 A 
ATOM      8  C6  UNL d   1      -0.023   1.043   0.510  0.00  0.00    -0.082 A 
ATOM      9  C7  UNL d   1      -0.981   0.803   1.523  0.00  0.00     0.045 A 
ENDROOT
TORSDOF 0
ENDMDL
