MODEL 1
REMARK minimizedAffinity -2.33737421
REMARK minimizedRMSD -1
REMARK  0 active torsions:
REMARK  status: ('A' for Active; 'I' for Inactive)
ROOT
ATOM      1  C   UNL d   1       2.028  -1.527  -2.628  0.00  0.00    -0.002 A 
ATOM      2  C1  UNL d   1       1.279  -2.432  -1.889  0.00  0.00     0.010 A 
ATOM      3  C2  UNL d   1       0.399  -1.986  -0.902  0.00  0.00     0.041 A 
ATOM      4  C3  UNL d   1       0.281  -0.601  -0.669  0.00  0.00    -0.075 A 
ATOM      5  S   UNL d   1      -0.734   0.175   0.488  0.00  0.00     0.015 SA
ATOM      6  C4  UNL d   1      -0.198   1.726   0.028  0.00  0.00     0.022 A 
ATOM      7  C5  UNL d   1       0.733   1.672  -0.982  0.00  0.00     0.026 A 
ATOM      8  C6  UNL d   1       1.024   0.329  -1.401  0.00  0.00    -0.082 A 
ATOM      9  C7  UNL d   1       1.909  -0.155  -2.394  0.00  0.00     0.045 A 
ENDROOT
TORSDOF 0
ENDMDL
