MODEL 1
REMARK minimizedAffinity -2.22520638
REMARK minimizedRMSD -1
REMARK  0 active torsions:
REMARK  status: ('A' for Active; 'I' for Inactive)
ROOT
ATOM      1  C   UNL d   1       1.980   0.116  -2.560  0.00  0.00    -0.002 A 
ATOM      2  C1  UNL d   1       2.696   0.724  -1.538  0.00  0.00     0.010 A 
ATOM      3  C2  UNL d   1       2.109   0.937  -0.289  0.00  0.00     0.041 A 
ATOM      4  C3  UNL d   1       0.778   0.525  -0.082  0.00  0.00    -0.075 A 
ATOM      5  S   UNL d   1      -0.146   0.683   1.365  0.00  0.00     0.015 SA
ATOM      6  C4  UNL d   1      -1.513  -0.053   0.660  0.00  0.00     0.022 A 
ATOM      7  C5  UNL d   1      -1.287  -0.416  -0.646  0.00  0.00     0.026 A 
ATOM      8  C6  UNL d   1       0.037  -0.090  -1.095  0.00  0.00    -0.082 A 
ATOM      9  C7  UNL d   1       0.660  -0.292  -2.351  0.00  0.00     0.045 A 
ENDROOT
TORSDOF 0
ENDMDL
