MODEL 1
REMARK minimizedAffinity -1.57569909
REMARK minimizedRMSD -1
REMARK  0 active torsions:
REMARK  status: ('A' for Active; 'I' for Inactive)
ROOT
ATOM      1  C   UNL d   1       1.476  -0.373  -1.706  0.00  0.00    -0.002 A 
ATOM      2  C1  UNL d   1       1.253   0.991  -1.836  0.00  0.00     0.010 A 
ATOM      3  C2  UNL d   1       0.402   1.659  -0.953  0.00  0.00     0.041 A 
ATOM      4  C3  UNL d   1      -0.225   0.927   0.074  0.00  0.00    -0.075 A 
ATOM      5  S   UNL d   1      -1.306   1.534   1.272  0.00  0.00     0.015 SA
ATOM      6  C4  UNL d   1      -1.497  -0.002   1.985  0.00  0.00     0.022 A 
ATOM      7  C5  UNL d   1      -0.761  -0.966   1.338  0.00  0.00     0.026 A 
ATOM      8  C6  UNL d   1      -0.015  -0.447   0.226  0.00  0.00    -0.082 A 
ATOM      9  C7  UNL d   1       0.852  -1.095  -0.685  0.00  0.00     0.045 A 
ENDROOT
TORSDOF 0
ENDMDL
