MODEL 1
REMARK minimizedAffinity -3.91048932
REMARK minimizedRMSD -1
REMARK  0 active torsions:
REMARK  status: ('A' for Active; 'I' for Inactive)
ROOT
ATOM      1  C   UNL d   1       1.425  -1.827  -2.340  0.00  0.00    -0.002 A 
ATOM      2  C1  UNL d   1       1.756  -0.528  -2.699  0.00  0.00     0.010 A 
ATOM      3  C2  UNL d   1       1.440   0.543  -1.861  0.00  0.00     0.041 A 
ATOM      4  C3  UNL d   1       0.782   0.284  -0.643  0.00  0.00    -0.075 A 
ATOM      5  S   UNL d   1       0.297   1.439   0.542  0.00  0.00     0.015 SA
ATOM      6  C4  UNL d   1      -0.360   0.235   1.554  0.00  0.00     0.022 A 
ATOM      7  C5  UNL d   1      -0.221  -1.023   1.017  0.00  0.00     0.026 A 
ATOM      8  C6  UNL d   1       0.440  -1.015  -0.258  0.00  0.00    -0.082 A 
ATOM      9  C7  UNL d   1       0.772  -2.080  -1.130  0.00  0.00     0.045 A 
ENDROOT
TORSDOF 0
ENDMDL
