MODEL 1
REMARK minimizedAffinity -3.13664579
REMARK minimizedRMSD -1
REMARK  0 active torsions:
REMARK  status: ('A' for Active; 'I' for Inactive)
ROOT
ATOM      1  C   UNL d   1       1.406  -1.446  -2.565  0.00  0.00    -0.002 A 
ATOM      2  C1  UNL d   1       2.325  -0.414  -2.435  0.00  0.00     0.010 A 
ATOM      3  C2  UNL d   1       2.190   0.533  -1.417  0.00  0.00     0.041 A 
ATOM      4  C3  UNL d   1       1.108   0.422  -0.522  0.00  0.00    -0.075 A 
ATOM      5  S   UNL d   1       0.742   1.465   0.801  0.00  0.00     0.015 SA
ATOM      6  C4  UNL d   1      -0.641   0.564   1.226  0.00  0.00     0.022 A 
ATOM      7  C5  UNL d   1      -0.835  -0.509   0.389  0.00  0.00     0.026 A 
ATOM      8  C6  UNL d   1       0.170  -0.609  -0.632  0.00  0.00    -0.082 A 
ATOM      9  C7  UNL d   1       0.334  -1.552  -1.675  0.00  0.00     0.045 A 
ENDROOT
TORSDOF 0
ENDMDL
