MODEL 1
REMARK minimizedAffinity -3.38406897
REMARK minimizedRMSD -1
REMARK  0 active torsions:
REMARK  status: ('A' for Active; 'I' for Inactive)
ROOT
ATOM      1  C   UNL d   1       0.583  -0.236  -0.763  0.00  0.00    -0.002 A 
ATOM      2  C1  UNL d   1       0.859   1.066  -0.370  0.00  0.00     0.010 A 
ATOM      3  C2  UNL d   1      -0.043   1.773   0.429  0.00  0.00     0.041 A 
ATOM      4  C3  UNL d   1      -1.237   1.142   0.831  0.00  0.00    -0.075 A 
ATOM      5  S   UNL d   1      -2.488   1.813   1.810  0.00  0.00     0.015 SA
ATOM      6  C4  UNL d   1      -3.417   0.386   1.730  0.00  0.00     0.022 A 
ATOM      7  C5  UNL d   1      -2.804  -0.588   0.978  0.00  0.00     0.026 A 
ATOM      8  C6  UNL d   1      -1.537  -0.168   0.448  0.00  0.00    -0.082 A 
ATOM      9  C7  UNL d   1      -0.603  -0.858  -0.362  0.00  0.00     0.045 A 
ENDROOT
TORSDOF 0
ENDMDL
