MODEL 1
REMARK minimizedAffinity -5.04405928
REMARK minimizedRMSD -1
REMARK  0 active torsions:
REMARK  status: ('A' for Active; 'I' for Inactive)
ROOT
ATOM      1  C   UNL d   1       2.001  -0.224  -3.084  0.00  0.00    -0.002 A 
ATOM      2  C1  UNL d   1       1.845  -1.595  -2.939  0.00  0.00     0.010 A 
ATOM      3  C2  UNL d   1       1.190  -2.121  -1.824  0.00  0.00     0.041 A 
ATOM      4  C3  UNL d   1       0.689  -1.237  -0.848  0.00  0.00    -0.075 A 
ATOM      5  S   UNL d   1      -0.148  -1.655   0.600  0.00  0.00     0.015 SA
ATOM      6  C4  UNL d   1      -0.319  -0.023   1.061  0.00  0.00     0.022 A 
ATOM      7  C5  UNL d   1       0.244   0.833   0.143  0.00  0.00     0.026 A 
ATOM      8  C6  UNL d   1       0.833   0.147  -0.972  0.00  0.00    -0.082 A 
ATOM      9  C7  UNL d   1       1.503   0.650  -2.114  0.00  0.00     0.045 A 
ENDROOT
TORSDOF 0
ENDMDL
