MODEL 1
REMARK minimizedAffinity -2.07825208
REMARK minimizedRMSD -1
REMARK  0 active torsions:
REMARK  status: ('A' for Active; 'I' for Inactive)
ROOT
ATOM      1  C   UNL d   1       1.862  -2.538  -1.573  0.00  0.00    -0.002 A 
ATOM      2  C1  UNL d   1       2.455  -1.397  -2.095  0.00  0.00     0.010 A 
ATOM      3  C2  UNL d   1       2.108  -0.133  -1.615  0.00  0.00     0.041 A 
ATOM      4  C3  UNL d   1       1.147  -0.033  -0.590  0.00  0.00    -0.075 A 
ATOM      5  S   UNL d   1       0.566   1.410   0.154  0.00  0.00     0.015 SA
ATOM      6  C4  UNL d   1      -0.483   0.546   1.183  0.00  0.00     0.022 A 
ATOM      7  C5  UNL d   1      -0.405  -0.811   0.977  0.00  0.00     0.026 A 
ATOM      8  C6  UNL d   1       0.536  -1.167  -0.047  0.00  0.00    -0.082 A 
ATOM      9  C7  UNL d   1       0.908  -2.435  -0.556  0.00  0.00     0.045 A 
ENDROOT
TORSDOF 0
ENDMDL
