MODEL 1
REMARK minimizedAffinity -2.23534155
REMARK minimizedRMSD -1
REMARK  0 active torsions:
REMARK  status: ('A' for Active; 'I' for Inactive)
ROOT
ATOM      1  C   UNL d   1       2.797  -0.540  -2.586  0.00  0.00    -0.002 A 
ATOM      2  C1  UNL d   1       2.380   0.728  -2.205  0.00  0.00     0.010 A 
ATOM      3  C2  UNL d   1       1.469   0.891  -1.159  0.00  0.00     0.041 A 
ATOM      4  C3  UNL d   1       0.980  -0.253  -0.497  0.00  0.00    -0.075 A 
ATOM      5  S   UNL d   1      -0.141  -0.296   0.812  0.00  0.00     0.015 SA
ATOM      6  C4  UNL d   1      -0.093  -1.997   0.895  0.00  0.00     0.022 A 
ATOM      7  C5  UNL d   1       0.753  -2.536  -0.045  0.00  0.00     0.026 A 
ATOM      8  C6  UNL d   1       1.386  -1.539  -0.862  0.00  0.00    -0.082 A 
ATOM      9  C7  UNL d   1       2.310  -1.671  -1.927  0.00  0.00     0.045 A 
ENDROOT
TORSDOF 0
ENDMDL
