MODEL 1
REMARK minimizedAffinity -5.62328625
REMARK minimizedRMSD -1
REMARK  0 active torsions:
REMARK  status: ('A' for Active; 'I' for Inactive)
ROOT
ATOM      1  C   UNL d   1       1.670  -2.327  -2.244  0.00  0.00    -0.002 A 
ATOM      2  C1  UNL d   1       1.978  -1.104  -2.822  0.00  0.00     0.010 A 
ATOM      3  C2  UNL d   1       1.497   0.084  -2.269  0.00  0.00     0.041 A 
ATOM      4  C3  UNL d   1       0.693   0.022  -1.114  0.00  0.00    -0.075 A 
ATOM      5  S   UNL d   1      -0.008   1.347  -0.262  0.00  0.00     0.015 SA
ATOM      6  C4  UNL d   1      -0.732   0.321   0.889  0.00  0.00     0.022 A 
ATOM      7  C5  UNL d   1      -0.457  -1.004   0.645  0.00  0.00     0.026 A 
ATOM      8  C6  UNL d   1       0.370  -1.198  -0.513  0.00  0.00    -0.082 A 
ATOM      9  C7  UNL d   1       0.873  -2.385  -1.098  0.00  0.00     0.045 A 
ENDROOT
TORSDOF 0
ENDMDL
