MODEL 1
REMARK minimizedAffinity -5.89741278
REMARK minimizedRMSD -1
REMARK  2 active torsions:
REMARK  status: ('A' for Active; 'I' for Inactive)
REMARK    1  A    between atoms: C1_2  and  C2_3 
REMARK    2  A    between atoms: C2_3  and  C3_4 
ROOT
ATOM      1  C3  UNL d   1       0.027   0.026  -0.045  0.00  0.00    -0.075 A 
ATOM      2  C4  UNL d   1       1.002   0.691  -0.803  0.00  0.00     0.002 A 
ATOM      3  C5  UNL d   1       2.030  -0.023  -1.419  0.00  0.00     0.002 A 
ATOM      4  C6  UNL d   1       2.103  -1.407  -1.277  0.00  0.00    -0.004 A 
ATOM      5  C7  UNL d   1       1.150  -2.077  -0.513  0.00  0.00     0.002 A 
ATOM      6  C8  UNL d   1       0.117  -1.365   0.101  0.00  0.00     0.002 A 
ENDROOT
BRANCH   1   7
ATOM      7  C2  UNL d   1      -1.104   0.789   0.600  0.00  0.00     0.056 C 
BRANCH   7   8
ATOM      8  C1  UNL d   1      -1.374   0.394   2.055  0.00  0.00     0.007 C 
ATOM      9  C   UNL d   1      -1.315   1.572   3.018  0.00  0.00     0.009 C 
ENDBRANCH   7   8
ENDBRANCH   1   7
TORSDOF 2
ENDMDL
