MODEL 1
REMARK minimizedAffinity -4.51319122
REMARK minimizedRMSD -1
REMARK  2 active torsions:
REMARK  status: ('A' for Active; 'I' for Inactive)
REMARK    1  A    between atoms: C1_2  and  C2_3 
REMARK    2  A    between atoms: C2_3  and  C3_4 
ROOT
ATOM      1  C3  UNL d   1      -0.197  -0.055  -0.152  0.00  0.00    -0.075 A 
ATOM      2  C4  UNL d   1       0.976   0.669  -0.412  0.00  0.00     0.002 A 
ATOM      3  C5  UNL d   1       2.117   0.023  -0.889  0.00  0.00     0.002 A 
ATOM      4  C6  UNL d   1       2.104  -1.354  -1.101  0.00  0.00    -0.004 A 
ATOM      5  C7  UNL d   1       0.950  -2.086  -0.831  0.00  0.00     0.002 A 
ATOM      6  C8  UNL d   1      -0.195  -1.441  -0.359  0.00  0.00     0.002 A 
ENDROOT
BRANCH   1   7
ATOM      7  C2  UNL d   1      -1.444   0.643   0.335  0.00  0.00     0.056 C 
BRANCH   7   8
ATOM      8  C1  UNL d   1      -1.899   0.203   1.731  0.00  0.00     0.007 C 
ATOM      9  C   UNL d   1      -1.639   1.252   2.805  0.00  0.00     0.009 C 
ENDBRANCH   7   8
ENDBRANCH   1   7
TORSDOF 2
ENDMDL
