MODEL 1
REMARK minimizedAffinity -3.30229712
REMARK minimizedRMSD -1
REMARK  2 active torsions:
REMARK  status: ('A' for Active; 'I' for Inactive)
REMARK    1  A    between atoms: C1_2  and  C2_3 
REMARK    2  A    between atoms: C2_3  and  C3_4 
ROOT
ATOM      1  C3  UNL d   1      -0.337  -0.218  -0.091  0.00  0.00    -0.075 A 
ATOM      2  C4  UNL d   1       0.795   0.163  -0.826  0.00  0.00     0.002 A 
ATOM      3  C5  UNL d   1       1.708  -0.795  -1.269  0.00  0.00     0.002 A 
ATOM      4  C6  UNL d   1       1.506  -2.142  -0.975  0.00  0.00    -0.004 A 
ATOM      5  C7  UNL d   1       0.394  -2.529  -0.231  0.00  0.00     0.002 A 
ATOM      6  C8  UNL d   1      -0.523  -1.573   0.210  0.00  0.00     0.002 A 
ENDROOT
BRANCH   1   7
ATOM      7  C2  UNL d   1      -1.343   0.811   0.366  0.00  0.00     0.056 C 
BRANCH   7   8
ATOM      8  C1  UNL d   1      -1.944   0.526   1.746  0.00  0.00     0.007 C 
ATOM      9  C   UNL d   1      -1.949   1.742   2.662  0.00  0.00     0.009 C 
ENDBRANCH   7   8
ENDBRANCH   1   7
TORSDOF 2
ENDMDL
