MODEL 1
REMARK minimizedAffinity -5.51915884
REMARK minimizedRMSD -1
REMARK  2 active torsions:
REMARK  status: ('A' for Active; 'I' for Inactive)
REMARK    1  A    between atoms: C1_2  and  C2_3 
REMARK    2  A    between atoms: C2_3  and  C3_4 
ROOT
ATOM      1  C3  UNL d   1       0.003   0.131  -0.367  0.00  0.00    -0.075 A 
ATOM      2  C4  UNL d   1       0.962   0.881  -1.064  0.00  0.00     0.002 A 
ATOM      3  C5  UNL d   1       2.068   0.256  -1.641  0.00  0.00     0.002 A 
ATOM      4  C6  UNL d   1       2.235  -1.121  -1.520  0.00  0.00    -0.004 A 
ATOM      5  C7  UNL d   1       1.298  -1.874  -0.816  0.00  0.00     0.002 A 
ATOM      6  C8  UNL d   1       0.188  -1.252  -0.241  0.00  0.00     0.002 A 
ENDROOT
BRANCH   1   7
ATOM      7  C2  UNL d   1      -1.211   0.797   0.234  0.00  0.00     0.056 C 
BRANCH   7   8
ATOM      8  C1  UNL d   1      -1.549   0.317   1.650  0.00  0.00     0.007 C 
ATOM      9  C   UNL d   1      -1.505   1.430   2.688  0.00  0.00     0.009 C 
ENDBRANCH   7   8
ENDBRANCH   1   7
TORSDOF 2
ENDMDL
