MODEL 1
REMARK minimizedAffinity -4.89928865
REMARK minimizedRMSD -1
REMARK  2 active torsions:
REMARK  status: ('A' for Active; 'I' for Inactive)
REMARK    1  A    between atoms: C1_2  and  C2_3 
REMARK    2  A    between atoms: C2_3  and  C3_4 
ROOT
ATOM      1  C3  UNL d   1      -0.286  -0.223  -0.641  0.00  0.00    -0.075 A 
ATOM      2  C4  UNL d   1       0.611  -1.298  -0.717  0.00  0.00     0.002 A 
ATOM      3  C5  UNL d   1       1.757  -1.211  -1.508  0.00  0.00     0.002 A 
ATOM      4  C6  UNL d   1       2.015  -0.054  -2.240  0.00  0.00    -0.004 A 
ATOM      5  C7  UNL d   1       1.123   1.015  -2.185  0.00  0.00     0.002 A 
ATOM      6  C8  UNL d   1      -0.023   0.931  -1.391  0.00  0.00     0.002 A 
ENDROOT
BRANCH   1   7
ATOM      7  C2  UNL d   1      -1.513  -0.300   0.236  0.00  0.00     0.056 C 
BRANCH   7   8
ATOM      8  C1  UNL d   1      -1.515   0.702   1.395  0.00  0.00     0.007 C 
ATOM      9  C   UNL d   1      -2.454   0.308   2.527  0.00  0.00     0.009 C 
ENDBRANCH   7   8
ENDBRANCH   1   7
TORSDOF 2
ENDMDL
