MODEL 1
REMARK minimizedAffinity -5.65821505
REMARK minimizedRMSD -1
REMARK  2 active torsions:
REMARK  status: ('A' for Active; 'I' for Inactive)
REMARK    1  A    between atoms: C1_2  and  C2_3 
REMARK    2  A    between atoms: C2_3  and  C3_4 
ROOT
ATOM      1  C3  UNL d   1      -2.604  -0.752   3.467  0.00  0.00    -0.075 A 
ATOM      2  C4  UNL d   1      -2.399   0.462   4.138  0.00  0.00     0.002 A 
ATOM      3  C5  UNL d   1      -2.146   1.633   3.424  0.00  0.00     0.002 A 
ATOM      4  C6  UNL d   1      -2.084   1.604   2.032  0.00  0.00    -0.004 A 
ATOM      5  C7  UNL d   1      -2.269   0.400   1.355  0.00  0.00     0.002 A 
ATOM      6  C8  UNL d   1      -2.527  -0.772   2.068  0.00  0.00     0.002 A 
ENDROOT
BRANCH   1   7
ATOM      7  C2  UNL d   1      -2.908  -2.017   4.233  0.00  0.00     0.056 C 
BRANCH   7   8
ATOM      8  C1  UNL d   1      -3.903  -2.948   3.531  0.00  0.00     0.007 C 
ATOM      9  C   UNL d   1      -5.294  -2.914   4.148  0.00  0.00     0.009 C 
ENDBRANCH   7   8
ENDBRANCH   1   7
TORSDOF 2
ENDMDL
