MODEL 1
REMARK minimizedAffinity -3.75358963
REMARK minimizedRMSD -1
REMARK  2 active torsions:
REMARK  status: ('A' for Active; 'I' for Inactive)
REMARK    1  A    between atoms: C1_2  and  C2_3 
REMARK    2  A    between atoms: C2_3  and  C3_4 
ROOT
ATOM      1  C3  UNL d   1       0.573   0.080  -0.822  0.00  0.00    -0.075 A 
ATOM      2  C4  UNL d   1       0.721  -1.166  -1.449  0.00  0.00     0.002 A 
ATOM      3  C5  UNL d   1       1.985  -1.631  -1.812  0.00  0.00     0.002 A 
ATOM      4  C6  UNL d   1       3.115  -0.854  -1.563  0.00  0.00    -0.004 A 
ATOM      5  C7  UNL d   1       2.978   0.392  -0.955  0.00  0.00     0.002 A 
ATOM      6  C8  UNL d   1       1.715   0.858  -0.587  0.00  0.00     0.002 A 
ENDROOT
BRANCH   1   7
ATOM      7  C2  UNL d   1      -0.789   0.576  -0.400  0.00  0.00     0.056 C 
BRANCH   7   8
ATOM      8  C1  UNL d   1      -1.419  -0.227   0.743  0.00  0.00     0.007 C 
ATOM      9  C   UNL d   1      -1.603   0.586   2.017  0.00  0.00     0.009 C 
ENDBRANCH   7   8
ENDBRANCH   1   7
TORSDOF 2
ENDMDL
