MODEL 1
REMARK minimizedAffinity -4.83482409
REMARK minimizedRMSD -1
REMARK  2 active torsions:
REMARK  status: ('A' for Active; 'I' for Inactive)
REMARK    1  A    between atoms: C1_2  and  C2_3 
REMARK    2  A    between atoms: C2_3  and  C3_4 
ROOT
ATOM      1  C3  UNL d   1      -0.105   0.067  -0.283  0.00  0.00    -0.075 A 
ATOM      2  C4  UNL d   1       0.917   0.931  -0.706  0.00  0.00     0.002 A 
ATOM      3  C5  UNL d   1       2.033   0.432  -1.379  0.00  0.00     0.002 A 
ATOM      4  C6  UNL d   1       2.147  -0.934  -1.628  0.00  0.00    -0.004 A 
ATOM      5  C7  UNL d   1       1.146  -1.803  -1.198  0.00  0.00     0.002 A 
ATOM      6  C8  UNL d   1       0.026  -1.306  -0.528  0.00  0.00     0.002 A 
ENDROOT
BRANCH   1   7
ATOM      7  C2  UNL d   1      -1.329   0.604   0.419  0.00  0.00     0.056 C 
BRANCH   7   8
ATOM      8  C1  UNL d   1      -1.980  -0.391   1.385  0.00  0.00     0.007 C 
ATOM      9  C   UNL d   1      -2.999   0.254   2.315  0.00  0.00     0.009 C 
ENDBRANCH   7   8
ENDBRANCH   1   7
TORSDOF 2
ENDMDL
