MODEL 1
REMARK minimizedAffinity 7.28894043
REMARK minimizedRMSD -1
REMARK  2 active torsions:
REMARK  status: ('A' for Active; 'I' for Inactive)
REMARK    1  A    between atoms: C1_2  and  C2_3 
REMARK    2  A    between atoms: C2_3  and  C3_4 
ROOT
ATOM      1  C3  UNL d   1      -0.471  -1.102   0.687  0.00  0.00    -0.075 A 
ATOM      2  C4  UNL d   1       0.846  -1.507   0.951  0.00  0.00     0.002 A 
ATOM      3  C5  UNL d   1       1.550  -2.275   0.024  0.00  0.00     0.002 A 
ATOM      4  C6  UNL d   1       0.946  -2.656  -1.172  0.00  0.00    -0.004 A 
ATOM      5  C7  UNL d   1      -0.367  -2.274  -1.438  0.00  0.00     0.002 A 
ATOM      6  C8  UNL d   1      -1.073  -1.501  -0.514  0.00  0.00     0.002 A 
ENDROOT
BRANCH   1   7
ATOM      7  C2  UNL d   1      -1.228  -0.246   1.673  0.00  0.00     0.056 C 
BRANCH   7   8
ATOM      8  C1  UNL d   1      -2.621  -0.781   2.023  0.00  0.00     0.007 C 
ATOM      9  C   UNL d   1      -2.795  -1.075   3.507  0.00  0.00     0.009 C 
ENDBRANCH   7   8
ENDBRANCH   1   7
TORSDOF 2
ENDMDL
