MODEL 1
REMARK minimizedAffinity -1.14176214
REMARK minimizedRMSD -1
REMARK  1 active torsions:
REMARK  status: ('A' for Active; 'I' for Inactive)
REMARK    1  A    between atoms: C1_2  and  C2_3 
ROOT
ATOM      1  C2  UNL d   1       4.884   4.590  -4.459  0.00  0.00    -0.076 A 
ATOM      2  C3  UNL d   1       5.943   5.436  -4.089  0.00  0.00     0.004 A 
ATOM      3  C4  UNL d   1       5.999   6.000  -2.815  0.00  0.00    -0.003 A 
ATOM      4  C5  UNL d   1       4.998   5.725  -1.890  0.00  0.00     0.000 A 
ATOM      5  C6  UNL d   1       3.949   4.873  -2.235  0.00  0.00     0.000 A 
ATOM      6  C7  UNL d   1       3.885   4.284  -3.509  0.00  0.00    -0.073 A 
ATOM      7  C8  UNL d   1       2.728   3.378  -3.829  0.00  0.00     0.078 C 
ENDROOT
BRANCH   1   8
ATOM      8  C1  UNL d   1       4.861   4.030  -5.863  0.00  0.00     0.053 C 
ATOM      9  C   UNL d   1       5.669   2.748  -5.992  0.00  0.00     0.018 C 
ENDBRANCH   1   8
TORSDOF 1
ENDMDL
