MODEL 1
REMARK minimizedAffinity -1.60622311
REMARK minimizedRMSD -1
REMARK  1 active torsions:
REMARK  status: ('A' for Active; 'I' for Inactive)
REMARK    1  A    between atoms: C1_2  and  C2_3 
ROOT
ATOM      1  C2  UNL d   1       5.216   4.695  -4.715  0.00  0.00    -0.076 A 
ATOM      2  C3  UNL d   1       5.803   4.350  -3.485  0.00  0.00     0.004 A 
ATOM      3  C4  UNL d   1       5.284   4.829  -2.283  0.00  0.00    -0.003 A 
ATOM      4  C5  UNL d   1       4.170   5.661  -2.292  0.00  0.00     0.000 A 
ATOM      5  C6  UNL d   1       3.565   6.000  -3.501  0.00  0.00     0.000 A 
ATOM      6  C7  UNL d   1       4.065   5.512  -4.721  0.00  0.00    -0.073 A 
ATOM      7  C8  UNL d   1       3.376   5.914  -5.996  0.00  0.00     0.078 C 
ENDROOT
BRANCH   1   8
ATOM      8  C1  UNL d   1       5.838   4.168  -5.988  0.00  0.00     0.053 C 
ATOM      9  C   UNL d   1       5.943   2.651  -6.000  0.00  0.00     0.018 C 
ENDBRANCH   1   8
TORSDOF 1
ENDMDL
