MODEL 1
REMARK minimizedAffinity -0.479845911
REMARK minimizedRMSD -1
REMARK  1 active torsions:
REMARK  status: ('A' for Active; 'I' for Inactive)
REMARK    1  A    between atoms: C1_2  and  C2_3 
ROOT
ATOM      1  C2  UNL d   1       4.797   4.943  -3.801  0.00  0.00    -0.076 A 
ATOM      2  C3  UNL d   1       3.675   5.567  -3.228  0.00  0.00     0.004 A 
ATOM      3  C4  UNL d   1       2.613   5.999  -4.020  0.00  0.00    -0.003 A 
ATOM      4  C5  UNL d   1       2.655   5.815  -5.397  0.00  0.00     0.000 A 
ATOM      5  C6  UNL d   1       3.752   5.182  -5.981  0.00  0.00     0.000 A 
ATOM      6  C7  UNL d   1       4.824   4.725  -5.196  0.00  0.00    -0.073 A 
ATOM      7  C8  UNL d   1       5.985   4.055  -5.878  0.00  0.00     0.078 C 
ENDROOT
BRANCH   1   8
ATOM      8  C1  UNL d   1       5.932   4.519  -2.896  0.00  0.00     0.053 C 
ATOM      9  C   UNL d   1       5.914   5.246  -1.560  0.00  0.00     0.018 C 
ENDBRANCH   1   8
TORSDOF 1
ENDMDL
