MODEL 1
REMARK minimizedAffinity -1.13834083
REMARK minimizedRMSD -1
REMARK  1 active torsions:
REMARK  status: ('A' for Active; 'I' for Inactive)
REMARK    1  A    between atoms: C1_2  and  C2_3 
ROOT
ATOM      1  C2  UNL d   1       4.152   4.840  -4.611  0.00  0.00    -0.076 A 
ATOM      2  C3  UNL d   1       4.125   4.076  -5.791  0.00  0.00     0.004 A 
ATOM      3  C4  UNL d   1       5.025   3.031  -5.990  0.00  0.00    -0.003 A 
ATOM      4  C5  UNL d   1       5.967   2.732  -5.012  0.00  0.00     0.000 A 
ATOM      5  C6  UNL d   1       5.997   3.467  -3.828  0.00  0.00     0.000 A 
ATOM      6  C7  UNL d   1       5.086   4.514  -3.604  0.00  0.00    -0.073 A 
ATOM      7  C8  UNL d   1       5.167   5.278  -2.311  0.00  0.00     0.078 C 
ENDROOT
BRANCH   1   8
ATOM      8  C1  UNL d   1       3.168   5.978  -4.462  0.00  0.00     0.053 C 
ATOM      9  C   UNL d   1       2.076   5.676  -3.448  0.00  0.00     0.018 C 
ENDBRANCH   1   8
TORSDOF 1
ENDMDL
