MODEL 1
REMARK minimizedAffinity -3.29844785
REMARK minimizedRMSD -1
REMARK  1 active torsions:
REMARK  status: ('A' for Active; 'I' for Inactive)
REMARK    1  A    between atoms: C1_2  and  C2_3 
ROOT
ATOM      1  C2  UNL d   1       4.858   4.459  -3.590  0.00  0.00    -0.076 A 
ATOM      2  C3  UNL d   1       5.766   3.393  -3.713  0.00  0.00     0.004 A 
ATOM      3  C4  UNL d   1       5.882   2.682  -4.906  0.00  0.00    -0.003 A 
ATOM      4  C5  UNL d   1       5.091   3.026  -5.997  0.00  0.00     0.000 A 
ATOM      5  C6  UNL d   1       4.198   4.092  -5.899  0.00  0.00     0.000 A 
ATOM      6  C7  UNL d   1       4.080   4.830  -4.708  0.00  0.00    -0.073 A 
ATOM      7  C8  UNL d   1       3.096   5.966  -4.657  0.00  0.00     0.078 C 
ENDROOT
BRANCH   1   8
ATOM      8  C1  UNL d   1       4.757   5.176  -2.263  0.00  0.00     0.053 C 
ATOM      9  C   UNL d   1       5.999   5.994  -1.947  0.00  0.00     0.018 C 
ENDBRANCH   1   8
TORSDOF 1
ENDMDL
