MODEL 1
REMARK minimizedAffinity -0.524567664
REMARK minimizedRMSD -1
REMARK  1 active torsions:
REMARK  status: ('A' for Active; 'I' for Inactive)
REMARK    1  A    between atoms: C1_2  and  C2_3 
ROOT
ATOM      1  C2  UNL d   1       5.057   4.689  -3.782  0.00  0.00    -0.076 A 
ATOM      2  C3  UNL d   1       5.985   3.633  -3.792  0.00  0.00     0.004 A 
ATOM      3  C4  UNL d   1       5.999   2.699  -4.827  0.00  0.00    -0.003 A 
ATOM      4  C5  UNL d   1       5.085   2.807  -5.869  0.00  0.00     0.000 A 
ATOM      5  C6  UNL d   1       4.169   3.858  -5.884  0.00  0.00     0.000 A 
ATOM      6  C7  UNL d   1       4.152   4.817  -4.857  0.00  0.00    -0.073 A 
ATOM      7  C8  UNL d   1       3.138   5.926  -4.921  0.00  0.00     0.078 C 
ENDROOT
BRANCH   1   8
ATOM      8  C1  UNL d   1       5.072   5.655  -2.619  0.00  0.00     0.053 C 
ATOM      9  C   UNL d   1       5.999   5.206  -1.500  0.00  0.00     0.018 C 
ENDBRANCH   1   8
TORSDOF 1
ENDMDL
