MODEL 1
REMARK minimizedAffinity 3.8991518
REMARK minimizedRMSD -1
REMARK  1 active torsions:
REMARK  status: ('A' for Active; 'I' for Inactive)
REMARK    1  A    between atoms: C1_2  and  C2_3 
ROOT
ATOM      1  C2  UNL d   1       4.676   5.253  -3.162  0.00  0.00    -0.076 A 
ATOM      2  C3  UNL d   1       5.905   5.029  -3.807  0.00  0.00     0.004 A 
ATOM      3  C4  UNL d   1       5.997   5.035  -5.197  0.00  0.00    -0.003 A 
ATOM      4  C5  UNL d   1       4.861   5.266  -5.966  0.00  0.00     0.000 A 
ATOM      5  C6  UNL d   1       3.637   5.507  -5.343  0.00  0.00     0.000 A 
ATOM      6  C7  UNL d   1       3.531   5.521  -3.941  0.00  0.00    -0.073 A 
ATOM      7  C8  UNL d   1       2.185   5.781  -3.322  0.00  0.00     0.078 C 
ENDROOT
BRANCH   1   8
ATOM      8  C1  UNL d   1       4.632   5.208  -1.651  0.00  0.00     0.053 C 
ATOM      9  C   UNL d   1       5.998   5.434  -1.021  0.00  0.00     0.018 C 
ENDBRANCH   1   8
TORSDOF 1
ENDMDL
