MODEL 1
REMARK minimizedAffinity 1.09463859
REMARK minimizedRMSD -1
REMARK  1 active torsions:
REMARK  status: ('A' for Active; 'I' for Inactive)
REMARK    1  A    between atoms: C1_2  and  C2_3 
ROOT
ATOM      1  C2  UNL d   1       4.518   4.283  -3.759  0.00  0.00    -0.076 A 
ATOM      2  C3  UNL d   1       4.063   4.033  -2.453  0.00  0.00     0.004 A 
ATOM      3  C4  UNL d   1       4.569   4.748  -1.368  0.00  0.00    -0.003 A 
ATOM      4  C5  UNL d   1       5.536   5.725  -1.573  0.00  0.00     0.000 A 
ATOM      5  C6  UNL d   1       5.986   5.999  -2.864  0.00  0.00     0.000 A 
ATOM      6  C7  UNL d   1       5.475   5.299  -3.970  0.00  0.00    -0.073 A 
ATOM      7  C8  UNL d   1       5.999   5.631  -5.340  0.00  0.00     0.078 C 
ENDROOT
BRANCH   1   8
ATOM      8  C1  UNL d   1       3.953   3.458  -4.893  0.00  0.00     0.053 C 
ATOM      9  C   UNL d   1       4.917   2.381  -5.366  0.00  0.00     0.018 C 
ENDBRANCH   1   8
TORSDOF 1
ENDMDL
