MODEL 1
REMARK minimizedAffinity 1.26612639
REMARK minimizedRMSD -1
REMARK  1 active torsions:
REMARK  status: ('A' for Active; 'I' for Inactive)
REMARK    1  A    between atoms: C1_2  and  C2_3 
ROOT
ATOM      1  C2  UNL d   1       4.485   5.385  -3.560  0.00  0.00    -0.076 A 
ATOM      2  C3  UNL d   1       5.624   5.999  -3.010  0.00  0.00     0.004 A 
ATOM      3  C4  UNL d   1       5.999   5.761  -1.689  0.00  0.00    -0.003 A 
ATOM      4  C5  UNL d   1       5.243   4.904  -0.897  0.00  0.00     0.000 A 
ATOM      5  C6  UNL d   1       4.120   4.273  -1.431  0.00  0.00     0.000 A 
ATOM      6  C7  UNL d   1       3.737   4.489  -2.766  0.00  0.00    -0.073 A 
ATOM      7  C8  UNL d   1       2.514   3.787  -3.289  0.00  0.00     0.078 C 
ENDROOT
BRANCH   1   8
ATOM      8  C1  UNL d   1       4.111   5.702  -4.990  0.00  0.00     0.053 C 
ATOM      9  C   UNL d   1       4.902   4.880  -5.996  0.00  0.00     0.018 C 
ENDBRANCH   1   8
TORSDOF 1
ENDMDL
