MODEL 1
REMARK minimizedAffinity 0.66012007
REMARK minimizedRMSD -1
REMARK  1 active torsions:
REMARK  status: ('A' for Active; 'I' for Inactive)
REMARK    1  A    between atoms: C1_2  and  C2_3 
ROOT
ATOM      1  C2  UNL d   1       4.097   5.368  -3.613  0.00  0.00    -0.076 A 
ATOM      2  C3  UNL d   1       5.324   5.978  -3.301  0.00  0.00     0.004 A 
ATOM      3  C4  UNL d   1       6.000   5.667  -2.122  0.00  0.00    -0.003 A 
ATOM      4  C5  UNL d   1       5.460   4.740  -1.237  0.00  0.00     0.000 A 
ATOM      5  C6  UNL d   1       4.252   4.113  -1.539  0.00  0.00     0.000 A 
ATOM      6  C7  UNL d   1       3.565   4.403  -2.731  0.00  0.00    -0.073 A 
ATOM      7  C8  UNL d   1       2.263   3.701  -3.004  0.00  0.00     0.078 C 
ENDROOT
BRANCH   1   8
ATOM      8  C1  UNL d   1       3.396   5.765  -4.893  0.00  0.00     0.053 C 
ATOM      9  C   UNL d   1       3.578   4.738  -6.000  0.00  0.00     0.018 C 
ENDBRANCH   1   8
TORSDOF 1
ENDMDL
