MODEL 1
REMARK minimizedAffinity 3.11064911
REMARK minimizedRMSD -1
REMARK  1 active torsions:
REMARK  status: ('A' for Active; 'I' for Inactive)
REMARK    1  A    between atoms: C1_2  and  C2_3 
ROOT
ATOM      1  C2  UNL d   1       5.150   4.939  -3.852  0.00  0.00    -0.076 A 
ATOM      2  C3  UNL d   1       6.000   4.070  -4.557  0.00  0.00     0.004 A 
ATOM      3  C4  UNL d   1       5.482   3.059  -5.365  0.00  0.00    -0.003 A 
ATOM      4  C5  UNL d   1       4.105   2.901  -5.481  0.00  0.00     0.000 A 
ATOM      5  C6  UNL d   1       3.247   3.766  -4.803  0.00  0.00     0.000 A 
ATOM      6  C7  UNL d   1       3.753   4.800  -3.997  0.00  0.00    -0.073 A 
ATOM      7  C8  UNL d   1       2.781   5.700  -3.283  0.00  0.00     0.078 C 
ENDROOT
BRANCH   1   8
ATOM      8  C1  UNL d   1       5.769   6.000  -2.970  0.00  0.00     0.053 C 
ATOM      9  C   UNL d   1       5.999   5.513  -1.548  0.00  0.00     0.018 C 
ENDBRANCH   1   8
TORSDOF 1
ENDMDL
