MODEL 1
REMARK minimizedAffinity 5.88694763
REMARK minimizedRMSD -1
REMARK  1 active torsions:
REMARK  status: ('A' for Active; 'I' for Inactive)
REMARK    1  A    between atoms: C1_2  and  C2_3 
ROOT
ATOM      1  C2  UNL d   1       4.342   5.122  -3.569  0.00  0.00    -0.076 A 
ATOM      2  C3  UNL d   1       5.341   5.994  -4.035  0.00  0.00     0.004 A 
ATOM      3  C4  UNL d   1       6.000   5.751  -5.240  0.00  0.00    -0.003 A 
ATOM      4  C5  UNL d   1       5.669   4.633  -5.997  0.00  0.00     0.000 A 
ATOM      5  C6  UNL d   1       4.668   3.767  -5.558  0.00  0.00     0.000 A 
ATOM      6  C7  UNL d   1       3.983   4.006  -4.355  0.00  0.00    -0.073 A 
ATOM      7  C8  UNL d   1       2.916   3.036  -3.927  0.00  0.00     0.078 C 
ENDROOT
BRANCH   1   8
ATOM      8  C1  UNL d   1       3.681   5.422  -2.242  0.00  0.00     0.053 C 
ATOM      9  C   UNL d   1       4.680   5.497  -1.098  0.00  0.00     0.018 C 
ENDBRANCH   1   8
TORSDOF 1
ENDMDL
