MODEL 1
REMARK minimizedAffinity -0.315050364
REMARK minimizedRMSD -1
REMARK  1 active torsions:
REMARK  status: ('A' for Active; 'I' for Inactive)
REMARK    1  A    between atoms: C1_2  and  C2_3 
ROOT
ATOM      1  C2  UNL d   1       4.230   4.648  -3.371  0.00  0.00    -0.076 A 
ATOM      2  C3  UNL d   1       3.875   4.235  -4.667  0.00  0.00     0.004 A 
ATOM      3  C4  UNL d   1       4.566   4.704  -5.783  0.00  0.00    -0.003 A 
ATOM      4  C5  UNL d   1       5.624   5.592  -5.621  0.00  0.00     0.000 A 
ATOM      5  C6  UNL d   1       6.000   5.999  -4.342  0.00  0.00     0.000 A 
ATOM      6  C7  UNL d   1       5.324   5.523  -3.205  0.00  0.00    -0.073 A 
ATOM      7  C8  UNL d   1       5.768   6.000  -1.849  0.00  0.00     0.078 C 
ENDROOT
BRANCH   1   8
ATOM      8  C1  UNL d   1       3.426   4.128  -2.200  0.00  0.00     0.053 C 
ATOM      9  C   UNL d   1       2.161   4.936  -1.957  0.00  0.00     0.018 C 
ENDBRANCH   1   8
TORSDOF 1
ENDMDL
