MODEL 1
REMARK minimizedAffinity -3.40942216
REMARK minimizedRMSD -1
REMARK  0 active torsions:
REMARK  status: ('A' for Active; 'I' for Inactive)
ROOT
ATOM      1  N1  IND d   1      -5.999   4.298   5.842  0.00  0.00    -0.196 N 
ATOM      2  C2  IND d   1      -5.690   2.975   6.000  0.00  0.00     0.054 A 
ATOM      3  C3  IND d   1      -5.123   2.487   4.873  0.00  0.00    -0.031 A 
ATOM      4  C4  IND d   1      -4.516   3.705   2.688  0.00  0.00     0.051 A 
ATOM      5  C5  IND d   1      -4.637   4.912   2.058  0.00  0.00    -0.031 A 
ATOM      6  C6  IND d   1      -5.227   5.998   2.670  0.00  0.00     0.015 A 
ATOM      7  C7  IND d   1      -5.711   5.921   3.946  0.00  0.00    -0.016 A 
ATOM      8  C8  IND d   1      -5.596   4.695   4.586  0.00  0.00    -0.047 A 
ATOM      9  C9  IND d   1      -5.036   3.578   3.954  0.00  0.00    -0.096 A 
ATOM     10  HN1 IND d   1      -6.380   4.797   6.429  0.00  0.00     0.298 HD
ENDROOT
TORSDOF 0
ENDMDL
