MODEL 1
REMARK minimizedAffinity -3.54095864
REMARK minimizedRMSD -1
REMARK  0 active torsions:
REMARK  status: ('A' for Active; 'I' for Inactive)
ROOT
ATOM      1  N1  IND d   1      -4.039   5.937   2.137  0.00  0.00    -0.196 N 
ATOM      2  C2  IND d   1      -5.094   5.978   1.269  0.00  0.00     0.054 A 
ATOM      3  C3  IND d   1      -5.999   5.024   1.583  0.00  0.00    -0.031 A 
ATOM      4  C4  IND d   1      -6.000   3.353   3.541  0.00  0.00     0.051 A 
ATOM      5  C5  IND d   1      -5.230   2.910   4.580  0.00  0.00    -0.031 A 
ATOM      6  C6  IND d   1      -4.000   3.467   4.865  0.00  0.00     0.015 A 
ATOM      7  C7  IND d   1      -3.497   4.500   4.125  0.00  0.00    -0.016 A 
ATOM      8  C8  IND d   1      -4.273   4.947   3.065  0.00  0.00    -0.047 A 
ATOM      9  C9  IND d   1      -5.503   4.357   2.745  0.00  0.00    -0.096 A 
ATOM     10  HN1 IND d   1      -3.346   6.445   2.108  0.00  0.00     0.298 HD
ENDROOT
TORSDOF 0
ENDMDL
