MODEL 1
REMARK minimizedAffinity 7.25416136
REMARK minimizedRMSD -1
REMARK  0 active torsions:
REMARK  status: ('A' for Active; 'I' for Inactive)
ROOT
ATOM      1  N1  IND d   1      -5.670   4.072   4.520  0.00  0.00    -0.196 N 
ATOM      2  C2  IND d   1      -5.994   5.400   4.492  0.00  0.00     0.054 A 
ATOM      3  C3  IND d   1      -5.744   5.919   3.268  0.00  0.00    -0.031 A 
ATOM      4  C4  IND d   1      -4.899   4.748   1.137  0.00  0.00     0.051 A 
ATOM      5  C5  IND d   1      -4.433   3.547   0.680  0.00  0.00    -0.031 A 
ATOM      6  C6  IND d   1      -4.355   2.437   1.496  0.00  0.00     0.015 A 
ATOM      7  C7  IND d   1      -4.754   2.484   2.802  0.00  0.00    -0.016 A 
ATOM      8  C8  IND d   1      -5.222   3.703   3.271  0.00  0.00    -0.047 A 
ATOM      9  C9  IND d   1      -5.263   4.844   2.459  0.00  0.00    -0.096 A 
ATOM     10  HN1 IND d   1      -5.734   3.555   5.204  0.00  0.00     0.298 HD
ENDROOT
TORSDOF 0
ENDMDL
