MODEL 1
REMARK minimizedAffinity -3.88962793
REMARK minimizedRMSD -1
REMARK  0 active torsions:
REMARK  status: ('A' for Active; 'I' for Inactive)
ROOT
ATOM      1  N1  IND d   1      -4.402   5.999   2.872  0.00  0.00    -0.196 N 
ATOM      2  C2  IND d   1      -4.876   5.766   1.611  0.00  0.00     0.054 A 
ATOM      3  C3  IND d   1      -5.255   4.475   1.482  0.00  0.00    -0.031 A 
ATOM      4  C4  IND d   1      -5.281   2.595   3.240  0.00  0.00     0.051 A 
ATOM      5  C5  IND d   1      -4.908   2.317   4.525  0.00  0.00    -0.031 A 
ATOM      6  C6  IND d   1      -4.339   3.272   5.342  0.00  0.00     0.015 A 
ATOM      7  C7  IND d   1      -4.131   4.550   4.906  0.00  0.00    -0.016 A 
ATOM      8  C8  IND d   1      -4.501   4.834   3.599  0.00  0.00    -0.047 A 
ATOM      9  C9  IND d   1      -5.040   3.857   2.752  0.00  0.00    -0.096 A 
ATOM     10  HN1 IND d   1      -4.094   6.748   3.162  0.00  0.00     0.298 HD
ENDROOT
TORSDOF 0
ENDMDL
