MODEL 1
REMARK minimizedAffinity -2.07106733
REMARK minimizedRMSD -1
REMARK  0 active torsions:
REMARK  status: ('A' for Active; 'I' for Inactive)
ROOT
ATOM      1  N1  IND d   1      -5.929   5.999   3.354  0.00  0.00    -0.196 N 
ATOM      2  C2  IND d   1      -5.619   5.664   2.066  0.00  0.00     0.054 A 
ATOM      3  C3  IND d   1      -5.281   4.357   1.988  0.00  0.00    -0.031 A 
ATOM      4  C4  IND d   1      -5.266   2.559   3.831  0.00  0.00     0.051 A 
ATOM      5  C5  IND d   1      -5.438   2.395   5.177  0.00  0.00    -0.031 A 
ATOM      6  C6  IND d   1      -5.793   3.444   6.000  0.00  0.00     0.015 A 
ATOM      7  C7  IND d   1      -6.000   4.700   5.504  0.00  0.00    -0.016 A 
ATOM      8  C8  IND d   1      -5.819   4.872   4.139  0.00  0.00    -0.047 A 
ATOM      9  C9  IND d   1      -5.418   3.820   3.305  0.00  0.00    -0.096 A 
ATOM     10  HN1 IND d   1      -6.154   6.782   3.628  0.00  0.00     0.298 HD
ENDROOT
TORSDOF 0
ENDMDL
