MODEL 1
REMARK minimizedAffinity -2.3903861
REMARK minimizedRMSD -1
REMARK  0 active torsions:
REMARK  status: ('A' for Active; 'I' for Inactive)
ROOT
ATOM      1  N1  IND d   1      -4.628   6.000   3.093  0.00  0.00    -0.196 N 
ATOM      2  C2  IND d   1      -4.993   5.804   1.791  0.00  0.00     0.054 A 
ATOM      3  C3  IND d   1      -5.256   4.496   1.568  0.00  0.00    -0.031 A 
ATOM      4  C4  IND d   1      -5.250   2.522   3.220  0.00  0.00     0.051 A 
ATOM      5  C5  IND d   1      -4.946   2.200   4.513  0.00  0.00    -0.031 A 
ATOM      6  C6  IND d   1      -4.515   3.149   5.418  0.00  0.00     0.015 A 
ATOM      7  C7  IND d   1      -4.381   4.462   5.065  0.00  0.00    -0.016 A 
ATOM      8  C8  IND d   1      -4.682   4.791   3.751  0.00  0.00    -0.047 A 
ATOM      9  C9  IND d   1      -5.080   3.825   2.817  0.00  0.00    -0.096 A 
ATOM     10  HN1 IND d   1      -4.403   6.752   3.443  0.00  0.00     0.298 HD
ENDROOT
TORSDOF 0
ENDMDL
