MODEL 1
REMARK minimizedAffinity -3.74641919
REMARK minimizedRMSD -1
REMARK  0 active torsions:
REMARK  status: ('A' for Active; 'I' for Inactive)
ROOT
ATOM      1  N1  IND d   1      -4.571   2.479   4.848  0.00  0.00    -0.196 N 
ATOM      2  C2  IND d   1      -4.082   1.690   3.844  0.00  0.00     0.054 A 
ATOM      3  C3  IND d   1      -3.997   2.394   2.692  0.00  0.00    -0.031 A 
ATOM      4  C4  IND d   1      -4.510   4.877   2.251  0.00  0.00     0.051 A 
ATOM      5  C5  IND d   1      -5.017   5.996   2.851  0.00  0.00    -0.031 A 
ATOM      6  C6  IND d   1      -5.407   6.000   4.175  0.00  0.00     0.015 A 
ATOM      7  C7  IND d   1      -5.293   4.884   4.954  0.00  0.00    -0.016 A 
ATOM      8  C8  IND d   1      -4.785   3.744   4.347  0.00  0.00    -0.047 A 
ATOM      9  C9  IND d   1      -4.427   3.722   2.992  0.00  0.00    -0.096 A 
ATOM     10  HN1 IND d   1      -4.720   2.227   5.656  0.00  0.00     0.298 HD
ENDROOT
TORSDOF 0
ENDMDL
