MODEL 1
REMARK minimizedAffinity -3.39034605
REMARK minimizedRMSD -1
REMARK  0 active torsions:
REMARK  status: ('A' for Active; 'I' for Inactive)
ROOT
ATOM      1  N1  IND d   1      -3.765   5.246   1.777  0.00  0.00    -0.196 N 
ATOM      2  C2  IND d   1      -4.939   5.247   1.075  0.00  0.00     0.054 A 
ATOM      3  C3  IND d   1      -5.980   4.997   1.901  0.00  0.00    -0.031 A 
ATOM      4  C4  IND d   1      -6.000   4.659   4.453  0.00  0.00     0.051 A 
ATOM      5  C5  IND d   1      -5.167   4.536   5.530  0.00  0.00    -0.031 A 
ATOM      6  C6  IND d   1      -3.797   4.649   5.409  0.00  0.00     0.015 A 
ATOM      7  C7  IND d   1      -3.207   4.901   4.203  0.00  0.00    -0.016 A 
ATOM      8  C8  IND d   1      -4.049   5.019   3.106  0.00  0.00    -0.047 A 
ATOM      9  C9  IND d   1      -5.437   4.864   3.215  0.00  0.00    -0.096 A 
ATOM     10  HN1 IND d   1      -2.982   5.367   1.444  0.00  0.00     0.298 HD
ENDROOT
TORSDOF 0
ENDMDL
