MODEL 1
REMARK minimizedAffinity -3.32378721
REMARK minimizedRMSD -1
REMARK  0 active torsions:
REMARK  status: ('A' for Active; 'I' for Inactive)
ROOT
ATOM      1  N1  IND d   1      -5.982   4.470   2.237  0.00  0.00    -0.196 N 
ATOM      2  C2  IND d   1      -5.244   5.391   1.547  0.00  0.00     0.054 A 
ATOM      3  C3  IND d   1      -4.363   6.000   2.372  0.00  0.00    -0.031 A 
ATOM      4  C4  IND d   1      -3.889   5.568   4.865  0.00  0.00     0.051 A 
ATOM      5  C5  IND d   1      -4.334   4.847   5.937  0.00  0.00    -0.031 A 
ATOM      6  C6  IND d   1      -5.371   3.943   5.828  0.00  0.00     0.015 A 
ATOM      7  C7  IND d   1      -5.996   3.718   4.634  0.00  0.00    -0.016 A 
ATOM      8  C8  IND d   1      -5.551   4.453   3.545  0.00  0.00    -0.047 A 
ATOM      9  C9  IND d   1      -4.528   5.403   3.659  0.00  0.00    -0.096 A 
ATOM     10  HN1 IND d   1      -6.610   3.983   1.908  0.00  0.00     0.298 HD
ENDROOT
TORSDOF 0
ENDMDL
