MODEL 1
REMARK minimizedAffinity -2.45112085
REMARK minimizedRMSD -1
REMARK  0 active torsions:
REMARK  status: ('A' for Active; 'I' for Inactive)
ROOT
ATOM      1  N1  IND d   1      -4.725   4.876   1.935  0.00  0.00    -0.196 N 
ATOM      2  C2  IND d   1      -5.474   6.000   2.148  0.00  0.00     0.054 A 
ATOM      3  C3  IND d   1      -5.983   5.995   3.400  0.00  0.00    -0.031 A 
ATOM      4  C4  IND d   1      -5.633   4.296   5.302  0.00  0.00     0.051 A 
ATOM      5  C5  IND d   1      -5.059   3.086   5.573  0.00  0.00    -0.031 A 
ATOM      6  C6  IND d   1      -4.327   2.398   4.627  0.00  0.00     0.015 A 
ATOM      7  C7  IND d   1      -4.131   2.902   3.372  0.00  0.00    -0.016 A 
ATOM      8  C8  IND d   1      -4.719   4.128   3.091  0.00  0.00    -0.047 A 
ATOM      9  C9  IND d   1      -5.499   4.810   4.034  0.00  0.00    -0.096 A 
ATOM     10  HN1 IND d   1      -4.325   4.671   1.202  0.00  0.00     0.298 HD
ENDROOT
TORSDOF 0
ENDMDL
