MODEL 1
REMARK minimizedAffinity -3.55723786
REMARK minimizedRMSD -1
REMARK  0 active torsions:
REMARK  status: ('A' for Active; 'I' for Inactive)
ROOT
ATOM      1  N1  IND d   1      -4.601   3.959   2.264  0.00  0.00    -0.196 N 
ATOM      2  C2  IND d   1      -4.971   5.054   1.534  0.00  0.00     0.054 A 
ATOM      3  C3  IND d   1      -5.507   5.998   2.339  0.00  0.00    -0.031 A 
ATOM      4  C4  IND d   1      -5.782   6.000   4.899  0.00  0.00     0.051 A 
ATOM      5  C5  IND d   1      -5.625   5.205   6.000  0.00  0.00    -0.031 A 
ATOM      6  C6  IND d   1      -5.105   3.930   5.910  0.00  0.00     0.015 A 
ATOM      7  C7  IND d   1      -4.711   3.404   4.713  0.00  0.00    -0.016 A 
ATOM      8  C8  IND d   1      -4.876   4.205   3.592  0.00  0.00    -0.047 A 
ATOM      9  C9  IND d   1      -5.442   5.484   3.671  0.00  0.00    -0.096 A 
ATOM     10  HN1 IND d   1      -4.256   3.238   1.948  0.00  0.00     0.298 HD
ENDROOT
TORSDOF 0
ENDMDL
