MODEL 1
REMARK minimizedAffinity -3.57797146
REMARK minimizedRMSD -1
REMARK  0 active torsions:
REMARK  status: ('A' for Active; 'I' for Inactive)
ROOT
ATOM      1  N1  IND d   1      -4.114   4.991   2.257  0.00  0.00    -0.196 N 
ATOM      2  C2  IND d   1      -5.034   5.995   2.142  0.00  0.00     0.054 A 
ATOM      3  C3  IND d   1      -5.922   5.939   3.160  0.00  0.00    -0.031 A 
ATOM      4  C4  IND d   1      -5.995   4.345   5.180  0.00  0.00     0.051 A 
ATOM      5  C5  IND d   1      -5.386   3.238   5.701  0.00  0.00    -0.031 A 
ATOM      6  C6  IND d   1      -4.298   2.648   5.090  0.00  0.00     0.015 A 
ATOM      7  C7  IND d   1      -3.769   3.153   3.936  0.00  0.00    -0.016 A 
ATOM      8  C8  IND d   1      -4.390   4.273   3.400  0.00  0.00    -0.047 A 
ATOM      9  C9  IND d   1      -5.520   4.850   3.992  0.00  0.00    -0.096 A 
ATOM     10  HN1 IND d   1      -3.472   4.834   1.708  0.00  0.00     0.298 HD
ENDROOT
TORSDOF 0
ENDMDL
