MODEL 1
REMARK minimizedAffinity -3.2758081
REMARK minimizedRMSD -1
REMARK  0 active torsions:
REMARK  status: ('A' for Active; 'I' for Inactive)
ROOT
ATOM      1  N1  IND d   1      -5.982   2.433   4.655  0.00  0.00    -0.196 N 
ATOM      2  C2  IND d   1      -5.680   2.786   5.941  0.00  0.00     0.054 A 
ATOM      3  C3  IND d   1      -5.315   4.087   5.998  0.00  0.00    -0.031 A 
ATOM      4  C4  IND d   1      -5.239   5.848   4.123  0.00  0.00     0.051 A 
ATOM      5  C5  IND d   1      -5.392   5.991   2.772  0.00  0.00    -0.031 A 
ATOM      6  C6  IND d   1      -5.759   4.935   1.964  0.00  0.00     0.015 A 
ATOM      7  C7  IND d   1      -5.999   3.693   2.481  0.00  0.00    -0.016 A 
ATOM      8  C8  IND d   1      -5.838   3.542   3.851  0.00  0.00    -0.047 A 
ATOM      9  C9  IND d   1      -5.424   4.601   4.670  0.00  0.00    -0.096 A 
ATOM     10  HN1 IND d   1      -6.220   1.650   4.393  0.00  0.00     0.298 HD
ENDROOT
TORSDOF 0
ENDMDL
