MODEL 1
REMARK minimizedAffinity -3.1083343
REMARK minimizedRMSD -1
REMARK  0 active torsions:
REMARK  status: ('A' for Active; 'I' for Inactive)
ROOT
ATOM      1  N1  IND d   1      -4.495   4.436   5.752  0.00  0.00    -0.196 N 
ATOM      2  C2  IND d   1      -5.288   3.350   6.000  0.00  0.00     0.054 A 
ATOM      3  C3  IND d   1      -6.000   3.027   4.897  0.00  0.00    -0.031 A 
ATOM      4  C4  IND d   1      -5.946   4.078   2.548  0.00  0.00     0.051 A 
ATOM      5  C5  IND d   1      -5.404   5.118   1.845  0.00  0.00    -0.031 A 
ATOM      6  C6  IND d   1      -4.512   5.999   2.420  0.00  0.00     0.015 A 
ATOM      7  C7  IND d   1      -4.117   5.867   3.721  0.00  0.00    -0.016 A 
ATOM      8  C8  IND d   1      -4.670   4.817   4.439  0.00  0.00    -0.047 A 
ATOM      9  C9  IND d   1      -5.609   3.944   3.874  0.00  0.00    -0.096 A 
ATOM     10  HN1 IND d   1      -3.974   4.817   6.320  0.00  0.00     0.298 HD
ENDROOT
TORSDOF 0
ENDMDL
