MODEL 1
REMARK minimizedAffinity -2.29934525
REMARK minimizedRMSD -1
REMARK  0 active torsions:
REMARK  status: ('A' for Active; 'I' for Inactive)
ROOT
ATOM      1  N1  IND d   1      -5.868   3.836   5.880  0.00  0.00    -0.196 N 
ATOM      2  C2  IND d   1      -5.742   2.480   5.998  0.00  0.00     0.054 A 
ATOM      3  C3  IND d   1      -5.688   1.905   4.776  0.00  0.00    -0.031 A 
ATOM      4  C4  IND d   1      -5.688   3.005   2.448  0.00  0.00     0.051 A 
ATOM      5  C5  IND d   1      -5.823   4.217   1.830  0.00  0.00    -0.031 A 
ATOM      6  C6  IND d   1      -5.981   5.387   2.544  0.00  0.00     0.015 A 
ATOM      7  C7  IND d   1      -5.997   5.391   3.910  0.00  0.00    -0.016 A 
ATOM      8  C8  IND d   1      -5.868   4.162   4.542  0.00  0.00    -0.047 A 
ATOM      9  C9  IND d   1      -5.750   2.966   3.821  0.00  0.00    -0.096 A 
ATOM     10  HN1 IND d   1      -5.936   4.392   6.532  0.00  0.00     0.298 HD
ENDROOT
TORSDOF 0
ENDMDL
