MODEL 1
REMARK minimizedAffinity -2.92651415
REMARK minimizedRMSD -1
REMARK  0 active torsions:
REMARK  status: ('A' for Active; 'I' for Inactive)
ROOT
ATOM      1  N1  IND d   1      -5.969   5.999   2.913  0.00  0.00    -0.196 N 
ATOM      2  C2  IND d   1      -5.199   5.951   1.784  0.00  0.00     0.054 A 
ATOM      3  C3  IND d   1      -4.274   4.970   1.887  0.00  0.00    -0.031 A 
ATOM      4  C4  IND d   1      -3.912   3.256   3.774  0.00  0.00     0.051 A 
ATOM      5  C5  IND d   1      -4.345   2.926   5.027  0.00  0.00    -0.031 A 
ATOM      6  C6  IND d   1      -5.365   3.615   5.651  0.00  0.00     0.015 A 
ATOM      7  C7  IND d   1      -5.999   4.658   5.037  0.00  0.00    -0.016 A 
ATOM      8  C8  IND d   1      -5.557   5.001   3.768  0.00  0.00    -0.047 A 
ATOM      9  C9  IND d   1      -4.494   4.332   3.147  0.00  0.00    -0.096 A 
ATOM     10  HN1 IND d   1      -6.604   6.559   3.063  0.00  0.00     0.298 HD
ENDROOT
TORSDOF 0
ENDMDL
