MODEL 1
REMARK minimizedAffinity -2.07792091
REMARK minimizedRMSD -1
REMARK  0 active torsions:
REMARK  status: ('A' for Active; 'I' for Inactive)
ROOT
ATOM      1  N1  IND d   1      -5.989   2.791   4.829  0.00  0.00    -0.196 N 
ATOM      2  C2  IND d   1      -5.305   3.049   5.984  0.00  0.00     0.054 A 
ATOM      3  C3  IND d   1      -4.471   4.099   5.812  0.00  0.00    -0.031 A 
ATOM      4  C4  IND d   1      -4.142   5.605   3.751  0.00  0.00     0.051 A 
ATOM      5  C5  IND d   1      -4.518   5.740   2.444  0.00  0.00    -0.031 A 
ATOM      6  C6  IND d   1      -5.424   4.883   1.854  0.00  0.00     0.015 A 
ATOM      7  C7  IND d   1      -5.999   3.861   2.555  0.00  0.00    -0.016 A 
ATOM      8  C8  IND d   1      -5.614   3.717   3.881  0.00  0.00    -0.047 A 
ATOM      9  C9  IND d   1      -4.663   4.558   4.473  0.00  0.00    -0.096 A 
ATOM     10  HN1 IND d   1      -6.558   2.156   4.714  0.00  0.00     0.298 HD
ENDROOT
TORSDOF 0
ENDMDL
