MODEL 1
REMARK minimizedAffinity -3.79230809
REMARK minimizedRMSD -1
REMARK  0 active torsions:
REMARK  status: ('A' for Active; 'I' for Inactive)
ROOT
ATOM      1  N1  IND d   1      -4.462   3.596   5.596  0.00  0.00    -0.196 N 
ATOM      2  C2  IND d   1      -5.257   2.490   5.708  0.00  0.00     0.054 A 
ATOM      3  C3  IND d   1      -6.000   2.330   4.590  0.00  0.00    -0.031 A 
ATOM      4  C4  IND d   1      -5.998   3.706   2.414  0.00  0.00     0.051 A 
ATOM      5  C5  IND d   1      -5.467   4.833   1.853  0.00  0.00    -0.031 A 
ATOM      6  C6  IND d   1      -4.553   5.620   2.523  0.00  0.00     0.015 A 
ATOM      7  C7  IND d   1      -4.126   5.301   3.781  0.00  0.00    -0.016 A 
ATOM      8  C8  IND d   1      -4.669   4.161   4.357  0.00  0.00    -0.047 A 
ATOM      9  C9  IND d   1      -5.628   3.382   3.698  0.00  0.00    -0.096 A 
ATOM     10  HN1 IND d   1      -3.923   3.890   6.199  0.00  0.00     0.298 HD
ENDROOT
TORSDOF 0
ENDMDL
