MODEL 1
REMARK minimizedAffinity -4.32984018
REMARK minimizedRMSD -1
REMARK  0 active torsions:
REMARK  status: ('A' for Active; 'I' for Inactive)
ROOT
ATOM      1  N1  IND d   1      -5.604   4.434   1.874  0.00  0.00    -0.196 N 
ATOM      2  C2  IND d   1      -4.887   5.576   1.649  0.00  0.00     0.054 A 
ATOM      3  C3  IND d   1      -4.297   5.993   2.792  0.00  0.00    -0.031 A 
ATOM      4  C4  IND d   1      -4.289   4.899   5.122  0.00  0.00     0.051 A 
ATOM      5  C5  IND d   1      -4.833   3.863   5.827  0.00  0.00    -0.031 A 
ATOM      6  C6  IND d   1      -5.676   2.943   5.238  0.00  0.00     0.015 A 
ATOM      7  C7  IND d   1      -6.000   3.020   3.913  0.00  0.00    -0.016 A 
ATOM      8  C8  IND d   1      -5.455   4.076   3.196  0.00  0.00    -0.047 A 
ATOM      9  C9  IND d   1      -4.632   5.036   3.798  0.00  0.00    -0.096 A 
ATOM     10  HN1 IND d   1      -6.070   4.011   1.288  0.00  0.00     0.298 HD
ENDROOT
TORSDOF 0
ENDMDL
