MODEL 1
REMARK minimizedAffinity -3.42126513
REMARK minimizedRMSD -1
REMARK  0 active torsions:
REMARK  status: ('A' for Active; 'I' for Inactive)
ROOT
ATOM      1  N1  IND d   1      -5.996   2.665   4.306  0.00  0.00    -0.196 N 
ATOM      2  C2  IND d   1      -5.650   2.809   5.621  0.00  0.00     0.054 A 
ATOM      3  C3  IND d   1      -4.842   3.881   5.781  0.00  0.00    -0.031 A 
ATOM      4  C4  IND d   1      -4.044   5.600   4.039  0.00  0.00     0.051 A 
ATOM      5  C5  IND d   1      -4.069   5.867   2.698  0.00  0.00    -0.031 A 
ATOM      6  C6  IND d   1      -4.754   5.066   1.808  0.00  0.00     0.015 A 
ATOM      7  C7  IND d   1      -5.452   3.969   2.228  0.00  0.00    -0.016 A 
ATOM      8  C8  IND d   1      -5.422   3.691   3.588  0.00  0.00    -0.047 A 
ATOM      9  C9  IND d   1      -4.694   4.476   4.490  0.00  0.00    -0.096 A 
ATOM     10  HN1 IND d   1      -6.489   2.039   3.983  0.00  0.00     0.298 HD
ENDROOT
TORSDOF 0
ENDMDL
