MODEL 1
REMARK minimizedAffinity 0.429321676
REMARK minimizedRMSD -1
REMARK  2 active torsions:
REMARK  status: ('A' for Active; 'I' for Inactive)
REMARK    1  A    between atoms: C2'_3  and  C1'_4 
REMARK    2  A    between atoms: C1'_4  and  C1_5 
ROOT
ATOM      1  C1  I4B d   1       0.050   0.073   1.046  0.00  0.00    -0.075 A 
ATOM      2  C2  I4B d   1       0.549  -0.604   2.131  0.00  0.00     0.003 A 
ATOM      3  C3  I4B d   1      -0.307  -0.975   3.196  0.00  0.00     0.002 A 
ATOM      4  C4  I4B d   1      -1.637  -0.607   3.158  0.00  0.00    -0.004 A 
ATOM      5  C5  I4B d   1      -2.146   0.059   2.047  0.00  0.00     0.002 A 
ATOM      6  C6  I4B d   1      -1.301   0.390   0.979  0.00  0.00     0.003 A 
ENDROOT
BRANCH   1   7
ATOM      7  C1' I4B d   1       0.989   0.477  -0.045  0.00  0.00     0.060 C 
BRANCH   7   8
ATOM      8  C2' I4B d   1       2.180   1.163   0.593  0.00  0.00    -0.013 C 
ATOM      9  C4' I4B d   1       3.300   1.344  -0.397  0.00  0.00     0.013 C 
ATOM     10  C3' I4B d   1       1.718   2.482   1.137  0.00  0.00     0.013 C 
ENDBRANCH   7   8
ENDBRANCH   1   7
TORSDOF 2
ENDMDL
