MODEL 1
REMARK minimizedAffinity 5.94746017
REMARK minimizedRMSD -1
REMARK  2 active torsions:
REMARK  status: ('A' for Active; 'I' for Inactive)
REMARK    1  A    between atoms: C2'_3  and  C1'_4 
REMARK    2  A    between atoms: C1'_4  and  C1_5 
ROOT
ATOM      1  C1  I4B d   1      -1.229  -0.114   1.487  0.00  0.00    -0.075 A 
ATOM      2  C2  I4B d   1      -2.047  -0.441   2.540  0.00  0.00     0.003 A 
ATOM      3  C3  I4B d   1      -1.494  -0.939   3.744  0.00  0.00     0.002 A 
ATOM      4  C4  I4B d   1      -0.132  -1.141   3.835  0.00  0.00    -0.004 A 
ATOM      5  C5  I4B d   1       0.698  -0.787   2.775  0.00  0.00     0.002 A 
ATOM      6  C6  I4B d   1       0.148  -0.259   1.598  0.00  0.00     0.003 A 
ENDROOT
BRANCH   1   7
ATOM      7  C1' I4B d   1      -1.849   0.378   0.218  0.00  0.00     0.060 C 
BRANCH   7   8
ATOM      8  C2' I4B d   1      -3.161  -0.355   0.025  0.00  0.00    -0.013 C 
ATOM      9  C4' I4B d   1      -4.231   0.571  -0.492  0.00  0.00     0.013 C 
ATOM     10  C3' I4B d   1      -2.922  -1.490  -0.925  0.00  0.00     0.013 C 
ENDBRANCH   7   8
ENDBRANCH   1   7
TORSDOF 2
ENDMDL
