MODEL 1
REMARK minimizedAffinity -2.10678506
REMARK minimizedRMSD -1
REMARK  2 active torsions:
REMARK  status: ('A' for Active; 'I' for Inactive)
REMARK    1  A    between atoms: C2'_3  and  C1'_4 
REMARK    2  A    between atoms: C1'_4  and  C1_5 
ROOT
ATOM      1  C1  I4B d   1      -0.912  -0.226   2.736  0.00  0.00    -0.075 A 
ATOM      2  C2  I4B d   1      -0.603  -1.437   3.303  0.00  0.00     0.003 A 
ATOM      3  C3  I4B d   1       0.330  -1.509   4.366  0.00  0.00     0.002 A 
ATOM      4  C4  I4B d   1       0.963  -0.360   4.794  0.00  0.00    -0.004 A 
ATOM      5  C5  I4B d   1       0.631   0.870   4.233  0.00  0.00     0.002 A 
ATOM      6  C6  I4B d   1      -0.321   0.940   3.206  0.00  0.00     0.003 A 
ENDROOT
BRANCH   1   7
ATOM      7  C1' I4B d   1      -1.876  -0.190   1.593  0.00  0.00     0.060 C 
BRANCH   7   8
ATOM      8  C2' I4B d   1      -1.240  -0.913   0.423  0.00  0.00    -0.013 C 
ATOM      9  C4' I4B d   1      -2.282  -1.394  -0.552  0.00  0.00     0.013 C 
ATOM     10  C3' I4B d   1      -0.277   0.030  -0.234  0.00  0.00     0.013 C 
ENDBRANCH   7   8
ENDBRANCH   1   7
TORSDOF 2
ENDMDL
