MODEL 1
REMARK minimizedAffinity -1.28667021
REMARK minimizedRMSD -1
REMARK  2 active torsions:
REMARK  status: ('A' for Active; 'I' for Inactive)
REMARK    1  A    between atoms: C2'_3  and  C1'_4 
REMARK    2  A    between atoms: C1'_4  and  C1_5 
ROOT
ATOM      1  C1  I4B d   1      -0.177  -0.888  -0.165  0.00  0.00    -0.075 A 
ATOM      2  C2  I4B d   1      -1.457  -0.716  -0.631  0.00  0.00     0.003 A 
ATOM      3  C3  I4B d   1      -2.408  -0.006   0.141  0.00  0.00     0.002 A 
ATOM      4  C4  I4B d   1      -2.054   0.468   1.387  0.00  0.00    -0.004 A 
ATOM      5  C5  I4B d   1      -0.750   0.313   1.849  0.00  0.00     0.002 A 
ATOM      6  C6  I4B d   1       0.198  -0.358   1.063  0.00  0.00     0.003 A 
ENDROOT
BRANCH   1   7
ATOM      7  C1' I4B d   1       0.792  -1.671  -0.991  0.00  0.00     0.060 C 
BRANCH   7   8
ATOM      8  C2' I4B d   1       0.272  -1.706  -2.414  0.00  0.00    -0.013 C 
ATOM      9  C4' I4B d   1       0.596  -0.429  -3.144  0.00  0.00     0.013 C 
ATOM     10  C3' I4B d   1       0.881  -2.891  -3.101  0.00  0.00     0.013 C 
ENDBRANCH   7   8
ENDBRANCH   1   7
TORSDOF 2
ENDMDL
