MODEL 1
REMARK minimizedAffinity -2.6675384
REMARK minimizedRMSD -1
REMARK  2 active torsions:
REMARK  status: ('A' for Active; 'I' for Inactive)
REMARK    1  A    between atoms: C2'_3  and  C1'_4 
REMARK    2  A    between atoms: C1'_4  and  C1_5 
ROOT
ATOM      1  C1  I4B d   1      -0.018   0.121   2.650  0.00  0.00    -0.075 A 
ATOM      2  C2  I4B d   1       0.298  -0.093   1.331  0.00  0.00     0.003 A 
ATOM      3  C3  I4B d   1      -0.726  -0.174   0.357  0.00  0.00     0.002 A 
ATOM      4  C4  I4B d   1      -2.046  -0.086   0.749  0.00  0.00    -0.004 A 
ATOM      5  C5  I4B d   1      -2.364   0.154   2.082  0.00  0.00     0.002 A 
ATOM      6  C6  I4B d   1      -1.343   0.271   3.037  0.00  0.00     0.003 A 
ENDROOT
BRANCH   1   7
ATOM      7  C1' I4B d   1       1.086   0.169   3.657  0.00  0.00     0.060 C 
BRANCH   7   8
ATOM      8  C2' I4B d   1       0.730  -0.778   4.785  0.00  0.00    -0.013 C 
ATOM      9  C4' I4B d   1       0.642  -2.200   4.296  0.00  0.00     0.013 C 
ATOM     10  C3' I4B d   1       1.772  -0.637   5.855  0.00  0.00     0.013 C 
ENDBRANCH   7   8
ENDBRANCH   1   7
TORSDOF 2
ENDMDL
