MODEL 1
REMARK minimizedAffinity 1.96982908
REMARK minimizedRMSD -1
REMARK  2 active torsions:
REMARK  status: ('A' for Active; 'I' for Inactive)
REMARK    1  A    between atoms: C2'_3  and  C1'_4 
REMARK    2  A    between atoms: C1'_4  and  C1_5 
ROOT
ATOM      1  C1  I4B d   1       1.813   0.439  -1.158  0.00  0.00    -0.075 A 
ATOM      2  C2  I4B d   1       0.991   0.692  -2.228  0.00  0.00     0.003 A 
ATOM      3  C3  I4B d   1       1.532   1.179  -3.442  0.00  0.00     0.002 A 
ATOM      4  C4  I4B d   1       2.884   1.445  -3.526  0.00  0.00    -0.004 A 
ATOM      5  C5  I4B d   1       3.719   1.166  -2.447  0.00  0.00     0.002 A 
ATOM      6  C6  I4B d   1       3.182   0.648  -1.260  0.00  0.00     0.003 A 
ENDROOT
BRANCH   1   7
ATOM      7  C1' I4B d   1       1.203  -0.043   0.121  0.00  0.00     0.060 C 
BRANCH   7   8
ATOM      8  C2' I4B d   1      -0.264  -0.321  -0.137  0.00  0.00    -0.013 C 
ATOM      9  C4' I4B d   1      -0.491  -1.768  -0.488  0.00  0.00     0.013 C 
ATOM     10  C3' I4B d   1      -1.031   0.065   1.091  0.00  0.00     0.013 C 
ENDBRANCH   7   8
ENDBRANCH   1   7
TORSDOF 2
ENDMDL
