MODEL 1
REMARK minimizedAffinity -1.31616616
REMARK minimizedRMSD -1
REMARK  2 active torsions:
REMARK  status: ('A' for Active; 'I' for Inactive)
REMARK    1  A    between atoms: C2'_3  and  C1'_4 
REMARK    2  A    between atoms: C1'_4  and  C1_5 
ROOT
ATOM      1  C1  I4B d   1      -1.071  -0.055   2.550  0.00  0.00    -0.075 A 
ATOM      2  C2  I4B d   1      -2.339  -0.327   2.100  0.00  0.00     0.003 A 
ATOM      3  C3  I4B d   1      -2.625  -0.298   0.713  0.00  0.00     0.002 A 
ATOM      4  C4  I4B d   1      -1.632   0.054  -0.178  0.00  0.00    -0.004 A 
ATOM      5  C5  I4B d   1      -0.341   0.307   0.278  0.00  0.00     0.002 A 
ATOM      6  C6  I4B d   1      -0.056   0.240   1.650  0.00  0.00     0.003 A 
ENDROOT
BRANCH   1   7
ATOM      7  C1' I4B d   1      -0.813  -0.062   4.023  0.00  0.00     0.060 C 
BRANCH   7   8
ATOM      8  C2' I4B d   1       0.264  -1.091   4.303  0.00  0.00    -0.013 C 
ATOM      9  C4' I4B d   1       1.413  -0.484   5.065  0.00  0.00     0.013 C 
ATOM     10  C3' I4B d   1      -0.361  -2.217   5.072  0.00  0.00     0.013 C 
ENDBRANCH   7   8
ENDBRANCH   1   7
TORSDOF 2
ENDMDL
