MODEL 1
REMARK minimizedAffinity 6.2999382
REMARK minimizedRMSD -1
REMARK  2 active torsions:
REMARK  status: ('A' for Active; 'I' for Inactive)
REMARK    1  A    between atoms: C2'_3  and  C1'_4 
REMARK    2  A    between atoms: C1'_4  and  C1_5 
ROOT
ATOM      1  C1  I4B d   1      -1.406   0.991   1.183  0.00  0.00    -0.075 A 
ATOM      2  C2  I4B d   1      -0.224   0.343   0.924  0.00  0.00     0.003 A 
ATOM      3  C3  I4B d   1       1.011   1.013   1.103  0.00  0.00     0.002 A 
ATOM      4  C4  I4B d   1       1.016   2.337   1.491  0.00  0.00    -0.004 A 
ATOM      5  C5  I4B d   1      -0.182   2.986   1.775  0.00  0.00     0.002 A 
ATOM      6  C6  I4B d   1      -1.400   2.306   1.632  0.00  0.00     0.003 A 
ENDROOT
BRANCH   1   7
ATOM      7  C1' I4B d   1      -2.692   0.265   0.952  0.00  0.00     0.060 C 
BRANCH   7   8
ATOM      8  C2' I4B d   1      -2.826   0.014  -0.537  0.00  0.00    -0.013 C 
ATOM      9  C4' I4B d   1      -3.545  -1.281  -0.809  0.00  0.00     0.013 C 
ATOM     10  C3' I4B d   1      -3.559   1.176  -1.138  0.00  0.00     0.013 C 
ENDBRANCH   7   8
ENDBRANCH   1   7
TORSDOF 2
ENDMDL
