MODEL 1
REMARK minimizedAffinity -2.33213234
REMARK minimizedRMSD -1
REMARK  0 active torsions:
REMARK  status: ('A' for Active; 'I' for Inactive)
ROOT
ATOM      1  C   UNL d   1       0.324  -1.424   2.334  0.00  0.00     0.172 C 
ATOM      2  N   UNL d   1      -0.018  -1.022   0.990  0.00  0.00    -0.070 N 
ATOM      3  C1  UNL d   1       0.799  -1.119  -0.105  0.00  0.00    -0.004 A 
ATOM      4  C2  UNL d   1       0.106  -0.633  -1.193  0.00  0.00    -0.047 A 
ATOM      5  C3  UNL d   1      -1.171  -0.230  -0.736  0.00  0.00    -0.047 A 
ATOM      6  C4  UNL d   1      -1.221  -0.482   0.619  0.00  0.00    -0.004 A 
ENDROOT
TORSDOF 0
ENDMDL
