MODEL 1
REMARK minimizedAffinity 0.812650502
REMARK minimizedRMSD -1
REMARK  0 active torsions:
REMARK  status: ('A' for Active; 'I' for Inactive)
ROOT
ATOM      1  C   UNL d   1      -0.310  -1.189   2.967  0.00  0.00     0.172 C 
ATOM      2  N   UNL d   1      -0.939  -0.519   1.853  0.00  0.00    -0.070 N 
ATOM      3  C1  UNL d   1      -1.946   0.405   1.943  0.00  0.00    -0.004 A 
ATOM      4  C2  UNL d   1      -2.267   0.804   0.663  0.00  0.00    -0.047 A 
ATOM      5  C3  UNL d   1      -1.425   0.095  -0.226  0.00  0.00    -0.047 A 
ATOM      6  C4  UNL d   1      -0.613  -0.717   0.537  0.00  0.00    -0.004 A 
ENDROOT
TORSDOF 0
ENDMDL
