MODEL 1
REMARK minimizedAffinity 1.38790941
REMARK minimizedRMSD -1
REMARK  0 active torsions:
REMARK  status: ('A' for Active; 'I' for Inactive)
ROOT
ATOM      1  C   UNL d   1       0.707  -1.448  -0.056  0.00  0.00     0.172 C 
ATOM      2  N   UNL d   1      -0.286  -1.143   0.948  0.00  0.00    -0.070 N 
ATOM      3  C1  UNL d   1      -1.451  -0.456   0.736  0.00  0.00    -0.004 A 
ATOM      4  C2  UNL d   1      -2.119  -0.376   1.938  0.00  0.00    -0.047 A 
ATOM      5  C3  UNL d   1      -1.327  -1.037   2.907  0.00  0.00    -0.047 A 
ATOM      6  C4  UNL d   1      -0.198  -1.502   2.267  0.00  0.00    -0.004 A 
ENDROOT
TORSDOF 0
ENDMDL
