MODEL 1
REMARK minimizedAffinity -0.452440888
REMARK minimizedRMSD -1
REMARK  0 active torsions:
REMARK  status: ('A' for Active; 'I' for Inactive)
ROOT
ATOM      1  C   UNL d   1       0.813  -0.863  -0.002  0.00  0.00     0.172 C 
ATOM      2  N   UNL d   1      -0.341  -0.778   0.862  0.00  0.00    -0.070 N 
ATOM      3  C1  UNL d   1      -0.455  -1.354   2.100  0.00  0.00    -0.004 A 
ATOM      4  C2  UNL d   1      -1.702  -1.041   2.597  0.00  0.00    -0.047 A 
ATOM      5  C3  UNL d   1      -2.360  -0.251   1.624  0.00  0.00    -0.047 A 
ATOM      6  C4  UNL d   1      -1.495  -0.104   0.561  0.00  0.00    -0.004 A 
ENDROOT
TORSDOF 0
ENDMDL
