MODEL 1
REMARK minimizedAffinity 0.0335371941
REMARK minimizedRMSD -1
REMARK  0 active torsions:
REMARK  status: ('A' for Active; 'I' for Inactive)
ROOT
ATOM      1  C   UNL d   1       1.089  -1.068  -0.539  0.00  0.00     0.172 C 
ATOM      2  N   UNL d   1      -0.082  -0.837   0.273  0.00  0.00    -0.070 N 
ATOM      3  C1  UNL d   1      -1.296  -0.398  -0.183  0.00  0.00    -0.004 A 
ATOM      4  C2  UNL d   1      -2.146  -0.307   0.899  0.00  0.00    -0.047 A 
ATOM      5  C3  UNL d   1      -1.417  -0.706   2.044  0.00  0.00    -0.047 A 
ATOM      6  C4  UNL d   1      -0.142  -1.028   1.628  0.00  0.00    -0.004 A 
ENDROOT
TORSDOF 0
ENDMDL
