MODEL 1
REMARK minimizedAffinity 0.186624095
REMARK minimizedRMSD -1
REMARK  0 active torsions:
REMARK  status: ('A' for Active; 'I' for Inactive)
ROOT
ATOM      1  C   UNL d   1       1.176  -0.997  -0.420  0.00  0.00     0.172 C 
ATOM      2  N   UNL d   1       0.349  -0.798   0.747  0.00  0.00    -0.070 N 
ATOM      3  C1  UNL d   1       0.466  -1.473   1.933  0.00  0.00    -0.004 A 
ATOM      4  C2  UNL d   1      -0.503  -0.995   2.788  0.00  0.00    -0.047 A 
ATOM      5  C3  UNL d   1      -1.229   0.001   2.091  0.00  0.00    -0.047 A 
ATOM      6  C4  UNL d   1      -0.681   0.102   0.830  0.00  0.00    -0.004 A 
ENDROOT
TORSDOF 0
ENDMDL
