MODEL 1
REMARK minimizedAffinity 0.740297616
REMARK minimizedRMSD -1
REMARK  0 active torsions:
REMARK  status: ('A' for Active; 'I' for Inactive)
ROOT
ATOM      1  C   UNL d   1       0.813  -0.852  -0.750  0.00  0.00     0.172 C 
ATOM      2  N   UNL d   1      -0.198  -0.736   0.274  0.00  0.00    -0.070 N 
ATOM      3  C1  UNL d   1      -0.011  -0.968   1.611  0.00  0.00    -0.004 A 
ATOM      4  C2  UNL d   1      -1.212  -0.750   2.250  0.00  0.00    -0.047 A 
ATOM      5  C3  UNL d   1      -2.155  -0.375   1.263  0.00  0.00    -0.047 A 
ATOM      6  C4  UNL d   1      -1.500  -0.375   0.049  0.00  0.00    -0.004 A 
ENDROOT
TORSDOF 0
ENDMDL
