MODEL 1
REMARK minimizedAffinity 1.92013216
REMARK minimizedRMSD -1
REMARK  0 active torsions:
REMARK  status: ('A' for Active; 'I' for Inactive)
ROOT
ATOM      1  C   UNL d   1       0.395  -0.831   0.327  0.00  0.00     0.172 C 
ATOM      2  N   UNL d   1      -0.924  -0.503   0.815  0.00  0.00    -0.070 N 
ATOM      3  C1  UNL d   1      -1.207   0.086   2.018  0.00  0.00    -0.004 A 
ATOM      4  C2  UNL d   1      -2.574   0.231   2.107  0.00  0.00    -0.047 A 
ATOM      5  C3  UNL d   1      -3.133  -0.290   0.916  0.00  0.00    -0.047 A 
ATOM      6  C4  UNL d   1      -2.089  -0.737   0.133  0.00  0.00    -0.004 A 
ENDROOT
TORSDOF 0
ENDMDL
