MODEL 1
REMARK minimizedAffinity 1.36100185
REMARK minimizedRMSD -1
REMARK  0 active torsions:
REMARK  status: ('A' for Active; 'I' for Inactive)
ROOT
ATOM      1  C   UNL d   1      -0.184  -1.697   3.096  0.00  0.00     0.172 C 
ATOM      2  N   UNL d   1       0.325  -3.013   2.790  0.00  0.00    -0.070 N 
ATOM      3  C1  UNL d   1       1.485  -3.283   2.113  0.00  0.00    -0.004 A 
ATOM      4  C2  UNL d   1       1.615  -4.653   2.028  0.00  0.00    -0.047 A 
ATOM      5  C3  UNL d   1       0.494  -5.226   2.675  0.00  0.00    -0.047 A 
ATOM      6  C4  UNL d   1      -0.288  -4.188   3.137  0.00  0.00    -0.004 A 
ENDROOT
TORSDOF 0
ENDMDL
