MODEL 1
REMARK minimizedAffinity -0.179042652
REMARK minimizedRMSD -1
REMARK  0 active torsions:
REMARK  status: ('A' for Active; 'I' for Inactive)
ROOT
ATOM      1  C   UNL d   1       1.139  -5.151   2.075  0.00  0.00     0.172 C 
ATOM      2  N   UNL d   1       2.209  -4.812   1.167  0.00  0.00    -0.070 N 
ATOM      3  C1  UNL d   1       2.344  -3.623   0.500  0.00  0.00    -0.004 A 
ATOM      4  C2  UNL d   1       3.490  -3.695  -0.262  0.00  0.00    -0.047 A 
ATOM      5  C3  UNL d   1       4.062  -4.971  -0.047  0.00  0.00    -0.047 A 
ATOM      6  C4  UNL d   1       3.249  -5.642   0.841  0.00  0.00    -0.004 A 
ENDROOT
TORSDOF 0
ENDMDL
