MODEL 1
REMARK minimizedAffinity -3.29070163
REMARK minimizedRMSD -1
REMARK  0 active torsions:
REMARK  status: ('A' for Active; 'I' for Inactive)
ROOT
ATOM      1  C   UNL d   1      -1.136  -0.393   0.357  0.00  0.00     0.172 C 
ATOM      2  N   UNL d   1       0.067  -1.071   0.779  0.00  0.00    -0.070 N 
ATOM      3  C1  UNL d   1       0.287  -1.608   2.019  0.00  0.00    -0.004 A 
ATOM      4  C2  UNL d   1       1.548  -2.164   2.020  0.00  0.00    -0.047 A 
ATOM      5  C3  UNL d   1       2.105  -1.953   0.737  0.00  0.00    -0.047 A 
ATOM      6  C4  UNL d   1       1.167  -1.275  -0.012  0.00  0.00    -0.004 A 
ENDROOT
TORSDOF 0
ENDMDL
