MODEL 1
REMARK minimizedAffinity -2.87378669
REMARK minimizedRMSD -1
REMARK  1 active torsions:
REMARK  status: ('A' for Active; 'I' for Inactive)
REMARK    1  A    between atoms: C1_2  and  C2_3 
ROOT
ATOM      1  C2  UNL d   1      -1.491  -0.976   0.531  0.00  0.00    -0.076 A 
ATOM      2  C3  UNL d   1      -0.970  -0.232  -0.542  0.00  0.00     0.004 A 
ATOM      3  C4  UNL d   1       0.366   0.166  -0.557  0.00  0.00    -0.003 A 
ATOM      4  C5  UNL d   1       1.203  -0.174   0.500  0.00  0.00     0.000 A 
ATOM      5  C6  UNL d   1       0.707  -0.926   1.564  0.00  0.00     0.000 A 
ATOM      6  C7  UNL d   1      -0.633  -1.350   1.588  0.00  0.00    -0.073 A 
ATOM      7  C8  UNL d   1      -1.115  -2.154   2.763  0.00  0.00     0.078 C 
ENDROOT
BRANCH   1   8
ATOM      8  C1  UNL d   1      -2.954  -1.356   0.506  0.00  0.00     0.053 C 
ATOM      9  C   UNL d   1      -3.468  -1.601  -0.904  0.00  0.00     0.018 C 
ENDBRANCH   1   8
TORSDOF 1
ENDMDL
