MODEL 1
REMARK minimizedAffinity -2.44239974
REMARK minimizedRMSD -1
REMARK  1 active torsions:
REMARK  status: ('A' for Active; 'I' for Inactive)
REMARK    1  A    between atoms: C1_2  and  C2_3 
ROOT
ATOM      1  C2  UNL d   1       0.087  -0.935   2.525  0.00  0.00    -0.076 A 
ATOM      2  C3  UNL d   1       1.280  -1.023   3.263  0.00  0.00     0.004 A 
ATOM      3  C4  UNL d   1       2.481  -0.537   2.748  0.00  0.00    -0.003 A 
ATOM      4  C5  UNL d   1       2.508   0.045   1.486  0.00  0.00     0.000 A 
ATOM      5  C6  UNL d   1       1.331   0.157   0.746  0.00  0.00     0.000 A 
ATOM      6  C7  UNL d   1       0.109  -0.313   1.258  0.00  0.00    -0.073 A 
ATOM      7  C8  UNL d   1      -1.128  -0.172   0.414  0.00  0.00     0.078 C 
ENDROOT
BRANCH   1   8
ATOM      8  C1  UNL d   1      -1.179  -1.503   3.123  0.00  0.00     0.053 C 
ATOM      9  C   UNL d   1      -1.127  -3.016   3.270  0.00  0.00     0.018 C 
ENDBRANCH   1   8
TORSDOF 1
ENDMDL
