MODEL 1
REMARK minimizedAffinity -1.45780396
REMARK minimizedRMSD -1
REMARK  1 active torsions:
REMARK  status: ('A' for Active; 'I' for Inactive)
REMARK    1  A    between atoms: C1_2  and  C2_3 
ROOT
ATOM      1  C2  UNL d   1      -1.491  -0.591   0.756  0.00  0.00    -0.076 A 
ATOM      2  C3  UNL d   1      -1.053  -0.025  -0.454  0.00  0.00     0.004 A 
ATOM      3  C4  UNL d   1       0.305   0.163  -0.708  0.00  0.00    -0.003 A 
ATOM      4  C5  UNL d   1       1.246  -0.212   0.244  0.00  0.00     0.000 A 
ATOM      5  C6  UNL d   1       0.830  -0.791   1.443  0.00  0.00     0.000 A 
ATOM      6  C7  UNL d   1      -0.534  -1.003   1.707  0.00  0.00    -0.073 A 
ATOM      7  C8  UNL d   1      -0.927  -1.626   3.019  0.00  0.00     0.078 C 
ENDROOT
BRANCH   1   8
ATOM      8  C1  UNL d   1      -2.977  -0.746   0.986  0.00  0.00     0.053 C 
ATOM      9  C   UNL d   1      -3.664  -1.512  -0.134  0.00  0.00     0.018 C 
ENDBRANCH   1   8
TORSDOF 1
ENDMDL
