MODEL 1
REMARK minimizedAffinity -2.5179019
REMARK minimizedRMSD -1
REMARK  1 active torsions:
REMARK  status: ('A' for Active; 'I' for Inactive)
REMARK    1  A    between atoms: C1_2  and  C2_3 
ROOT
ATOM      1  C2  UNL d   1      -1.219  -0.376   0.575  0.00  0.00    -0.076 A 
ATOM      2  C3  UNL d   1      -1.186  -1.001   1.834  0.00  0.00     0.004 A 
ATOM      3  C4  UNL d   1      -0.079  -0.871   2.670  0.00  0.00    -0.003 A 
ATOM      4  C5  UNL d   1       1.013  -0.114   2.262  0.00  0.00     0.000 A 
ATOM      5  C6  UNL d   1       0.990   0.528   1.024  0.00  0.00     0.000 A 
ATOM      6  C7  UNL d   1      -0.125   0.421   0.176  0.00  0.00    -0.073 A 
ATOM      7  C8  UNL d   1      -0.094   1.130  -1.151  0.00  0.00     0.078 C 
ENDROOT
BRANCH   1   8
ATOM      8  C1  UNL d   1      -2.436  -0.574  -0.300  0.00  0.00     0.053 C 
ATOM      9  C   UNL d   1      -3.489  -1.453   0.357  0.00  0.00     0.018 C 
ENDBRANCH   1   8
TORSDOF 1
ENDMDL
