MODEL 1
REMARK minimizedAffinity 5.09868479
REMARK minimizedRMSD -1
REMARK  1 active torsions:
REMARK  status: ('A' for Active; 'I' for Inactive)
REMARK    1  A    between atoms: C1_2  and  C2_3 
ROOT
ATOM      1  C2  UNL d   1      -0.282   3.405  -3.209  0.00  0.00    -0.076 A 
ATOM      2  C3  UNL d   1       0.627   4.294  -2.610  0.00  0.00     0.004 A 
ATOM      3  C4  UNL d   1       1.855   4.575  -3.208  0.00  0.00    -0.003 A 
ATOM      4  C5  UNL d   1       2.192   3.973  -4.415  0.00  0.00     0.000 A 
ATOM      5  C6  UNL d   1       1.295   3.103  -5.032  0.00  0.00     0.000 A 
ATOM      6  C7  UNL d   1       0.046   2.821  -4.451  0.00  0.00    -0.073 A 
ATOM      7  C8  UNL d   1      -0.880   1.869  -5.158  0.00  0.00     0.078 C 
ENDROOT
BRANCH   1   8
ATOM      8  C1  UNL d   1      -1.587   3.117  -2.501  0.00  0.00     0.053 C 
ATOM      9  C   UNL d   1      -1.416   2.991  -0.995  0.00  0.00     0.018 C 
ENDBRANCH   1   8
TORSDOF 1
ENDMDL
