MODEL 1
REMARK minimizedAffinity 14.3042994
REMARK minimizedRMSD -1
REMARK  0 active torsions:
REMARK  status: ('A' for Active; 'I' for Inactive)
ROOT
ATOM      1  O1  BZF d   1       1.860   2.558   3.489  0.00  0.00    -0.204 OA
ATOM      2  C2  BZF d   1       2.472   3.745   3.842  0.00  0.00     0.174 A 
ATOM      3  C3  BZF d   1       2.282   4.682   2.891  0.00  0.00    -0.012 A 
ATOM      4  C3A BZF d   1       1.425   4.069   1.924  0.00  0.00    -0.107 A 
ATOM      5  C4  BZF d   1       0.868   4.502   0.754  0.00  0.00     0.055 A 
ATOM      6  C5  BZF d   1       0.137   3.631   0.008  0.00  0.00    -0.016 A 
ATOM      7  C6  BZF d   1      -0.051   2.322   0.399  0.00  0.00     0.022 A 
ATOM      8  C7  BZF d   1       0.477   1.848   1.553  0.00  0.00     0.029 A 
ATOM      9  C7A BZF d   1       1.188   2.734   2.325  0.00  0.00     0.058 A 
ENDROOT
TORSDOF 0
ENDMDL
