MODEL 1
REMARK minimizedAffinity 8.4226675
REMARK minimizedRMSD -1
REMARK  0 active torsions:
REMARK  status: ('A' for Active; 'I' for Inactive)
ROOT
ATOM      1  O1  BZF d   1       1.726   1.934   3.472  0.00  0.00    -0.204 OA
ATOM      2  C2  BZF d   1       1.423   3.225   3.086  0.00  0.00     0.174 A 
ATOM      3  C3  BZF d   1       0.559   3.224   2.050  0.00  0.00    -0.012 A 
ATOM      4  C3A BZF d   1       0.236   1.848   1.830  0.00  0.00    -0.107 A 
ATOM      5  C4  BZF d   1      -0.584   1.205   0.948  0.00  0.00     0.055 A 
ATOM      6  C5  BZF d   1      -0.619  -0.153   0.948  0.00  0.00    -0.016 A 
ATOM      7  C6  BZF d   1       0.155  -0.900   1.811  0.00  0.00     0.022 A 
ATOM      8  C7  BZF d   1       0.981  -0.307   2.708  0.00  0.00     0.029 A 
ATOM      9  C7A BZF d   1       0.994   1.066   2.733  0.00  0.00     0.058 A 
ENDROOT
TORSDOF 0
ENDMDL
