MODEL 1
REMARK minimizedAffinity -2.02806807
REMARK minimizedRMSD -1
REMARK  0 active torsions:
REMARK  status: ('A' for Active; 'I' for Inactive)
ROOT
ATOM      1  O1  BZF d   1       0.229   0.218  -2.659  0.00  0.00    -0.204 OA
ATOM      2  C2  BZF d   1       0.279  -0.953  -1.928  0.00  0.00     0.174 A 
ATOM      3  C3  BZF d   1      -0.201  -0.761  -0.682  0.00  0.00    -0.012 A 
ATOM      4  C3A BZF d   1      -0.660   0.594  -0.661  0.00  0.00    -0.107 A 
ATOM      5  C4  BZF d   1      -1.254   1.369   0.293  0.00  0.00     0.055 A 
ATOM      6  C5  BZF d   1      -1.510   2.675   0.018  0.00  0.00    -0.016 A 
ATOM      7  C6  BZF d   1      -1.182   3.239  -1.197  0.00  0.00     0.022 A 
ATOM      8  C7  BZF d   1      -0.596   2.509  -2.177  0.00  0.00     0.029 A 
ATOM      9  C7A BZF d   1      -0.366   1.181  -1.914  0.00  0.00     0.058 A 
ENDROOT
TORSDOF 0
ENDMDL
