MODEL 1
REMARK minimizedAffinity 4.68968534
REMARK minimizedRMSD -1
REMARK  0 active torsions:
REMARK  status: ('A' for Active; 'I' for Inactive)
ROOT
ATOM      1  O1  BZF d   1      -1.627   0.091   0.650  0.00  0.00    -0.204 OA
ATOM      2  C2  BZF d   1      -2.328   0.711  -0.367  0.00  0.00     0.174 A 
ATOM      3  C3  BZF d   1      -1.544   0.888  -1.450  0.00  0.00    -0.012 A 
ATOM      4  C3A BZF d   1      -0.300   0.262  -1.120  0.00  0.00    -0.107 A 
ATOM      5  C4  BZF d   1       0.874   0.091  -1.797  0.00  0.00     0.055 A 
ATOM      6  C5  BZF d   1       1.921  -0.500  -1.165  0.00  0.00    -0.016 A 
ATOM      7  C6  BZF d   1       1.831  -0.929   0.144  0.00  0.00     0.022 A 
ATOM      8  C7  BZF d   1       0.686  -0.786   0.854  0.00  0.00     0.029 A 
ATOM      9  C7A BZF d   1      -0.384  -0.218   0.207  0.00  0.00     0.058 A 
ENDROOT
TORSDOF 0
ENDMDL
