MODEL 1
REMARK minimizedAffinity 0.446958095
REMARK minimizedRMSD -1
REMARK  0 active torsions:
REMARK  status: ('A' for Active; 'I' for Inactive)
ROOT
ATOM      1  O1  BZF d   1       0.375   3.934  -1.571  0.00  0.00    -0.204 OA
ATOM      2  C2  BZF d   1       0.640   5.244  -1.223  0.00  0.00     0.174 A 
ATOM      3  C3  BZF d   1       0.863   5.351   0.103  0.00  0.00    -0.012 A 
ATOM      4  C3A BZF d   1       0.820   4.010   0.601  0.00  0.00    -0.107 A 
ATOM      5  C4  BZF d   1       0.983   3.464   1.842  0.00  0.00     0.055 A 
ATOM      6  C5  BZF d   1       0.805   2.126   2.003  0.00  0.00    -0.016 A 
ATOM      7  C6  BZF d   1       0.458   1.308   0.949  0.00  0.00     0.022 A 
ATOM      8  C7  BZF d   1       0.289   1.803  -0.301  0.00  0.00     0.029 A 
ATOM      9  C7A BZF d   1       0.501   3.149  -0.474  0.00  0.00     0.058 A 
ENDROOT
TORSDOF 0
ENDMDL
