MODEL 1
REMARK minimizedAffinity -5.40032291
REMARK minimizedRMSD -1
REMARK  1 active torsions:
REMARK  status: ('A' for Active; 'I' for Inactive)
REMARK    1  A    between atoms: C1_2  and  C2_3 
ROOT
ATOM      1  C2  UNL d   1       1.539   1.275   0.623  0.00  0.00    -0.077 A 
ATOM      2  C3  UNL d   1       0.706   1.733   1.655  0.00  0.00     0.002 A 
ATOM      3  C4  UNL d   1      -0.551   1.160   1.854  0.00  0.00     0.002 A 
ATOM      4  C5  UNL d   1      -0.986   0.125   1.029  0.00  0.00    -0.004 A 
ATOM      5  C6  UNL d   1      -0.166  -0.336  -0.001  0.00  0.00     0.002 A 
ATOM      6  C7  UNL d   1       1.091   0.236  -0.202  0.00  0.00     0.002 A 
ENDROOT
BRANCH   1   7
ATOM      7  C1  UNL d   1       2.915   1.858   0.438  0.00  0.00     0.055 C 
ATOM      8  C   UNL d   1       3.978   0.770   0.410  0.00  0.00     0.019 C 
ENDBRANCH   1   7
TORSDOF 1
ENDMDL
