MODEL 1
REMARK minimizedAffinity -5.67598438
REMARK minimizedRMSD -1
REMARK  1 active torsions:
REMARK  status: ('A' for Active; 'I' for Inactive)
REMARK    1  A    between atoms: C1_2  and  C2_3 
ROOT
ATOM      1  C2  UNL d   1       0.778   0.992   0.275  0.00  0.00    -0.077 A 
ATOM      2  C3  UNL d   1       1.994   0.823  -0.401  0.00  0.00     0.002 A 
ATOM      3  C4  UNL d   1       3.085   1.643  -0.108  0.00  0.00     0.002 A 
ATOM      4  C5  UNL d   1       2.972   2.635   0.864  0.00  0.00    -0.004 A 
ATOM      5  C6  UNL d   1       1.766   2.812   1.541  0.00  0.00     0.002 A 
ATOM      6  C7  UNL d   1       0.674   1.994   1.248  0.00  0.00     0.002 A 
ENDROOT
BRANCH   1   7
ATOM      7  C1  UNL d   1      -0.385   0.077  -0.005  0.00  0.00     0.055 C 
ATOM      8  C   UNL d   1       0.069  -1.200  -0.697  0.00  0.00     0.019 C 
ENDBRANCH   1   7
TORSDOF 1
ENDMDL
