MODEL 1
REMARK minimizedAffinity -5.47035599
REMARK minimizedRMSD -1
REMARK  1 active torsions:
REMARK  status: ('A' for Active; 'I' for Inactive)
REMARK    1  A    between atoms: C1_2  and  C2_3 
ROOT
ATOM      1  C2  UNL d   1       0.646   0.642   0.108  0.00  0.00    -0.077 A 
ATOM      2  C3  UNL d   1       1.863   0.116  -0.349  0.00  0.00     0.002 A 
ATOM      3  C4  UNL d   1       3.072   0.699   0.035  0.00  0.00     0.002 A 
ATOM      4  C5  UNL d   1       3.077   1.807   0.880  0.00  0.00    -0.004 A 
ATOM      5  C6  UNL d   1       1.872   2.338   1.338  0.00  0.00     0.002 A 
ATOM      6  C7  UNL d   1       0.662   1.758   0.955  0.00  0.00     0.002 A 
ENDROOT
BRANCH   1   7
ATOM      7  C1  UNL d   1      -0.657  -0.015  -0.265  0.00  0.00     0.055 C 
ATOM      8  C   UNL d   1      -0.513  -1.528  -0.339  0.00  0.00     0.019 C 
ENDBRANCH   1   7
TORSDOF 1
ENDMDL
