MODEL 1
REMARK minimizedAffinity -4.15195513
REMARK minimizedRMSD -1
REMARK  1 active torsions:
REMARK  status: ('A' for Active; 'I' for Inactive)
REMARK    1  A    between atoms: C1_2  and  C2_3 
ROOT
ATOM      1  C2  UNL d   1       1.047   1.191   0.179  0.00  0.00    -0.077 A 
ATOM      2  C3  UNL d   1      -0.196   0.560   0.030  0.00  0.00     0.002 A 
ATOM      3  C4  UNL d   1      -0.274  -0.738  -0.478  0.00  0.00     0.002 A 
ATOM      4  C5  UNL d   1       0.888  -1.417  -0.839  0.00  0.00    -0.004 A 
ATOM      5  C6  UNL d   1       2.129  -0.798  -0.697  0.00  0.00     0.002 A 
ATOM      6  C7  UNL d   1       2.208   0.500  -0.190  0.00  0.00     0.002 A 
ENDROOT
BRANCH   1   7
ATOM      7  C1  UNL d   1       1.136   2.572   0.773  0.00  0.00     0.055 C 
ATOM      8  C   UNL d   1       2.451   2.772   1.513  0.00  0.00     0.019 C 
ENDBRANCH   1   7
TORSDOF 1
ENDMDL
