MODEL 1
REMARK minimizedAffinity -1.01453781
REMARK minimizedRMSD -1
REMARK  1 active torsions:
REMARK  status: ('A' for Active; 'I' for Inactive)
REMARK    1  A    between atoms: C1_2  and  C2_3 
ROOT
ATOM      1  C2  UNL d   1      -0.405  -0.426   0.016  0.00  0.00    -0.077 A 
ATOM      2  C3  UNL d   1       0.894  -0.097   0.429  0.00  0.00     0.002 A 
ATOM      3  C4  UNL d   1       1.140   1.108   1.089  0.00  0.00     0.002 A 
ATOM      4  C5  UNL d   1       0.093   1.991   1.346  0.00  0.00    -0.004 A 
ATOM      5  C6  UNL d   1      -1.201   1.674   0.937  0.00  0.00     0.002 A 
ATOM      6  C7  UNL d   1      -1.449   0.470   0.276  0.00  0.00     0.002 A 
ENDROOT
BRANCH   1   7
ATOM      7  C1  UNL d   1      -0.681  -1.748  -0.653  0.00  0.00     0.055 C 
ATOM      8  C   UNL d   1      -1.858  -1.647  -1.613  0.00  0.00     0.019 C 
ENDBRANCH   1   7
TORSDOF 1
ENDMDL
