MODEL 1
REMARK minimizedAffinity -2.49065113
REMARK minimizedRMSD -1
REMARK  1 active torsions:
REMARK  status: ('A' for Active; 'I' for Inactive)
REMARK    1  A    between atoms: C1_2  and  C2_3 
ROOT
ATOM      1  C2  UNL d   1      -0.770  -1.080  -1.250  0.00  0.00    -0.077 A 
ATOM      2  C3  UNL d   1      -0.400  -0.848  -2.582  0.00  0.00     0.002 A 
ATOM      3  C4  UNL d   1      -1.276  -1.162  -3.624  0.00  0.00     0.002 A 
ATOM      4  C5  UNL d   1      -2.528  -1.705  -3.343  0.00  0.00    -0.004 A 
ATOM      5  C6  UNL d   1      -2.905  -1.941  -2.022  0.00  0.00     0.002 A 
ATOM      6  C7  UNL d   1      -2.030  -1.629  -0.980  0.00  0.00     0.002 A 
ENDROOT
BRANCH   1   7
ATOM      7  C1  UNL d   1       0.153  -0.696  -0.123  0.00  0.00     0.055 C 
ATOM      8  C   UNL d   1      -0.440   0.422   0.722  0.00  0.00     0.019 C 
ENDBRANCH   1   7
TORSDOF 1
ENDMDL
