MODEL 1
REMARK minimizedAffinity 0.929144621
REMARK minimizedRMSD -1
REMARK  1 active torsions:
REMARK  status: ('A' for Active; 'I' for Inactive)
REMARK    1  A    between atoms: C1_2  and  C2_3 
ROOT
ATOM      1  C2  UNL d   1      -2.010  -0.459  -1.032  0.00  0.00    -0.077 A 
ATOM      2  C3  UNL d   1      -1.182  -1.415  -0.427  0.00  0.00     0.002 A 
ATOM      3  C4  UNL d   1      -0.376  -1.066   0.658  0.00  0.00     0.002 A 
ATOM      4  C5  UNL d   1      -0.393   0.237   1.150  0.00  0.00    -0.004 A 
ATOM      5  C6  UNL d   1      -1.211   1.196   0.554  0.00  0.00     0.002 A 
ATOM      6  C7  UNL d   1      -2.016   0.849  -0.532  0.00  0.00     0.002 A 
ENDROOT
BRANCH   1   7
ATOM      7  C1  UNL d   1      -2.917  -0.846  -2.171  0.00  0.00     0.055 C 
ATOM      8  C   UNL d   1      -3.509  -2.232  -1.961  0.00  0.00     0.019 C 
ENDBRANCH   1   7
TORSDOF 1
ENDMDL
