MODEL 1
REMARK minimizedAffinity -5.30284643
REMARK minimizedRMSD -1
REMARK  1 active torsions:
REMARK  status: ('A' for Active; 'I' for Inactive)
REMARK    1  A    between atoms: C1_2  and  C2_3 
ROOT
ATOM      1  C2  UNL d   1       0.325  -0.092   0.205  0.00  0.00    -0.077 A 
ATOM      2  C3  UNL d   1       1.661  -0.100  -0.219  0.00  0.00     0.002 A 
ATOM      3  C4  UNL d   1       2.559   0.858   0.257  0.00  0.00     0.002 A 
ATOM      4  C5  UNL d   1       2.132   1.827   1.162  0.00  0.00    -0.004 A 
ATOM      5  C6  UNL d   1       0.804   1.845   1.588  0.00  0.00     0.002 A 
ATOM      6  C7  UNL d   1      -0.095   0.889   1.112  0.00  0.00     0.002 A 
ENDROOT
BRANCH   1   7
ATOM      7  C1  UNL d   1      -0.633  -1.153  -0.270  0.00  0.00     0.055 C 
ATOM      8  C   UNL d   1      -1.032  -0.930  -1.721  0.00  0.00     0.019 C 
ENDBRANCH   1   7
TORSDOF 1
ENDMDL
