MODEL 1
REMARK minimizedAffinity -3.62817502
REMARK minimizedRMSD -1
REMARK  1 active torsions:
REMARK  status: ('A' for Active; 'I' for Inactive)
REMARK    1  A    between atoms: C1_2  and  C2_3 
ROOT
ATOM      1  C2  UNL d   1       0.295   0.025  -0.044  0.00  0.00    -0.077 A 
ATOM      2  C3  UNL d   1       1.462   0.656  -0.499  0.00  0.00     0.002 A 
ATOM      3  C4  UNL d   1       1.883   1.858   0.073  0.00  0.00     0.002 A 
ATOM      4  C5  UNL d   1       1.146   2.438   1.103  0.00  0.00    -0.004 A 
ATOM      5  C6  UNL d   1      -0.017   1.819   1.560  0.00  0.00     0.002 A 
ATOM      6  C7  UNL d   1      -0.440   0.618   0.990  0.00  0.00     0.002 A 
ENDROOT
BRANCH   1   7
ATOM      7  C1  UNL d   1      -0.134  -1.297  -0.625  0.00  0.00     0.055 C 
ATOM      8  C   UNL d   1      -1.071  -1.104  -1.809  0.00  0.00     0.019 C 
ENDBRANCH   1   7
TORSDOF 1
ENDMDL
