MODEL 1
REMARK minimizedAffinity 1.72859573
REMARK minimizedRMSD -1
REMARK  1 active torsions:
REMARK  status: ('A' for Active; 'I' for Inactive)
REMARK    1  A    between atoms: C1_2  and  C2_3 
ROOT
ATOM      1  C2  UNL d   1       0.068  -0.103  -0.042  0.00  0.00    -0.077 A 
ATOM      2  C3  UNL d   1      -1.110   0.593  -0.346  0.00  0.00     0.002 A 
ATOM      3  C4  UNL d   1      -1.965   1.014   0.674  0.00  0.00     0.002 A 
ATOM      4  C5  UNL d   1      -1.649   0.747   2.005  0.00  0.00    -0.004 A 
ATOM      5  C6  UNL d   1      -0.480   0.054   2.317  0.00  0.00     0.002 A 
ATOM      6  C7  UNL d   1       0.375  -0.369   1.299  0.00  0.00     0.002 A 
ENDROOT
BRANCH   1   7
ATOM      7  C1  UNL d   1       1.016  -0.515  -1.138  0.00  0.00     0.055 C 
ATOM      8  C   UNL d   1       2.451  -0.580  -0.634  0.00  0.00     0.019 C 
ENDBRANCH   1   7
TORSDOF 1
ENDMDL
