MODEL 1
REMARK minimizedAffinity -3.0833993
REMARK minimizedRMSD -1
REMARK  1 active torsions:
REMARK  status: ('A' for Active; 'I' for Inactive)
REMARK    1  A    between atoms: C1_2  and  C2_3 
ROOT
ATOM      1  C2  UNL d   1      -1.100  -1.150  -1.046  0.00  0.00    -0.077 A 
ATOM      2  C3  UNL d   1       0.251  -1.354  -0.733  0.00  0.00     0.002 A 
ATOM      3  C4  UNL d   1       0.970  -0.380  -0.036  0.00  0.00     0.002 A 
ATOM      4  C5  UNL d   1       0.345   0.802   0.356  0.00  0.00    -0.004 A 
ATOM      5  C6  UNL d   1      -0.997   1.015   0.048  0.00  0.00     0.002 A 
ATOM      6  C7  UNL d   1      -1.717   0.044  -0.650  0.00  0.00     0.002 A 
ENDROOT
BRANCH   1   7
ATOM      7  C1  UNL d   1      -1.890  -2.219  -1.754  0.00  0.00     0.055 C 
ATOM      8  C   UNL d   1      -2.586  -1.667  -2.989  0.00  0.00     0.019 C 
ENDBRANCH   1   7
TORSDOF 1
ENDMDL
