MODEL 1
REMARK minimizedAffinity -4.3183527
REMARK minimizedRMSD -1
REMARK  0 active torsions:
REMARK  status: ('A' for Active; 'I' for Inactive)
ROOT
ATOM      1  C4' PXY d   1      -3.474  -0.779   1.391  0.00  0.00     0.077 C 
ATOM      2  C1' PXY d   1       2.260  -1.172   2.012  0.00  0.00     0.077 C 
ATOM      3  C1  PXY d   1       0.758  -1.058   1.843  0.00  0.00    -0.082 A 
ATOM      4  C2  PXY d   1      -0.046  -1.679   2.691  0.00  0.00     0.003 A 
ATOM      5  C3  PXY d   1      -1.406  -1.612   2.534  0.00  0.00     0.003 A 
ATOM      6  C4  PXY d   1      -1.951  -0.859   1.529  0.00  0.00    -0.082 A 
ATOM      7  C5  PXY d   1      -1.138  -0.214   0.665  0.00  0.00     0.003 A 
ATOM      8  C6  PXY d   1       0.240  -0.328   0.818  0.00  0.00     0.003 A 
ENDROOT
TORSDOF 0
ENDMDL
