MODEL 1
REMARK minimizedAffinity -3.59692979
REMARK minimizedRMSD -1
REMARK  0 active torsions:
REMARK  status: ('A' for Active; 'I' for Inactive)
ROOT
ATOM      1  C4' PXY d   1      -1.794  -0.022   3.424  0.00  0.00     0.077 C 
ATOM      2  C1' PXY d   1       2.480  -1.201  -0.284  0.00  0.00     0.077 C 
ATOM      3  C1  PXY d   1       1.366  -0.897   0.698  0.00  0.00    -0.082 A 
ATOM      4  C2  PXY d   1       0.129  -0.738   0.256  0.00  0.00     0.003 A 
ATOM      5  C3  PXY d   1      -0.885  -0.431   1.126  0.00  0.00     0.003 A 
ATOM      6  C4  PXY d   1      -0.640  -0.339   2.470  0.00  0.00    -0.082 A 
ATOM      7  C5  PXY d   1       0.617  -0.511   2.931  0.00  0.00     0.003 A 
ATOM      8  C6  PXY d   1       1.640  -0.781   2.026  0.00  0.00     0.003 A 
ENDROOT
TORSDOF 0
ENDMDL
