MODEL 1
REMARK minimizedAffinity -4.82287884
REMARK minimizedRMSD -1
REMARK  0 active torsions:
REMARK  status: ('A' for Active; 'I' for Inactive)
ROOT
ATOM      1  C4' PXY d   1       2.995  -2.061   0.647  0.00  0.00     0.077 C 
ATOM      2  C1' PXY d   1      -2.064   0.348   2.069  0.00  0.00     0.077 C 
ATOM      3  C1  PXY d   1      -0.741  -0.285   1.684  0.00  0.00    -0.082 A 
ATOM      4  C2  PXY d   1      -0.025  -0.914   2.601  0.00  0.00     0.003 A 
ATOM      5  C3  PXY d   1       1.188  -1.464   2.277  0.00  0.00     0.003 A 
ATOM      6  C4  PXY d   1       1.649  -1.416   0.989  0.00  0.00    -0.082 A 
ATOM      7  C5  PXY d   1       0.919  -0.784   0.045  0.00  0.00     0.003 A 
ATOM      8  C6  PXY d   1      -0.291  -0.196   0.403  0.00  0.00     0.003 A 
ENDROOT
TORSDOF 0
ENDMDL
