MODEL 1
REMARK minimizedAffinity -4.16744328
REMARK minimizedRMSD -1
REMARK  0 active torsions:
REMARK  status: ('A' for Active; 'I' for Inactive)
ROOT
ATOM      1  C4' PXY d   1       3.242  -1.738  -0.423  0.00  0.00     0.077 C 
ATOM      2  C1' PXY d   1      -1.352  -0.252   2.755  0.00  0.00     0.077 C 
ATOM      3  C1  PXY d   1      -0.155  -0.641   1.911  0.00  0.00    -0.082 A 
ATOM      4  C2  PXY d   1       0.829  -1.340   2.453  0.00  0.00     0.003 A 
ATOM      5  C3  PXY d   1       1.934  -1.673   1.713  0.00  0.00     0.003 A 
ATOM      6  C4  PXY d   1       2.009  -1.332   0.389  0.00  0.00    -0.082 A 
ATOM      7  C5  PXY d   1       1.005  -0.627  -0.175  0.00  0.00     0.003 A 
ATOM      8  C6  PXY d   1      -0.089  -0.264   0.605  0.00  0.00     0.003 A 
ENDROOT
TORSDOF 0
ENDMDL
