MODEL 1
REMARK minimizedAffinity -5.70781755
REMARK minimizedRMSD -1
REMARK  0 active torsions:
REMARK  status: ('A' for Active; 'I' for Inactive)
ROOT
ATOM      1  C4' PXY d   1       2.813  -1.909   2.243  0.00  0.00     0.077 C 
ATOM      2  C1' PXY d   1      -1.010   0.157  -1.569  0.00  0.00     0.077 C 
ATOM      3  C1  PXY d   1      -0.003  -0.394  -0.578  0.00  0.00    -0.082 A 
ATOM      4  C2  PXY d   1      -0.214  -0.244   0.719  0.00  0.00     0.003 A 
ATOM      5  C3  PXY d   1       0.702  -0.708   1.629  0.00  0.00     0.003 A 
ATOM      6  C4  PXY d   1       1.819  -1.378   1.207  0.00  0.00    -0.082 A 
ATOM      7  C5  PXY d   1       2.036  -1.544  -0.115  0.00  0.00     0.003 A 
ATOM      8  C6  PXY d   1       1.114  -1.030  -1.023  0.00  0.00     0.003 A 
ENDROOT
TORSDOF 0
ENDMDL
