MODEL 1
REMARK minimizedAffinity -1.9967804
REMARK minimizedRMSD -1
REMARK  0 active torsions:
REMARK  status: ('A' for Active; 'I' for Inactive)
ROOT
ATOM      1  C4' PXY d   1       0.461  -1.147   2.802  0.00  0.00     0.077 C 
ATOM      2  C1' PXY d   1      -1.115   1.041  -2.312  0.00  0.00     0.077 C 
ATOM      3  C1  PXY d   1      -0.711   0.473  -0.965  0.00  0.00    -0.082 A 
ATOM      4  C2  PXY d   1       0.535   0.076  -0.769  0.00  0.00     0.003 A 
ATOM      5  C3  PXY d   1       0.909  -0.469   0.432  0.00  0.00     0.003 A 
ATOM      6  C4  PXY d   1       0.011  -0.559   1.461  0.00  0.00    -0.082 A 
ATOM      7  C5  PXY d   1      -1.260  -0.146   1.273  0.00  0.00     0.003 A 
ATOM      8  C6  PXY d   1      -1.630   0.366   0.033  0.00  0.00     0.003 A 
ENDROOT
TORSDOF 0
ENDMDL
