MODEL 1
REMARK minimizedAffinity -4.04932833
REMARK minimizedRMSD -1
REMARK  0 active torsions:
REMARK  status: ('A' for Active; 'I' for Inactive)
ROOT
ATOM      1  C4' PXY d   1      -1.355   1.090  -2.022  0.00  0.00     0.077 C 
ATOM      2  C1' PXY d   1       0.916  -0.744   2.968  0.00  0.00     0.077 C 
ATOM      3  C1  PXY d   1       0.308  -0.266   1.664  0.00  0.00    -0.082 A 
ATOM      4  C2  PXY d   1       1.026  -0.310   0.553  0.00  0.00     0.003 A 
ATOM      5  C3  PXY d   1       0.503   0.149  -0.628  0.00  0.00     0.003 A 
ATOM      6  C4  PXY d   1      -0.786   0.608  -0.684  0.00  0.00    -0.082 A 
ATOM      7  C5  PXY d   1      -1.528   0.646   0.443  0.00  0.00     0.003 A 
ATOM      8  C6  PXY d   1      -0.965   0.214   1.640  0.00  0.00     0.003 A 
ENDROOT
TORSDOF 0
ENDMDL
