MODEL 1
REMARK minimizedAffinity -3.76089287
REMARK minimizedRMSD -1
REMARK  0 active torsions:
REMARK  status: ('A' for Active; 'I' for Inactive)
ROOT
ATOM      1  C4' PXY d   1      -0.623   1.976  -1.933  0.00  0.00     0.077 C 
ATOM      2  C1' PXY d   1       0.205  -1.481   2.625  0.00  0.00     0.077 C 
ATOM      3  C1  PXY d   1       0.000  -0.577   1.426  0.00  0.00    -0.082 A 
ATOM      4  C2  PXY d   1      -0.918   0.375   1.473  0.00  0.00     0.003 A 
ATOM      5  C3  PXY d   1      -1.138   1.181   0.386  0.00  0.00     0.003 A 
ATOM      6  C4  PXY d   1      -0.375   1.046  -0.743  0.00  0.00    -0.082 A 
ATOM      7  C5  PXY d   1       0.571   0.084  -0.795  0.00  0.00     0.003 A 
ATOM      8  C6  PXY d   1       0.751  -0.751   0.304  0.00  0.00     0.003 A 
ENDROOT
TORSDOF 0
ENDMDL
