MODEL 1
REMARK minimizedAffinity -4.57209063
REMARK minimizedRMSD -1
REMARK  0 active torsions:
REMARK  status: ('A' for Active; 'I' for Inactive)
ROOT
ATOM      1  C4' PXY d   1      -0.752   0.363  -1.785  0.00  0.00     0.077 C 
ATOM      2  C1' PXY d   1       1.847  -0.777   3.251  0.00  0.00     0.077 C 
ATOM      3  C1  PXY d   1       1.154  -0.483   1.935  0.00  0.00    -0.082 A 
ATOM      4  C2  PXY d   1       1.866  -0.415   0.822  0.00  0.00     0.003 A 
ATOM      5  C3  PXY d   1       1.260  -0.118  -0.372  0.00  0.00     0.003 A 
ATOM      6  C4  PXY d   1      -0.096   0.059  -0.435  0.00  0.00    -0.082 A 
ATOM      7  C5  PXY d   1      -0.831  -0.019   0.695  0.00  0.00     0.003 A 
ATOM      8  C6  PXY d   1      -0.191  -0.281   1.903  0.00  0.00     0.003 A 
ENDROOT
TORSDOF 0
ENDMDL
