MODEL 1
REMARK minimizedAffinity -4.19950628
REMARK minimizedRMSD -1
REMARK  0 active torsions:
REMARK  status: ('A' for Active; 'I' for Inactive)
ROOT
ATOM      1  C4' PXY d   1      -0.802   0.211  -2.759  0.00  0.00     0.077 C 
ATOM      2  C1' PXY d   1      -0.831  -1.293   2.823  0.00  0.00     0.077 C 
ATOM      3  C1  PXY d   1      -0.835  -0.905   1.357  0.00  0.00    -0.082 A 
ATOM      4  C2  PXY d   1       0.302  -0.579   0.764  0.00  0.00     0.003 A 
ATOM      5  C3  PXY d   1       0.313  -0.195  -0.552  0.00  0.00     0.003 A 
ATOM      6  C4  PXY d   1      -0.844  -0.196  -1.283  0.00  0.00    -0.082 A 
ATOM      7  C5  PXY d   1      -2.007  -0.538  -0.688  0.00  0.00     0.003 A 
ATOM      8  C6  PXY d   1      -2.002  -0.885   0.659  0.00  0.00     0.003 A 
ENDROOT
TORSDOF 0
ENDMDL
