MODEL 1
REMARK minimizedAffinity -4.81878376
REMARK minimizedRMSD -1
REMARK  0 active torsions:
REMARK  status: ('A' for Active; 'I' for Inactive)
ROOT
ATOM      1  C4' PXY d   1      -2.564   0.465   3.161  0.00  0.00     0.077 C 
ATOM      2  C1' PXY d   1       2.032  -1.261   0.109  0.00  0.00     0.077 C 
ATOM      3  C1  PXY d   1       0.830  -0.817   0.919  0.00  0.00    -0.082 A 
ATOM      4  C2  PXY d   1      -0.218  -0.296   0.302  0.00  0.00     0.003 A 
ATOM      5  C3  PXY d   1      -1.301   0.141   1.022  0.00  0.00     0.003 A 
ATOM      6  C4  PXY d   1      -1.332  -0.006   2.383  0.00  0.00    -0.082 A 
ATOM      7  C5  PXY d   1      -0.271  -0.547   3.019  0.00  0.00     0.003 A 
ATOM      8  C6  PXY d   1       0.834  -0.946   2.274  0.00  0.00     0.003 A 
ENDROOT
TORSDOF 0
ENDMDL
