MODEL 1
REMARK minimizedAffinity 14.3788166
REMARK minimizedRMSD -1
REMARK  2 active torsions:
REMARK  status: ('A' for Active; 'I' for Inactive)
REMARK    1  A    between atoms: C2'_3  and  C1'_4 
REMARK    2  A    between atoms: C1'_4  and  C1_5 
ROOT
ATOM      1  C1  I4B d   1       1.494  -4.009  -0.516  0.00  0.00    -0.075 A 
ATOM      2  C2  I4B d   1       2.393  -4.999  -0.826  0.00  0.00     0.003 A 
ATOM      3  C3  I4B d   1       2.056  -5.995  -1.776  0.00  0.00     0.002 A 
ATOM      4  C4  I4B d   1       0.801  -5.991  -2.348  0.00  0.00    -0.004 A 
ATOM      5  C5  I4B d   1      -0.100  -4.973  -2.049  0.00  0.00     0.002 A 
ATOM      6  C6  I4B d   1       0.253  -3.969  -1.136  0.00  0.00     0.003 A 
ENDROOT
BRANCH   1   7
ATOM      7  C1' I4B d   1       1.870  -2.993   0.516  0.00  0.00     0.060 C 
BRANCH   7   8
ATOM      8  C2' I4B d   1       2.583  -1.856  -0.188  0.00  0.00    -0.013 C 
ATOM      9  C4' I4B d   1       1.836  -0.558  -0.021  0.00  0.00     0.013 C 
ATOM     10  C3' I4B d   1       3.969  -1.759   0.376  0.00  0.00     0.013 C 
ENDBRANCH   7   8
ENDBRANCH   1   7
TORSDOF 2
ENDMDL
