MODEL 1
REMARK minimizedAffinity -3.19265008
REMARK minimizedRMSD -1
REMARK  2 active torsions:
REMARK  status: ('A' for Active; 'I' for Inactive)
REMARK    1  A    between atoms: C2'_3  and  C1'_4 
REMARK    2  A    between atoms: C1'_4  and  C1_5 
ROOT
ATOM      1  C1  I4B d   1       1.014  -5.203  -3.603  0.00  0.00    -0.075 A 
ATOM      2  C2  I4B d   1       1.974  -5.224  -4.583  0.00  0.00     0.003 A 
ATOM      3  C3  I4B d   1       3.290  -5.652  -4.282  0.00  0.00     0.002 A 
ATOM      4  C4  I4B d   1       3.612  -6.000  -2.986  0.00  0.00    -0.004 A 
ATOM      5  C5  I4B d   1       2.631  -5.999  -1.999  0.00  0.00     0.002 A 
ATOM      6  C6  I4B d   1       1.320  -5.610  -2.311  0.00  0.00     0.003 A 
ENDROOT
BRANCH   1   7
ATOM      7  C1' I4B d   1      -0.357  -4.714  -3.949  0.00  0.00     0.060 C 
BRANCH   7   8
ATOM      8  C2' I4B d   1      -0.546  -4.871  -5.444  0.00  0.00    -0.013 C 
ATOM      9  C4' I4B d   1      -1.564  -5.936  -5.756  0.00  0.00     0.013 C 
ATOM     10  C3' I4B d   1      -0.964  -3.543  -6.000  0.00  0.00     0.013 C 
ENDBRANCH   7   8
ENDBRANCH   1   7
TORSDOF 2
ENDMDL
