MODEL 1
REMARK minimizedAffinity 22.5542316
REMARK minimizedRMSD -1
REMARK  2 active torsions:
REMARK  status: ('A' for Active; 'I' for Inactive)
REMARK    1  A    between atoms: C2'_3  and  C1'_4 
REMARK    2  A    between atoms: C1'_4  and  C1_5 
ROOT
ATOM      1  C1  I4B d   1       2.049  -3.036  -0.277  0.00  0.00    -0.075 A 
ATOM      2  C2  I4B d   1       3.095  -3.724   0.287  0.00  0.00     0.003 A 
ATOM      3  C3  I4B d   1       4.365  -3.112   0.413  0.00  0.00     0.002 A 
ATOM      4  C4  I4B d   1       4.558  -1.838  -0.080  0.00  0.00    -0.004 A 
ATOM      5  C5  I4B d   1       3.491  -1.133  -0.631  0.00  0.00     0.002 A 
ATOM      6  C6  I4B d   1       2.225  -1.731  -0.718  0.00  0.00     0.003 A 
ENDROOT
BRANCH   1   7
ATOM      7  C1' I4B d   1       0.729  -3.725  -0.424  0.00  0.00     0.060 C 
BRANCH   7   8
ATOM      8  C2' I4B d   1       0.787  -4.583  -1.671  0.00  0.00    -0.013 C 
ATOM      9  C4' I4B d   1       1.177  -6.000  -1.339  0.00  0.00     0.013 C 
ATOM     10  C3' I4B d   1      -0.558  -4.532  -2.331  0.00  0.00     0.013 C 
ENDBRANCH   7   8
ENDBRANCH   1   7
TORSDOF 2
ENDMDL
