MODEL 1
REMARK minimizedAffinity 2.96063161
REMARK minimizedRMSD -1
REMARK  2 active torsions:
REMARK  status: ('A' for Active; 'I' for Inactive)
REMARK    1  A    between atoms: C2'_3  and  C1'_4 
REMARK    2  A    between atoms: C1'_4  and  C1_5 
ROOT
ATOM      1  C1  I4B d   1      -5.116  -2.530   4.034  0.00  0.00    -0.075 A 
ATOM      2  C2  I4B d   1      -3.744  -2.556   4.075  0.00  0.00     0.003 A 
ATOM      3  C3  I4B d   1      -3.075  -3.329   5.055  0.00  0.00     0.002 A 
ATOM      4  C4  I4B d   1      -3.811  -4.015   5.999  0.00  0.00    -0.004 A 
ATOM      5  C5  I4B d   1      -5.202  -4.006   5.941  0.00  0.00     0.002 A 
ATOM      6  C6  I4B d   1      -5.859  -3.269   4.946  0.00  0.00     0.003 A 
ENDROOT
BRANCH   1   7
ATOM      7  C1' I4B d   1      -5.790  -1.677   3.007  0.00  0.00     0.060 C 
BRANCH   7   8
ATOM      8  C2' I4B d   1      -5.084  -0.337   2.977  0.00  0.00    -0.013 C 
ATOM      9  C4' I4B d   1      -4.703   0.047   1.571  0.00  0.00     0.013 C 
ATOM     10  C3' I4B d   1      -6.000   0.683   3.587  0.00  0.00     0.013 C 
ENDBRANCH   7   8
ENDBRANCH   1   7
TORSDOF 2
ENDMDL
