MODEL 1
REMARK minimizedAffinity 9.30161095
REMARK minimizedRMSD -1
REMARK  2 active torsions:
REMARK  status: ('A' for Active; 'I' for Inactive)
REMARK    1  A    between atoms: C2'_3  and  C1'_4 
REMARK    2  A    between atoms: C1'_4  and  C1_5 
ROOT
ATOM      1  C1  I4B d   1      -0.849   5.085  -1.367  0.00  0.00    -0.075 A 
ATOM      2  C2  I4B d   1      -0.647   3.796  -0.941  0.00  0.00     0.003 A 
ATOM      3  C3  I4B d   1       0.633   3.384  -0.497  0.00  0.00     0.002 A 
ATOM      4  C4  I4B d   1       1.687   4.273  -0.544  0.00  0.00    -0.004 A 
ATOM      5  C5  I4B d   1       1.475   5.586  -0.954  0.00  0.00     0.002 A 
ATOM      6  C6  I4B d   1       0.197   5.999  -1.357  0.00  0.00     0.003 A 
ENDROOT
BRANCH   1   7
ATOM      7  C1' I4B d   1      -2.206   5.477  -1.860  0.00  0.00     0.060 C 
BRANCH   7   8
ATOM      8  C2' I4B d   1      -2.894   4.229  -2.376  0.00  0.00    -0.013 C 
ATOM      9  C4' I4B d   1      -4.392   4.358  -2.291  0.00  0.00     0.013 C 
ATOM     10  C3' I4B d   1      -2.448   4.006  -3.790  0.00  0.00     0.013 C 
ENDBRANCH   7   8
ENDBRANCH   1   7
TORSDOF 2
ENDMDL
