MODEL 1
REMARK minimizedAffinity 10.5420561
REMARK minimizedRMSD -1
REMARK  2 active torsions:
REMARK  status: ('A' for Active; 'I' for Inactive)
REMARK    1  A    between atoms: C2'_3  and  C1'_4 
REMARK    2  A    between atoms: C1'_4  and  C1_5 
ROOT
ATOM      1  C1  I4B d   1       0.361   4.805  -1.817  0.00  0.00    -0.075 A 
ATOM      2  C2  I4B d   1       1.140   4.147  -0.898  0.00  0.00     0.003 A 
ATOM      3  C3  I4B d   1       0.547   3.260   0.034  0.00  0.00     0.002 A 
ATOM      4  C4  I4B d   1      -0.824   3.101   0.043  0.00  0.00    -0.004 A 
ATOM      5  C5  I4B d   1      -1.609   3.752  -0.904  0.00  0.00     0.002 A 
ATOM      6  C6  I4B d   1      -1.012   4.600  -1.848  0.00  0.00     0.003 A 
ENDROOT
BRANCH   1   7
ATOM      7  C1' I4B d   1       1.016   5.760  -2.764  0.00  0.00     0.060 C 
BRANCH   7   8
ATOM      8  C2' I4B d   1       0.533   5.434  -4.163  0.00  0.00    -0.013 C 
ATOM      9  C4' I4B d   1      -0.846   5.989  -4.407  0.00  0.00     0.013 C 
ATOM     10  C3' I4B d   1       1.523   5.997  -5.138  0.00  0.00     0.013 C 
ENDBRANCH   7   8
ENDBRANCH   1   7
TORSDOF 2
ENDMDL
