MODEL 1
REMARK minimizedAffinity -6.64532471
REMARK minimizedRMSD -1
REMARK  2 active torsions:
REMARK  status: ('A' for Active; 'I' for Inactive)
REMARK    1  A    between atoms: C1_2  and  C2_3 
REMARK    2  A    between atoms: C2_3  and  C3_4 
ROOT
ATOM      1  C3  UNL d   1      -0.277  -0.409   0.920  0.00  0.00    -0.075 A 
ATOM      2  C4  UNL d   1      -0.769  -1.230   1.944  0.00  0.00     0.002 A 
ATOM      3  C5  UNL d   1      -0.090  -2.393   2.308  0.00  0.00     0.002 A 
ATOM      4  C6  UNL d   1       1.082  -2.754   1.647  0.00  0.00    -0.004 A 
ATOM      5  C7  UNL d   1       1.571  -1.955   0.617  0.00  0.00     0.002 A 
ATOM      6  C8  UNL d   1       0.896  -0.788   0.253  0.00  0.00     0.002 A 
ENDROOT
BRANCH   1   7
ATOM      7  C2  UNL d   1      -0.992   0.866   0.541  0.00  0.00     0.056 C 
BRANCH   7   8
ATOM      8  C1  UNL d   1      -0.637   1.389  -0.855  0.00  0.00     0.007 C 
ATOM      9  C   UNL d   1      -1.855   1.592  -1.747  0.00  0.00     0.009 C 
ENDBRANCH   7   8
ENDBRANCH   1   7
TORSDOF 2
ENDMDL
