MODEL 1
REMARK minimizedAffinity -5.18996286
REMARK minimizedRMSD -1
REMARK  2 active torsions:
REMARK  status: ('A' for Active; 'I' for Inactive)
REMARK    1  A    between atoms: C1_2  and  C2_3 
REMARK    2  A    between atoms: C2_3  and  C3_4 
ROOT
ATOM      1  C3  UNL d   1      -0.010   0.229   0.116  0.00  0.00    -0.075 A 
ATOM      2  C4  UNL d   1       1.268   0.250  -0.460  0.00  0.00     0.002 A 
ATOM      3  C5  UNL d   1       2.150  -0.814  -0.266  0.00  0.00     0.002 A 
ATOM      4  C6  UNL d   1       1.770  -1.904   0.513  0.00  0.00    -0.004 A 
ATOM      5  C7  UNL d   1       0.509  -1.928   1.104  0.00  0.00     0.002 A 
ATOM      6  C8  UNL d   1      -0.378  -0.868   0.907  0.00  0.00     0.002 A 
ENDROOT
BRANCH   1   7
ATOM      7  C2  UNL d   1      -0.980   1.363  -0.115  0.00  0.00     0.056 C 
BRANCH   7   8
ATOM      8  C1  UNL d   1      -0.997   1.886  -1.555  0.00  0.00     0.007 C 
ATOM      9  C   UNL d   1      -2.354   1.742  -2.231  0.00  0.00     0.009 C 
ENDBRANCH   7   8
ENDBRANCH   1   7
TORSDOF 2
ENDMDL
