MODEL 1
REMARK minimizedAffinity -4.33290386
REMARK minimizedRMSD -1
REMARK  2 active torsions:
REMARK  status: ('A' for Active; 'I' for Inactive)
REMARK    1  A    between atoms: C1_2  and  C2_3 
REMARK    2  A    between atoms: C2_3  and  C3_4 
ROOT
ATOM      1  C3  UNL d   1      -0.573  -0.374   1.049  0.00  0.00    -0.075 A 
ATOM      2  C4  UNL d   1      -0.844  -1.116   2.208  0.00  0.00     0.002 A 
ATOM      3  C5  UNL d   1       0.016  -2.139   2.611  0.00  0.00     0.002 A 
ATOM      4  C6  UNL d   1       1.148  -2.439   1.858  0.00  0.00    -0.004 A 
ATOM      5  C7  UNL d   1       1.418  -1.720   0.696  0.00  0.00     0.002 A 
ATOM      6  C8  UNL d   1       0.563  -0.693   0.292  0.00  0.00     0.002 A 
ENDROOT
BRANCH   1   7
ATOM      7  C2  UNL d   1      -1.482   0.753   0.623  0.00  0.00     0.056 C 
BRANCH   7   8
ATOM      8  C1  UNL d   1      -1.066   1.429  -0.688  0.00  0.00     0.007 C 
ATOM      9  C   UNL d   1      -2.228   1.643  -1.649  0.00  0.00     0.009 C 
ENDBRANCH   7   8
ENDBRANCH   1   7
TORSDOF 2
ENDMDL
