MODEL 1
REMARK minimizedAffinity -4.58646631
REMARK minimizedRMSD -1
REMARK  2 active torsions:
REMARK  status: ('A' for Active; 'I' for Inactive)
REMARK    1  A    between atoms: C1_2  and  C2_3 
REMARK    2  A    between atoms: C2_3  and  C3_4 
ROOT
ATOM      1  C3  UNL d   1      -0.934   1.169  -1.049  0.00  0.00    -0.075 A 
ATOM      2  C4  UNL d   1      -2.024   0.420  -1.517  0.00  0.00     0.002 A 
ATOM      3  C5  UNL d   1      -2.707   0.806  -2.670  0.00  0.00     0.002 A 
ATOM      4  C6  UNL d   1      -2.316   1.949  -3.364  0.00  0.00    -0.004 A 
ATOM      5  C7  UNL d   1      -1.245   2.710  -2.900  0.00  0.00     0.002 A 
ATOM      6  C8  UNL d   1      -0.558   2.323  -1.748  0.00  0.00     0.002 A 
ENDROOT
BRANCH   1   7
ATOM      7  C2  UNL d   1      -0.173   0.739   0.182  0.00  0.00     0.056 C 
BRANCH   7   8
ATOM      8  C1  UNL d   1       1.165   0.055  -0.119  0.00  0.00     0.007 C 
ATOM      9  C   UNL d   1       1.272  -1.342   0.478  0.00  0.00     0.009 C 
ENDBRANCH   7   8
ENDBRANCH   1   7
TORSDOF 2
ENDMDL
