MODEL 1
REMARK minimizedAffinity -2.90557075
REMARK minimizedRMSD -1
REMARK  2 active torsions:
REMARK  status: ('A' for Active; 'I' for Inactive)
REMARK    1  A    between atoms: C1_2  and  C2_3 
REMARK    2  A    between atoms: C2_3  and  C3_4 
ROOT
ATOM      1  C3  UNL d   1      -0.146   0.266  -0.024  0.00  0.00    -0.075 A 
ATOM      2  C4  UNL d   1       1.090   0.379  -0.676  0.00  0.00     0.002 A 
ATOM      3  C5  UNL d   1       2.145  -0.473  -0.349  0.00  0.00     0.002 A 
ATOM      4  C6  UNL d   1       1.982  -1.440   0.640  0.00  0.00    -0.004 A 
ATOM      5  C7  UNL d   1       0.763  -1.551   1.307  0.00  0.00     0.002 A 
ATOM      6  C8  UNL d   1      -0.295  -0.703   0.978  0.00  0.00     0.002 A 
ENDROOT
BRANCH   1   7
ATOM      7  C2  UNL d   1      -1.301   1.165  -0.394  0.00  0.00     0.056 C 
BRANCH   7   8
ATOM      8  C1  UNL d   1      -1.326   1.571  -1.871  0.00  0.00     0.007 C 
ATOM      9  C   UNL d   1      -2.732   1.626  -2.455  0.00  0.00     0.009 C 
ENDBRANCH   7   8
ENDBRANCH   1   7
TORSDOF 2
ENDMDL
