MODEL 1
REMARK minimizedAffinity -6.0638876
REMARK minimizedRMSD -1
REMARK  2 active torsions:
REMARK  status: ('A' for Active; 'I' for Inactive)
REMARK    1  A    between atoms: C1_2  and  C2_3 
REMARK    2  A    between atoms: C2_3  and  C3_4 
ROOT
ATOM      1  C3  UNL d   1      -0.131  -0.541   1.222  0.00  0.00    -0.075 A 
ATOM      2  C4  UNL d   1      -0.436  -1.366   2.314  0.00  0.00     0.002 A 
ATOM      3  C5  UNL d   1       0.287  -2.538   2.540  0.00  0.00     0.002 A 
ATOM      4  C6  UNL d   1       1.315  -2.904   1.674  0.00  0.00    -0.004 A 
ATOM      5  C7  UNL d   1       1.616  -2.100   0.577  0.00  0.00     0.002 A 
ATOM      6  C8  UNL d   1       0.897  -0.925   0.350  0.00  0.00     0.002 A 
ENDROOT
BRANCH   1   7
ATOM      7  C2  UNL d   1      -0.890   0.743   0.989  0.00  0.00     0.056 C 
BRANCH   7   8
ATOM      8  C1  UNL d   1      -0.327   1.603  -0.148  0.00  0.00     0.007 C 
ATOM      9  C   UNL d   1      -1.238   1.659  -1.367  0.00  0.00     0.009 C 
ENDBRANCH   7   8
ENDBRANCH   1   7
TORSDOF 2
ENDMDL
