MODEL 1
REMARK minimizedAffinity -5.55370903
REMARK minimizedRMSD -1
REMARK  2 active torsions:
REMARK  status: ('A' for Active; 'I' for Inactive)
REMARK    1  A    between atoms: C1_2  and  C2_3 
REMARK    2  A    between atoms: C2_3  and  C3_4 
ROOT
ATOM      1  C3  UNL d   1       0.455  -1.060   0.564  0.00  0.00    -0.075 A 
ATOM      2  C4  UNL d   1      -0.426  -1.087   1.655  0.00  0.00     0.002 A 
ATOM      3  C5  UNL d   1      -0.347  -2.105   2.605  0.00  0.00     0.002 A 
ATOM      4  C6  UNL d   1       0.604  -3.115   2.471  0.00  0.00    -0.004 A 
ATOM      5  C7  UNL d   1       1.473  -3.108   1.382  0.00  0.00     0.002 A 
ATOM      6  C8  UNL d   1       1.400  -2.087   0.433  0.00  0.00     0.002 A 
ENDROOT
BRANCH   1   7
ATOM      7  C2  UNL d   1       0.394   0.056  -0.452  0.00  0.00     0.056 C 
BRANCH   7   8
ATOM      8  C1  UNL d   1      -0.704   1.088  -0.179  0.00  0.00     0.007 C 
ATOM      9  C   UNL d   1      -1.562   1.390  -1.401  0.00  0.00     0.009 C 
ENDBRANCH   7   8
ENDBRANCH   1   7
TORSDOF 2
ENDMDL
