MODEL 1
REMARK minimizedAffinity -4.07131481
REMARK minimizedRMSD -1
REMARK  2 active torsions:
REMARK  status: ('A' for Active; 'I' for Inactive)
REMARK    1  A    between atoms: C1_2  and  C2_3 
REMARK    2  A    between atoms: C2_3  and  C3_4 
ROOT
ATOM      1  C3  UNL d   1       0.040   0.073  -0.033  0.00  0.00    -0.075 A 
ATOM      2  C4  UNL d   1       1.366   0.257  -0.453  0.00  0.00     0.002 A 
ATOM      3  C5  UNL d   1       2.329  -0.721  -0.206  0.00  0.00     0.002 A 
ATOM      4  C6  UNL d   1       1.983  -1.889   0.471  0.00  0.00    -0.004 A 
ATOM      5  C7  UNL d   1       0.673  -2.075   0.907  0.00  0.00     0.002 A 
ATOM      6  C8  UNL d   1      -0.294  -1.100   0.657  0.00  0.00     0.002 A 
ENDROOT
BRANCH   1   7
ATOM      7  C2  UNL d   1      -1.014   1.115  -0.323  0.00  0.00     0.056 C 
BRANCH   7   8
ATOM      8  C1  UNL d   1      -1.151   1.467  -1.808  0.00  0.00     0.007 C 
ATOM      9  C   UNL d   1      -2.466   1.000  -2.418  0.00  0.00     0.009 C 
ENDBRANCH   7   8
ENDBRANCH   1   7
TORSDOF 2
ENDMDL
