MODEL 1
REMARK minimizedAffinity -4.38997269
REMARK minimizedRMSD -1
REMARK  2 active torsions:
REMARK  status: ('A' for Active; 'I' for Inactive)
REMARK    1  A    between atoms: C1_2  and  C2_3 
REMARK    2  A    between atoms: C2_3  and  C3_4 
ROOT
ATOM      1  C3  UNL d   1       0.561  -0.743   0.464  0.00  0.00    -0.075 A 
ATOM      2  C4  UNL d   1      -0.346  -1.057   1.488  0.00  0.00     0.002 A 
ATOM      3  C5  UNL d   1       0.022  -1.924   2.518  0.00  0.00     0.002 A 
ATOM      4  C6  UNL d   1       1.293  -2.494   2.533  0.00  0.00    -0.004 A 
ATOM      5  C7  UNL d   1       2.195  -2.201   1.512  0.00  0.00     0.002 A 
ATOM      6  C8  UNL d   1       1.832  -1.331   0.483  0.00  0.00     0.002 A 
ENDROOT
BRANCH   1   7
ATOM      7  C2  UNL d   1       0.179   0.217  -0.637  0.00  0.00     0.056 C 
BRANCH   7   8
ATOM      8  C1  UNL d   1      -1.050   1.074  -0.319  0.00  0.00     0.007 C 
ATOM      9  C   UNL d   1      -1.842   1.471  -1.558  0.00  0.00     0.009 C 
ENDBRANCH   7   8
ENDBRANCH   1   7
TORSDOF 2
ENDMDL
