MODEL 1
REMARK minimizedAffinity -2.45011687
REMARK minimizedRMSD -1
REMARK  2 active torsions:
REMARK  status: ('A' for Active; 'I' for Inactive)
REMARK    1  A    between atoms: C1_2  and  C2_3 
REMARK    2  A    between atoms: C2_3  and  C3_4 
ROOT
ATOM      1  C3  UNL d   1      -0.960   1.375  -0.862  0.00  0.00    -0.075 A 
ATOM      2  C4  UNL d   1      -2.186   0.695  -0.872  0.00  0.00     0.002 A 
ATOM      3  C5  UNL d   1      -3.135   0.960  -1.860  0.00  0.00     0.002 A 
ATOM      4  C6  UNL d   1      -2.875   1.913  -2.842  0.00  0.00    -0.004 A 
ATOM      5  C7  UNL d   1      -1.667   2.607  -2.832  0.00  0.00     0.002 A 
ATOM      6  C8  UNL d   1      -0.714   2.341  -1.847  0.00  0.00     0.002 A 
ENDROOT
BRANCH   1   7
ATOM      7  C2  UNL d   1       0.083   1.072   0.188  0.00  0.00     0.056 C 
BRANCH   7   8
ATOM      8  C1  UNL d   1       1.396   0.523  -0.378  0.00  0.00     0.007 C 
ATOM      9  C   UNL d   1       1.757  -0.852   0.168  0.00  0.00     0.009 C 
ENDBRANCH   7   8
ENDBRANCH   1   7
TORSDOF 2
ENDMDL
