MODEL 1
REMARK minimizedAffinity 9.565485
REMARK minimizedRMSD -1
REMARK  0 active torsions:
REMARK  status: ('A' for Active; 'I' for Inactive)
ROOT
ATOM      1  C   UNL d   1       0.535  -0.344   4.309  0.00  0.00     0.020 A 
ATOM      2  C1  UNL d   1       1.457   0.241   3.443  0.00  0.00     0.020 A 
ATOM      3  C2  UNL d   1       1.036   1.198   2.517  0.00  0.00     0.034 A 
ATOM      4  C3  UNL d   1      -0.311   1.572   2.456  0.00  0.00     0.017 A 
ATOM      5  C4  UNL d   1      -1.236   0.984   3.326  0.00  0.00     0.017 A 
ATOM      6  C5  UNL d   1      -0.809   0.027   4.251  0.00  0.00     0.034 A 
ATOM      7 Cl   UNL d   1      -2.915   1.395   3.310  0.00  0.00    -0.070 Cl
ATOM      8 Cl1  UNL d   1      -0.762   2.762   1.287  0.00  0.00    -0.070 Cl
ENDROOT
TORSDOF 0
ENDMDL
