MODEL 1
REMARK minimizedAffinity 12.9758272
REMARK minimizedRMSD -1
REMARK  0 active torsions:
REMARK  status: ('A' for Active; 'I' for Inactive)
ROOT
ATOM      1  C   UNL d   1       2.620   1.578   2.618  0.00  0.00     0.020 A 
ATOM      2  C1  UNL d   1       1.699   2.488   2.099  0.00  0.00     0.020 A 
ATOM      3  C2  UNL d   1       0.333   2.299   2.316  0.00  0.00     0.034 A 
ATOM      4  C3  UNL d   1      -0.117   1.197   3.053  0.00  0.00     0.017 A 
ATOM      5  C4  UNL d   1       0.808   0.284   3.573  0.00  0.00     0.017 A 
ATOM      6  C5  UNL d   1       2.175   0.479   3.353  0.00  0.00     0.034 A 
ATOM      7 Cl   UNL d   1       0.329  -1.099   4.492  0.00  0.00    -0.070 Cl
ATOM      8 Cl1  UNL d   1      -1.821   1.025   3.282  0.00  0.00    -0.070 Cl
ENDROOT
TORSDOF 0
ENDMDL
