MODEL 1
REMARK minimizedAffinity 2.06320119
REMARK minimizedRMSD -1
REMARK  0 active torsions:
REMARK  status: ('A' for Active; 'I' for Inactive)
ROOT
ATOM      1  C   UNL d   1      -0.728   4.477  -1.577  0.00  0.00     0.020 A 
ATOM      2  C1  UNL d   1      -0.347   3.198  -1.171  0.00  0.00     0.020 A 
ATOM      3  C2  UNL d   1      -0.686   2.741   0.105  0.00  0.00     0.034 A 
ATOM      4  C3  UNL d   1      -1.407   3.563   0.979  0.00  0.00     0.017 A 
ATOM      5  C4  UNL d   1      -1.788   4.846   0.570  0.00  0.00     0.017 A 
ATOM      6  C5  UNL d   1      -1.447   5.299  -0.708  0.00  0.00     0.034 A 
ATOM      7 Cl   UNL d   1      -2.679   5.918   1.592  0.00  0.00    -0.070 Cl
ATOM      8 Cl1  UNL d   1      -1.792   2.933   2.541  0.00  0.00    -0.070 Cl
ENDROOT
TORSDOF 0
ENDMDL
