MODEL 1
REMARK minimizedAffinity 5.06169844
REMARK minimizedRMSD -1
REMARK  0 active torsions:
REMARK  status: ('A' for Active; 'I' for Inactive)
ROOT
ATOM      1  C   UNL d   1       2.143  -0.148   3.328  0.00  0.00     0.020 A 
ATOM      2  C1  UNL d   1       1.166  -0.519   4.251  0.00  0.00     0.020 A 
ATOM      3  C2  UNL d   1      -0.094   0.083   4.214  0.00  0.00     0.034 A 
ATOM      4  C3  UNL d   1      -0.380   1.058   3.252  0.00  0.00     0.017 A 
ATOM      5  C4  UNL d   1       0.601   1.429   2.326  0.00  0.00     0.017 A 
ATOM      6  C5  UNL d   1       1.861   0.824   2.367  0.00  0.00     0.034 A 
ATOM      7 Cl   UNL d   1       0.322   2.625   1.109  0.00  0.00    -0.070 Cl
ATOM      8 Cl1  UNL d   1      -1.959   1.759   3.265  0.00  0.00    -0.070 Cl
ENDROOT
TORSDOF 0
ENDMDL
