MODEL 1
REMARK minimizedAffinity 6.13699675
REMARK minimizedRMSD -1
REMARK  0 active torsions:
REMARK  status: ('A' for Active; 'I' for Inactive)
ROOT
ATOM      1  C   UNL d   1       2.019  -2.330   0.397  0.00  0.00     0.020 A 
ATOM      2  C1  UNL d   1       1.088  -1.440  -0.136  0.00  0.00     0.020 A 
ATOM      3  C2  UNL d   1       0.079  -1.908  -0.981  0.00  0.00     0.034 A 
ATOM      4  C3  UNL d   1      -0.002  -3.269  -1.293  0.00  0.00     0.017 A 
ATOM      5  C4  UNL d   1       0.932  -4.162  -0.757  0.00  0.00     0.017 A 
ATOM      6  C5  UNL d   1       1.941  -3.688   0.088  0.00  0.00     0.034 A 
ATOM      7 Cl   UNL d   1       0.897  -5.857  -1.097  0.00  0.00    -0.070 Cl
ATOM      8 Cl1  UNL d   1      -1.277  -3.778  -2.343  0.00  0.00    -0.070 Cl
ENDROOT
TORSDOF 0
ENDMDL
