MODEL 1
REMARK minimizedAffinity 14.3339186
REMARK minimizedRMSD -1
REMARK  0 active torsions:
REMARK  status: ('A' for Active; 'I' for Inactive)
ROOT
ATOM      1  C   UNL d   1       6.000  -3.597  -0.764  0.00  0.00     0.020 A 
ATOM      2  C1  UNL d   1       5.580  -4.860  -1.179  0.00  0.00     0.020 A 
ATOM      3  C2  UNL d   1       4.216  -5.150  -1.260  0.00  0.00     0.034 A 
ATOM      4  C3  UNL d   1       3.268  -4.176  -0.927  0.00  0.00     0.017 A 
ATOM      5  C4  UNL d   1       3.691  -2.908  -0.510  0.00  0.00     0.017 A 
ATOM      6  C5  UNL d   1       5.058  -2.623  -0.430  0.00  0.00     0.034 A 
ATOM      7 Cl   UNL d   1       2.581  -1.655  -0.082  0.00  0.00    -0.070 Cl
ATOM      8 Cl1  UNL d   1       1.598  -4.603  -1.051  0.00  0.00    -0.070 Cl
ENDROOT
TORSDOF 0
ENDMDL
