MODEL 1
REMARK minimizedAffinity 8.08903122
REMARK minimizedRMSD -1
REMARK  0 active torsions:
REMARK  status: ('A' for Active; 'I' for Inactive)
ROOT
ATOM      1  C   UNL d   1       4.107  -5.788  -4.964  0.00  0.00     0.020 A 
ATOM      2  C1  UNL d   1       5.381  -5.247  -4.803  0.00  0.00     0.020 A 
ATOM      3  C2  UNL d   1       5.843  -4.917  -3.527  0.00  0.00     0.034 A 
ATOM      4  C3  UNL d   1       5.030  -5.127  -2.408  0.00  0.00     0.017 A 
ATOM      5  C4  UNL d   1       3.751  -5.671  -2.571  0.00  0.00     0.017 A 
ATOM      6  C5  UNL d   1       3.293  -6.000  -3.850  0.00  0.00     0.034 A 
ATOM      7 Cl   UNL d   1       2.690  -5.959  -1.237  0.00  0.00    -0.070 Cl
ATOM      8 Cl1  UNL d   1       5.666  -4.696  -0.860  0.00  0.00    -0.070 Cl
ENDROOT
TORSDOF 0
ENDMDL
