MODEL 1
REMARK minimizedAffinity -1.92894053
REMARK minimizedRMSD -1
REMARK  1 active torsions:
REMARK  status: ('A' for Active; 'I' for Inactive)
REMARK    1  A    between atoms: C1_2  and  C2_3 
ROOT
ATOM      1  C2  UNL d   1       0.080  -0.020  -0.357  0.00  0.00    -0.076 A 
ATOM      2  C3  UNL d   1      -0.607  -0.876   0.522  0.00  0.00     0.004 A 
ATOM      3  C4  UNL d   1      -1.467  -0.367   1.494  0.00  0.00    -0.003 A 
ATOM      4  C5  UNL d   1      -1.654   1.007   1.602  0.00  0.00     0.000 A 
ATOM      5  C6  UNL d   1      -0.995   1.869   0.726  0.00  0.00     0.000 A 
ATOM      6  C7  UNL d   1      -0.137   1.371  -0.269  0.00  0.00    -0.073 A 
ATOM      7  C8  UNL d   1       0.553   2.347  -1.182  0.00  0.00     0.078 C 
ENDROOT
BRANCH   1   8
ATOM      8  C1  UNL d   1       1.020  -0.629  -1.373  0.00  0.00     0.053 C 
ATOM      9  C   UNL d   1       0.448  -1.881  -2.020  0.00  0.00     0.018 C 
ENDBRANCH   1   8
TORSDOF 1
ENDMDL
