MODEL 1
REMARK minimizedAffinity -2.51152945
REMARK minimizedRMSD -1
REMARK  1 active torsions:
REMARK  status: ('A' for Active; 'I' for Inactive)
REMARK    1  A    between atoms: C1_2  and  C2_3 
ROOT
ATOM      1  C2  UNL d   1      -0.245  -0.011   0.119  0.00  0.00    -0.076 A 
ATOM      2  C3  UNL d   1      -0.908  -0.706   1.145  0.00  0.00     0.004 A 
ATOM      3  C4  UNL d   1      -1.688  -0.029   2.081  0.00  0.00    -0.003 A 
ATOM      4  C5  UNL d   1      -1.818   1.353   2.006  0.00  0.00     0.000 A 
ATOM      5  C6  UNL d   1      -1.181   2.056   0.984  0.00  0.00     0.000 A 
ATOM      6  C7  UNL d   1      -0.405   1.388   0.022  0.00  0.00    -0.073 A 
ATOM      7  C8  UNL d   1       0.265   2.197  -1.055  0.00  0.00     0.078 C 
ENDROOT
BRANCH   1   8
ATOM      8  C1  UNL d   1       0.609  -0.795  -0.852  0.00  0.00     0.053 C 
ATOM      9  C   UNL d   1       0.201  -2.258  -0.937  0.00  0.00     0.018 C 
ENDBRANCH   1   8
TORSDOF 1
ENDMDL
