MODEL 1
REMARK minimizedAffinity -2.39050555
REMARK minimizedRMSD -1
REMARK  1 active torsions:
REMARK  status: ('A' for Active; 'I' for Inactive)
REMARK    1  A    between atoms: C1_2  and  C2_3 
ROOT
ATOM      1  C2  UNL d   1      -0.790   0.553   1.319  0.00  0.00    -0.076 A 
ATOM      2  C3  UNL d   1      -0.458   1.294   0.171  0.00  0.00     0.004 A 
ATOM      3  C4  UNL d   1       0.360   0.754  -0.820  0.00  0.00    -0.003 A 
ATOM      4  C5  UNL d   1       0.859  -0.537  -0.679  0.00  0.00     0.000 A 
ATOM      5  C6  UNL d   1       0.526  -1.292   0.444  0.00  0.00     0.000 A 
ATOM      6  C7  UNL d   1      -0.311  -0.769   1.445  0.00  0.00    -0.073 A 
ATOM      7  C8  UNL d   1      -0.633  -1.626   2.638  0.00  0.00     0.078 C 
ENDROOT
BRANCH   1   8
ATOM      8  C1  UNL d   1      -1.659   1.201   2.373  0.00  0.00     0.053 C 
ATOM      9  C   UNL d   1      -2.024   2.636   2.026  0.00  0.00     0.018 C 
ENDBRANCH   1   8
TORSDOF 1
ENDMDL
