MODEL 1
REMARK minimizedAffinity -5.79234219
REMARK minimizedRMSD -1
REMARK  1 active torsions:
REMARK  status: ('A' for Active; 'I' for Inactive)
REMARK    1  A    between atoms: C1_2  and  C2_3 
ROOT
ATOM      1  C2  UNL d   1      -0.254  -0.195   0.124  0.00  0.00    -0.076 A 
ATOM      2  C3  UNL d   1      -0.671   0.799  -0.779  0.00  0.00     0.004 A 
ATOM      3  C4  UNL d   1      -1.552   1.803  -0.384  0.00  0.00    -0.003 A 
ATOM      4  C5  UNL d   1      -2.030   1.832   0.922  0.00  0.00     0.000 A 
ATOM      5  C6  UNL d   1      -1.613   0.864   1.836  0.00  0.00     0.000 A 
ATOM      6  C7  UNL d   1      -0.712  -0.146   1.458  0.00  0.00    -0.073 A 
ATOM      7  C8  UNL d   1      -0.301  -1.167   2.483  0.00  0.00     0.078 C 
ENDROOT
BRANCH   1   8
ATOM      8  C1  UNL d   1       0.682  -1.275  -0.369  0.00  0.00     0.053 C 
ATOM      9  C   UNL d   1       0.072  -2.110  -1.485  0.00  0.00     0.018 C 
ENDBRANCH   1   8
TORSDOF 1
ENDMDL
