MODEL 1
REMARK minimizedAffinity -5.59760475
REMARK minimizedRMSD -1
REMARK  1 active torsions:
REMARK  status: ('A' for Active; 'I' for Inactive)
REMARK    1  A    between atoms: C1_2  and  C2_3 
ROOT
ATOM      1  C2  UNL d   1      -0.323  -0.119  -0.008  0.00  0.00    -0.076 A 
ATOM      2  C3  UNL d   1      -0.833  -0.880   1.059  0.00  0.00     0.004 A 
ATOM      3  C4  UNL d   1      -1.482  -0.268   2.130  0.00  0.00    -0.003 A 
ATOM      4  C5  UNL d   1      -1.633   1.114   2.151  0.00  0.00     0.000 A 
ATOM      5  C6  UNL d   1      -1.150   1.882   1.093  0.00  0.00     0.000 A 
ATOM      6  C7  UNL d   1      -0.507   1.280  -0.002  0.00  0.00    -0.073 A 
ATOM      7  C8  UNL d   1       0.001   2.157  -1.114  0.00  0.00     0.078 C 
ENDROOT
BRANCH   1   8
ATOM      8  C1  UNL d   1       0.396  -0.835  -1.129  0.00  0.00     0.053 C 
ATOM      9  C   UNL d   1      -0.280  -2.142  -1.514  0.00  0.00     0.018 C 
ENDBRANCH   1   8
TORSDOF 1
ENDMDL
