MODEL 1
REMARK minimizedAffinity -5.38376808
REMARK minimizedRMSD -1
REMARK  1 active torsions:
REMARK  status: ('A' for Active; 'I' for Inactive)
REMARK    1  A    between atoms: C1_2  and  C2_3 
ROOT
ATOM      1  C2  UNL d   1      -0.425   0.011   0.444  0.00  0.00    -0.076 A 
ATOM      2  C3  UNL d   1      -0.835   1.109  -0.333  0.00  0.00     0.004 A 
ATOM      3  C4  UNL d   1      -1.760   2.029   0.157  0.00  0.00    -0.003 A 
ATOM      4  C5  UNL d   1      -2.291   1.866   1.432  0.00  0.00     0.000 A 
ATOM      5  C6  UNL d   1      -1.882   0.793   2.223  0.00  0.00     0.000 A 
ATOM      6  C7  UNL d   1      -0.938  -0.134   1.750  0.00  0.00    -0.073 A 
ATOM      7  C8  UNL d   1      -0.537  -1.276   2.644  0.00  0.00     0.078 C 
ENDROOT
BRANCH   1   8
ATOM      8  C1  UNL d   1       0.562  -0.968  -0.151  0.00  0.00     0.053 C 
ATOM      9  C   UNL d   1       0.220  -1.342  -1.585  0.00  0.00     0.018 C 
ENDBRANCH   1   8
TORSDOF 1
ENDMDL
