MODEL 1
REMARK minimizedAffinity -3.42204285
REMARK minimizedRMSD -1
REMARK  1 active torsions:
REMARK  status: ('A' for Active; 'I' for Inactive)
REMARK    1  A    between atoms: C1_2  and  C2_3 
ROOT
ATOM      1  C2  UNL d   1      -0.431   0.634   0.369  0.00  0.00    -0.076 A 
ATOM      2  C3  UNL d   1      -1.492   0.861   1.263  0.00  0.00     0.004 A 
ATOM      3  C4  UNL d   1      -2.280   2.006   1.164  0.00  0.00    -0.003 A 
ATOM      4  C5  UNL d   1      -2.021   2.943   0.169  0.00  0.00     0.000 A 
ATOM      5  C6  UNL d   1      -0.984   2.725  -0.737  0.00  0.00     0.000 A 
ATOM      6  C7  UNL d   1      -0.190   1.567  -0.662  0.00  0.00    -0.073 A 
ATOM      7  C8  UNL d   1       0.919   1.386  -1.661  0.00  0.00     0.078 C 
ENDROOT
BRANCH   1   8
ATOM      8  C1  UNL d   1       0.407  -0.613   0.542  0.00  0.00     0.053 C 
ATOM      9  C   UNL d   1       0.713  -0.912   2.001  0.00  0.00     0.018 C 
ENDBRANCH   1   8
TORSDOF 1
ENDMDL
