MODEL 1
REMARK minimizedAffinity -5.02873039
REMARK minimizedRMSD -1
REMARK  1 active torsions:
REMARK  status: ('A' for Active; 'I' for Inactive)
REMARK    1  A    between atoms: C1_2  and  C2_3 
ROOT
ATOM      1  C2  UNL d   1       0.025   0.272   0.102  0.00  0.00    -0.076 A 
ATOM      2  C3  UNL d   1      -0.284  -0.486   1.244  0.00  0.00     0.004 A 
ATOM      3  C4  UNL d   1      -1.307  -0.097   2.108  0.00  0.00    -0.003 A 
ATOM      4  C5  UNL d   1      -2.038   1.056   1.842  0.00  0.00     0.000 A 
ATOM      5  C6  UNL d   1      -1.757   1.810   0.703  0.00  0.00     0.000 A 
ATOM      6  C7  UNL d   1      -0.739   1.423  -0.186  0.00  0.00    -0.073 A 
ATOM      7  C8  UNL d   1      -0.475   2.277  -1.396  0.00  0.00     0.078 C 
ENDROOT
BRANCH   1   8
ATOM      8  C1  UNL d   1       1.163  -0.184  -0.784  0.00  0.00     0.053 C 
ATOM      9  C   UNL d   1       0.995  -1.620  -1.255  0.00  0.00     0.018 C 
ENDBRANCH   1   8
TORSDOF 1
ENDMDL
