MODEL 1
REMARK minimizedAffinity -6.1423316
REMARK minimizedRMSD -1
REMARK  1 active torsions:
REMARK  status: ('A' for Active; 'I' for Inactive)
REMARK    1  A    between atoms: C1_2  and  C2_3 
ROOT
ATOM      1  C2  UNL d   1      -0.032   0.287  -0.073  0.00  0.00    -0.076 A 
ATOM      2  C3  UNL d   1      -0.452  -0.404   1.077  0.00  0.00     0.004 A 
ATOM      3  C4  UNL d   1      -1.290   0.202   2.012  0.00  0.00    -0.003 A 
ATOM      4  C5  UNL d   1      -1.722   1.508   1.811  0.00  0.00     0.000 A 
ATOM      5  C6  UNL d   1      -1.329   2.202   0.667  0.00  0.00     0.000 A 
ATOM      6  C7  UNL d   1      -0.498   1.600  -0.293  0.00  0.00    -0.073 A 
ATOM      7  C8  UNL d   1      -0.101   2.397  -1.506  0.00  0.00     0.078 C 
ENDROOT
BRANCH   1   8
ATOM      8  C1  UNL d   1       0.899  -0.412  -1.038  0.00  0.00     0.053 C 
ATOM      9  C   UNL d   1       0.309  -1.702  -1.586  0.00  0.00     0.018 C 
ENDBRANCH   1   8
TORSDOF 1
ENDMDL
