MODEL 1
REMARK minimizedAffinity -3.42105389
REMARK minimizedRMSD -1
REMARK  1 active torsions:
REMARK  status: ('A' for Active; 'I' for Inactive)
REMARK    1  A    between atoms: C1_2  and  C2_3 
ROOT
ATOM      1  C2  UNL d   1       0.029  -0.003   0.272  0.00  0.00    -0.076 A 
ATOM      2  C3  UNL d   1      -0.776  -0.391   1.357  0.00  0.00     0.004 A 
ATOM      3  C4  UNL d   1      -1.892   0.358   1.727  0.00  0.00    -0.003 A 
ATOM      4  C5  UNL d   1      -2.221   1.507   1.016  0.00  0.00     0.000 A 
ATOM      5  C6  UNL d   1      -1.444   1.897  -0.074  0.00  0.00     0.000 A 
ATOM      6  C7  UNL d   1      -0.325   1.144  -0.470  0.00  0.00    -0.073 A 
ATOM      7  C8  UNL d   1       0.481   1.614  -1.649  0.00  0.00     0.078 C 
ENDROOT
BRANCH   1   8
ATOM      8  C1  UNL d   1       1.242  -0.840  -0.065  0.00  0.00     0.053 C 
ATOM      9  C   UNL d   1       0.873  -2.180  -0.683  0.00  0.00     0.018 C 
ENDBRANCH   1   8
TORSDOF 1
ENDMDL
