MODEL 1
REMARK minimizedAffinity -5.30290318
REMARK minimizedRMSD -1
REMARK  1 active torsions:
REMARK  status: ('A' for Active; 'I' for Inactive)
REMARK    1  A    between atoms: C1_2  and  C2_3 
ROOT
ATOM      1  C2  UNL d   1       0.880  -2.716  -1.188  0.00  0.00    -0.076 A 
ATOM      2  C3  UNL d   1       1.967  -2.769  -0.298  0.00  0.00     0.004 A 
ATOM      3  C4  UNL d   1       2.606  -3.976  -0.019  0.00  0.00    -0.003 A 
ATOM      4  C5  UNL d   1       2.169  -5.149  -0.625  0.00  0.00     0.000 A 
ATOM      5  C6  UNL d   1       1.104  -5.111  -1.523  0.00  0.00     0.000 A 
ATOM      6  C7  UNL d   1       0.458  -3.901  -1.829  0.00  0.00    -0.073 A 
ATOM      7  C8  UNL d   1      -0.690  -3.919  -2.800  0.00  0.00     0.078 C 
ENDROOT
BRANCH   1   8
ATOM      8  C1  UNL d   1       0.208  -1.383  -1.431  0.00  0.00     0.053 C 
ATOM      9  C   UNL d   1       0.310  -0.452  -0.233  0.00  0.00     0.018 C 
ENDBRANCH   1   8
TORSDOF 1
ENDMDL
