MODEL 1
REMARK minimizedAffinity -5.70171881
REMARK minimizedRMSD -1
REMARK  1 active torsions:
REMARK  status: ('A' for Active; 'I' for Inactive)
REMARK    1  A    between atoms: C1_2  and  C2_3 
ROOT
ATOM      1  C2  UNL d   1      -0.470   0.299  -0.126  0.00  0.00    -0.076 A 
ATOM      2  C3  UNL d   1      -1.274   1.254  -0.773  0.00  0.00     0.004 A 
ATOM      3  C4  UNL d   1      -2.302   1.905  -0.095  0.00  0.00    -0.003 A 
ATOM      4  C5  UNL d   1      -2.544   1.613   1.243  0.00  0.00     0.000 A 
ATOM      5  C6  UNL d   1      -1.745   0.682   1.906  0.00  0.00     0.000 A 
ATOM      6  C7  UNL d   1      -0.694   0.028   1.241  0.00  0.00    -0.073 A 
ATOM      7  C8  UNL d   1       0.132  -0.971   2.004  0.00  0.00     0.078 C 
ENDROOT
BRANCH   1   8
ATOM      8  C1  UNL d   1       0.613  -0.395  -0.920  0.00  0.00     0.053 C 
ATOM      9  C   UNL d   1       0.091  -1.599  -1.688  0.00  0.00     0.018 C 
ENDBRANCH   1   8
TORSDOF 1
ENDMDL
