MODEL 1
REMARK minimizedAffinity -3.96202731
REMARK minimizedRMSD -1
REMARK  1 active torsions:
REMARK  status: ('A' for Active; 'I' for Inactive)
REMARK    1  A    between atoms: C1_2  and  C2_3 
ROOT
ATOM      1  C2  UNL d   1       0.036   0.164   0.022  0.00  0.00    -0.076 A 
ATOM      2  C3  UNL d   1      -0.253  -0.584   1.177  0.00  0.00     0.004 A 
ATOM      3  C4  UNL d   1      -1.114  -0.089   2.155  0.00  0.00    -0.003 A 
ATOM      4  C5  UNL d   1      -1.701   1.161   1.993  0.00  0.00     0.000 A 
ATOM      5  C6  UNL d   1      -1.440   1.908   0.845  0.00  0.00     0.000 A 
ATOM      6  C7  UNL d   1      -0.587   1.417  -0.158  0.00  0.00    -0.073 A 
ATOM      7  C8  UNL d   1      -0.336   2.269  -1.372  0.00  0.00     0.078 C 
ENDROOT
BRANCH   1   8
ATOM      8  C1  UNL d   1       0.999  -0.412  -0.992  0.00  0.00     0.053 C 
ATOM      9  C   UNL d   1       0.980  -1.933  -1.015  0.00  0.00     0.018 C 
ENDBRANCH   1   8
TORSDOF 1
ENDMDL
