MODEL 1
REMARK minimizedAffinity 6.85591888
REMARK minimizedRMSD -1
REMARK  1 active torsions:
REMARK  status: ('A' for Active; 'I' for Inactive)
REMARK    1  A    between atoms: C1_2  and  C2_3 
ROOT
ATOM      1  C2  UNL d   1       1.652   0.368   1.461  0.00  0.00    -0.081 A 
ATOM      2  C3  UNL d   1       1.343  -0.954   1.119  0.00  0.00     0.006 A 
ATOM      3  C4  UNL d   1       0.163  -1.547   1.576  0.00  0.00     0.002 A 
ATOM      4  C5  UNL d   1      -0.730  -0.825   2.375  0.00  0.00    -0.080 A 
ATOM      5  C6  UNL d   1      -2.014  -1.440   2.847  0.00  0.00     0.076 C 
ATOM      6  C7  UNL d   1      -0.413   0.490   2.732  0.00  0.00     0.002 A 
ATOM      7  C8  UNL d   1       0.767   1.082   2.276  0.00  0.00     0.006 A 
ENDROOT
BRANCH   1   8
ATOM      8  C1  UNL d   1       2.892   1.031   0.917  0.00  0.00     0.054 C 
ATOM      9  C   UNL d   1       2.543   2.101  -0.107  0.00  0.00     0.018 C 
ENDBRANCH   1   8
TORSDOF 1
ENDMDL
