MODEL 1
REMARK minimizedAffinity 0.67116785
REMARK minimizedRMSD -1
REMARK  1 active torsions:
REMARK  status: ('A' for Active; 'I' for Inactive)
REMARK    1  A    between atoms: C1_2  and  C2_3 
ROOT
ATOM      1  C2  UNL d   1      -5.402   4.548   2.451  0.00  0.00    -0.081 A 
ATOM      2  C3  UNL d   1      -5.999   5.613   1.765  0.00  0.00     0.006 A 
ATOM      3  C4  UNL d   1      -5.526   6.000   0.509  0.00  0.00     0.002 A 
ATOM      4  C5  UNL d   1      -4.454   5.325  -0.085  0.00  0.00    -0.080 A 
ATOM      5  C6  UNL d   1      -3.956   5.711  -1.445  0.00  0.00     0.076 C 
ATOM      6  C7  UNL d   1      -3.846   4.272   0.608  0.00  0.00     0.002 A 
ATOM      7  C8  UNL d   1      -4.319   3.885   1.864  0.00  0.00     0.006 A 
ENDROOT
BRANCH   1   8
ATOM      8  C1  UNL d   1      -5.952   4.086   3.777  0.00  0.00     0.054 C 
ATOM      9  C   UNL d   1      -6.000   5.226   4.783  0.00  0.00     0.018 C 
ENDBRANCH   1   8
TORSDOF 1
ENDMDL
