MODEL 1
REMARK minimizedAffinity 12.2639532
REMARK minimizedRMSD -1
REMARK  1 active torsions:
REMARK  status: ('A' for Active; 'I' for Inactive)
REMARK    1  A    between atoms: C1_2  and  C2_3 
ROOT
ATOM      1  C2  UNL d   1      -1.704  -1.075   3.811  0.00  0.00    -0.081 A 
ATOM      2  C3  UNL d   1      -2.103   0.032   3.052  0.00  0.00     0.006 A 
ATOM      3  C4  UNL d   1      -1.933   0.039   1.666  0.00  0.00     0.002 A 
ATOM      4  C5  UNL d   1      -1.369  -1.063   1.015  0.00  0.00    -0.080 A 
ATOM      5  C6  UNL d   1      -1.208  -1.081  -0.477  0.00  0.00     0.076 C 
ATOM      6  C7  UNL d   1      -0.953  -2.162   1.774  0.00  0.00     0.002 A 
ATOM      7  C8  UNL d   1      -1.123  -2.169   3.161  0.00  0.00     0.006 A 
ENDROOT
BRANCH   1   8
ATOM      8  C1  UNL d   1      -1.945  -1.112   5.299  0.00  0.00     0.054 C 
ATOM      9  C   UNL d   1      -2.981  -2.165   5.665  0.00  0.00     0.018 C 
ENDBRANCH   1   8
TORSDOF 1
ENDMDL
