MODEL 1
REMARK minimizedAffinity 15.483036
REMARK minimizedRMSD -1
REMARK  1 active torsions:
REMARK  status: ('A' for Active; 'I' for Inactive)
REMARK    1  A    between atoms: C1_2  and  C2_3 
ROOT
ATOM      1  C2  UNL d   1      -3.516   2.891  -4.314  0.00  0.00    -0.081 A 
ATOM      2  C3  UNL d   1      -4.502   2.573  -5.255  0.00  0.00     0.006 A 
ATOM      3  C4  UNL d   1      -5.316   3.572  -5.794  0.00  0.00     0.002 A 
ATOM      4  C5  UNL d   1      -5.153   4.906  -5.406  0.00  0.00    -0.080 A 
ATOM      5  C6  UNL d   1      -6.000   5.993  -5.999  0.00  0.00     0.076 C 
ATOM      6  C7  UNL d   1      -4.179   5.222  -4.453  0.00  0.00     0.002 A 
ATOM      7  C8  UNL d   1      -3.365   4.223  -3.913  0.00  0.00     0.006 A 
ENDROOT
BRANCH   1   8
ATOM      8  C1  UNL d   1      -2.594   1.825  -3.780  0.00  0.00     0.054 C 
ATOM      9  C   UNL d   1      -1.222   1.901  -4.436  0.00  0.00     0.018 C 
ENDBRANCH   1   8
TORSDOF 1
ENDMDL
