MODEL 1
REMARK minimizedAffinity 9.72446632
REMARK minimizedRMSD -1
REMARK  1 active torsions:
REMARK  status: ('A' for Active; 'I' for Inactive)
REMARK    1  A    between atoms: C1_2  and  C2_3 
ROOT
ATOM      1  C2  UNL d   1      -2.729   3.181  -4.854  0.00  0.00    -0.081 A 
ATOM      2  C3  UNL d   1      -3.909   2.918  -5.561  0.00  0.00     0.006 A 
ATOM      3  C4  UNL d   1      -4.974   3.821  -5.523  0.00  0.00     0.002 A 
ATOM      4  C5  UNL d   1      -4.874   5.006  -4.787  0.00  0.00    -0.080 A 
ATOM      5  C6  UNL d   1      -5.998   5.999  -4.763  0.00  0.00     0.076 C 
ATOM      6  C7  UNL d   1      -3.702   5.262  -4.067  0.00  0.00     0.002 A 
ATOM      7  C8  UNL d   1      -2.637   4.358  -4.103  0.00  0.00     0.006 A 
ENDROOT
BRANCH   1   8
ATOM      8  C1  UNL d   1      -1.556   2.240  -4.945  0.00  0.00     0.054 C 
ATOM      9  C   UNL d   1      -0.265   2.922  -4.514  0.00  0.00     0.018 C 
ENDBRANCH   1   8
TORSDOF 1
ENDMDL
