MODEL 1
REMARK minimizedAffinity 12.4836721
REMARK minimizedRMSD -1
REMARK  1 active torsions:
REMARK  status: ('A' for Active; 'I' for Inactive)
REMARK    1  A    between atoms: C1_2  and  C2_3 
ROOT
ATOM      1  C2  UNL d   1      -1.103  -2.949   0.194  0.00  0.00    -0.081 A 
ATOM      2  C3  UNL d   1      -0.664  -2.597   1.476  0.00  0.00     0.006 A 
ATOM      3  C4  UNL d   1      -0.262  -3.582   2.382  0.00  0.00     0.002 A 
ATOM      4  C5  UNL d   1      -0.285  -4.933   2.019  0.00  0.00    -0.080 A 
ATOM      5  C6  UNL d   1       0.173  -5.997   2.971  0.00  0.00     0.076 C 
ATOM      6  C7  UNL d   1      -0.739  -5.286   0.743  0.00  0.00     0.002 A 
ATOM      7  C8  UNL d   1      -1.142  -4.302  -0.162  0.00  0.00     0.006 A 
ENDROOT
BRANCH   1   8
ATOM      8  C1  UNL d   1      -1.475  -1.886  -0.807  0.00  0.00     0.054 C 
ATOM      9  C   UNL d   1      -2.739  -1.149  -0.387  0.00  0.00     0.018 C 
ENDBRANCH   1   8
TORSDOF 1
ENDMDL
