MODEL 1
REMARK minimizedAffinity 14.9100723
REMARK minimizedRMSD -1
REMARK  1 active torsions:
REMARK  status: ('A' for Active; 'I' for Inactive)
REMARK    1  A    between atoms: C1_2  and  C2_3 
ROOT
ATOM      1  C2  UNL d   1       3.742   1.576  -0.795  0.00  0.00    -0.081 A 
ATOM      2  C3  UNL d   1       2.962   2.488  -0.075  0.00  0.00     0.006 A 
ATOM      3  C4  UNL d   1       3.520   3.678   0.398  0.00  0.00     0.002 A 
ATOM      4  C5  UNL d   1       4.864   3.980   0.151  0.00  0.00    -0.080 A 
ATOM      5  C6  UNL d   1       5.467   5.268   0.626  0.00  0.00     0.076 C 
ATOM      6  C7  UNL d   1       5.648   3.060  -0.554  0.00  0.00     0.002 A 
ATOM      7  C8  UNL d   1       5.091   1.869  -1.026  0.00  0.00     0.006 A 
ENDROOT
BRANCH   1   8
ATOM      8  C1  UNL d   1       3.127   0.321  -1.362  0.00  0.00     0.054 C 
ATOM      9  C   UNL d   1       3.926  -0.200  -2.548  0.00  0.00     0.018 C 
ENDBRANCH   1   8
TORSDOF 1
ENDMDL
