MODEL 1
REMARK minimizedAffinity 16.9695396
REMARK minimizedRMSD -1
REMARK  1 active torsions:
REMARK  status: ('A' for Active; 'I' for Inactive)
REMARK    1  A    between atoms: C1_2  and  C2_3 
ROOT
ATOM      1  C2  UNL d   1      -1.079  -1.808  -0.785  0.00  0.00    -0.081 A 
ATOM      2  C3  UNL d   1      -1.802  -0.820  -0.106  0.00  0.00     0.006 A 
ATOM      3  C4  UNL d   1      -2.037  -0.932   1.267  0.00  0.00     0.002 A 
ATOM      4  C5  UNL d   1      -1.547  -2.029   1.984  0.00  0.00    -0.080 A 
ATOM      5  C6  UNL d   1      -1.767  -2.146   3.463  0.00  0.00     0.076 C 
ATOM      6  C7  UNL d   1      -0.840  -3.025   1.302  0.00  0.00     0.002 A 
ATOM      7  C8  UNL d   1      -0.605  -2.914  -0.070  0.00  0.00     0.006 A 
ENDROOT
BRANCH   1   8
ATOM      8  C1  UNL d   1      -0.768  -1.658  -2.252  0.00  0.00     0.054 C 
ATOM      9  C   UNL d   1       0.412  -0.722  -2.475  0.00  0.00     0.018 C 
ENDBRANCH   1   8
TORSDOF 1
ENDMDL
