MODEL 1
REMARK minimizedAffinity 8.04488373
REMARK minimizedRMSD -1
REMARK  1 active torsions:
REMARK  status: ('A' for Active; 'I' for Inactive)
REMARK    1  A    between atoms: C1_2  and  C2_3 
ROOT
ATOM      1  C2  UNL d   1      -4.652  -2.347   1.145  0.00  0.00    -0.081 A 
ATOM      2  C3  UNL d   1      -4.555  -1.144   0.435  0.00  0.00     0.006 A 
ATOM      3  C4  UNL d   1      -3.306  -0.629   0.082  0.00  0.00     0.002 A 
ATOM      4  C5  UNL d   1      -2.134  -1.310   0.427  0.00  0.00    -0.080 A 
ATOM      5  C6  UNL d   1      -0.787  -0.783   0.028  0.00  0.00     0.076 C 
ATOM      6  C7  UNL d   1      -2.230  -2.503   1.152  0.00  0.00     0.002 A 
ATOM      7  C8  UNL d   1      -3.479  -3.019   1.505  0.00  0.00     0.006 A 
ENDROOT
BRANCH   1   8
ATOM      8  C1  UNL d   1      -6.000  -2.939   1.471  0.00  0.00     0.054 C 
ATOM      9  C   UNL d   1      -5.976  -4.457   1.372  0.00  0.00     0.018 C 
ENDBRANCH   1   8
TORSDOF 1
ENDMDL
