MODEL 1
REMARK minimizedAffinity 16.8727341
REMARK minimizedRMSD -1
REMARK  1 active torsions:
REMARK  status: ('A' for Active; 'I' for Inactive)
REMARK    1  A    between atoms: C1_2  and  C2_3 
ROOT
ATOM      1  C2  UNL d   1      -1.065  -1.992  -0.922  0.00  0.00    -0.081 A 
ATOM      2  C3  UNL d   1      -1.452  -0.852  -0.207  0.00  0.00     0.006 A 
ATOM      3  C4  UNL d   1      -1.607  -0.904   1.180  0.00  0.00     0.002 A 
ATOM      4  C5  UNL d   1      -1.370  -2.094   1.876  0.00  0.00    -0.080 A 
ATOM      5  C6  UNL d   1      -1.503  -2.156   3.369  0.00  0.00     0.076 C 
ATOM      6  C7  UNL d   1      -1.000  -3.238   1.160  0.00  0.00     0.002 A 
ATOM      7  C8  UNL d   1      -0.846  -3.187  -0.227  0.00  0.00     0.006 A 
ENDROOT
BRANCH   1   8
ATOM      8  C1  UNL d   1      -0.834  -1.923  -2.410  0.00  0.00     0.054 C 
ATOM      9  C   UNL d   1       0.378  -1.064  -2.743  0.00  0.00     0.018 C 
ENDBRANCH   1   8
TORSDOF 1
ENDMDL
