MODEL 1
REMARK minimizedAffinity 11.7147913
REMARK minimizedRMSD -1
REMARK  1 active torsions:
REMARK  status: ('A' for Active; 'I' for Inactive)
REMARK    1  A    between atoms: C1_2  and  C2_3 
ROOT
ATOM      1  C2  UNL d   1      -2.652  -0.021   5.593  0.00  0.00    -0.081 A 
ATOM      2  C3  UNL d   1      -1.377  -0.589   5.484  0.00  0.00     0.006 A 
ATOM      3  C4  UNL d   1      -1.201  -1.968   5.628  0.00  0.00     0.002 A 
ATOM      4  C5  UNL d   1      -2.297  -2.801   5.874  0.00  0.00    -0.080 A 
ATOM      5  C6  UNL d   1      -2.126  -4.286   5.999  0.00  0.00     0.076 C 
ATOM      6  C7  UNL d   1      -3.568  -2.232   5.999  0.00  0.00     0.002 A 
ATOM      7  C8  UNL d   1      -3.745  -0.854   5.857  0.00  0.00     0.006 A 
ENDROOT
BRANCH   1   8
ATOM      8  C1  UNL d   1      -2.854   1.456   5.375  0.00  0.00     0.054 C 
ATOM      9  C   UNL d   1      -4.162   1.933   5.989  0.00  0.00     0.018 C 
ENDBRANCH   1   8
TORSDOF 1
ENDMDL
