MODEL 1
REMARK minimizedAffinity 12.2507105
REMARK minimizedRMSD -1
REMARK  1 active torsions:
REMARK  status: ('A' for Active; 'I' for Inactive)
REMARK    1  A    between atoms: C1_2  and  C2_3 
ROOT
ATOM      1  C2  UNL d   1      -2.062  -2.910   5.959  0.00  0.00    -0.081 A 
ATOM      2  C3  UNL d   1      -3.423  -2.611   5.828  0.00  0.00     0.006 A 
ATOM      3  C4  UNL d   1      -3.850  -1.284   5.730  0.00  0.00     0.002 A 
ATOM      4  C5  UNL d   1      -2.923  -0.237   5.753  0.00  0.00    -0.080 A 
ATOM      5  C6  UNL d   1      -3.366   1.190   5.618  0.00  0.00     0.076 C 
ATOM      6  C7  UNL d   1      -1.565  -0.535   5.901  0.00  0.00     0.002 A 
ATOM      7  C8  UNL d   1      -1.137  -1.861   6.000  0.00  0.00     0.006 A 
ENDROOT
BRANCH   1   8
ATOM      8  C1  UNL d   1      -1.593  -4.342   6.000  0.00  0.00     0.054 C 
ATOM      9  C   UNL d   1      -0.551  -4.614   4.924  0.00  0.00     0.018 C 
ENDBRANCH   1   8
TORSDOF 1
ENDMDL
