MODEL 1
REMARK minimizedAffinity 14.6285315
REMARK minimizedRMSD -1
REMARK  1 active torsions:
REMARK  status: ('A' for Active; 'I' for Inactive)
REMARK    1  A    between atoms: C1_2  and  C2_3 
ROOT
ATOM      1  C2  UNL d   1      -1.616  -2.867   5.935  0.00  0.00    -0.081 A 
ATOM      2  C3  UNL d   1      -0.660  -1.846   5.875  0.00  0.00     0.006 A 
ATOM      3  C4  UNL d   1      -1.054  -0.506   5.881  0.00  0.00     0.002 A 
ATOM      4  C5  UNL d   1      -2.409  -0.164   5.956  0.00  0.00    -0.080 A 
ATOM      5  C6  UNL d   1      -2.843   1.271   5.994  0.00  0.00     0.076 C 
ATOM      6  C7  UNL d   1      -3.365  -1.184   5.998  0.00  0.00     0.002 A 
ATOM      7  C8  UNL d   1      -2.972  -2.525   5.991  0.00  0.00     0.006 A 
ENDROOT
BRANCH   1   8
ATOM      8  C1  UNL d   1      -1.191  -4.312   5.994  0.00  0.00     0.054 C 
ATOM      9  C   UNL d   1      -2.396  -5.243   5.997  0.00  0.00     0.018 C 
ENDBRANCH   1   8
TORSDOF 1
ENDMDL
