MODEL 1
REMARK minimizedAffinity -3.96598601
REMARK minimizedRMSD -1
REMARK  0 active torsions:
REMARK  status: ('A' for Active; 'I' for Inactive)
ROOT
ATOM      1  C   UNL d   1      -2.868   0.205   1.974  0.00  0.00     0.172 C 
ATOM      2  N   UNL d   1      -1.981  -0.769   1.382  0.00  0.00    -0.070 N 
ATOM      3  C1  UNL d   1      -0.973  -0.496   0.496  0.00  0.00    -0.004 A 
ATOM      4  C2  UNL d   1      -0.363  -1.688   0.170  0.00  0.00    -0.047 A 
ATOM      5  C3  UNL d   1      -1.028  -2.713   0.884  0.00  0.00    -0.047 A 
ATOM      6  C4  UNL d   1      -2.025  -2.116   1.627  0.00  0.00    -0.004 A 
ENDROOT
TORSDOF 0
ENDMDL
