MODEL 1
REMARK minimizedAffinity -1.06711221
REMARK minimizedRMSD -1
REMARK  0 active torsions:
REMARK  status: ('A' for Active; 'I' for Inactive)
ROOT
ATOM      1  C   UNL d   1      -0.152  -2.379   2.634  0.00  0.00     0.172 C 
ATOM      2  N   UNL d   1      -0.808  -1.983   1.410  0.00  0.00    -0.070 N 
ATOM      3  C1  UNL d   1      -1.866  -2.627   0.826  0.00  0.00    -0.004 A 
ATOM      4  C2  UNL d   1      -2.198  -1.939  -0.321  0.00  0.00    -0.047 A 
ATOM      5  C3  UNL d   1      -1.308  -0.844  -0.431  0.00  0.00    -0.047 A 
ATOM      6  C4  UNL d   1      -0.458  -0.895   0.654  0.00  0.00    -0.004 A 
ENDROOT
TORSDOF 0
ENDMDL
