MODEL 1
REMARK minimizedAffinity -3.09856582
REMARK minimizedRMSD -1
REMARK  0 active torsions:
REMARK  status: ('A' for Active; 'I' for Inactive)
ROOT
ATOM      1  C   UNL d   1       0.627   0.447  -0.158  0.00  0.00     0.172 C 
ATOM      2  N   UNL d   1       0.062  -0.730   0.459  0.00  0.00    -0.070 N 
ATOM      3  C1  UNL d   1       0.737  -1.888   0.739  0.00  0.00    -0.004 A 
ATOM      4  C2  UNL d   1      -0.152  -2.764   1.323  0.00  0.00    -0.047 A 
ATOM      5  C3  UNL d   1      -1.405  -2.111   1.395  0.00  0.00    -0.047 A 
ATOM      6  C4  UNL d   1      -1.244  -0.853   0.853  0.00  0.00    -0.004 A 
ENDROOT
TORSDOF 0
ENDMDL
