MODEL 1
REMARK minimizedAffinity -3.22757292
REMARK minimizedRMSD -1
REMARK  0 active torsions:
REMARK  status: ('A' for Active; 'I' for Inactive)
ROOT
ATOM      1  C   UNL d   1       0.491   0.802  -0.600  0.00  0.00     0.172 C 
ATOM      2  N   UNL d   1       0.213  -0.428   0.104  0.00  0.00    -0.070 N 
ATOM      3  C1  UNL d   1       1.149  -1.329   0.537  0.00  0.00    -0.004 A 
ATOM      4  C2  UNL d   1       0.483  -2.362   1.161  0.00  0.00    -0.047 A 
ATOM      5  C3  UNL d   1      -0.901  -2.072   1.100  0.00  0.00    -0.047 A 
ATOM      6  C4  UNL d   1      -1.039  -0.869   0.441  0.00  0.00    -0.004 A 
ENDROOT
TORSDOF 0
ENDMDL
