MODEL 1
REMARK minimizedAffinity -2.31395936
REMARK minimizedRMSD -1
REMARK  0 active torsions:
REMARK  status: ('A' for Active; 'I' for Inactive)
ROOT
ATOM      1  C   UNL d   1       0.514   0.408  -0.336  0.00  0.00     0.172 C 
ATOM      2  N   UNL d   1      -0.745  -0.127   0.124  0.00  0.00    -0.070 N 
ATOM      3  C1  UNL d   1      -1.687   0.556   0.847  0.00  0.00    -0.004 A 
ATOM      4  C2  UNL d   1      -2.738  -0.302   1.087  0.00  0.00    -0.047 A 
ATOM      5  C3  UNL d   1      -2.417  -1.544   0.490  0.00  0.00    -0.047 A 
ATOM      6  C4  UNL d   1      -1.178  -1.408  -0.099  0.00  0.00    -0.004 A 
ENDROOT
TORSDOF 0
ENDMDL
