MODEL 1
REMARK minimizedAffinity -2.31871271
REMARK minimizedRMSD -1
REMARK  0 active torsions:
REMARK  status: ('A' for Active; 'I' for Inactive)
ROOT
ATOM      1  C   UNL d   1      -0.681  -1.986   0.932  0.00  0.00     0.172 C 
ATOM      2  N   UNL d   1      -0.440  -0.615   0.548  0.00  0.00    -0.070 N 
ATOM      3  C1  UNL d   1       0.696  -0.142  -0.053  0.00  0.00    -0.004 A 
ATOM      4  C2  UNL d   1       0.534   1.211  -0.255  0.00  0.00    -0.047 A 
ATOM      5  C3  UNL d   1      -0.743   1.564   0.241  0.00  0.00    -0.047 A 
ATOM      6  C4  UNL d   1      -1.325   0.414   0.732  0.00  0.00    -0.004 A 
ENDROOT
TORSDOF 0
ENDMDL
