MODEL 1
REMARK minimizedAffinity -2.47182417
REMARK minimizedRMSD -1
REMARK  0 active torsions:
REMARK  status: ('A' for Active; 'I' for Inactive)
ROOT
ATOM      1  C   UNL d   1       1.042   0.444   0.253  0.00  0.00     0.172 C 
ATOM      2  N   UNL d   1      -0.362   0.130   0.382  0.00  0.00    -0.070 N 
ATOM      3  C1  UNL d   1      -1.331   0.982   0.840  0.00  0.00    -0.004 A 
ATOM      4  C2  UNL d   1      -2.533   0.309   0.811  0.00  0.00    -0.047 A 
ATOM      5  C3  UNL d   1      -2.277  -0.993   0.319  0.00  0.00    -0.047 A 
ATOM      6  C4  UNL d   1      -0.925  -1.077   0.062  0.00  0.00    -0.004 A 
ENDROOT
TORSDOF 0
ENDMDL
