MODEL 1
REMARK minimizedAffinity -3.85825682
REMARK minimizedRMSD -1
REMARK  0 active torsions:
REMARK  status: ('A' for Active; 'I' for Inactive)
ROOT
ATOM      1  C   UNL d   1       0.543   0.669  -0.312  0.00  0.00     0.172 C 
ATOM      2  N   UNL d   1       0.216  -0.649   0.180  0.00  0.00    -0.070 N 
ATOM      3  C1  UNL d   1       1.116  -1.638   0.473  0.00  0.00    -0.004 A 
ATOM      4  C2  UNL d   1       0.409  -2.736   0.913  0.00  0.00    -0.047 A 
ATOM      5  C3  UNL d   1      -0.964  -2.395   0.883  0.00  0.00    -0.047 A 
ATOM      6  C4  UNL d   1      -1.055  -1.097   0.425  0.00  0.00    -0.004 A 
ENDROOT
TORSDOF 0
ENDMDL
