MODEL 1
REMARK minimizedAffinity -2.95028019
REMARK minimizedRMSD -1
REMARK  0 active torsions:
REMARK  status: ('A' for Active; 'I' for Inactive)
ROOT
ATOM      1  C   UNL d   1       0.416   1.372  -0.883  0.00  0.00     0.172 C 
ATOM      2  N   UNL d   1      -0.561   0.512  -0.257  0.00  0.00    -0.070 N 
ATOM      3  C1  UNL d   1      -1.709   0.928   0.363  0.00  0.00    -0.004 A 
ATOM      4  C2  UNL d   1      -2.367  -0.191   0.827  0.00  0.00    -0.047 A 
ATOM      5  C3  UNL d   1      -1.587  -1.318   0.474  0.00  0.00    -0.047 A 
ATOM      6  C4  UNL d   1      -0.475  -0.854  -0.196  0.00  0.00    -0.004 A 
ENDROOT
TORSDOF 0
ENDMDL
