MODEL 1
REMARK minimizedAffinity -4.0240798
REMARK minimizedRMSD -1
REMARK  0 active torsions:
REMARK  status: ('A' for Active; 'I' for Inactive)
ROOT
ATOM      1  C   UNL d   1      -2.663   0.622   1.944  0.00  0.00     0.172 C 
ATOM      2  N   UNL d   1      -1.857  -0.405   1.327  0.00  0.00    -0.070 N 
ATOM      3  C1  UNL d   1      -0.772  -0.191   0.519  0.00  0.00    -0.004 A 
ATOM      4  C2  UNL d   1      -0.283  -1.421   0.136  0.00  0.00    -0.047 A 
ATOM      5  C3  UNL d   1      -1.102  -2.408   0.734  0.00  0.00    -0.047 A 
ATOM      6  C4  UNL d   1      -2.068  -1.751   1.466  0.00  0.00    -0.004 A 
ENDROOT
TORSDOF 0
ENDMDL
