MODEL 1
REMARK minimizedAffinity -1.63270068
REMARK minimizedRMSD -1
REMARK  0 active torsions:
REMARK  status: ('A' for Active; 'I' for Inactive)
ROOT
ATOM      1  C   UNL d   1       0.655  -3.061   3.223  0.00  0.00     0.172 C 
ATOM      2  N   UNL d   1      -0.057  -2.585   2.060  0.00  0.00    -0.070 N 
ATOM      3  C1  UNL d   1       0.432  -1.709   1.128  0.00  0.00    -0.004 A 
ATOM      4  C2  UNL d   1      -0.549  -1.510   0.180  0.00  0.00    -0.047 A 
ATOM      5  C3  UNL d   1      -1.666  -2.292   0.557  0.00  0.00    -0.047 A 
ATOM      6  C4  UNL d   1      -1.334  -2.947   1.724  0.00  0.00    -0.004 A 
ENDROOT
TORSDOF 0
ENDMDL
