MODEL 1
REMARK minimizedAffinity -3.31346607
REMARK minimizedRMSD -1
REMARK  0 active torsions:
REMARK  status: ('A' for Active; 'I' for Inactive)
ROOT
ATOM      1  C   UNL d   1       0.588   1.194  -0.540  0.00  0.00     0.172 C 
ATOM      2  N   UNL d   1       0.228  -0.115  -0.049  0.00  0.00    -0.070 N 
ATOM      3  C1  UNL d   1       1.071  -1.190   0.051  0.00  0.00    -0.004 A 
ATOM      4  C2  UNL d   1       0.348  -2.246   0.562  0.00  0.00    -0.047 A 
ATOM      5  C3  UNL d   1      -0.975  -1.791   0.775  0.00  0.00    -0.047 A 
ATOM      6  C4  UNL d   1      -1.021  -0.469   0.388  0.00  0.00    -0.004 A 
ENDROOT
TORSDOF 0
ENDMDL
