MODEL 1
REMARK minimizedAffinity -2.80940175
REMARK minimizedRMSD -1
REMARK  0 active torsions:
REMARK  status: ('A' for Active; 'I' for Inactive)
ROOT
ATOM      1  C   UNL d   1      -2.709  -0.272   2.152  0.00  0.00     0.172 C 
ATOM      2  N   UNL d   1      -1.626  -1.158   1.793  0.00  0.00    -0.070 N 
ATOM      3  C1  UNL d   1      -0.762  -0.980   0.746  0.00  0.00    -0.004 A 
ATOM      4  C2  UNL d   1       0.121  -2.038   0.743  0.00  0.00    -0.047 A 
ATOM      5  C3  UNL d   1      -0.224  -2.881   1.825  0.00  0.00    -0.047 A 
ATOM      6  C4  UNL d   1      -1.309  -2.313   2.458  0.00  0.00    -0.004 A 
ENDROOT
TORSDOF 0
ENDMDL
