MODEL 1
REMARK minimizedAffinity -2.63662386
REMARK minimizedRMSD -1
REMARK  0 active torsions:
REMARK  status: ('A' for Active; 'I' for Inactive)
ROOT
ATOM      1  C   UNL d   1      -1.422  -2.437   1.398  0.00  0.00     0.172 C 
ATOM      2  N   UNL d   1      -1.043  -1.189   0.778  0.00  0.00    -0.070 N 
ATOM      3  C1  UNL d   1      -1.748  -0.017   0.846  0.00  0.00    -0.004 A 
ATOM      4  C2  UNL d   1      -1.056   0.934   0.127  0.00  0.00    -0.047 A 
ATOM      5  C3  UNL d   1       0.105   0.312  -0.390  0.00  0.00    -0.047 A 
ATOM      6  C4  UNL d   1       0.088  -1.002   0.028  0.00  0.00    -0.004 A 
ENDROOT
TORSDOF 0
ENDMDL
