MODEL 1
REMARK minimizedAffinity -2.96993518
REMARK minimizedRMSD -1
REMARK  0 active torsions:
REMARK  status: ('A' for Active; 'I' for Inactive)
ROOT
ATOM      1  C   UNL d   1      -0.158  -2.105   1.668  0.00  0.00     0.172 C 
ATOM      2  N   UNL d   1       0.036  -0.867   0.950  0.00  0.00    -0.070 N 
ATOM      3  C1  UNL d   1      -0.672   0.288   1.145  0.00  0.00    -0.004 A 
ATOM      4  C2  UNL d   1      -0.186   1.234   0.269  0.00  0.00    -0.047 A 
ATOM      5  C3  UNL d   1       0.850   0.626  -0.480  0.00  0.00    -0.047 A 
ATOM      6  C4  UNL d   1       0.966  -0.675  -0.038  0.00  0.00    -0.004 A 
ENDROOT
TORSDOF 0
ENDMDL
