MODEL 1
REMARK minimizedAffinity -1.06559229
REMARK minimizedRMSD -1
REMARK  0 active torsions:
REMARK  status: ('A' for Active; 'I' for Inactive)
ROOT
ATOM      1  C   UNL d   1       0.469   0.549  -0.078  0.00  0.00     0.172 C 
ATOM      2  N   UNL d   1       0.793   1.326  -1.250  0.00  0.00    -0.070 N 
ATOM      3  C1  UNL d   1      -0.109   1.843  -2.141  0.00  0.00    -0.004 A 
ATOM      4  C2  UNL d   1       0.596   2.517  -3.114  0.00  0.00    -0.047 A 
ATOM      5  C3  UNL d   1       1.971   2.400  -2.798  0.00  0.00    -0.047 A 
ATOM      6  C4  UNL d   1       2.064   1.658  -1.640  0.00  0.00    -0.004 A 
ENDROOT
TORSDOF 0
ENDMDL
