MODEL 1
REMARK minimizedAffinity -2.88748384
REMARK minimizedRMSD -1
REMARK  0 active torsions:
REMARK  status: ('A' for Active; 'I' for Inactive)
ROOT
ATOM      1  C   UNL d   1      -0.338  -2.329   1.415  0.00  0.00     0.172 C 
ATOM      2  N   UNL d   1       0.010  -1.038   0.869  0.00  0.00    -0.070 N 
ATOM      3  C1  UNL d   1      -0.851   0.010   0.685  0.00  0.00    -0.004 A 
ATOM      4  C2  UNL d   1      -0.134   1.056   0.145  0.00  0.00    -0.047 A 
ATOM      5  C3  UNL d   1       1.204   0.621  -0.001  0.00  0.00    -0.047 A 
ATOM      6  C4  UNL d   1       1.266  -0.679   0.454  0.00  0.00    -0.004 A 
ENDROOT
TORSDOF 0
ENDMDL
