MODEL 1
REMARK minimizedAffinity -2.41971922
REMARK minimizedRMSD -1
REMARK  0 active torsions:
REMARK  status: ('A' for Active; 'I' for Inactive)
ROOT
ATOM      1  C   UNL d   1      -0.730   0.017  -0.070  0.00  0.00     0.172 C 
ATOM      2  N   UNL d   1      -0.283   0.807  -1.194  0.00  0.00    -0.070 N 
ATOM      3  C1  UNL d   1      -1.020   1.092  -2.312  0.00  0.00    -0.004 A 
ATOM      4  C2  UNL d   1      -0.241   1.868  -3.144  0.00  0.00    -0.047 A 
ATOM      5  C3  UNL d   1       1.007   2.054  -2.503  0.00  0.00    -0.047 A 
ATOM      6  C4  UNL d   1       0.954   1.386  -1.298  0.00  0.00    -0.004 A 
ENDROOT
TORSDOF 0
ENDMDL
