MODEL 1
REMARK minimizedAffinity -2.79542565
REMARK minimizedRMSD -1
REMARK  0 active torsions:
REMARK  status: ('A' for Active; 'I' for Inactive)
ROOT
ATOM      1  C   UNL d   1       0.560   1.620  -0.236  0.00  0.00     0.172 C 
ATOM      2  N   UNL d   1       0.020   0.320   0.085  0.00  0.00    -0.070 N 
ATOM      3  C1  UNL d   1      -1.310   0.010   0.182  0.00  0.00    -0.004 A 
ATOM      4  C2  UNL d   1      -1.410  -1.327   0.504  0.00  0.00    -0.047 A 
ATOM      5  C3  UNL d   1      -0.094  -1.837   0.605  0.00  0.00    -0.047 A 
ATOM      6  C4  UNL d   1       0.772  -0.796   0.341  0.00  0.00    -0.004 A 
ENDROOT
TORSDOF 0
ENDMDL
