MODEL 1
REMARK minimizedAffinity 1.66252303
REMARK minimizedRMSD -1
REMARK  1 active torsions:
REMARK  status: ('A' for Active; 'I' for Inactive)
REMARK    1  A    between atoms: N_2  and  C1_3 
ROOT
ATOM      1  C1  UNL d   1      -3.123   3.497  -4.949  0.00  0.00     0.143 A 
ATOM      2  C2  UNL d   1      -3.215   2.789  -3.746  0.00  0.00    -0.057 A 
ATOM      3  C3  UNL d   1      -2.572   1.556  -3.579  0.00  0.00     0.033 A 
ATOM      4  C4  UNL d   1      -1.848   0.995  -4.626  0.00  0.00    -0.042 A 
ATOM      5  C5  UNL d   1      -1.764   1.670  -5.838  0.00  0.00     0.033 A 
ATOM      6  C6  UNL d   1      -2.402   2.904  -5.997  0.00  0.00    -0.057 A 
ENDROOT
BRANCH   1   7
ATOM      7  N   UNL d   1      -3.819   4.680  -5.210  0.00  0.00    -0.732 N 
ATOM      8  C   UNL d   1      -3.257   5.963  -4.845  0.00  0.00     0.284 C 
ATOM      9  H3  UNL d   1      -4.275   4.669  -6.119  0.00  0.00     0.395 HD
ENDBRANCH   1   7
TORSDOF 1
ENDMDL
