MODEL 1
REMARK minimizedAffinity 5.76087999
REMARK minimizedRMSD -1
REMARK  1 active torsions:
REMARK  status: ('A' for Active; 'I' for Inactive)
REMARK    1  A    between atoms: N_2  and  C1_3 
ROOT
ATOM      1  C1  UNL d   1      -5.365   3.595   1.552  0.00  0.00     0.143 A 
ATOM      2  C2  UNL d   1      -5.974   2.840   0.544  0.00  0.00    -0.057 A 
ATOM      3  C3  UNL d   1      -5.256   1.878  -0.176  0.00  0.00     0.033 A 
ATOM      4  C4  UNL d   1      -3.904   1.673   0.081  0.00  0.00    -0.042 A 
ATOM      5  C5  UNL d   1      -3.272   2.429   1.062  0.00  0.00     0.033 A 
ATOM      6  C6  UNL d   1      -3.996   3.385   1.782  0.00  0.00    -0.057 A 
ENDROOT
BRANCH   1   7
ATOM      7  N   UNL d   1      -6.000   4.635   2.236  0.00  0.00    -0.732 N 
ATOM      8  C   UNL d   1      -5.892   6.000   1.766  0.00  0.00     0.284 C 
ATOM      9  H3  UNL d   1      -6.930   4.378   2.557  0.00  0.00     0.395 HD
ENDBRANCH   1   7
TORSDOF 1
ENDMDL
