MODEL 1
REMARK minimizedAffinity 8.28906059
REMARK minimizedRMSD -1
REMARK  1 active torsions:
REMARK  status: ('A' for Active; 'I' for Inactive)
REMARK    1  A    between atoms: N_2  and  C1_3 
ROOT
ATOM      1  C1  UNL d   1       0.978  -5.203  -0.214  0.00  0.00     0.143 A 
ATOM      2  C2  UNL d   1       0.088  -5.706  -1.169  0.00  0.00    -0.057 A 
ATOM      3  C3  UNL d   1      -0.489  -4.873  -2.135  0.00  0.00     0.033 A 
ATOM      4  C4  UNL d   1      -0.206  -3.511  -2.145  0.00  0.00    -0.042 A 
ATOM      5  C5  UNL d   1       0.656  -2.984  -1.190  0.00  0.00     0.033 A 
ATOM      6  C6  UNL d   1       1.234  -3.823  -0.232  0.00  0.00    -0.057 A 
ENDROOT
BRANCH   1   7
ATOM      7  N   UNL d   1       1.507  -5.962   0.832  0.00  0.00    -0.732 N 
ATOM      8  C   UNL d   1       2.931  -5.973   1.089  0.00  0.00     0.284 C 
ATOM      9  H3  UNL d   1       0.934  -5.919   1.672  0.00  0.00     0.395 HD
ENDBRANCH   1   7
TORSDOF 1
ENDMDL
