MODEL 1
REMARK minimizedAffinity 4.22010088
REMARK minimizedRMSD -1
REMARK  1 active torsions:
REMARK  status: ('A' for Active; 'I' for Inactive)
REMARK    1  A    between atoms: N_2  and  C1_3 
ROOT
ATOM      1  C1  UNL d   1       0.552   3.702  -0.610  0.00  0.00     0.143 A 
ATOM      2  C2  UNL d   1       0.688   2.456   0.010  0.00  0.00    -0.057 A 
ATOM      3  C3  UNL d   1      -0.433   1.709   0.393  0.00  0.00     0.033 A 
ATOM      4  C4  UNL d   1      -1.714   2.211   0.188  0.00  0.00    -0.042 A 
ATOM      5  C5  UNL d   1      -1.872   3.459  -0.404  0.00  0.00     0.033 A 
ATOM      6  C6  UNL d   1      -0.749   4.197  -0.791  0.00  0.00    -0.057 A 
ENDROOT
BRANCH   1   7
ATOM      7  N   UNL d   1       1.628   4.536  -0.925  0.00  0.00    -0.732 N 
ATOM      8  C   UNL d   1       1.412   5.789  -1.616  0.00  0.00     0.284 C 
ATOM      9  H3  UNL d   1       2.311   4.588  -0.173  0.00  0.00     0.395 HD
ENDBRANCH   1   7
TORSDOF 1
ENDMDL
