MODEL 1
REMARK minimizedAffinity 2.12135983
REMARK minimizedRMSD -1
REMARK  1 active torsions:
REMARK  status: ('A' for Active; 'I' for Inactive)
REMARK    1  A    between atoms: N_2  and  C1_3 
ROOT
ATOM      1  C1  UNL d   1      -1.791   2.615  -5.139  0.00  0.00     0.143 A 
ATOM      2  C2  UNL d   1      -0.954   1.582  -5.576  0.00  0.00    -0.057 A 
ATOM      3  C3  UNL d   1       0.016   1.028  -4.733  0.00  0.00     0.033 A 
ATOM      4  C4  UNL d   1       0.188   1.518  -3.443  0.00  0.00    -0.042 A 
ATOM      5  C5  UNL d   1      -0.616   2.561  -2.996  0.00  0.00     0.033 A 
ATOM      6  C6  UNL d   1      -1.588   3.106  -3.840  0.00  0.00    -0.057 A 
ENDROOT
BRANCH   1   7
ATOM      7  N   UNL d   1      -2.708   3.274  -5.962  0.00  0.00    -0.732 N 
ATOM      8  C   UNL d   1      -3.506   4.367  -5.448  0.00  0.00     0.284 C 
ATOM      9  H3  UNL d   1      -2.346   3.429  -6.900  0.00  0.00     0.395 HD
ENDBRANCH   1   7
TORSDOF 1
ENDMDL
