MODEL 1
REMARK minimizedAffinity 9.71730042
REMARK minimizedRMSD -1
REMARK  1 active torsions:
REMARK  status: ('A' for Active; 'I' for Inactive)
REMARK    1  A    between atoms: N_2  and  C1_3 
ROOT
ATOM      1  C1  UNL d   1       1.108   4.693  -0.621  0.00  0.00     0.143 A 
ATOM      2  C2  UNL d   1      -0.243   4.692  -0.984  0.00  0.00    -0.057 A 
ATOM      3  C3  UNL d   1      -1.112   3.686  -0.544  0.00  0.00     0.033 A 
ATOM      4  C4  UNL d   1      -0.637   2.644   0.245  0.00  0.00    -0.042 A 
ATOM      5  C5  UNL d   1       0.707   2.611   0.597  0.00  0.00     0.033 A 
ATOM      6  C6  UNL d   1       1.569   3.622   0.161  0.00  0.00    -0.057 A 
ENDROOT
BRANCH   1   7
ATOM      7  N   UNL d   1       2.043   5.611  -1.106  0.00  0.00    -0.732 N 
ATOM      8  C   UNL d   1       2.069   5.965  -2.509  0.00  0.00     0.284 C 
ATOM      9  H3  UNL d   1       2.178   6.398  -0.476  0.00  0.00     0.395 HD
ENDBRANCH   1   7
TORSDOF 1
ENDMDL
