MODEL 1
REMARK minimizedAffinity 0.888849556
REMARK minimizedRMSD -1
REMARK  1 active torsions:
REMARK  status: ('A' for Active; 'I' for Inactive)
REMARK    1  A    between atoms: N_2  and  C1_3 
ROOT
ATOM      1  C1  UNL d   1       3.506  -1.394   2.364  0.00  0.00     0.143 A 
ATOM      2  C2  UNL d   1       3.765  -1.612   3.721  0.00  0.00    -0.057 A 
ATOM      3  C3  UNL d   1       4.828  -2.422   4.137  0.00  0.00     0.033 A 
ATOM      4  C4  UNL d   1       5.637  -3.054   3.198  0.00  0.00    -0.042 A 
ATOM      5  C5  UNL d   1       5.383  -2.872   1.843  0.00  0.00     0.033 A 
ATOM      6  C6  UNL d   1       4.324  -2.056   1.434  0.00  0.00    -0.057 A 
ENDROOT
BRANCH   1   7
ATOM      7  N   UNL d   1       2.405  -0.679   1.887  0.00  0.00    -0.732 N 
ATOM      8  C   UNL d   1       1.699  -1.116   0.701  0.00  0.00     0.284 C 
ATOM      9  H3  UNL d   1       1.797  -0.356   2.636  0.00  0.00     0.395 HD
ENDBRANCH   1   7
TORSDOF 1
ENDMDL
