MODEL 1
REMARK minimizedAffinity -4.57464123
REMARK minimizedRMSD -1
REMARK  0 active torsions:
REMARK  status: ('A' for Active; 'I' for Inactive)
ROOT
ATOM      1  N1  IND d   1      -1.643   1.985   4.668  0.00  0.00    -0.196 N 
ATOM      2  C2  IND d   1      -0.916   1.763   5.804  0.00  0.00     0.054 A 
ATOM      3  C3  IND d   1       0.091   0.895   5.557  0.00  0.00    -0.031 A 
ATOM      4  C4  IND d   1       0.792  -0.207   3.339  0.00  0.00     0.051 A 
ATOM      5  C5  IND d   1       0.410  -0.338   2.033  0.00  0.00    -0.031 A 
ATOM      6  C6  IND d   1      -0.696   0.314   1.528  0.00  0.00     0.015 A 
ATOM      7  C7  IND d   1      -1.459   1.133   2.311  0.00  0.00    -0.016 A 
ATOM      8  C8  IND d   1      -1.078   1.264   3.639  0.00  0.00    -0.047 A 
ATOM      9  C9  IND d   1       0.019   0.571   4.168  0.00  0.00    -0.096 A 
ATOM     10  HN1 IND d   1      -2.336   2.490   4.606  0.00  0.00     0.298 HD
ENDROOT
TORSDOF 0
ENDMDL
