MODEL 1
REMARK minimizedAffinity 11.0045948
REMARK minimizedRMSD -1
REMARK  0 active torsions:
REMARK  status: ('A' for Active; 'I' for Inactive)
ROOT
ATOM      1  N1  IND d   1      -3.626  -2.025   2.068  0.00  0.00    -0.196 N 
ATOM      2  C2  IND d   1      -3.220  -1.626   3.311  0.00  0.00     0.054 A 
ATOM      3  C3  IND d   1      -2.498  -0.487   3.227  0.00  0.00    -0.031 A 
ATOM      4  C4  IND d   1      -1.945   0.951   1.164  0.00  0.00     0.051 A 
ATOM      5  C5  IND d   1      -2.067   0.974  -0.197  0.00  0.00    -0.031 A 
ATOM      6  C6  IND d   1      -2.732  -0.020  -0.886  0.00  0.00     0.015 A 
ATOM      7  C7  IND d   1      -3.311  -1.073  -0.236  0.00  0.00    -0.016 A 
ATOM      8  C8  IND d   1      -3.182  -1.103   1.145  0.00  0.00    -0.047 A 
ATOM      9  C9  IND d   1      -2.472  -0.120   1.846  0.00  0.00    -0.096 A 
ATOM     10  HN1 IND d   1      -4.083  -2.732   1.892  0.00  0.00     0.298 HD
ENDROOT
TORSDOF 0
ENDMDL
