MODEL 1
REMARK minimizedAffinity 2.91769624
REMARK minimizedRMSD -1
REMARK  0 active torsions:
REMARK  status: ('A' for Active; 'I' for Inactive)
ROOT
ATOM      1  N1  IND d   1       1.280  -1.072   2.663  0.00  0.00    -0.196 N 
ATOM      2  C2  IND d   1       0.799  -1.434   3.890  0.00  0.00     0.054 A 
ATOM      3  C3  IND d   1      -0.510  -1.112   3.995  0.00  0.00    -0.031 A 
ATOM      4  C4  IND d   1      -2.086  -0.078   2.242  0.00  0.00     0.051 A 
ATOM      5  C5  IND d   1      -2.095   0.458   0.985  0.00  0.00    -0.031 A 
ATOM      6  C6  IND d   1      -0.957   0.510   0.206  0.00  0.00     0.015 A 
ATOM      7  C7  IND d   1       0.235   0.015   0.653  0.00  0.00    -0.016 A 
ATOM      8  C8  IND d   1       0.250  -0.524   1.932  0.00  0.00    -0.047 A 
ATOM      9  C9  IND d   1      -0.892  -0.540   2.743  0.00  0.00    -0.096 A 
ATOM     10  HN1 IND d   1       2.091  -1.171   2.393  0.00  0.00     0.298 HD
ENDROOT
TORSDOF 0
ENDMDL
