MODEL 1
REMARK minimizedAffinity -0.0370118506
REMARK minimizedRMSD -1
REMARK  0 active torsions:
REMARK  status: ('A' for Active; 'I' for Inactive)
ROOT
ATOM      1  N1  IND d   1      -2.958   0.391   1.101  0.00  0.00    -0.196 N 
ATOM      2  C2  IND d   1      -2.586   0.717  -0.174  0.00  0.00     0.054 A 
ATOM      3  C3  IND d   1      -1.247   0.597  -0.318  0.00  0.00    -0.031 A 
ATOM      4  C4  IND d   1       0.514  -0.214   1.376  0.00  0.00     0.051 A 
ATOM      5  C5  IND d   1       0.660  -0.588   2.682  0.00  0.00    -0.031 A 
ATOM      6  C6  IND d   1      -0.415  -0.659   3.545  0.00  0.00     0.015 A 
ATOM      7  C7  IND d   1      -1.683  -0.368   3.128  0.00  0.00    -0.016 A 
ATOM      8  C8  IND d   1      -1.834   0.019   1.804  0.00  0.00    -0.047 A 
ATOM      9  C9  IND d   1      -0.741   0.134   0.935  0.00  0.00    -0.096 A 
ATOM     10  HN1 IND d   1      -3.760   0.415   1.411  0.00  0.00     0.298 HD
ENDROOT
TORSDOF 0
ENDMDL
