MODEL 1
REMARK minimizedAffinity 5.6782589
REMARK minimizedRMSD -1
REMARK  0 active torsions:
REMARK  status: ('A' for Active; 'I' for Inactive)
ROOT
ATOM      1  N1  IND d   1       1.096  -0.980   2.846  0.00  0.00    -0.196 N 
ATOM      2  C2  IND d   1       0.781  -1.191   4.160  0.00  0.00     0.054 A 
ATOM      3  C3  IND d   1      -0.517  -0.889   4.386  0.00  0.00    -0.031 A 
ATOM      4  C4  IND d   1      -2.333  -0.129   2.727  0.00  0.00     0.051 A 
ATOM      5  C5  IND d   1      -2.515   0.238   1.424  0.00  0.00    -0.031 A 
ATOM      6  C6  IND d   1      -1.483   0.214   0.508  0.00  0.00     0.015 A 
ATOM      7  C7  IND d   1      -0.226  -0.189   0.862  0.00  0.00    -0.016 A 
ATOM      8  C8  IND d   1      -0.036  -0.556   2.187  0.00  0.00    -0.047 A 
ATOM      9  C9  IND d   1      -1.070  -0.494   3.130  0.00  0.00    -0.096 A 
ATOM     10  HN1 IND d   1       1.872  -1.094   2.492  0.00  0.00     0.298 HD
ENDROOT
TORSDOF 0
ENDMDL
