MODEL 1
REMARK minimizedAffinity 1.66532457
REMARK minimizedRMSD -1
REMARK  0 active torsions:
REMARK  status: ('A' for Active; 'I' for Inactive)
ROOT
ATOM      1  N1  IND d   1      -3.403  -0.845   2.550  0.00  0.00    -0.196 N 
ATOM      2  C2  IND d   1      -3.455  -1.479   3.761  0.00  0.00     0.054 A 
ATOM      3  C3  IND d   1      -2.210  -1.627   4.268  0.00  0.00    -0.031 A 
ATOM      4  C4  IND d   1       0.045  -0.814   3.329  0.00  0.00     0.051 A 
ATOM      5  C5  IND d   1       0.604  -0.218   2.234  0.00  0.00    -0.031 A 
ATOM      6  C6  IND d   1      -0.160   0.210   1.168  0.00  0.00     0.015 A 
ATOM      7  C7  IND d   1      -1.518   0.068   1.162  0.00  0.00    -0.016 A 
ATOM      8  C8  IND d   1      -2.089  -0.543   2.270  0.00  0.00    -0.047 A 
ATOM      9  C9  IND d   1      -1.314  -1.018   3.336  0.00  0.00    -0.096 A 
ATOM     10  HN1 IND d   1      -4.078  -0.666   2.049  0.00  0.00     0.298 HD
ENDROOT
TORSDOF 0
ENDMDL
