MODEL 1
REMARK minimizedAffinity 10.0878973
REMARK minimizedRMSD -1
REMARK  0 active torsions:
REMARK  status: ('A' for Active; 'I' for Inactive)
ROOT
ATOM      1  N1  IND d   1       0.964  -0.779   2.397  0.00  0.00    -0.196 N 
ATOM      2  C2  IND d   1       1.024  -1.526   3.540  0.00  0.00     0.054 A 
ATOM      3  C3  IND d   1      -0.203  -1.628   4.101  0.00  0.00    -0.031 A 
ATOM      4  C4  IND d   1      -2.465  -0.734   3.258  0.00  0.00     0.051 A 
ATOM      5  C5  IND d   1      -3.020   0.039   2.278  0.00  0.00    -0.031 A 
ATOM      6  C6  IND d   1      -2.261   0.589   1.265  0.00  0.00     0.015 A 
ATOM      7  C7  IND d   1      -0.914   0.375   1.188  0.00  0.00    -0.016 A 
ATOM      8  C8  IND d   1      -0.346  -0.405   2.186  0.00  0.00    -0.047 A 
ATOM      9  C9  IND d   1      -1.104  -0.930   3.240  0.00  0.00    -0.096 A 
ATOM     10  HN1 IND d   1       1.631  -0.576   1.895  0.00  0.00     0.298 HD
ENDROOT
TORSDOF 0
ENDMDL
