MODEL 1
REMARK minimizedAffinity 2.87445951
REMARK minimizedRMSD -1
REMARK  0 active torsions:
REMARK  status: ('A' for Active; 'I' for Inactive)
ROOT
ATOM      1  N1  IND d   1       0.942  -1.634   3.195  0.00  0.00    -0.196 N 
ATOM      2  C2  IND d   1       0.399  -1.575   4.449  0.00  0.00     0.054 A 
ATOM      3  C3  IND d   1      -0.811  -0.974   4.409  0.00  0.00    -0.031 A 
ATOM      4  C4  IND d   1      -2.138  -0.101   2.384  0.00  0.00     0.051 A 
ATOM      5  C5  IND d   1      -2.039   0.099   1.035  0.00  0.00    -0.031 A 
ATOM      6  C6  IND d   1      -0.919  -0.279   0.323  0.00  0.00     0.015 A 
ATOM      7  C7  IND d   1       0.143  -0.884   0.934  0.00  0.00    -0.016 A 
ATOM      8  C8  IND d   1       0.049  -1.082   2.304  0.00  0.00    -0.047 A 
ATOM      9  C9  IND d   1      -1.068  -0.662   3.039  0.00  0.00    -0.096 A 
ATOM     10  HN1 IND d   1       1.712  -1.961   2.997  0.00  0.00     0.298 HD
ENDROOT
TORSDOF 0
ENDMDL
