MODEL 1
REMARK minimizedAffinity 2.65948462
REMARK minimizedRMSD -1
REMARK  0 active torsions:
REMARK  status: ('A' for Active; 'I' for Inactive)
ROOT
ATOM      1  N1  IND d   1       4.890   2.528   3.877  0.00  0.00    -0.196 N 
ATOM      2  C2  IND d   1       5.632   3.022   4.914  0.00  0.00     0.054 A 
ATOM      3  C3  IND d   1       5.612   4.373   4.905  0.00  0.00    -0.031 A 
ATOM      4  C4  IND d   1       4.343   5.980   3.343  0.00  0.00     0.051 A 
ATOM      5  C5  IND d   1       3.562   6.000   2.222  0.00  0.00    -0.031 A 
ATOM      6  C6  IND d   1       3.174   4.839   1.584  0.00  0.00     0.015 A 
ATOM      7  C7  IND d   1       3.544   3.611   2.052  0.00  0.00    -0.016 A 
ATOM      8  C8  IND d   1       4.343   3.587   3.186  0.00  0.00    -0.047 A 
ATOM      9  C9  IND d   1       4.776   4.762   3.814  0.00  0.00    -0.096 A 
ATOM     10  HN1 IND d   1       4.783   1.696   3.688  0.00  0.00     0.298 HD
ENDROOT
TORSDOF 0
ENDMDL
