MODEL 1
REMARK minimizedAffinity 0.161777213
REMARK minimizedRMSD -1
REMARK  0 active torsions:
REMARK  status: ('A' for Active; 'I' for Inactive)
ROOT
ATOM      1  N1  IND d   1      -3.381  -0.802   2.672  0.00  0.00    -0.196 N 
ATOM      2  C2  IND d   1      -3.783  -1.520   3.763  0.00  0.00     0.054 A 
ATOM      3  C3  IND d   1      -2.710  -1.938   4.472  0.00  0.00    -0.031 A 
ATOM      4  C4  IND d   1      -0.208  -1.473   4.081  0.00  0.00     0.051 A 
ATOM      5  C5  IND d   1       0.653  -0.895   3.192  0.00  0.00    -0.031 A 
ATOM      6  C6  IND d   1       0.205  -0.240   2.063  0.00  0.00     0.015 A 
ATOM      7  C7  IND d   1      -1.128  -0.129   1.785  0.00  0.00    -0.016 A 
ATOM      8  C8  IND d   1      -2.005  -0.721   2.682  0.00  0.00    -0.047 A 
ATOM      9  C9  IND d   1      -1.555  -1.424   3.807  0.00  0.00    -0.096 A 
ATOM     10  HN1 IND d   1      -3.900  -0.458   2.079  0.00  0.00     0.298 HD
ENDROOT
TORSDOF 0
ENDMDL
