MODEL 1
REMARK minimizedAffinity 8.80484104
REMARK minimizedRMSD -1
REMARK  0 active torsions:
REMARK  status: ('A' for Active; 'I' for Inactive)
ROOT
ATOM      1  N1  IND d   1      -1.882  -2.901   5.753  0.00  0.00    -0.196 N 
ATOM      2  C2  IND d   1      -0.568  -2.618   6.000  0.00  0.00     0.054 A 
ATOM      3  C3  IND d   1      -0.169  -1.556   5.265  0.00  0.00    -0.031 A 
ATOM      4  C4  IND d   1      -1.532  -0.067   3.668  0.00  0.00     0.051 A 
ATOM      5  C5  IND d   1      -2.766   0.046   3.091  0.00  0.00    -0.031 A 
ATOM      6  C6  IND d   1      -3.790  -0.833   3.380  0.00  0.00     0.015 A 
ATOM      7  C7  IND d   1      -3.620  -1.856   4.269  0.00  0.00    -0.016 A 
ATOM      8  C8  IND d   1      -2.367  -1.979   4.851  0.00  0.00    -0.047 A 
ATOM      9  C9  IND d   1      -1.312  -1.116   4.530  0.00  0.00    -0.096 A 
ATOM     10  HN1 IND d   1      -2.331  -3.546   6.101  0.00  0.00     0.298 HD
ENDROOT
TORSDOF 0
ENDMDL
