MODEL 1
REMARK minimizedAffinity -2.90645981
REMARK minimizedRMSD -1
REMARK  1 active torsions:
REMARK  status: ('A' for Active; 'I' for Inactive)
REMARK    1  A    between atoms: C3_4  and  O_7 
ROOT
ATOM      1  C   UNL d   1       6.000   2.595   4.454  0.00  0.00    -0.033 A 
ATOM      2  C1  UNL d   1       5.858   2.105   5.754  0.00  0.00     0.039 A 
ATOM      3  C2  UNL d   1       5.711   0.734   5.973  0.00  0.00    -0.080 A 
ATOM      4  C3  UNL d   1       5.708  -0.135   4.886  0.00  0.00     0.150 A 
ATOM      5  C4  UNL d   1       5.853   0.345   3.589  0.00  0.00    -0.007 A 
ATOM      6  C5  UNL d   1       5.999   1.715   3.371  0.00  0.00     0.039 A 
ENDROOT
BRANCH   4   7
ATOM      7  O   UNL d   1       5.563  -1.481   5.050  0.00  0.00    -0.526 OA
ATOM      8  H5  UNL d   1       5.444  -1.664   5.997  0.00  0.00     0.418 HD
ENDBRANCH   4   7
TORSDOF 1
ENDMDL
