MODEL 1
REMARK minimizedAffinity -3.56366396
REMARK minimizedRMSD -1
REMARK  1 active torsions:
REMARK  status: ('A' for Active; 'I' for Inactive)
REMARK    1  A    between atoms: C3_4  and  O_7 
ROOT
ATOM      1  C   UNL d   1       5.463   1.982   3.619  0.00  0.00    -0.033 A 
ATOM      2  C1  UNL d   1       6.000   0.802   3.100  0.00  0.00     0.039 A 
ATOM      3  C2  UNL d   1       5.949  -0.377   3.846  0.00  0.00    -0.080 A 
ATOM      4  C3  UNL d   1       5.359  -0.363   5.107  0.00  0.00     0.150 A 
ATOM      5  C4  UNL d   1       4.819   0.808   5.628  0.00  0.00    -0.007 A 
ATOM      6  C5  UNL d   1       4.872   1.985   4.882  0.00  0.00     0.039 A 
ENDROOT
BRANCH   4   7
ATOM      7  O   UNL d   1       5.291  -1.488   5.874  0.00  0.00    -0.526 OA
ATOM      8  H5  UNL d   1       5.729  -2.212   5.397  0.00  0.00     0.418 HD
ENDBRANCH   4   7
TORSDOF 1
ENDMDL
