MODEL 1
REMARK minimizedAffinity -3.41021681
REMARK minimizedRMSD -1
REMARK  1 active torsions:
REMARK  status: ('A' for Active; 'I' for Inactive)
REMARK    1  A    between atoms: C3_4  and  O_7 
ROOT
ATOM      1  C   UNL d   1       5.895   2.620   4.794  0.00  0.00    -0.033 A 
ATOM      2  C1  UNL d   1       6.000   1.936   3.582  0.00  0.00     0.039 A 
ATOM      3  C2  UNL d   1       6.000   0.540   3.564  0.00  0.00    -0.080 A 
ATOM      4  C3  UNL d   1       5.894  -0.159   4.763  0.00  0.00     0.150 A 
ATOM      5  C4  UNL d   1       5.785   0.517   5.974  0.00  0.00    -0.007 A 
ATOM      6  C5  UNL d   1       5.786   1.911   5.990  0.00  0.00     0.039 A 
ENDROOT
BRANCH   4   7
ATOM      7  O   UNL d   1       5.894  -1.522   4.797  0.00  0.00    -0.526 OA
ATOM      8  H5  UNL d   1       6.004  -1.852   3.889  0.00  0.00     0.418 HD
ENDBRANCH   4   7
TORSDOF 1
ENDMDL
