MODEL 1
REMARK minimizedAffinity -2.62350774
REMARK minimizedRMSD -1
REMARK  1 active torsions:
REMARK  status: ('A' for Active; 'I' for Inactive)
REMARK    1  A    between atoms: C3_4  and  O_7 
ROOT
ATOM      1  C   UNL d   1       6.000   2.621   4.914  0.00  0.00    -0.033 A 
ATOM      2  C1  UNL d   1       6.000   2.967   3.561  0.00  0.00     0.039 A 
ATOM      3  C2  UNL d   1       5.989   1.970   2.584  0.00  0.00    -0.080 A 
ATOM      4  C3  UNL d   1       5.977   0.633   2.972  0.00  0.00     0.150 A 
ATOM      5  C4  UNL d   1       5.973   0.281   4.318  0.00  0.00    -0.007 A 
ATOM      6  C5  UNL d   1       5.985   1.278   5.292  0.00  0.00     0.039 A 
ENDROOT
BRANCH   4   7
ATOM      7  O   UNL d   1       5.970  -0.375   2.054  0.00  0.00    -0.526 OA
ATOM      8  H5  UNL d   1       6.003   0.017   1.166  0.00  0.00     0.418 HD
ENDBRANCH   4   7
TORSDOF 1
ENDMDL
