MODEL 1
REMARK minimizedAffinity -1.50577116
REMARK minimizedRMSD -1
REMARK  1 active torsions:
REMARK  status: ('A' for Active; 'I' for Inactive)
REMARK    1  A    between atoms: C3_4  and  O_7 
ROOT
ATOM      1  C   UNL d   1       6.000   2.411   3.027  0.00  0.00    -0.033 A 
ATOM      2  C1  UNL d   1       5.999   2.441   4.423  0.00  0.00     0.039 A 
ATOM      3  C2  UNL d   1       5.995   1.248   5.149  0.00  0.00    -0.080 A 
ATOM      4  C3  UNL d   1       5.993   0.034   4.467  0.00  0.00     0.150 A 
ATOM      5  C4  UNL d   1       5.997  -0.003   3.077  0.00  0.00    -0.007 A 
ATOM      6  C5  UNL d   1       6.000   1.189   2.354  0.00  0.00     0.039 A 
ENDROOT
BRANCH   4   7
ATOM      7  O   UNL d   1       5.984  -1.156   5.132  0.00  0.00    -0.526 OA
ATOM      8  H5  UNL d   1       5.953  -0.975   6.086  0.00  0.00     0.418 HD
ENDBRANCH   4   7
TORSDOF 1
ENDMDL
