MODEL 1
REMARK minimizedAffinity 3.10593295
REMARK minimizedRMSD -1
REMARK  1 active torsions:
REMARK  status: ('A' for Active; 'I' for Inactive)
REMARK    1  A    between atoms: C3_4  and  O_7 
ROOT
ATOM      1  C   UNL d   1       5.986   1.740   2.777  0.00  0.00    -0.033 A 
ATOM      2  C1  UNL d   1       5.997   3.043   2.277  0.00  0.00     0.039 A 
ATOM      3  C2  UNL d   1       6.000   4.129   3.154  0.00  0.00    -0.080 A 
ATOM      4  C3  UNL d   1       5.992   3.899   4.527  0.00  0.00     0.150 A 
ATOM      5  C4  UNL d   1       5.984   2.603   5.032  0.00  0.00    -0.007 A 
ATOM      6  C5  UNL d   1       5.981   1.519   4.154  0.00  0.00     0.039 A 
ENDROOT
BRANCH   4   7
ATOM      7  O   UNL d   1       5.989   4.927   5.422  0.00  0.00    -0.526 OA
ATOM      8  H5  UNL d   1       5.966   5.764   4.929  0.00  0.00     0.418 HD
ENDBRANCH   4   7
TORSDOF 1
ENDMDL
