MODEL 1
REMARK minimizedAffinity -2.33924341
REMARK minimizedRMSD -1
REMARK  1 active torsions:
REMARK  status: ('A' for Active; 'I' for Inactive)
REMARK    1  A    between atoms: C3_4  and  O_7 
ROOT
ATOM      1  C   UNL d   1       5.818   1.495   4.707  0.00  0.00    -0.033 A 
ATOM      2  C1  UNL d   1       5.938   0.751   3.531  0.00  0.00     0.039 A 
ATOM      3  C2  UNL d   1       5.999  -0.643   3.588  0.00  0.00    -0.080 A 
ATOM      4  C3  UNL d   1       5.939  -1.279   4.825  0.00  0.00     0.150 A 
ATOM      5  C4  UNL d   1       5.816  -0.545   5.999  0.00  0.00    -0.007 A 
ATOM      6  C5  UNL d   1       5.756   0.847   5.941  0.00  0.00     0.039 A 
ENDROOT
BRANCH   4   7
ATOM      7  O   UNL d   1       6.000  -2.637   4.931  0.00  0.00    -0.526 OA
ATOM      8  H5  UNL d   1       6.113  -3.011   4.041  0.00  0.00     0.418 HD
ENDBRANCH   4   7
TORSDOF 1
ENDMDL
