MODEL 1
REMARK minimizedAffinity -0.167778343
REMARK minimizedRMSD -1
REMARK  1 active torsions:
REMARK  status: ('A' for Active; 'I' for Inactive)
REMARK    1  A    between atoms: C3_4  and  O_7 
ROOT
ATOM      1  C   UNL d   1       5.973   0.869   4.148  0.00  0.00    -0.033 A 
ATOM      2  C1  UNL d   1       5.973  -0.088   3.132  0.00  0.00     0.039 A 
ATOM      3  C2  UNL d   1       5.974  -1.447   3.451  0.00  0.00    -0.080 A 
ATOM      4  C3  UNL d   1       5.973  -1.836   4.787  0.00  0.00     0.150 A 
ATOM      5  C4  UNL d   1       5.970  -0.887   5.805  0.00  0.00    -0.007 A 
ATOM      6  C5  UNL d   1       5.970   0.470   5.485  0.00  0.00     0.039 A 
ENDROOT
BRANCH   4   7
ATOM      7  O   UNL d   1       5.979  -3.150   5.147  0.00  0.00    -0.526 OA
ATOM      8  H5  UNL d   1       6.010  -3.690   4.340  0.00  0.00     0.418 HD
ENDBRANCH   4   7
TORSDOF 1
ENDMDL
