MODEL 1
REMARK minimizedAffinity -3.30760932
REMARK minimizedRMSD -1
REMARK  1 active torsions:
REMARK  status: ('A' for Active; 'I' for Inactive)
REMARK    1  A    between atoms: C3_4  and  O_7 
ROOT
ATOM      1  C   UNL d   1       5.626   2.278   4.026  0.00  0.00    -0.033 A 
ATOM      2  C1  UNL d   1       5.999   1.368   3.035  0.00  0.00     0.039 A 
ATOM      3  C2  UNL d   1       6.000  -0.001   3.308  0.00  0.00    -0.080 A 
ATOM      4  C3  UNL d   1       5.625  -0.447   4.572  0.00  0.00     0.150 A 
ATOM      5  C4  UNL d   1       5.249   0.454   5.563  0.00  0.00    -0.007 A 
ATOM      6  C5  UNL d   1       5.249   1.821   5.290  0.00  0.00     0.039 A 
ENDROOT
BRANCH   4   7
ATOM      7  O   UNL d   1       5.615  -1.774   4.886  0.00  0.00    -0.526 OA
ATOM      8  H5  UNL d   1       5.926  -2.275   4.114  0.00  0.00     0.418 HD
ENDBRANCH   4   7
TORSDOF 1
ENDMDL
