MODEL 1
REMARK minimizedAffinity -2.91727734
REMARK minimizedRMSD -1
REMARK  1 active torsions:
REMARK  status: ('A' for Active; 'I' for Inactive)
REMARK    1  A    between atoms: C3_4  and  O_7 
ROOT
ATOM      1  C   UNL d   1       5.256   0.247   4.854  0.00  0.00    -0.033 A 
ATOM      2  C1  UNL d   1       5.812   0.866   5.975  0.00  0.00     0.039 A 
ATOM      3  C2  UNL d   1       6.000   2.250   5.989  0.00  0.00    -0.080 A 
ATOM      4  C3  UNL d   1       5.627   3.001   4.879  0.00  0.00     0.150 A 
ATOM      5  C4  UNL d   1       5.069   2.391   3.760  0.00  0.00    -0.007 A 
ATOM      6  C5  UNL d   1       4.882   1.010   3.747  0.00  0.00     0.039 A 
ENDROOT
BRANCH   4   7
ATOM      7  O   UNL d   1       5.796   4.354   4.844  0.00  0.00    -0.526 OA
ATOM      8  H5  UNL d   1       6.218   4.632   5.674  0.00  0.00     0.418 HD
ENDBRANCH   4   7
TORSDOF 1
ENDMDL
