MODEL 1
REMARK minimizedAffinity -0.175961748
REMARK minimizedRMSD -1
REMARK  1 active torsions:
REMARK  status: ('A' for Active; 'I' for Inactive)
REMARK    1  A    between atoms: C3_4  and  O_7 
ROOT
ATOM      1  C   UNL d   1       6.000   2.241   4.262  0.00  0.00    -0.033 A 
ATOM      2  C1  UNL d   1       5.997   1.379   3.163  0.00  0.00     0.039 A 
ATOM      3  C2  UNL d   1       5.996  -0.004   3.359  0.00  0.00    -0.080 A 
ATOM      4  C3  UNL d   1       5.996  -0.510   4.656  0.00  0.00     0.150 A 
ATOM      5  C4  UNL d   1       5.994   0.343   5.754  0.00  0.00    -0.007 A 
ATOM      6  C5  UNL d   1       5.997   1.723   5.557  0.00  0.00     0.039 A 
ENDROOT
BRANCH   4   7
ATOM      7  O   UNL d   1       5.999  -1.852   4.897  0.00  0.00    -0.526 OA
ATOM      8  H5  UNL d   1       6.029  -2.318   4.044  0.00  0.00     0.418 HD
ENDBRANCH   4   7
TORSDOF 1
ENDMDL
