MODEL 1
REMARK minimizedAffinity -1.46611118
REMARK minimizedRMSD -1
REMARK  1 active torsions:
REMARK  status: ('A' for Active; 'I' for Inactive)
REMARK    1  A    between atoms: C3_4  and  O_7 
ROOT
ATOM      1  C   UNL d   1       5.983   1.720   4.639  0.00  0.00    -0.033 A 
ATOM      2  C1  UNL d   1       5.984   0.943   3.479  0.00  0.00     0.039 A 
ATOM      3  C2  UNL d   1       5.982  -0.450   3.570  0.00  0.00    -0.080 A 
ATOM      4  C3  UNL d   1       5.978  -1.053   4.824  0.00  0.00     0.150 A 
ATOM      5  C4  UNL d   1       5.973  -0.285   5.984  0.00  0.00    -0.007 A 
ATOM      6  C5  UNL d   1       5.976   1.106   5.891  0.00  0.00     0.039 A 
ENDROOT
BRANCH   4   7
ATOM      7  O   UNL d   1       5.980  -2.409   4.963  0.00  0.00    -0.526 OA
ATOM      8  H5  UNL d   1       6.013  -2.809   4.078  0.00  0.00     0.418 HD
ENDBRANCH   4   7
TORSDOF 1
ENDMDL
