MODEL 1
REMARK minimizedAffinity -2.0866859
REMARK minimizedRMSD -1
REMARK  1 active torsions:
REMARK  status: ('A' for Active; 'I' for Inactive)
REMARK    1  A    between atoms: C3_4  and  O_7 
ROOT
ATOM      1  C   UNL d   1       5.915   1.415   3.864  0.00  0.00    -0.033 A 
ATOM      2  C1  UNL d   1       5.822   1.014   5.198  0.00  0.00     0.039 A 
ATOM      3  C2  UNL d   1       5.807  -0.344   5.522  0.00  0.00    -0.080 A 
ATOM      4  C3  UNL d   1       5.888  -1.290   4.503  0.00  0.00     0.150 A 
ATOM      5  C4  UNL d   1       5.985  -0.898   3.172  0.00  0.00    -0.007 A 
ATOM      6  C5  UNL d   1       5.999   0.459   2.851  0.00  0.00     0.039 A 
ENDROOT
BRANCH   4   7
ATOM      7  O   UNL d   1       5.872  -2.627   4.769  0.00  0.00    -0.526 OA
ATOM      8  H5  UNL d   1       5.772  -2.749   5.728  0.00  0.00     0.418 HD
ENDBRANCH   4   7
TORSDOF 1
ENDMDL
