MODEL 1
REMARK minimizedAffinity 2.11072564
REMARK minimizedRMSD -1
REMARK  0 active torsions:
REMARK  status: ('A' for Active; 'I' for Inactive)
ROOT
ATOM      1  C1  DEN d   1       2.751   3.762   2.228  0.00  0.00     0.130 A 
ATOM      2  C2  DEN d   1       3.640   4.920   2.271  0.00  0.00    -0.031 A 
ATOM      3  C3  DEN d   1       3.028   5.995   1.465  0.00  0.00     0.027 A 
ATOM      4  C4  DEN d   1       0.800   5.981   0.165  0.00  0.00     0.027 A 
ATOM      5  C5  DEN d   1      -0.296   5.219  -0.177  0.00  0.00    -0.003 A 
ATOM      6  C6  DEN d   1      -0.435   3.918   0.228  0.00  0.00     0.001 A 
ATOM      7  C7  DEN d   1       0.516   3.353   1.036  0.00  0.00     0.017 A 
ATOM      8  C8  DEN d   1       1.627   4.112   1.378  0.00  0.00    -0.094 A 
ATOM      9  C9  DEN d   1       1.743   5.430   0.970  0.00  0.00    -0.072 A 
ENDROOT
TORSDOF 0
ENDMDL
