MODEL 1
REMARK minimizedAffinity 17.375721
REMARK minimizedRMSD -1
REMARK  0 active torsions:
REMARK  status: ('A' for Active; 'I' for Inactive)
ROOT
ATOM      1  C1  DEN d   1      -2.905   5.739  -2.961  0.00  0.00     0.130 A 
ATOM      2  C2  DEN d   1      -3.335   5.476  -1.590  0.00  0.00    -0.031 A 
ATOM      3  C3  DEN d   1      -2.128   5.380  -0.744  0.00  0.00     0.027 A 
ATOM      4  C4  DEN d   1       0.350   5.619  -1.417  0.00  0.00     0.027 A 
ATOM      5  C5  DEN d   1       1.211   5.835  -2.470  0.00  0.00    -0.003 A 
ATOM      6  C6  DEN d   1       0.766   5.999  -3.755  0.00  0.00     0.001 A 
ATOM      7  C7  DEN d   1      -0.579   5.994  -4.014  0.00  0.00     0.017 A 
ATOM      8  C8  DEN d   1      -1.453   5.770  -2.958  0.00  0.00    -0.094 A 
ATOM      9  C9  DEN d   1      -0.985   5.619  -1.664  0.00  0.00    -0.072 A 
ENDROOT
TORSDOF 0
ENDMDL
