MODEL 1
REMARK minimizedAffinity 10.5871725
REMARK minimizedRMSD -1
REMARK  0 active torsions:
REMARK  status: ('A' for Active; 'I' for Inactive)
ROOT
ATOM      1  C1  DEN d   1       2.627   5.999   1.081  0.00  0.00     0.130 A 
ATOM      2  C2  DEN d   1       3.286   5.375   2.226  0.00  0.00    -0.031 A 
ATOM      3  C3  DEN d   1       2.633   4.074   2.474  0.00  0.00     0.027 A 
ATOM      4  C4  DEN d   1       0.680   2.969   1.202  0.00  0.00     0.027 A 
ATOM      5  C5  DEN d   1      -0.214   3.122   0.166  0.00  0.00    -0.003 A 
ATOM      6  C6  DEN d   1      -0.246   4.251  -0.610  0.00  0.00     0.001 A 
ATOM      7  C7  DEN d   1       0.663   5.252  -0.390  0.00  0.00     0.017 A 
ATOM      8  C8  DEN d   1       1.563   5.108   0.658  0.00  0.00    -0.094 A 
ATOM      9  C9  DEN d   1       1.587   3.954   1.423  0.00  0.00    -0.072 A 
ENDROOT
TORSDOF 0
ENDMDL
