MODEL 1
REMARK minimizedAffinity 18.5728493
REMARK minimizedRMSD -1
REMARK  0 active torsions:
REMARK  status: ('A' for Active; 'I' for Inactive)
ROOT
ATOM      1  C1  DEN d   1       2.506   1.741   4.874  0.00  0.00     0.130 A 
ATOM      2  C2  DEN d   1       3.801   1.787   4.201  0.00  0.00    -0.031 A 
ATOM      3  C3  DEN d   1       4.034   0.473   3.569  0.00  0.00     0.027 A 
ATOM      4  C4  DEN d   1       2.520  -1.615   3.562  0.00  0.00     0.027 A 
ATOM      5  C5  DEN d   1       1.327  -2.138   4.009  0.00  0.00    -0.003 A 
ATOM      6  C6  DEN d   1       0.465  -1.422   4.798  0.00  0.00     0.001 A 
ATOM      7  C7  DEN d   1       0.764  -0.126   5.126  0.00  0.00     0.017 A 
ATOM      8  C8  DEN d   1       1.969   0.405   4.685  0.00  0.00    -0.094 A 
ATOM      9  C9  DEN d   1       2.821  -0.331   3.879  0.00  0.00    -0.072 A 
ENDROOT
TORSDOF 0
ENDMDL
