MODEL 1
REMARK minimizedAffinity 0.154694796
REMARK minimizedRMSD -1
REMARK  1 active torsions:
REMARK  status: ('A' for Active; 'I' for Inactive)
REMARK    1  A    between atoms: C3_4  and  O_7 
ROOT
ATOM      1  C   UNL d   1      -3.848   5.998   2.412  0.00  0.00    -0.033 A 
ATOM      2  C1  UNL d   1      -3.155   5.995   3.624  0.00  0.00     0.039 A 
ATOM      3  C2  UNL d   1      -3.857   5.994   4.831  0.00  0.00    -0.080 A 
ATOM      4  C3  UNL d   1      -5.249   5.995   4.812  0.00  0.00     0.150 A 
ATOM      5  C4  UNL d   1      -5.946   5.993   3.608  0.00  0.00    -0.007 A 
ATOM      6  C5  UNL d   1      -5.243   5.995   2.404  0.00  0.00     0.039 A 
ENDROOT
BRANCH   4   7
ATOM      7  O   UNL d   1      -5.978   5.998   5.964  0.00  0.00    -0.526 OA
ATOM      8  H5  UNL d   1      -5.363   6.028   6.717  0.00  0.00     0.418 HD
ENDBRANCH   4   7
TORSDOF 1
ENDMDL
