MODEL 1
REMARK minimizedAffinity 5.69429874
REMARK minimizedRMSD -1
REMARK  1 active torsions:
REMARK  status: ('A' for Active; 'I' for Inactive)
REMARK    1  A    between atoms: C3_4  and  O_7 
ROOT
ATOM      1  C   UNL d   1      -5.996   5.408   5.037  0.00  0.00    -0.033 A 
ATOM      2  C1  UNL d   1      -4.994   5.592   5.992  0.00  0.00     0.039 A 
ATOM      3  C2  UNL d   1      -3.672   5.793   5.590  0.00  0.00    -0.080 A 
ATOM      4  C3  UNL d   1      -3.366   5.809   4.232  0.00  0.00     0.150 A 
ATOM      5  C4  UNL d   1      -4.360   5.631   3.275  0.00  0.00    -0.007 A 
ATOM      6  C5  UNL d   1      -5.679   5.430   3.679  0.00  0.00     0.039 A 
ENDROOT
BRANCH   4   7
ATOM      7  O   UNL d   1      -2.090   5.997   3.791  0.00  0.00    -0.526 OA
ATOM      8  H5  UNL d   1      -1.506   6.078   4.564  0.00  0.00     0.418 HD
ENDBRANCH   4   7
TORSDOF 1
ENDMDL
