MODEL 1
REMARK minimizedAffinity -0.04753571
REMARK minimizedRMSD -1
REMARK  1 active torsions:
REMARK  status: ('A' for Active; 'I' for Inactive)
REMARK    1  A    between atoms: C3_4  and  O_7 
ROOT
ATOM      1  C   UNL d   1      -5.975   5.851   5.020  0.00  0.00    -0.033 A 
ATOM      2  C1  UNL d   1      -5.623   5.794   3.670  0.00  0.00     0.039 A 
ATOM      3  C2  UNL d   1      -4.278   5.832   3.296  0.00  0.00    -0.080 A 
ATOM      4  C3  UNL d   1      -3.297   5.926   4.279  0.00  0.00     0.150 A 
ATOM      5  C4  UNL d   1      -3.641   5.979   5.626  0.00  0.00    -0.007 A 
ATOM      6  C5  UNL d   1      -4.985   5.943   5.998  0.00  0.00     0.039 A 
ENDROOT
BRANCH   4   7
ATOM      7  O   UNL d   1      -1.972   5.971   3.962  0.00  0.00    -0.526 OA
ATOM      8  H5  UNL d   1      -1.887   5.954   2.995  0.00  0.00     0.418 HD
ENDBRANCH   4   7
TORSDOF 1
ENDMDL
