MODEL 1
REMARK minimizedAffinity -3.56074286
REMARK minimizedRMSD -1
REMARK  1 active torsions:
REMARK  status: ('A' for Active; 'I' for Inactive)
REMARK    1  A    between atoms: C3_4  and  O_7 
ROOT
ATOM      1  C   UNL d   1      -5.043   5.809   2.096  0.00  0.00    -0.033 A 
ATOM      2  C1  UNL d   1      -5.886   5.723   3.206  0.00  0.00     0.039 A 
ATOM      3  C2  UNL d   1      -5.353   5.773   4.495  0.00  0.00    -0.080 A 
ATOM      4  C3  UNL d   1      -3.978   5.910   4.661  0.00  0.00     0.150 A 
ATOM      5  C4  UNL d   1      -3.133   6.000   3.560  0.00  0.00    -0.007 A 
ATOM      6  C5  UNL d   1      -3.667   5.949   2.273  0.00  0.00     0.039 A 
ENDROOT
BRANCH   4   7
ATOM      7  O   UNL d   1      -3.411   5.958   5.900  0.00  0.00    -0.526 OA
ATOM      8  H5  UNL d   1      -4.113   5.856   6.564  0.00  0.00     0.418 HD
ENDBRANCH   4   7
TORSDOF 1
ENDMDL
