MODEL 1
REMARK minimizedAffinity -1.88399553
REMARK minimizedRMSD -1
REMARK  1 active torsions:
REMARK  status: ('A' for Active; 'I' for Inactive)
REMARK    1  A    between atoms: C3_4  and  O_7 
ROOT
ATOM      1  C   UNL d   1      -5.085   5.360   5.171  0.00  0.00    -0.033 A 
ATOM      2  C1  UNL d   1      -3.916   5.959   4.698  0.00  0.00     0.039 A 
ATOM      3  C2  UNL d   1      -3.655   6.000   3.327  0.00  0.00    -0.080 A 
ATOM      4  C3  UNL d   1      -4.572   5.441   2.440  0.00  0.00     0.150 A 
ATOM      5  C4  UNL d   1      -5.741   4.847   2.904  0.00  0.00    -0.007 A 
ATOM      6  C5  UNL d   1      -5.999   4.806   4.274  0.00  0.00     0.039 A 
ENDROOT
BRANCH   4   7
ATOM      7  O   UNL d   1      -4.359   5.453   1.094  0.00  0.00    -0.526 OA
ATOM      8  H5  UNL d   1      -3.498   5.870   0.922  0.00  0.00     0.418 HD
ENDBRANCH   4   7
TORSDOF 1
ENDMDL
