MODEL 1
REMARK minimizedAffinity -3.8442719
REMARK minimizedRMSD -1
REMARK  1 active torsions:
REMARK  status: ('A' for Active; 'I' for Inactive)
REMARK    1  A    between atoms: C3_4  and  O_7 
ROOT
ATOM      1  C   UNL d   1      -4.988   5.634   2.101  0.00  0.00    -0.033 A 
ATOM      2  C1  UNL d   1      -5.841   5.294   3.153  0.00  0.00     0.039 A 
ATOM      3  C2  UNL d   1      -5.370   5.304   4.467  0.00  0.00    -0.080 A 
ATOM      4  C3  UNL d   1      -4.047   5.656   4.716  0.00  0.00     0.150 A 
ATOM      5  C4  UNL d   1      -3.192   6.000   3.674  0.00  0.00    -0.007 A 
ATOM      6  C5  UNL d   1      -3.664   5.988   2.362  0.00  0.00     0.039 A 
ENDROOT
BRANCH   4   7
ATOM      7  O   UNL d   1      -3.540   5.676   5.982  0.00  0.00    -0.526 OA
ATOM      8  H5  UNL d   1      -4.236   5.388   6.596  0.00  0.00     0.418 HD
ENDBRANCH   4   7
TORSDOF 1
ENDMDL
