MODEL 1
REMARK minimizedAffinity 6.68711281
REMARK minimizedRMSD -1
REMARK  0 active torsions:
REMARK  status: ('A' for Active; 'I' for Inactive)
ROOT
ATOM      1  C   UNL d   1       3.438   0.805   3.422  0.00  0.00     0.078 C 
ATOM      2  C1  UNL d   1       2.144   0.096   3.159  0.00  0.00    -0.077 A 
ATOM      3  C2  UNL d   1       1.121   0.708   2.424  0.00  0.00    -0.001 A 
ATOM      4  C3  UNL d   1      -0.082   0.039   2.196  0.00  0.00     0.003 A 
ATOM      5  C4  UNL d   1      -0.275  -1.245   2.699  0.00  0.00    -0.005 A 
ATOM      6  C5  UNL d   1       0.735  -1.862   3.434  0.00  0.00     0.003 A 
ATOM      7  C6  UNL d   1       1.939  -1.195   3.664  0.00  0.00    -0.001 A 
ENDROOT
TORSDOF 0
ENDMDL
