MODEL 1
REMARK minimizedAffinity 10.6831112
REMARK minimizedRMSD -1
REMARK  0 active torsions:
REMARK  status: ('A' for Active; 'I' for Inactive)
ROOT
ATOM      1  C   UNL d   1       0.364  -0.374  -4.128  0.00  0.00     0.078 C 
ATOM      2  C1  UNL d   1       0.751  -1.686  -4.741  0.00  0.00    -0.077 A 
ATOM      3  C2  UNL d   1       2.067  -2.158  -4.664  0.00  0.00    -0.001 A 
ATOM      4  C3  UNL d   1       2.416  -3.376  -5.249  0.00  0.00     0.003 A 
ATOM      5  C4  UNL d   1       1.455  -4.133  -5.916  0.00  0.00    -0.005 A 
ATOM      6  C5  UNL d   1       0.143  -3.670  -6.000  0.00  0.00     0.003 A 
ATOM      7  C6  UNL d   1      -0.208  -2.452  -5.416  0.00  0.00    -0.001 A 
ENDROOT
TORSDOF 0
ENDMDL
