MODEL 1
REMARK minimizedAffinity 6.53327656
REMARK minimizedRMSD -1
REMARK  0 active torsions:
REMARK  status: ('A' for Active; 'I' for Inactive)
ROOT
ATOM      1  C   UNL d   1      -2.893   0.034   1.974  0.00  0.00     0.078 C 
ATOM      2  C1  UNL d   1      -1.460  -0.176   2.362  0.00  0.00    -0.077 A 
ATOM      3  C2  UNL d   1      -0.736   0.827   3.018  0.00  0.00    -0.001 A 
ATOM      4  C3  UNL d   1       0.600   0.621   3.364  0.00  0.00     0.003 A 
ATOM      5  C4  UNL d   1       1.224  -0.587   3.058  0.00  0.00    -0.005 A 
ATOM      6  C5  UNL d   1       0.512  -1.590   2.404  0.00  0.00     0.003 A 
ATOM      7  C6  UNL d   1      -0.824  -1.386   2.056  0.00  0.00    -0.001 A 
ENDROOT
TORSDOF 0
ENDMDL
