MODEL 1
REMARK minimizedAffinity 12.7136192
REMARK minimizedRMSD -1
REMARK  0 active torsions:
REMARK  status: ('A' for Active; 'I' for Inactive)
ROOT
ATOM      1  C   UNL d   1      -2.790  -1.602   2.390  0.00  0.00     0.078 C 
ATOM      2  C1  UNL d   1      -1.397  -1.100   2.623  0.00  0.00    -0.077 A 
ATOM      3  C2  UNL d   1      -1.092   0.261   2.507  0.00  0.00    -0.001 A 
ATOM      4  C3  UNL d   1       0.212   0.713   2.717  0.00  0.00     0.003 A 
ATOM      5  C4  UNL d   1       1.222  -0.190   3.044  0.00  0.00    -0.005 A 
ATOM      6  C5  UNL d   1       0.928  -1.547   3.160  0.00  0.00     0.003 A 
ATOM      7  C6  UNL d   1      -0.375  -2.001   2.950  0.00  0.00    -0.001 A 
ENDROOT
TORSDOF 0
ENDMDL
