MODEL 1
REMARK minimizedAffinity 6.34620714
REMARK minimizedRMSD -1
REMARK  0 active torsions:
REMARK  status: ('A' for Active; 'I' for Inactive)
ROOT
ATOM      1  C   UNL d   1       1.382  -2.907   5.411  0.00  0.00     0.078 C 
ATOM      2  C1  UNL d   1       1.256  -1.818   4.387  0.00  0.00    -0.077 A 
ATOM      3  C2  UNL d   1       1.989  -0.631   4.503  0.00  0.00    -0.001 A 
ATOM      4  C3  UNL d   1       1.855   0.378   3.548  0.00  0.00     0.003 A 
ATOM      5  C4  UNL d   1       0.987   0.210   2.471  0.00  0.00    -0.005 A 
ATOM      6  C5  UNL d   1       0.251  -0.967   2.349  0.00  0.00     0.003 A 
ATOM      7  C6  UNL d   1       0.384  -1.977   3.303  0.00  0.00    -0.001 A 
ENDROOT
TORSDOF 0
ENDMDL
