MODEL 1
REMARK minimizedAffinity 7.64138985
REMARK minimizedRMSD -1
REMARK  0 active torsions:
REMARK  status: ('A' for Active; 'I' for Inactive)
ROOT
ATOM      1  C   UNL d   1      -1.874  -5.506  -5.998  0.00  0.00     0.078 C 
ATOM      2  C1  UNL d   1      -1.191  -4.253  -5.537  0.00  0.00    -0.077 A 
ATOM      3  C2  UNL d   1      -1.825  -3.370  -4.654  0.00  0.00    -0.001 A 
ATOM      4  C3  UNL d   1      -1.180  -2.203  -4.240  0.00  0.00     0.003 A 
ATOM      5  C4  UNL d   1       0.100  -1.908  -4.705  0.00  0.00    -0.005 A 
ATOM      6  C5  UNL d   1       0.737  -2.780  -5.585  0.00  0.00     0.003 A 
ATOM      7  C6  UNL d   1       0.095  -3.947  -6.000  0.00  0.00    -0.001 A 
ENDROOT
TORSDOF 0
ENDMDL
