MODEL 1
REMARK minimizedAffinity -3.89236116
REMARK minimizedRMSD -1
REMARK  0 active torsions:
REMARK  status: ('A' for Active; 'I' for Inactive)
ROOT
ATOM      1  C1  BNZ d   1       0.850  -0.061   2.661  0.00  0.00     0.000 A 
ATOM      2  C2  BNZ d   1       1.427   0.100   1.429  0.00  0.00     0.000 A 
ATOM      3  C3  BNZ d   1       0.660   0.144   0.298  0.00  0.00     0.000 A 
ATOM      4  C4  BNZ d   1      -0.676  -0.013   0.396  0.00  0.00     0.000 A 
ATOM      5  C5  BNZ d   1      -1.271  -0.186   1.630  0.00  0.00     0.000 A 
ATOM      6  C6  BNZ d   1      -0.500  -0.191   2.770  0.00  0.00     0.000 A 
ENDROOT
TORSDOF 0
ENDMDL
