MODEL 1
REMARK minimizedAffinity -4.67860317
REMARK minimizedRMSD -1
REMARK  0 active torsions:
REMARK  status: ('A' for Active; 'I' for Inactive)
ROOT
ATOM      1  C1  BNZ d   1      -1.347  -0.303   3.146  0.00  0.00     0.000 A 
ATOM      2  C2  BNZ d   1      -0.183  -0.603   2.490  0.00  0.00     0.000 A 
ATOM      3  C3  BNZ d   1      -0.078  -0.431   1.138  0.00  0.00     0.000 A 
ATOM      4  C4  BNZ d   1      -1.147   0.002   0.440  0.00  0.00     0.000 A 
ATOM      5  C5  BNZ d   1      -2.330   0.300   1.086  0.00  0.00     0.000 A 
ATOM      6  C6  BNZ d   1      -2.421   0.163   2.452  0.00  0.00     0.000 A 
ENDROOT
TORSDOF 0
ENDMDL
