MODEL 1
REMARK minimizedAffinity -4.31836081
REMARK minimizedRMSD -1
REMARK  0 active torsions:
REMARK  status: ('A' for Active; 'I' for Inactive)
ROOT
ATOM      1  C1  BNZ d   1      -0.935  -1.302   2.319  0.00  0.00     0.000 A 
ATOM      2  C2  BNZ d   1      -0.476  -1.028   1.058  0.00  0.00     0.000 A 
ATOM      3  C3  BNZ d   1       0.334   0.048   0.826  0.00  0.00     0.000 A 
ATOM      4  C4  BNZ d   1       0.651   0.872   1.846  0.00  0.00     0.000 A 
ATOM      5  C5  BNZ d   1       0.189   0.615   3.121  0.00  0.00     0.000 A 
ATOM      6  C6  BNZ d   1      -0.594  -0.492   3.359  0.00  0.00     0.000 A 
ENDROOT
TORSDOF 0
ENDMDL
