MODEL 1
REMARK minimizedAffinity -1.48500264
REMARK minimizedRMSD -1
REMARK  0 active torsions:
REMARK  status: ('A' for Active; 'I' for Inactive)
ROOT
ATOM      1  C1  BNZ d   1      -1.407  -0.365  -1.584  0.00  0.00     0.000 A 
ATOM      2  C2  BNZ d   1      -2.246  -0.779  -0.584  0.00  0.00     0.000 A 
ATOM      3  C3  BNZ d   1      -1.895  -0.632   0.729  0.00  0.00     0.000 A 
ATOM      4  C4  BNZ d   1      -0.691  -0.109   1.039  0.00  0.00     0.000 A 
ATOM      5  C5  BNZ d   1       0.170   0.304   0.042  0.00  0.00     0.000 A 
ATOM      6  C6  BNZ d   1      -0.203   0.190  -1.278  0.00  0.00     0.000 A 
ENDROOT
TORSDOF 0
ENDMDL
