MODEL 1
REMARK minimizedAffinity -2.80095005
REMARK minimizedRMSD -1
REMARK  0 active torsions:
REMARK  status: ('A' for Active; 'I' for Inactive)
ROOT
ATOM      1  C1  BNZ d   1       0.881   0.925  -3.377  0.00  0.00     0.000 A 
ATOM      2  C2  BNZ d   1       0.101   1.382  -2.348  0.00  0.00     0.000 A 
ATOM      3  C3  BNZ d   1      -0.454   0.513  -1.452  0.00  0.00     0.000 A 
ATOM      4  C4  BNZ d   1      -0.263  -0.813  -1.607  0.00  0.00     0.000 A 
ATOM      5  C5  BNZ d   1       0.514  -1.290  -2.645  0.00  0.00     0.000 A 
ATOM      6  C6  BNZ d   1       1.103  -0.410  -3.523  0.00  0.00     0.000 A 
ENDROOT
TORSDOF 0
ENDMDL
