MODEL 1
REMARK minimizedAffinity -4.77431583
REMARK minimizedRMSD -1
REMARK  0 active torsions:
REMARK  status: ('A' for Active; 'I' for Inactive)
ROOT
ATOM      1  C1  BNZ d   1      -1.822   0.238   0.573  0.00  0.00     0.000 A 
ATOM      2  C2  BNZ d   1      -0.502  -0.020   0.826  0.00  0.00     0.000 A 
ATOM      3  C3  BNZ d   1      -0.037  -0.102   2.109  0.00  0.00     0.000 A 
ATOM      4  C4  BNZ d   1      -0.884   0.115   3.136  0.00  0.00     0.000 A 
ATOM      5  C5  BNZ d   1      -2.217   0.386   2.897  0.00  0.00     0.000 A 
ATOM      6  C6  BNZ d   1      -2.689   0.429   1.605  0.00  0.00     0.000 A 
ENDROOT
TORSDOF 0
ENDMDL
