MODEL 1
REMARK minimizedAffinity -4.99637604
REMARK minimizedRMSD -1
REMARK  0 active torsions:
REMARK  status: ('A' for Active; 'I' for Inactive)
ROOT
ATOM      1  C1  BNZ d   1       0.312   0.143   0.484  0.00  0.00     0.000 A 
ATOM      2  C2  BNZ d   1       1.022   0.225   1.652  0.00  0.00     0.000 A 
ATOM      3  C3  BNZ d   1       0.394   0.127   2.862  0.00  0.00     0.000 A 
ATOM      4  C4  BNZ d   1      -0.947  -0.013   2.903  0.00  0.00     0.000 A 
ATOM      5  C5  BNZ d   1      -1.678  -0.088   1.734  0.00  0.00     0.000 A 
ATOM      6  C6  BNZ d   1      -1.038  -0.028   0.518  0.00  0.00     0.000 A 
ENDROOT
TORSDOF 0
ENDMDL
