MODEL 1
REMARK minimizedAffinity -4.40514231
REMARK minimizedRMSD -1
REMARK  0 active torsions:
REMARK  status: ('A' for Active; 'I' for Inactive)
ROOT
ATOM      1  C1  BNZ d   1       0.420   0.233   2.598  0.00  0.00     0.000 A 
ATOM      2  C2  BNZ d   1      -0.398  -0.845   2.806  0.00  0.00     0.000 A 
ATOM      3  C3  BNZ d   1      -0.639  -1.744   1.804  0.00  0.00     0.000 A 
ATOM      4  C4  BNZ d   1      -0.095  -1.541   0.587  0.00  0.00     0.000 A 
ATOM      5  C5  BNZ d   1       0.724  -0.453   0.359  0.00  0.00     0.000 A 
ATOM      6  C6  BNZ d   1       0.996   0.428   1.381  0.00  0.00     0.000 A 
ENDROOT
TORSDOF 0
ENDMDL
