MODEL 1
REMARK minimizedAffinity -4.09366274
REMARK minimizedRMSD -1
REMARK  0 active torsions:
REMARK  status: ('A' for Active; 'I' for Inactive)
ROOT
ATOM      1  C1  BNZ d   1      -0.430  -1.206   2.459  0.00  0.00     0.000 A 
ATOM      2  C2  BNZ d   1       0.045  -0.871   1.219  0.00  0.00     0.000 A 
ATOM      3  C3  BNZ d   1       0.791   0.260   1.038  0.00  0.00     0.000 A 
ATOM      4  C4  BNZ d   1       1.027   1.074   2.087  0.00  0.00     0.000 A 
ATOM      5  C5  BNZ d   1       0.548   0.754   3.341  0.00  0.00     0.000 A 
ATOM      6  C6  BNZ d   1      -0.170  -0.405   3.528  0.00  0.00     0.000 A 
ENDROOT
TORSDOF 0
ENDMDL
