MODEL 1
REMARK minimizedAffinity -4.98124218
REMARK minimizedRMSD -1
REMARK  0 active torsions:
REMARK  status: ('A' for Active; 'I' for Inactive)
ROOT
ATOM      1  C1  BNZ d   1       0.187   0.686   2.956  0.00  0.00     0.000 A 
ATOM      2  C2  BNZ d   1      -0.723  -0.290   3.263  0.00  0.00     0.000 A 
ATOM      3  C3  BNZ d   1      -1.238  -1.098   2.288  0.00  0.00     0.000 A 
ATOM      4  C4  BNZ d   1      -0.874  -0.903   1.004  0.00  0.00     0.000 A 
ATOM      5  C5  BNZ d   1       0.035   0.083   0.677  0.00  0.00     0.000 A 
ATOM      6  C6  BNZ d   1       0.581   0.869   1.666  0.00  0.00     0.000 A 
ENDROOT
TORSDOF 0
ENDMDL
