MODEL 1
REMARK minimizedAffinity -3.65743113
REMARK minimizedRMSD -1
REMARK  0 active torsions:
REMARK  status: ('A' for Active; 'I' for Inactive)
ROOT
ATOM      1  C1  BNZ d   1      -1.378  -0.477   1.703  0.00  0.00     0.000 A 
ATOM      2  C2  BNZ d   1      -0.914  -0.262   0.432  0.00  0.00     0.000 A 
ATOM      3  C3  BNZ d   1       0.264   0.397   0.219  0.00  0.00     0.000 A 
ATOM      4  C4  BNZ d   1       0.956   0.876   1.273  0.00  0.00     0.000 A 
ATOM      5  C5  BNZ d   1       0.497   0.676   2.560  0.00  0.00     0.000 A 
ATOM      6  C6  BNZ d   1      -0.670  -0.022   2.772  0.00  0.00     0.000 A 
ENDROOT
TORSDOF 0
ENDMDL
