MODEL 1
REMARK minimizedAffinity -4.79502583
REMARK minimizedRMSD -1
REMARK  0 active torsions:
REMARK  status: ('A' for Active; 'I' for Inactive)
ROOT
ATOM      1  C1  BNZ d   1       1.003   0.637   2.407  0.00  0.00     0.000 A 
ATOM      2  C2  BNZ d   1       0.044  -0.338   2.481  0.00  0.00     0.000 A 
ATOM      3  C3  BNZ d   1      -0.746  -0.626   1.404  0.00  0.00     0.000 A 
ATOM      4  C4  BNZ d   1      -0.605   0.088   0.269  0.00  0.00     0.000 A 
ATOM      5  C5  BNZ d   1       0.351   1.081   0.181  0.00  0.00     0.000 A 
ATOM      6  C6  BNZ d   1       1.171   1.341   1.255  0.00  0.00     0.000 A 
ENDROOT
TORSDOF 0
ENDMDL
