MODEL 1
REMARK minimizedAffinity -3.64529181
REMARK minimizedRMSD -1
REMARK  0 active torsions:
REMARK  status: ('A' for Active; 'I' for Inactive)
ROOT
ATOM      1  C1  BNZ d   1      -1.488  -0.305   0.457  0.00  0.00     0.000 A 
ATOM      2  C2  BNZ d   1      -0.716   0.097  -0.601  0.00  0.00     0.000 A 
ATOM      3  C3  BNZ d   1       0.605   0.402  -0.428  0.00  0.00     0.000 A 
ATOM      4  C4  BNZ d   1       1.142   0.343   0.808  0.00  0.00     0.000 A 
ATOM      5  C5  BNZ d   1       0.375  -0.051   1.886  0.00  0.00     0.000 A 
ATOM      6  C6  BNZ d   1      -0.944  -0.395   1.701  0.00  0.00     0.000 A 
ENDROOT
TORSDOF 0
ENDMDL
