MODEL 1
REMARK minimizedAffinity -4.41915369
REMARK minimizedRMSD -1
REMARK  0 active torsions:
REMARK  status: ('A' for Active; 'I' for Inactive)
ROOT
ATOM      1  C1  BNZ d   1       0.632   0.874  -0.456  0.00  0.00     0.000 A 
ATOM      2  C2  BNZ d   1       0.708   0.384   0.821  0.00  0.00     0.000 A 
ATOM      3  C3  BNZ d   1      -0.414  -0.041   1.475  0.00  0.00     0.000 A 
ATOM      4  C4  BNZ d   1      -1.614   0.061   0.868  0.00  0.00     0.000 A 
ATOM      5  C5  BNZ d   1      -1.709   0.561  -0.415  0.00  0.00     0.000 A 
ATOM      6  C6  BNZ d   1      -0.572   0.951  -1.085  0.00  0.00     0.000 A 
ENDROOT
TORSDOF 0
ENDMDL
