MODEL 1
REMARK minimizedAffinity -4.38468027
REMARK minimizedRMSD -1
REMARK  0 active torsions:
REMARK  status: ('A' for Active; 'I' for Inactive)
ROOT
ATOM      1  C1  BNZ d   1      -0.220   0.032   2.413  0.00  0.00     0.000 A 
ATOM      2  C2  BNZ d   1      -1.001   0.047   1.288  0.00  0.00     0.000 A 
ATOM      3  C3  BNZ d   1      -0.456   0.298   0.060  0.00  0.00     0.000 A 
ATOM      4  C4  BNZ d   1       0.861   0.574  -0.037  0.00  0.00     0.000 A 
ATOM      5  C5  BNZ d   1       1.660   0.572   1.089  0.00  0.00     0.000 A 
ATOM      6  C6  BNZ d   1       1.114   0.280   2.319  0.00  0.00     0.000 A 
ENDROOT
TORSDOF 0
ENDMDL
