MODEL 1
REMARK minimizedAffinity -4.87597609
REMARK minimizedRMSD -1
REMARK  0 active torsions:
REMARK  status: ('A' for Active; 'I' for Inactive)
ROOT
ATOM      1  C1  BNZ d   1      -1.032  -0.933   1.875  0.00  0.00     0.000 A 
ATOM      2  C2  BNZ d   1      -0.315  -0.359   2.891  0.00  0.00     0.000 A 
ATOM      3  C3  BNZ d   1       0.798   0.390   2.625  0.00  0.00     0.000 A 
ATOM      4  C4  BNZ d   1       1.214   0.530   1.350  0.00  0.00     0.000 A 
ATOM      5  C5  BNZ d   1       0.507  -0.051   0.316  0.00  0.00     0.000 A 
ATOM      6  C6  BNZ d   1      -0.635  -0.772   0.584  0.00  0.00     0.000 A 
ENDROOT
TORSDOF 0
ENDMDL
