MODEL 1
REMARK minimizedAffinity 3.69162464
REMARK minimizedRMSD -1
REMARK  1 active torsions:
REMARK  status: ('A' for Active; 'I' for Inactive)
REMARK    1  A    between atoms: C3_4  and  O_7 
ROOT
ATOM      1  C   UNL d   1      -0.666   0.965   0.919  0.00  0.00    -0.033 A 
ATOM      2  C1  UNL d   1      -0.984   2.323   0.966  0.00  0.00     0.039 A 
ATOM      3  C2  UNL d   1      -1.751   2.827   2.019  0.00  0.00    -0.080 A 
ATOM      4  C3  UNL d   1      -2.192   1.962   3.017  0.00  0.00     0.150 A 
ATOM      5  C4  UNL d   1      -1.876   0.608   2.978  0.00  0.00    -0.007 A 
ATOM      6  C5  UNL d   1      -1.110   0.107   1.926  0.00  0.00     0.039 A 
ENDROOT
BRANCH   4   7
ATOM      7  O   UNL d   1      -2.947   2.406   4.061  0.00  0.00    -0.526 OA
ATOM      8  H5  UNL d   1      -3.111   3.356   3.941  0.00  0.00     0.418 HD
ENDBRANCH   4   7
TORSDOF 1
ENDMDL
