MODEL 1
REMARK minimizedAffinity 0.000146650913
REMARK minimizedRMSD -1
REMARK  1 active torsions:
REMARK  status: ('A' for Active; 'I' for Inactive)
REMARK    1  A    between atoms: C3_4  and  O_7 
ROOT
ATOM      1  C   UNL d   1       0.274   0.797   0.711  0.00  0.00    -0.033 A 
ATOM      2  C1  UNL d   1      -0.672  -0.042   1.303  0.00  0.00     0.039 A 
ATOM      3  C2  UNL d   1      -1.655   0.491   2.140  0.00  0.00    -0.080 A 
ATOM      4  C3  UNL d   1      -1.681   1.862   2.376  0.00  0.00     0.150 A 
ATOM      5  C4  UNL d   1      -0.744   2.705   1.787  0.00  0.00    -0.007 A 
ATOM      6  C5  UNL d   1       0.237   2.171   0.952  0.00  0.00     0.039 A 
ENDROOT
BRANCH   4   7
ATOM      7  O   UNL d   1      -2.617   2.428   3.189  0.00  0.00    -0.526 OA
ATOM      8  H5  UNL d   1      -3.180   1.722   3.548  0.00  0.00     0.418 HD
ENDBRANCH   4   7
TORSDOF 1
ENDMDL
