MODEL 1
REMARK minimizedAffinity -1.85406029
REMARK minimizedRMSD -1
REMARK  1 active torsions:
REMARK  status: ('A' for Active; 'I' for Inactive)
REMARK    1  A    between atoms: C3_4  and  O_7 
ROOT
ATOM      1  C   UNL d   1       0.503  -0.426   0.943  0.00  0.00    -0.033 A 
ATOM      2  C1  UNL d   1      -0.876  -0.496   1.157  0.00  0.00     0.039 A 
ATOM      3  C2  UNL d   1      -1.595   0.658   1.470  0.00  0.00    -0.080 A 
ATOM      4  C3  UNL d   1      -0.926   1.875   1.566  0.00  0.00     0.150 A 
ATOM      5  C4  UNL d   1       0.446   1.953   1.351  0.00  0.00    -0.007 A 
ATOM      6  C5  UNL d   1       1.163   0.799   1.039  0.00  0.00     0.039 A 
ENDROOT
BRANCH   4   7
ATOM      7  O   UNL d   1      -1.584   3.028   1.874  0.00  0.00    -0.526 OA
ATOM      8  H5  UNL d   1      -2.521   2.817   2.023  0.00  0.00     0.418 HD
ENDBRANCH   4   7
TORSDOF 1
ENDMDL
