MODEL 1
REMARK minimizedAffinity -2.31549454
REMARK minimizedRMSD -1
REMARK  1 active torsions:
REMARK  status: ('A' for Active; 'I' for Inactive)
REMARK    1  A    between atoms: C3_4  and  O_7 
ROOT
ATOM      1  C   UNL d   1       0.408   0.491   1.359  0.00  0.00    -0.033 A 
ATOM      2  C1  UNL d   1      -0.699  -0.307   1.656  0.00  0.00     0.039 A 
ATOM      3  C2  UNL d   1      -1.874   0.276   2.134  0.00  0.00    -0.080 A 
ATOM      4  C3  UNL d   1      -1.930   1.656   2.309  0.00  0.00     0.150 A 
ATOM      5  C4  UNL d   1      -0.833   2.458   2.012  0.00  0.00    -0.007 A 
ATOM      6  C5  UNL d   1       0.340   1.874   1.536  0.00  0.00     0.039 A 
ENDROOT
BRANCH   4   7
ATOM      7  O   UNL d   1      -3.053   2.270   2.778  0.00  0.00    -0.526 OA
ATOM      8  H5  UNL d   1      -3.720   1.589   2.967  0.00  0.00     0.418 HD
ENDBRANCH   4   7
TORSDOF 1
ENDMDL
