MODEL 1
REMARK minimizedAffinity 1.42636955
REMARK minimizedRMSD -1
REMARK  1 active torsions:
REMARK  status: ('A' for Active; 'I' for Inactive)
REMARK    1  A    between atoms: C3_4  and  O_7 
ROOT
ATOM      1  C   UNL d   1      -2.832   0.651   3.029  0.00  0.00    -0.033 A 
ATOM      2  C1  UNL d   1      -2.799   1.989   2.632  0.00  0.00     0.039 A 
ATOM      3  C2  UNL d   1      -1.696   2.485   1.935  0.00  0.00    -0.080 A 
ATOM      4  C3  UNL d   1      -0.634   1.634   1.640  0.00  0.00     0.150 A 
ATOM      5  C4  UNL d   1      -0.662   0.299   2.029  0.00  0.00    -0.007 A 
ATOM      6  C5  UNL d   1      -1.764  -0.195   2.727  0.00  0.00     0.039 A 
ENDROOT
BRANCH   4   7
ATOM      7  O   UNL d   1       0.466   2.074   0.966  0.00  0.00    -0.526 OA
ATOM      8  H5  UNL d   1       0.358   3.023   0.787  0.00  0.00     0.418 HD
ENDBRANCH   4   7
TORSDOF 1
ENDMDL
