MODEL 1
REMARK minimizedAffinity 6.2913456
REMARK minimizedRMSD -1
REMARK  1 active torsions:
REMARK  status: ('A' for Active; 'I' for Inactive)
REMARK    1  A    between atoms: C3_4  and  O_7 
ROOT
ATOM      1  C   UNL d   1      -2.232   1.025   2.298  0.00  0.00    -0.033 A 
ATOM      2  C1  UNL d   1      -2.571   2.378   2.367  0.00  0.00     0.039 A 
ATOM      3  C2  UNL d   1      -3.668   2.786   3.129  0.00  0.00    -0.080 A 
ATOM      4  C3  UNL d   1      -4.414   1.833   3.817  0.00  0.00     0.150 A 
ATOM      5  C4  UNL d   1      -4.079   0.485   3.756  0.00  0.00    -0.007 A 
ATOM      6  C5  UNL d   1      -2.985   0.079   2.994  0.00  0.00     0.039 A 
ENDROOT
BRANCH   4   7
ATOM      7  O   UNL d   1      -5.496   2.183   4.570  0.00  0.00    -0.526 OA
ATOM      8  H5  UNL d   1      -5.625   3.144   4.495  0.00  0.00     0.418 HD
ENDBRANCH   4   7
TORSDOF 1
ENDMDL
