MODEL 1
REMARK minimizedAffinity 0.0128825177
REMARK minimizedRMSD -1
REMARK  1 active torsions:
REMARK  status: ('A' for Active; 'I' for Inactive)
REMARK    1  A    between atoms: C3_4  and  O_7 
ROOT
ATOM      1  C   UNL d   1      -3.746  -2.947  -2.508  0.00  0.00    -0.033 A 
ATOM      2  C1  UNL d   1      -4.305  -2.406  -1.349  0.00  0.00     0.039 A 
ATOM      3  C2  UNL d   1      -4.502  -1.027  -1.245  0.00  0.00    -0.080 A 
ATOM      4  C3  UNL d   1      -4.136  -0.203  -2.306  0.00  0.00     0.150 A 
ATOM      5  C4  UNL d   1      -3.582  -0.736  -3.465  0.00  0.00    -0.007 A 
ATOM      6  C5  UNL d   1      -3.385  -2.113  -3.566  0.00  0.00     0.039 A 
ENDROOT
BRANCH   4   7
ATOM      7  O   UNL d   1      -4.305   1.149  -2.249  0.00  0.00    -0.526 OA
ATOM      8  H5  UNL d   1      -4.671   1.377  -1.378  0.00  0.00     0.418 HD
ENDBRANCH   4   7
TORSDOF 1
ENDMDL
