MODEL 1
REMARK minimizedAffinity 5.16115904
REMARK minimizedRMSD -1
REMARK  1 active torsions:
REMARK  status: ('A' for Active; 'I' for Inactive)
REMARK    1  A    between atoms: C3_4  and  O_7 
ROOT
ATOM      1  C   UNL d   1       0.405   2.049   0.691  0.00  0.00    -0.033 A 
ATOM      2  C1  UNL d   1      -0.781   2.728   0.403  0.00  0.00     0.039 A 
ATOM      3  C2  UNL d   1      -1.944   2.438   1.119  0.00  0.00    -0.080 A 
ATOM      4  C3  UNL d   1      -1.908   1.470   2.119  0.00  0.00     0.150 A 
ATOM      5  C4  UNL d   1      -0.729   0.793   2.413  0.00  0.00    -0.007 A 
ATOM      6  C5  UNL d   1       0.431   1.083   1.697  0.00  0.00     0.039 A 
ENDROOT
BRANCH   4   7
ATOM      7  O   UNL d   1      -3.019   1.150   2.841  0.00  0.00    -0.526 OA
ATOM      8  H5  UNL d   1      -3.765   1.677   2.508  0.00  0.00     0.418 HD
ENDBRANCH   4   7
TORSDOF 1
ENDMDL
