MODEL 1
REMARK minimizedAffinity -4.88875628
REMARK minimizedRMSD -1
REMARK  1 active torsions:
REMARK  status: ('A' for Active; 'I' for Inactive)
REMARK    1  A    between atoms: C3_4  and  O_7 
ROOT
ATOM      1  C   UNL d   1      -0.107   2.628   1.057  0.00  0.00    -0.033 A 
ATOM      2  C1  UNL d   1      -1.215   3.477   1.075  0.00  0.00     0.039 A 
ATOM      3  C2  UNL d   1      -2.385   3.089   1.732  0.00  0.00    -0.080 A 
ATOM      4  C3  UNL d   1      -2.432   1.851   2.367  0.00  0.00     0.150 A 
ATOM      5  C4  UNL d   1      -1.331   1.002   2.357  0.00  0.00    -0.007 A 
ATOM      6  C5  UNL d   1      -0.164   1.391   1.700  0.00  0.00     0.039 A 
ENDROOT
BRANCH   4   7
ATOM      7  O   UNL d   1      -3.553   1.427   3.017  0.00  0.00    -0.526 OA
ATOM      8  H5  UNL d   1      -4.242   2.104   2.916  0.00  0.00     0.418 HD
ENDBRANCH   4   7
TORSDOF 1
ENDMDL
