MODEL 1
REMARK minimizedAffinity -2.62219453
REMARK minimizedRMSD -1
REMARK  1 active torsions:
REMARK  status: ('A' for Active; 'I' for Inactive)
REMARK    1  A    between atoms: C3_4  and  O_7 
ROOT
ATOM      1  C   UNL d   1       0.709  -0.019   0.615  0.00  0.00    -0.033 A 
ATOM      2  C1  UNL d   1       1.121   1.290   0.871  0.00  0.00     0.039 A 
ATOM      3  C2  UNL d   1       0.266   2.178   1.527  0.00  0.00    -0.080 A 
ATOM      4  C3  UNL d   1      -0.996   1.745   1.922  0.00  0.00     0.150 A 
ATOM      5  C4  UNL d   1      -1.412   0.441   1.674  0.00  0.00    -0.007 A 
ATOM      6  C5  UNL d   1      -0.558  -0.444   1.018  0.00  0.00     0.039 A 
ENDROOT
BRANCH   4   7
ATOM      7  O   UNL d   1      -1.867   2.576   2.561  0.00  0.00    -0.526 OA
ATOM      8  H5  UNL d   1      -1.455   3.453   2.638  0.00  0.00     0.418 HD
ENDBRANCH   4   7
TORSDOF 1
ENDMDL
