MODEL 1
REMARK minimizedAffinity -3.34061718
REMARK minimizedRMSD -1
REMARK  1 active torsions:
REMARK  status: ('A' for Active; 'I' for Inactive)
REMARK    1  A    between atoms: C3_4  and  O_7 
ROOT
ATOM      1  C   UNL d   1       0.624   2.089   1.434  0.00  0.00    -0.033 A 
ATOM      2  C1  UNL d   1      -0.728   2.298   1.713  0.00  0.00     0.039 A 
ATOM      3  C2  UNL d   1      -1.590   1.208   1.855  0.00  0.00    -0.080 A 
ATOM      4  C3  UNL d   1      -1.087  -0.083   1.717  0.00  0.00     0.150 A 
ATOM      5  C4  UNL d   1       0.259  -0.298   1.444  0.00  0.00    -0.007 A 
ATOM      6  C5  UNL d   1       1.118   0.790   1.301  0.00  0.00     0.039 A 
ENDROOT
BRANCH   4   7
ATOM      7  O   UNL d   1      -1.891  -1.177   1.842  0.00  0.00    -0.526 OA
ATOM      8  H5  UNL d   1      -2.800  -0.874   2.002  0.00  0.00     0.418 HD
ENDBRANCH   4   7
TORSDOF 1
ENDMDL
