MODEL 1
REMARK minimizedAffinity -1.56340885
REMARK minimizedRMSD -1
REMARK  1 active torsions:
REMARK  status: ('A' for Active; 'I' for Inactive)
REMARK    1  A    between atoms: C3_4  and  O_7 
ROOT
ATOM      1  C   UNL d   1       0.802  -0.360   0.891  0.00  0.00    -0.033 A 
ATOM      2  C1  UNL d   1       1.389   0.890   1.096  0.00  0.00     0.039 A 
ATOM      3  C2  UNL d   1       0.598   1.985   1.448  0.00  0.00    -0.080 A 
ATOM      4  C3  UNL d   1      -0.776   1.817   1.593  0.00  0.00     0.150 A 
ATOM      5  C4  UNL d   1      -1.367   0.573   1.394  0.00  0.00    -0.007 A 
ATOM      6  C5  UNL d   1      -0.576  -0.519   1.042  0.00  0.00     0.039 A 
ENDROOT
BRANCH   4   7
ATOM      7  O   UNL d   1      -1.590   2.857   1.930  0.00  0.00    -0.526 OA
ATOM      8  H5  UNL d   1      -1.047   3.660   2.007  0.00  0.00     0.418 HD
ENDBRANCH   4   7
TORSDOF 1
ENDMDL
