MODEL 1
REMARK minimizedAffinity 1.71673679
REMARK minimizedRMSD -1
REMARK  1 active torsions:
REMARK  status: ('A' for Active; 'I' for Inactive)
REMARK    1  A    between atoms: C3_4  and  O_7 
ROOT
ATOM      1  C   UNL d   1       0.668   0.129   1.453  0.00  0.00    -0.033 A 
ATOM      2  C1  UNL d   1      -0.499  -0.487   1.906  0.00  0.00     0.039 A 
ATOM      3  C2  UNL d   1      -1.616   0.284   2.233  0.00  0.00    -0.080 A 
ATOM      4  C3  UNL d   1      -1.553   1.669   2.100  0.00  0.00     0.150 A 
ATOM      5  C4  UNL d   1      -0.394   2.289   1.645  0.00  0.00    -0.007 A 
ATOM      6  C5  UNL d   1       0.720   1.517   1.321  0.00  0.00     0.039 A 
ENDROOT
BRANCH   4   7
ATOM      7  O   UNL d   1      -2.616   2.464   2.411  0.00  0.00    -0.526 OA
ATOM      8  H5  UNL d   1      -3.337   1.900   2.739  0.00  0.00     0.418 HD
ENDBRANCH   4   7
TORSDOF 1
ENDMDL
