MODEL 1
REMARK minimizedAffinity 3.62103319
REMARK minimizedRMSD -1
REMARK  1 active torsions:
REMARK  status: ('A' for Active; 'I' for Inactive)
REMARK    1  A    between atoms: C3_4  and  O_7 
ROOT
ATOM      1  C   UNL d   1       0.497   2.089   1.247  0.00  0.00    -0.033 A 
ATOM      2  C1  UNL d   1       1.422   1.063   1.451  0.00  0.00     0.039 A 
ATOM      3  C2  UNL d   1       1.020  -0.133   2.049  0.00  0.00    -0.080 A 
ATOM      4  C3  UNL d   1      -0.307  -0.291   2.437  0.00  0.00     0.150 A 
ATOM      5  C4  UNL d   1      -1.235   0.726   2.233  0.00  0.00    -0.007 A 
ATOM      6  C5  UNL d   1      -0.832   1.919   1.637  0.00  0.00     0.039 A 
ENDROOT
BRANCH   4   7
ATOM      7  O   UNL d   1      -0.745  -1.438   3.029  0.00  0.00    -0.526 OA
ATOM      8  H5  UNL d   1       0.011  -2.040   3.131  0.00  0.00     0.418 HD
ENDBRANCH   4   7
TORSDOF 1
ENDMDL
