MODEL 1
REMARK minimizedAffinity -3.3666029
REMARK minimizedRMSD -1
REMARK  1 active torsions:
REMARK  status: ('A' for Active; 'I' for Inactive)
REMARK    1  A    between atoms: C3_4  and  O_7 
ROOT
ATOM      1  C   UNL d   1      -2.389  -0.281   2.063  0.00  0.00    -0.033 A 
ATOM      2  C1  UNL d   1      -2.496   1.000   1.516  0.00  0.00     0.039 A 
ATOM      3  C2  UNL d   1      -1.345   1.731   1.217  0.00  0.00    -0.080 A 
ATOM      4  C3  UNL d   1      -0.095   1.171   1.468  0.00  0.00     0.150 A 
ATOM      5  C4  UNL d   1       0.019  -0.105   2.009  0.00  0.00    -0.007 A 
ATOM      6  C5  UNL d   1      -1.132  -0.834   2.308  0.00  0.00     0.039 A 
ENDROOT
BRANCH   4   7
ATOM      7  O   UNL d   1       1.057   1.848   1.197  0.00  0.00    -0.526 OA
ATOM      8  H5  UNL d   1       0.823   2.727   0.854  0.00  0.00     0.418 HD
ENDBRANCH   4   7
TORSDOF 1
ENDMDL
