MODEL 1
REMARK minimizedAffinity -1.17072606
REMARK minimizedRMSD -1
REMARK  0 active torsions:
REMARK  status: ('A' for Active; 'I' for Inactive)
ROOT
ATOM      1  N1  IND d   1       5.007   3.049   5.883  0.00  0.00    -0.196 N 
ATOM      2  C2  IND d   1       3.780   2.447   5.841  0.00  0.00     0.054 A 
ATOM      3  C3  IND d   1       2.971   3.088   4.968  0.00  0.00    -0.031 A 
ATOM      4  C4  IND d   1       3.483   5.084   3.426  0.00  0.00     0.051 A 
ATOM      5  C5  IND d   1       4.457   5.998   3.134  0.00  0.00    -0.031 A 
ATOM      6  C6  IND d   1       5.690   5.973   3.754  0.00  0.00     0.015 A 
ATOM      7  C7  IND d   1       6.000   5.023   4.685  0.00  0.00    -0.016 A 
ATOM      8  C8  IND d   1       5.011   4.098   4.989  0.00  0.00    -0.047 A 
ATOM      9  C9  IND d   1       3.744   4.144   4.394  0.00  0.00    -0.096 A 
ATOM     10  HN1 IND d   1       5.665   2.813   6.383  0.00  0.00     0.298 HD
ENDROOT
TORSDOF 0
ENDMDL
