MODEL 1
REMARK minimizedAffinity 3.44166374
REMARK minimizedRMSD -1
REMARK  0 active torsions:
REMARK  status: ('A' for Active; 'I' for Inactive)
ROOT
ATOM      1  N1  IND d   1      -5.766   3.669   5.701  0.00  0.00    -0.196 N 
ATOM      2  C2  IND d   1      -5.990   4.984   5.999  0.00  0.00     0.054 A 
ATOM      3  C3  IND d   1      -5.999   5.728   4.870  0.00  0.00    -0.031 A 
ATOM      4  C4  IND d   1      -5.768   4.980   2.418  0.00  0.00     0.051 A 
ATOM      5  C5  IND d   1      -5.511   3.882   1.646  0.00  0.00    -0.031 A 
ATOM      6  C6  IND d   1      -5.325   2.631   2.197  0.00  0.00     0.015 A 
ATOM      7  C7  IND d   1      -5.400   2.428   3.546  0.00  0.00    -0.016 A 
ATOM      8  C8  IND d   1      -5.654   3.543   4.333  0.00  0.00    -0.047 A 
ATOM      9  C9  IND d   1      -5.802   4.822   3.783  0.00  0.00    -0.096 A 
ATOM     10  HN1 IND d   1      -5.705   3.028   6.271  0.00  0.00     0.298 HD
ENDROOT
TORSDOF 0
ENDMDL
