MODEL 1
REMARK minimizedAffinity 14.7531281
REMARK minimizedRMSD -1
REMARK  0 active torsions:
REMARK  status: ('A' for Active; 'I' for Inactive)
ROOT
ATOM      1  N1  IND d   1       4.600   3.846   3.650  0.00  0.00    -0.196 N 
ATOM      2  C2  IND d   1       5.260   4.982   4.030  0.00  0.00     0.054 A 
ATOM      3  C3  IND d   1       4.386   5.999   4.198  0.00  0.00    -0.031 A 
ATOM      4  C4  IND d   1       1.819   6.000   4.003  0.00  0.00     0.051 A 
ATOM      5  C5  IND d   1       0.766   5.206   3.644  0.00  0.00    -0.031 A 
ATOM      6  C6  IND d   1       0.940   3.891   3.264  0.00  0.00     0.015 A 
ATOM      7  C7  IND d   1       2.179   3.315   3.239  0.00  0.00    -0.016 A 
ATOM      8  C8  IND d   1       3.251   4.120   3.596  0.00  0.00    -0.047 A 
ATOM      9  C9  IND d   1       3.085   5.467   3.942  0.00  0.00    -0.096 A 
ATOM     10  HN1 IND d   1       4.966   3.089   3.474  0.00  0.00     0.298 HD
ENDROOT
TORSDOF 0
ENDMDL
