MODEL 1
REMARK minimizedAffinity 3.08164454
REMARK minimizedRMSD -1
REMARK  0 active torsions:
REMARK  status: ('A' for Active; 'I' for Inactive)
ROOT
ATOM      1  N1  IND d   1      -0.776  -4.355  -0.470  0.00  0.00    -0.196 N 
ATOM      2  C2  IND d   1      -0.412  -5.671  -0.397  0.00  0.00     0.054 A 
ATOM      3  C3  IND d   1       0.929  -5.782  -0.272  0.00  0.00    -0.031 A 
ATOM      4  C4  IND d   1       2.710  -3.935  -0.063  0.00  0.00     0.051 A 
ATOM      5  C5  IND d   1       2.866  -2.578  -0.111  0.00  0.00    -0.031 A 
ATOM      6  C6  IND d   1       1.793  -1.727  -0.283  0.00  0.00     0.015 A 
ATOM      7  C7  IND d   1       0.518  -2.203  -0.401  0.00  0.00    -0.016 A 
ATOM      8  C8  IND d   1       0.357  -3.580  -0.359  0.00  0.00    -0.047 A 
ATOM      9  C9  IND d   1       1.447  -4.451  -0.228  0.00  0.00    -0.096 A 
ATOM     10  HN1 IND d   1      -1.578  -4.061  -0.568  0.00  0.00     0.298 HD
ENDROOT
TORSDOF 0
ENDMDL
