MODEL 1
REMARK minimizedAffinity -0.113915347
REMARK minimizedRMSD -1
REMARK  0 active torsions:
REMARK  status: ('A' for Active; 'I' for Inactive)
ROOT
ATOM      1  N1  IND d   1       2.004  -4.160  -0.349  0.00  0.00    -0.196 N 
ATOM      2  C2  IND d   1       0.677  -4.491  -0.332  0.00  0.00     0.054 A 
ATOM      3  C3  IND d   1      -0.085  -3.375  -0.295  0.00  0.00    -0.031 A 
ATOM      4  C4  IND d   1       0.630  -0.903  -0.360  0.00  0.00     0.051 A 
ATOM      5  C5  IND d   1       1.736  -0.101  -0.342  0.00  0.00    -0.031 A 
ATOM      6  C6  IND d   1       3.014  -0.621  -0.327  0.00  0.00     0.015 A 
ATOM      7  C7  IND d   1       3.234  -1.970  -0.343  0.00  0.00    -0.016 A 
ATOM      8  C8  IND d   1       2.113  -2.787  -0.354  0.00  0.00    -0.047 A 
ATOM      9  C9  IND d   1       0.814  -2.265  -0.325  0.00  0.00    -0.096 A 
ATOM     10  HN1 IND d   1       2.659  -4.717  -0.356  0.00  0.00     0.298 HD
ENDROOT
TORSDOF 0
ENDMDL
