MODEL 1
REMARK minimizedAffinity 4.76743412
REMARK minimizedRMSD -1
REMARK  0 active torsions:
REMARK  status: ('A' for Active; 'I' for Inactive)
ROOT
ATOM      1  N1  IND d   1       2.020   0.589   5.999  0.00  0.00    -0.196 N 
ATOM      2  C2  IND d   1       0.734   0.266   5.668  0.00  0.00     0.054 A 
ATOM      3  C3  IND d   1       0.345   0.950   4.569  0.00  0.00    -0.031 A 
ATOM      4  C4  IND d   1       1.690   2.575   3.092  0.00  0.00     0.051 A 
ATOM      5  C5  IND d   1       2.896   3.211   3.014  0.00  0.00    -0.031 A 
ATOM      6  C6  IND d   1       3.894   3.000   3.944  0.00  0.00     0.015 A 
ATOM      7  C7  IND d   1       3.725   2.131   4.985  0.00  0.00    -0.016 A 
ATOM      8  C8  IND d   1       2.498   1.489   5.072  0.00  0.00    -0.047 A 
ATOM      9  C9  IND d   1       1.467   1.731   4.155  0.00  0.00    -0.096 A 
ATOM     10  HN1 IND d   1       2.457   0.281   6.672  0.00  0.00     0.298 HD
ENDROOT
TORSDOF 0
ENDMDL
