MODEL 1
REMARK minimizedAffinity 4.21921968
REMARK minimizedRMSD -1
REMARK  0 active torsions:
REMARK  status: ('A' for Active; 'I' for Inactive)
ROOT
ATOM      1  N1  IND d   1      -5.980   1.186   0.017  0.00  0.00    -0.196 N 
ATOM      2  C2  IND d   1      -5.999   0.235   0.999  0.00  0.00     0.054 A 
ATOM      3  C3  IND d   1      -4.908  -0.558   0.907  0.00  0.00    -0.031 A 
ATOM      4  C4  IND d   1      -2.912  -0.413  -0.712  0.00  0.00     0.051 A 
ATOM      5  C5  IND d   1      -2.462   0.268  -1.809  0.00  0.00    -0.031 A 
ATOM      6  C6  IND d   1      -3.175   1.312  -2.363  0.00  0.00     0.015 A 
ATOM      7  C7  IND d   1      -4.364   1.724  -1.831  0.00  0.00    -0.016 A 
ATOM      8  C8  IND d   1      -4.827   1.031  -0.721  0.00  0.00    -0.047 A 
ATOM      9  C9  IND d   1      -4.130  -0.057  -0.181  0.00  0.00    -0.096 A 
ATOM     10  HN1 IND d   1      -6.586   1.782  -0.117  0.00  0.00     0.298 HD
ENDROOT
TORSDOF 0
ENDMDL
