MODEL 1
REMARK minimizedAffinity -4.85024071
REMARK minimizedRMSD -1
REMARK  0 active torsions:
REMARK  status: ('A' for Active; 'I' for Inactive)
ROOT
ATOM      1  N1  IND d   1       0.219   0.314  -1.706  0.00  0.00    -0.196 N 
ATOM      2  C2  IND d   1      -0.714  -0.683  -1.666  0.00  0.00     0.054 A 
ATOM      3  C3  IND d   1      -0.123  -1.870  -1.403  0.00  0.00    -0.031 A 
ATOM      4  C4  IND d   1       2.348  -2.391  -0.902  0.00  0.00     0.051 A 
ATOM      5  C5  IND d   1       3.584  -1.810  -0.860  0.00  0.00    -0.031 A 
ATOM      6  C6  IND d   1       3.765  -0.463  -1.099  0.00  0.00     0.015 A 
ATOM      7  C7  IND d   1       2.710   0.358  -1.380  0.00  0.00    -0.016 A 
ATOM      8  C8  IND d   1       1.454  -0.230  -1.431  0.00  0.00    -0.047 A 
ATOM      9  C9  IND d   1       1.270  -1.604  -1.231  0.00  0.00    -0.096 A 
ATOM     10  HN1 IND d   1       0.061   1.143  -1.874  0.00  0.00     0.298 HD
ENDROOT
TORSDOF 0
ENDMDL
