MODEL 1
REMARK minimizedAffinity 12.6947298
REMARK minimizedRMSD -1
REMARK  1 active torsions:
REMARK  status: ('A' for Active; 'I' for Inactive)
REMARK    1  A    between atoms: N_2  and  C1_3 
ROOT
ATOM      1  C1  UNL d   1       0.960  -1.400   1.512  0.00  0.00     0.143 A 
ATOM      2  C2  UNL d   1      -0.303  -0.932   1.134  0.00  0.00    -0.057 A 
ATOM      3  C3  UNL d   1      -0.862  -1.272  -0.104  0.00  0.00     0.033 A 
ATOM      4  C4  UNL d   1      -0.154  -2.066  -1.000  0.00  0.00    -0.042 A 
ATOM      5  C5  UNL d   1       1.114  -2.522  -0.655  0.00  0.00     0.033 A 
ATOM      6  C6  UNL d   1       1.664  -2.184   0.585  0.00  0.00    -0.057 A 
ENDROOT
BRANCH   1   7
ATOM      7  N   UNL d   1       1.612  -1.016   2.687  0.00  0.00    -0.732 N 
ATOM      8  C   UNL d   1       1.647  -1.900   3.833  0.00  0.00     0.284 C 
ATOM      9  H3  UNL d   1       2.490  -0.536   2.505  0.00  0.00     0.395 HD
ENDBRANCH   1   7
TORSDOF 1
ENDMDL
