MODEL 1
REMARK minimizedAffinity -1.41390228
REMARK minimizedRMSD -1
REMARK  1 active torsions:
REMARK  status: ('A' for Active; 'I' for Inactive)
REMARK    1  A    between atoms: N_2  and  C1_3 
ROOT
ATOM      1  C1  UNL d   1       4.371  -2.316   4.142  0.00  0.00     0.143 A 
ATOM      2  C2  UNL d   1       3.175  -2.662   4.780  0.00  0.00    -0.057 A 
ATOM      3  C3  UNL d   1       1.937  -2.238   4.282  0.00  0.00     0.033 A 
ATOM      4  C4  UNL d   1       1.875  -1.432   3.150  0.00  0.00    -0.042 A 
ATOM      5  C5  UNL d   1       3.053  -1.055   2.514  0.00  0.00     0.033 A 
ATOM      6  C6  UNL d   1       4.285  -1.488   3.012  0.00  0.00    -0.057 A 
ENDROOT
BRANCH   1   7
ATOM      7  N   UNL d   1       5.637  -2.625   4.644  0.00  0.00    -0.732 N 
ATOM      8  C   UNL d   1       6.000  -2.270   6.000  0.00  0.00     0.284 C 
ATOM      9  H3  UNL d   1       5.954  -3.548   4.357  0.00  0.00     0.395 HD
ENDBRANCH   1   7
TORSDOF 1
ENDMDL
