MODEL 1
REMARK minimizedAffinity 5.96731043
REMARK minimizedRMSD -1
REMARK  1 active torsions:
REMARK  status: ('A' for Active; 'I' for Inactive)
REMARK    1  A    between atoms: N_2  and  C1_3 
ROOT
ATOM      1  C1  UNL d   1       3.650  -2.007   4.520  0.00  0.00     0.143 A 
ATOM      2  C2  UNL d   1       2.441  -2.698   4.383  0.00  0.00    -0.057 A 
ATOM      3  C3  UNL d   1       1.504  -2.335   3.408  0.00  0.00     0.033 A 
ATOM      4  C4  UNL d   1       1.749  -1.254   2.568  0.00  0.00    -0.042 A 
ATOM      5  C5  UNL d   1       2.932  -0.537   2.703  0.00  0.00     0.033 A 
ATOM      6  C6  UNL d   1       3.867  -0.908   3.674  0.00  0.00    -0.057 A 
ENDROOT
BRANCH   1   7
ATOM      7  N   UNL d   1       4.578  -2.257   5.534  0.00  0.00    -0.732 N 
ATOM      8  C   UNL d   1       5.998  -2.183   5.268  0.00  0.00     0.284 C 
ATOM      9  H3  UNL d   1       4.300  -1.849   6.424  0.00  0.00     0.395 HD
ENDBRANCH   1   7
TORSDOF 1
ENDMDL
