MODEL 1
REMARK minimizedAffinity 4.51255417
REMARK minimizedRMSD -1
REMARK  1 active torsions:
REMARK  status: ('A' for Active; 'I' for Inactive)
REMARK    1  A    between atoms: N_2  and  C1_3 
ROOT
ATOM      1  C1  UNL d   1      -5.794  -0.191  -5.208  0.00  0.00     0.143 A 
ATOM      2  C2  UNL d   1      -5.564   1.072  -5.764  0.00  0.00    -0.057 A 
ATOM      3  C3  UNL d   1      -5.466   2.213  -4.958  0.00  0.00     0.033 A 
ATOM      4  C4  UNL d   1      -5.625   2.114  -3.580  0.00  0.00    -0.042 A 
ATOM      5  C5  UNL d   1      -5.879   0.873  -3.008  0.00  0.00     0.033 A 
ATOM      6  C6  UNL d   1      -5.969  -0.264  -3.817  0.00  0.00    -0.057 A 
ENDROOT
BRANCH   1   7
ATOM      7  N   UNL d   1      -6.000  -1.348  -5.963  0.00  0.00    -0.732 N 
ATOM      8  C   UNL d   1      -5.124  -2.490  -5.816  0.00  0.00     0.284 C 
ATOM      9  H3  UNL d   1      -6.985  -1.587  -6.046  0.00  0.00     0.395 HD
ENDBRANCH   1   7
TORSDOF 1
ENDMDL
