MODEL 1
REMARK minimizedAffinity 15.3690443
REMARK minimizedRMSD -1
REMARK  0 active torsions:
REMARK  status: ('A' for Active; 'I' for Inactive)
ROOT
ATOM      1  C   UNL d   1      -1.865  -5.968   0.256  0.00  0.00     0.023 A 
ATOM      2  C1  UNL d   1      -3.081  -5.988  -0.427  0.00  0.00     0.003 A 
ATOM      3  C2  UNL d   1      -3.099  -5.993  -1.823  0.00  0.00     0.048 A 
ATOM      4  C3  UNL d   1      -1.898  -5.978  -2.530  0.00  0.00     0.023 A 
ATOM      5  C4  UNL d   1      -0.678  -5.959  -1.851  0.00  0.00     0.048 A 
ATOM      6  C5  UNL d   1      -0.665  -5.954  -0.455  0.00  0.00     0.003 A 
ATOM      7  I   UNL d   1      -1.922  -5.986  -4.608  0.00  0.00    -0.146 I 
ENDROOT
TORSDOF 0
ENDMDL
