MODEL 1
REMARK minimizedAffinity 11.7391272
REMARK minimizedRMSD -1
REMARK  0 active torsions:
REMARK  status: ('A' for Active; 'I' for Inactive)
ROOT
ATOM      1  C   UNL d   1      -3.550   0.440  -0.349  0.00  0.00     0.023 A 
ATOM      2  C1  UNL d   1      -2.878  -0.006  -1.487  0.00  0.00     0.003 A 
ATOM      3  C2  UNL d   1      -3.540  -0.057  -2.716  0.00  0.00     0.048 A 
ATOM      4  C3  UNL d   1      -4.874   0.342  -2.799  0.00  0.00     0.023 A 
ATOM      5  C4  UNL d   1      -5.550   0.791  -1.663  0.00  0.00     0.048 A 
ATOM      6  C5  UNL d   1      -4.884   0.838  -0.437  0.00  0.00     0.003 A 
ATOM      7  I   UNL d   1      -5.862   0.268  -4.626  0.00  0.00    -0.146 I 
ENDROOT
TORSDOF 0
ENDMDL
