MODEL 1
REMARK minimizedAffinity 18.7924557
REMARK minimizedRMSD -1
REMARK  0 active torsions:
REMARK  status: ('A' for Active; 'I' for Inactive)
ROOT
ATOM      1  C   UNL d   1       2.602   0.818  -1.128  0.00  0.00     0.023 A 
ATOM      2  C1  UNL d   1       3.236   2.016  -1.459  0.00  0.00     0.003 A 
ATOM      3  C2  UNL d   1       3.929   2.734  -0.482  0.00  0.00     0.048 A 
ATOM      4  C3  UNL d   1       3.984   2.249   0.824  0.00  0.00     0.023 A 
ATOM      5  C4  UNL d   1       3.352   1.050   1.160  0.00  0.00     0.048 A 
ATOM      6  C5  UNL d   1       2.660   0.336   0.180  0.00  0.00     0.003 A 
ATOM      7  I   UNL d   1       5.014   3.316   2.280  0.00  0.00    -0.146 I 
ENDROOT
TORSDOF 0
ENDMDL
