MODEL 1
REMARK minimizedAffinity 6.60623837
REMARK minimizedRMSD -1
REMARK  0 active torsions:
REMARK  status: ('A' for Active; 'I' for Inactive)
ROOT
ATOM      1  C   UNL d   1      -4.868   5.999   5.998  0.00  0.00     0.023 A 
ATOM      2  C1  UNL d   1      -5.999   5.268   5.636  0.00  0.00     0.003 A 
ATOM      3  C2  UNL d   1      -5.994   4.505   4.467  0.00  0.00     0.048 A 
ATOM      4  C3  UNL d   1      -4.854   4.477   3.665  0.00  0.00     0.023 A 
ATOM      5  C4  UNL d   1      -3.719   5.206   4.023  0.00  0.00     0.048 A 
ATOM      6  C5  UNL d   1      -3.729   5.968   5.193  0.00  0.00     0.003 A 
ATOM      7  I   UNL d   1      -4.844   3.341   1.924  0.00  0.00    -0.146 I 
ENDROOT
TORSDOF 0
ENDMDL
