MODEL 1
REMARK minimizedAffinity 12.7667084
REMARK minimizedRMSD -1
REMARK  0 active torsions:
REMARK  status: ('A' for Active; 'I' for Inactive)
ROOT
ATOM      1  C   UNL d   1      -1.517  -4.973  -1.609  0.00  0.00     0.023 A 
ATOM      2  C1  UNL d   1      -0.497  -4.550  -0.756  0.00  0.00     0.003 A 
ATOM      3  C2  UNL d   1      -0.559  -4.843   0.608  0.00  0.00     0.048 A 
ATOM      4  C3  UNL d   1      -1.643  -5.561   1.112  0.00  0.00     0.023 A 
ATOM      5  C4  UNL d   1      -2.665  -5.987   0.263  0.00  0.00     0.048 A 
ATOM      6  C5  UNL d   1      -2.600  -5.690  -1.100  0.00  0.00     0.003 A 
ATOM      7  I   UNL d   1      -1.737  -5.999   3.142  0.00  0.00    -0.146 I 
ENDROOT
TORSDOF 0
ENDMDL
