MODEL 1
REMARK minimizedAffinity 3.07057428
REMARK minimizedRMSD -1
REMARK  0 active torsions:
REMARK  status: ('A' for Active; 'I' for Inactive)
ROOT
ATOM      1  C   UNL d   1       4.064   1.359  -2.086  0.00  0.00     0.023 A 
ATOM      2  C1  UNL d   1       3.611   1.523  -0.777  0.00  0.00     0.003 A 
ATOM      3  C2  UNL d   1       2.973   0.468  -0.120  0.00  0.00     0.048 A 
ATOM      4  C3  UNL d   1       2.793  -0.748  -0.778  0.00  0.00     0.023 A 
ATOM      5  C4  UNL d   1       3.245  -0.917  -2.088  0.00  0.00     0.048 A 
ATOM      6  C5  UNL d   1       3.881   0.141  -2.741  0.00  0.00     0.003 A 
ATOM      7  I   UNL d   1       1.844  -2.319   0.197  0.00  0.00    -0.146 I 
ENDROOT
TORSDOF 0
ENDMDL
