MODEL 1
REMARK minimizedAffinity 6.09712505
REMARK minimizedRMSD -1
REMARK  0 active torsions:
REMARK  status: ('A' for Active; 'I' for Inactive)
ROOT
ATOM      1  C   UNL d   1       4.217   2.098  -1.003  0.00  0.00     0.023 A 
ATOM      2  C1  UNL d   1       4.818   1.415   0.054  0.00  0.00     0.003 A 
ATOM      3  C2  UNL d   1       4.232   0.252   0.559  0.00  0.00     0.048 A 
ATOM      4  C3  UNL d   1       3.045  -0.223   0.001  0.00  0.00     0.023 A 
ATOM      5  C4  UNL d   1       2.441   0.457  -1.058  0.00  0.00     0.048 A 
ATOM      6  C5  UNL d   1       3.030   1.619  -1.559  0.00  0.00     0.003 A 
ATOM      7  I   UNL d   1       2.172  -1.953   0.751  0.00  0.00    -0.146 I 
ENDROOT
TORSDOF 0
ENDMDL
