MODEL 1
REMARK minimizedAffinity 14.6549292
REMARK minimizedRMSD -1
REMARK  0 active torsions:
REMARK  status: ('A' for Active; 'I' for Inactive)
ROOT
ATOM      1  C   UNL d   1       5.995   2.884  -1.255  0.00  0.00     0.023 A 
ATOM      2  C1  UNL d   1       4.993   2.636  -2.194  0.00  0.00     0.003 A 
ATOM      3  C2  UNL d   1       3.827   1.969  -1.813  0.00  0.00     0.048 A 
ATOM      4  C3  UNL d   1       3.669   1.553  -0.491  0.00  0.00     0.023 A 
ATOM      5  C4  UNL d   1       4.669   1.799   0.452  0.00  0.00     0.048 A 
ATOM      6  C5  UNL d   1       5.833   2.466   0.066  0.00  0.00     0.003 A 
ATOM      7  I   UNL d   1       1.935   0.560   0.078  0.00  0.00    -0.146 I 
ENDROOT
TORSDOF 0
ENDMDL
