MODEL 1
REMARK minimizedAffinity 6.32925987
REMARK minimizedRMSD -1
REMARK  0 active torsions:
REMARK  status: ('A' for Active; 'I' for Inactive)
ROOT
ATOM      1  C   UNL d   1      -0.695  -6.000   5.650  0.00  0.00     0.023 A 
ATOM      2  C1  UNL d   1      -1.543  -5.551   4.637  0.00  0.00     0.003 A 
ATOM      3  C2  UNL d   1      -1.266  -4.355   3.972  0.00  0.00     0.048 A 
ATOM      4  C3  UNL d   1      -0.138  -3.613   4.324  0.00  0.00     0.023 A 
ATOM      5  C4  UNL d   1       0.713  -4.059   5.336  0.00  0.00     0.048 A 
ATOM      6  C5  UNL d   1       0.431  -5.255   5.999  0.00  0.00     0.003 A 
ATOM      7  I   UNL d   1       0.277  -1.833   3.335  0.00  0.00    -0.146 I 
ENDROOT
TORSDOF 0
ENDMDL
