MODEL 1
REMARK minimizedAffinity -4.15160465
REMARK minimizedRMSD -1
REMARK  1 active torsions:
REMARK  status: ('A' for Active; 'I' for Inactive)
REMARK    1  A    between atoms: C1_2  and  C2_3 
ROOT
ATOM      1  C2  UNL d   1       2.139  -0.395  -3.171  0.00  0.00    -0.073 A 
ATOM      2  C3  UNL d   1       2.694  -1.643  -3.477  0.00  0.00    -0.002 A 
ATOM      3  C4  UNL d   1       4.005  -1.736  -3.948  0.00  0.00     0.004 A 
ATOM      4  C5  UNL d   1       4.775  -0.584  -4.111  0.00  0.00    -0.004 A 
ATOM      5  C6  UNL d   1       4.242   0.671  -3.799  0.00  0.00    -0.075 A 
ATOM      6  C7  UNL d   1       5.057   1.919  -3.972  0.00  0.00     0.076 C 
ATOM      7  C8  UNL d   1       2.924   0.756  -3.330  0.00  0.00     0.001 A 
ENDROOT
BRANCH   1   8
ATOM      8  C1  UNL d   1       0.727  -0.291  -2.656  0.00  0.00     0.053 C 
ATOM      9  C   UNL d   1       0.636   0.578  -1.412  0.00  0.00     0.018 C 
ENDBRANCH   1   8
TORSDOF 1
ENDMDL
