MODEL 1
REMARK minimizedAffinity -3.9531045
REMARK minimizedRMSD -1
REMARK  1 active torsions:
REMARK  status: ('A' for Active; 'I' for Inactive)
REMARK    1  A    between atoms: C1_2  and  C2_3 
ROOT
ATOM      1  C2  UNL d   1       0.486   0.120   1.899  0.00  0.00    -0.073 A 
ATOM      2  C3  UNL d   1      -0.434  -0.608   2.662  0.00  0.00    -0.002 A 
ATOM      3  C4  UNL d   1      -1.630  -1.048   2.093  0.00  0.00     0.004 A 
ATOM      4  C5  UNL d   1      -1.915  -0.770   0.757  0.00  0.00    -0.004 A 
ATOM      5  C6  UNL d   1      -1.003  -0.054  -0.026  0.00  0.00    -0.075 A 
ATOM      6  C7  UNL d   1      -1.296   0.254  -1.465  0.00  0.00     0.076 C 
ATOM      7  C8  UNL d   1       0.195   0.386   0.553  0.00  0.00     0.001 A 
ENDROOT
BRANCH   1   8
ATOM      8  C1  UNL d   1       1.782   0.591   2.507  0.00  0.00     0.053 C 
ATOM      9  C   UNL d   1       1.620   1.914   3.239  0.00  0.00     0.018 C 
ENDBRANCH   1   8
TORSDOF 1
ENDMDL
