MODEL 1
REMARK minimizedAffinity -1.65560341
REMARK minimizedRMSD -1
REMARK  1 active torsions:
REMARK  status: ('A' for Active; 'I' for Inactive)
REMARK    1  A    between atoms: C1_2  and  C2_3 
ROOT
ATOM      1  C2  UNL d   1       0.456   0.356  -0.896  0.00  0.00    -0.073 A 
ATOM      2  C3  UNL d   1      -0.873   0.527  -1.299  0.00  0.00    -0.002 A 
ATOM      3  C4  UNL d   1      -1.918   0.283  -0.406  0.00  0.00     0.004 A 
ATOM      4  C5  UNL d   1      -1.644  -0.127   0.899  0.00  0.00    -0.004 A 
ATOM      5  C6  UNL d   1      -0.322  -0.292   1.324  0.00  0.00    -0.075 A 
ATOM      6  C7  UNL d   1      -0.011  -0.735   2.723  0.00  0.00     0.076 C 
ATOM      7  C8  UNL d   1       0.721  -0.048   0.420  0.00  0.00     0.001 A 
ENDROOT
BRANCH   1   8
ATOM      8  C1  UNL d   1       1.587   0.624  -1.855  0.00  0.00     0.053 C 
ATOM      9  C   UNL d   1       1.680  -0.439  -2.938  0.00  0.00     0.018 C 
ENDBRANCH   1   8
TORSDOF 1
ENDMDL
