MODEL 1
REMARK minimizedAffinity 4.66962957
REMARK minimizedRMSD -1
REMARK  1 active torsions:
REMARK  status: ('A' for Active; 'I' for Inactive)
REMARK    1  A    between atoms: C1_2  and  C2_3 
ROOT
ATOM      1  C2  UNL d   1       0.556   0.871   1.774  0.00  0.00    -0.073 A 
ATOM      2  C3  UNL d   1      -0.585   0.085   1.966  0.00  0.00    -0.002 A 
ATOM      3  C4  UNL d   1      -0.469  -1.219   2.450  0.00  0.00     0.004 A 
ATOM      4  C5  UNL d   1       0.786  -1.746   2.753  0.00  0.00    -0.004 A 
ATOM      5  C6  UNL d   1       1.937  -0.972   2.579  0.00  0.00    -0.075 A 
ATOM      6  C7  UNL d   1       3.295  -1.525   2.898  0.00  0.00     0.076 C 
ATOM      7  C8  UNL d   1       1.813   0.336   2.090  0.00  0.00     0.001 A 
ENDROOT
BRANCH   1   8
ATOM      8  C1  UNL d   1       0.436   2.282   1.258  0.00  0.00     0.053 C 
ATOM      9  C   UNL d   1       1.513   2.609   0.235  0.00  0.00     0.018 C 
ENDBRANCH   1   8
TORSDOF 1
ENDMDL
