MODEL 1
REMARK minimizedAffinity 3.59051466
REMARK minimizedRMSD -1
REMARK  1 active torsions:
REMARK  status: ('A' for Active; 'I' for Inactive)
REMARK    1  A    between atoms: C1_2  and  C2_3 
ROOT
ATOM      1  C2  UNL d   1      -1.305   0.130   1.397  0.00  0.00    -0.073 A 
ATOM      2  C3  UNL d   1      -0.733  -0.559   2.473  0.00  0.00    -0.002 A 
ATOM      3  C4  UNL d   1       0.639  -0.478   2.712  0.00  0.00     0.004 A 
ATOM      4  C5  UNL d   1       1.451   0.297   1.884  0.00  0.00    -0.004 A 
ATOM      5  C6  UNL d   1       0.896   1.003   0.812  0.00  0.00    -0.075 A 
ATOM      6  C7  UNL d   1       1.756   1.839  -0.090  0.00  0.00     0.076 C 
ATOM      7  C8  UNL d   1      -0.482   0.914   0.576  0.00  0.00     0.001 A 
ENDROOT
BRANCH   1   8
ATOM      8  C1  UNL d   1      -2.788   0.050   1.139  0.00  0.00     0.053 C 
ATOM      9  C   UNL d   1      -3.598   0.641   2.282  0.00  0.00     0.018 C 
ENDBRANCH   1   8
TORSDOF 1
ENDMDL
