MODEL 1
REMARK minimizedAffinity -4.52812719
REMARK minimizedRMSD -1
REMARK  1 active torsions:
REMARK  status: ('A' for Active; 'I' for Inactive)
REMARK    1  A    between atoms: C1_2  and  C2_3 
ROOT
ATOM      1  C2  UNL d   1      -0.291   0.066   1.216  0.00  0.00    -0.073 A 
ATOM      2  C3  UNL d   1       0.048  -0.187   2.550  0.00  0.00    -0.002 A 
ATOM      3  C4  UNL d   1      -0.946  -0.457   3.491  0.00  0.00     0.004 A 
ATOM      4  C5  UNL d   1      -2.287  -0.483   3.108  0.00  0.00    -0.004 A 
ATOM      5  C6  UNL d   1      -2.645  -0.245   1.777  0.00  0.00    -0.075 A 
ATOM      6  C7  UNL d   1      -4.083  -0.267   1.349  0.00  0.00     0.076 C 
ATOM      7  C8  UNL d   1      -1.641   0.028   0.839  0.00  0.00     0.001 A 
ENDROOT
BRANCH   1   8
ATOM      8  C1  UNL d   1       0.780   0.351   0.195  0.00  0.00     0.053 C 
ATOM      9  C   UNL d   1       0.242   0.293  -1.226  0.00  0.00     0.018 C 
ENDBRANCH   1   8
TORSDOF 1
ENDMDL
