MODEL 1
REMARK minimizedAffinity -5.70254612
REMARK minimizedRMSD -1
REMARK  1 active torsions:
REMARK  status: ('A' for Active; 'I' for Inactive)
REMARK    1  A    between atoms: C1_2  and  C2_3 
ROOT
ATOM      1  C2  UNL d   1       2.954  -0.738  -3.736  0.00  0.00    -0.073 A 
ATOM      2  C3  UNL d   1       2.332  -1.937  -4.102  0.00  0.00    -0.002 A 
ATOM      3  C4  UNL d   1       1.001  -2.174  -3.758  0.00  0.00     0.004 A 
ATOM      4  C5  UNL d   1       0.277  -1.214  -3.051  0.00  0.00    -0.004 A 
ATOM      5  C6  UNL d   1       0.877  -0.004  -2.687  0.00  0.00    -0.075 A 
ATOM      6  C7  UNL d   1       0.113   1.038  -1.925  0.00  0.00     0.076 C 
ATOM      7  C8  UNL d   1       2.215   0.225  -3.034  0.00  0.00     0.001 A 
ENDROOT
BRANCH   1   8
ATOM      8  C1  UNL d   1       4.390  -0.475  -4.111  0.00  0.00     0.053 C 
ATOM      9  C   UNL d   1       4.808   0.953  -3.798  0.00  0.00     0.018 C 
ENDBRANCH   1   8
TORSDOF 1
ENDMDL
