MODEL 1
REMARK minimizedAffinity -0.713148832
REMARK minimizedRMSD -1
REMARK  1 active torsions:
REMARK  status: ('A' for Active; 'I' for Inactive)
REMARK    1  A    between atoms: C1_2  and  C2_3 
ROOT
ATOM      1  C2  UNL d   1      -0.444  -0.594  -0.954  0.00  0.00    -0.073 A 
ATOM      2  C3  UNL d   1      -1.582   0.159  -0.644  0.00  0.00    -0.002 A 
ATOM      3  C4  UNL d   1      -1.714   0.753   0.612  0.00  0.00     0.004 A 
ATOM      4  C5  UNL d   1      -0.708   0.606   1.567  0.00  0.00    -0.004 A 
ATOM      5  C6  UNL d   1       0.443  -0.133   1.272  0.00  0.00    -0.075 A 
ATOM      6  C7  UNL d   1       1.533  -0.302   2.289  0.00  0.00     0.076 C 
ATOM      7  C8  UNL d   1       0.567  -0.728   0.009  0.00  0.00     0.001 A 
ENDROOT
BRANCH   1   8
ATOM      8  C1  UNL d   1      -0.294  -1.231  -2.312  0.00  0.00     0.053 C 
ATOM      9  C   UNL d   1       1.121  -1.097  -2.851  0.00  0.00     0.018 C 
ENDBRANCH   1   8
TORSDOF 1
ENDMDL
