MODEL 1
REMARK minimizedAffinity 1.16889405
REMARK minimizedRMSD -1
REMARK  1 active torsions:
REMARK  status: ('A' for Active; 'I' for Inactive)
REMARK    1  A    between atoms: C1_2  and  C2_3 
ROOT
ATOM      1  C2  UNL d   1      -2.015   0.263   1.901  0.00  0.00    -0.073 A 
ATOM      2  C3  UNL d   1      -2.303  -0.824   1.069  0.00  0.00    -0.002 A 
ATOM      3  C4  UNL d   1      -1.306  -1.743   0.738  0.00  0.00     0.004 A 
ATOM      4  C5  UNL d   1      -0.014  -1.587   1.241  0.00  0.00    -0.004 A 
ATOM      5  C6  UNL d   1       0.290  -0.514   2.084  0.00  0.00    -0.075 A 
ATOM      6  C7  UNL d   1       1.676  -0.331   2.631  0.00  0.00     0.076 C 
ATOM      7  C8  UNL d   1      -0.716   0.406   2.409  0.00  0.00     0.001 A 
ENDROOT
BRANCH   1   8
ATOM      8  C1  UNL d   1      -3.091   1.254   2.266  0.00  0.00     0.053 C 
ATOM      9  C   UNL d   1      -4.377   1.010   1.492  0.00  0.00     0.018 C 
ENDBRANCH   1   8
TORSDOF 1
ENDMDL
