MODEL 1
REMARK minimizedAffinity 2.32743931
REMARK minimizedRMSD -1
REMARK  1 active torsions:
REMARK  status: ('A' for Active; 'I' for Inactive)
REMARK    1  A    between atoms: C1_2  and  C2_3 
ROOT
ATOM      1  C2  UNL d   1       0.134   0.787   0.387  0.00  0.00    -0.073 A 
ATOM      2  C3  UNL d   1      -0.805  -0.116   0.899  0.00  0.00    -0.002 A 
ATOM      3  C4  UNL d   1      -0.962  -0.263   2.278  0.00  0.00     0.004 A 
ATOM      4  C5  UNL d   1      -0.188   0.495   3.157  0.00  0.00    -0.004 A 
ATOM      5  C6  UNL d   1       0.746   1.411   2.664  0.00  0.00    -0.075 A 
ATOM      6  C7  UNL d   1       1.588   2.233   3.597  0.00  0.00     0.076 C 
ATOM      7  C8  UNL d   1       0.900   1.551   1.278  0.00  0.00     0.001 A 
ENDROOT
BRANCH   1   8
ATOM      8  C1  UNL d   1       0.302   0.954  -1.101  0.00  0.00     0.053 C 
ATOM      9  C   UNL d   1      -0.955   0.565  -1.864  0.00  0.00     0.018 C 
ENDBRANCH   1   8
TORSDOF 1
ENDMDL
