MODEL 1
REMARK minimizedAffinity 2.55447006
REMARK minimizedRMSD -1
REMARK  1 active torsions:
REMARK  status: ('A' for Active; 'I' for Inactive)
REMARK    1  A    between atoms: C1_2  and  C2_3 
ROOT
ATOM      1  C2  UNL d   1      -1.282   0.222   1.715  0.00  0.00    -0.073 A 
ATOM      2  C3  UNL d   1      -0.459   0.973   2.561  0.00  0.00    -0.002 A 
ATOM      3  C4  UNL d   1       0.773   0.467   2.978  0.00  0.00     0.004 A 
ATOM      4  C5  UNL d   1       1.197  -0.790   2.549  0.00  0.00    -0.004 A 
ATOM      5  C6  UNL d   1       0.393  -1.551   1.693  0.00  0.00    -0.075 A 
ATOM      6  C7  UNL d   1       0.834  -2.907   1.224  0.00  0.00     0.076 C 
ATOM      7  C8  UNL d   1      -0.844  -1.037   1.281  0.00  0.00     0.001 A 
ENDROOT
BRANCH   1   8
ATOM      8  C1  UNL d   1      -2.610   0.767   1.258  0.00  0.00     0.053 C 
ATOM      9  C   UNL d   1      -3.606   0.877   2.401  0.00  0.00     0.018 C 
ENDBRANCH   1   8
TORSDOF 1
ENDMDL
