MODEL 1
REMARK minimizedAffinity 4.42531347
REMARK minimizedRMSD -1
REMARK  1 active torsions:
REMARK  status: ('A' for Active; 'I' for Inactive)
REMARK    1  A    between atoms: C1_2  and  C2_3 
ROOT
ATOM      1  C2  UNL d   1      -0.525  -0.179  -0.192  0.00  0.00    -0.073 A 
ATOM      2  C3  UNL d   1      -0.860  -1.538  -0.185  0.00  0.00    -0.002 A 
ATOM      3  C4  UNL d   1      -0.665  -2.317  -1.326  0.00  0.00     0.004 A 
ATOM      4  C5  UNL d   1      -0.128  -1.749  -2.481  0.00  0.00    -0.004 A 
ATOM      5  C6  UNL d   1       0.224  -0.396  -2.504  0.00  0.00    -0.075 A 
ATOM      6  C7  UNL d   1       0.800   0.231  -3.739  0.00  0.00     0.076 C 
ATOM      7  C8  UNL d   1       0.023   0.381  -1.355  0.00  0.00     0.001 A 
ENDROOT
BRANCH   1   8
ATOM      8  C1  UNL d   1      -0.727   0.666   1.040  0.00  0.00     0.053 C 
ATOM      9  C   UNL d   1      -1.545  -0.057   2.099  0.00  0.00     0.018 C 
ENDBRANCH   1   8
TORSDOF 1
ENDMDL
