MODEL 1
REMARK minimizedAffinity -4.44166565
REMARK minimizedRMSD -1
REMARK  1 active torsions:
REMARK  status: ('A' for Active; 'I' for Inactive)
REMARK    1  A    between atoms: C1_2  and  C2_3 
ROOT
ATOM      1  C2  UNL d   1       0.907  -1.845   1.385  0.00  0.00    -0.076 A 
ATOM      2  C3  UNL d   1       1.948  -1.244   0.656  0.00  0.00     0.004 A 
ATOM      3  C4  UNL d   1       1.708  -0.140  -0.161  0.00  0.00    -0.003 A 
ATOM      4  C5  UNL d   1       0.423   0.382  -0.260  0.00  0.00     0.000 A 
ATOM      5  C6  UNL d   1      -0.618  -0.190   0.470  0.00  0.00     0.000 A 
ATOM      6  C7  UNL d   1      -0.390  -1.294   1.310  0.00  0.00    -0.073 A 
ATOM      7  C8  UNL d   1      -1.551  -1.875   2.070  0.00  0.00     0.078 C 
ENDROOT
BRANCH   1   8
ATOM      8  C1  UNL d   1       1.222  -3.056   2.233  0.00  0.00     0.053 C 
ATOM      9  C   UNL d   1       1.497  -2.696   3.685  0.00  0.00     0.018 C 
ENDBRANCH   1   8
TORSDOF 1
ENDMDL
