MODEL 1
REMARK minimizedAffinity -5.11558294
REMARK minimizedRMSD -1
REMARK  1 active torsions:
REMARK  status: ('A' for Active; 'I' for Inactive)
REMARK    1  A    between atoms: C1_2  and  C2_3 
ROOT
ATOM      1  C2  UNL d   1       0.298  -0.036   0.503  0.00  0.00    -0.076 A 
ATOM      2  C3  UNL d   1      -1.021  -0.220   0.954  0.00  0.00     0.004 A 
ATOM      3  C4  UNL d   1      -1.860   0.870   1.181  0.00  0.00    -0.003 A 
ATOM      4  C5  UNL d   1      -1.395   2.161   0.959  0.00  0.00     0.000 A 
ATOM      5  C6  UNL d   1      -0.095   2.361   0.495  0.00  0.00     0.000 A 
ATOM      6  C7  UNL d   1       0.759   1.273   0.246  0.00  0.00    -0.073 A 
ATOM      7  C8  UNL d   1       2.152   1.547  -0.249  0.00  0.00     0.078 C 
ENDROOT
BRANCH   1   8
ATOM      8  C1  UNL d   1       1.170  -1.254   0.301  0.00  0.00     0.053 C 
ATOM      9  C   UNL d   1       0.978  -2.297   1.391  0.00  0.00     0.018 C 
ENDBRANCH   1   8
TORSDOF 1
ENDMDL
