MODEL 1
REMARK minimizedAffinity -2.32081628
REMARK minimizedRMSD -1
REMARK  1 active torsions:
REMARK  status: ('A' for Active; 'I' for Inactive)
REMARK    1  A    between atoms: C1_2  and  C2_3 
ROOT
ATOM      1  C2  UNL d   1       0.573  -1.733   1.376  0.00  0.00    -0.076 A 
ATOM      2  C3  UNL d   1       1.514  -0.812   0.883  0.00  0.00     0.004 A 
ATOM      3  C4  UNL d   1       1.151   0.148  -0.060  0.00  0.00    -0.003 A 
ATOM      4  C5  UNL d   1      -0.158   0.204  -0.525  0.00  0.00     0.000 A 
ATOM      5  C6  UNL d   1      -1.109  -0.690  -0.033  0.00  0.00     0.000 A 
ATOM      6  C7  UNL d   1      -0.764  -1.654   0.930  0.00  0.00    -0.073 A 
ATOM      7  C8  UNL d   1      -1.828  -2.597   1.420  0.00  0.00     0.078 C 
ENDROOT
BRANCH   1   8
ATOM      8  C1  UNL d   1       1.030  -2.769   2.377  0.00  0.00     0.053 C 
ATOM      9  C   UNL d   1       0.503  -2.498   3.778  0.00  0.00     0.018 C 
ENDBRANCH   1   8
TORSDOF 1
ENDMDL
