MODEL 1
REMARK minimizedAffinity -4.5560813
REMARK minimizedRMSD -1
REMARK  1 active torsions:
REMARK  status: ('A' for Active; 'I' for Inactive)
REMARK    1  A    between atoms: C1_2  and  C2_3 
ROOT
ATOM      1  C2  UNL d   1       0.358   0.066  -0.226  0.00  0.00    -0.076 A 
ATOM      2  C3  UNL d   1       1.250  -0.954  -0.600  0.00  0.00     0.004 A 
ATOM      3  C4  UNL d   1       1.148  -2.232  -0.053  0.00  0.00    -0.003 A 
ATOM      4  C5  UNL d   1       0.152  -2.511   0.876  0.00  0.00     0.000 A 
ATOM      5  C6  UNL d   1      -0.753  -1.516   1.245  0.00  0.00     0.000 A 
ATOM      6  C7  UNL d   1      -0.674  -0.227   0.691  0.00  0.00    -0.073 A 
ATOM      7  C8  UNL d   1      -1.672   0.809   1.129  0.00  0.00     0.078 C 
ENDROOT
BRANCH   1   8
ATOM      8  C1  UNL d   1       0.534   1.440  -0.832  0.00  0.00     0.053 C 
ATOM      9  C   UNL d   1       1.579   1.460  -1.937  0.00  0.00     0.018 C 
ENDBRANCH   1   8
TORSDOF 1
ENDMDL
