MODEL 1
REMARK minimizedAffinity -4.34762335
REMARK minimizedRMSD -1
REMARK  1 active torsions:
REMARK  status: ('A' for Active; 'I' for Inactive)
REMARK    1  A    between atoms: C1_2  and  C2_3 
ROOT
ATOM      1  C2  UNL d   1      -0.911  -1.217   0.960  0.00  0.00    -0.076 A 
ATOM      2  C3  UNL d   1      -1.862  -0.335   1.503  0.00  0.00     0.004 A 
ATOM      3  C4  UNL d   1      -1.839   1.024   1.193  0.00  0.00    -0.003 A 
ATOM      4  C5  UNL d   1      -0.865   1.523   0.335  0.00  0.00     0.000 A 
ATOM      5  C6  UNL d   1       0.075   0.659  -0.227  0.00  0.00     0.000 A 
ATOM      6  C7  UNL d   1       0.056  -0.716   0.062  0.00  0.00    -0.073 A 
ATOM      7  C8  UNL d   1       1.097  -1.601  -0.567  0.00  0.00     0.078 C 
ENDROOT
BRANCH   1   8
ATOM      8  C1  UNL d   1      -0.969  -2.676   1.354  0.00  0.00     0.053 C 
ATOM      9  C   UNL d   1      -2.340  -3.087   1.868  0.00  0.00     0.018 C 
ENDBRANCH   1   8
TORSDOF 1
ENDMDL
