MODEL 1
REMARK minimizedAffinity -3.82304668
REMARK minimizedRMSD -1
REMARK  1 active torsions:
REMARK  status: ('A' for Active; 'I' for Inactive)
REMARK    1  A    between atoms: C1_2  and  C2_3 
ROOT
ATOM      1  C2  UNL d   1      -0.401  -0.614  -0.013  0.00  0.00    -0.076 A 
ATOM      2  C3  UNL d   1       0.724  -1.446   0.128  0.00  0.00     0.004 A 
ATOM      3  C4  UNL d   1       0.669  -2.600   0.908  0.00  0.00    -0.003 A 
ATOM      4  C5  UNL d   1      -0.511  -2.941   1.559  0.00  0.00     0.000 A 
ATOM      5  C6  UNL d   1      -1.641  -2.137   1.416  0.00  0.00     0.000 A 
ATOM      6  C7  UNL d   1      -1.608  -0.979   0.621  0.00  0.00    -0.073 A 
ATOM      7  C8  UNL d   1      -2.855  -0.145   0.507  0.00  0.00     0.078 C 
ENDROOT
BRANCH   1   8
ATOM      8  C1  UNL d   1      -0.274   0.639  -0.849  0.00  0.00     0.053 C 
ATOM      9  C   UNL d   1       0.546   1.719  -0.161  0.00  0.00     0.018 C 
ENDBRANCH   1   8
TORSDOF 1
ENDMDL
