MODEL 1
REMARK minimizedAffinity -5.82462454
REMARK minimizedRMSD -1
REMARK  1 active torsions:
REMARK  status: ('A' for Active; 'I' for Inactive)
REMARK    1  A    between atoms: C1_2  and  C2_3 
ROOT
ATOM      1  C2  UNL d   1      -0.091   0.032   0.551  0.00  0.00    -0.076 A 
ATOM      2  C3  UNL d   1       1.048  -0.791   0.521  0.00  0.00     0.004 A 
ATOM      3  C4  UNL d   1       0.964  -2.144   0.846  0.00  0.00    -0.003 A 
ATOM      4  C5  UNL d   1      -0.261  -2.696   1.205  0.00  0.00     0.000 A 
ATOM      5  C6  UNL d   1      -1.405  -1.898   1.222  0.00  0.00     0.000 A 
ATOM      6  C7  UNL d   1      -1.340  -0.536   0.882  0.00  0.00    -0.073 A 
ATOM      7  C8  UNL d   1      -2.604   0.279   0.923  0.00  0.00     0.078 C 
ENDROOT
BRANCH   1   8
ATOM      8  C1  UNL d   1       0.066   1.498   0.215  0.00  0.00     0.053 C 
ATOM      9  C   UNL d   1       1.175   1.749  -0.794  0.00  0.00     0.018 C 
ENDBRANCH   1   8
TORSDOF 1
ENDMDL
