MODEL 1
REMARK minimizedAffinity -5.12074184
REMARK minimizedRMSD -1
REMARK  1 active torsions:
REMARK  status: ('A' for Active; 'I' for Inactive)
REMARK    1  A    between atoms: C1_2  and  C2_3 
ROOT
ATOM      1  C2  UNL d   1      -0.288  -1.352   0.595  0.00  0.00    -0.076 A 
ATOM      2  C3  UNL d   1      -1.397  -0.491   0.650  0.00  0.00     0.004 A 
ATOM      3  C4  UNL d   1      -1.265   0.868   0.367  0.00  0.00    -0.003 A 
ATOM      4  C5  UNL d   1      -0.021   1.386   0.023  0.00  0.00     0.000 A 
ATOM      5  C6  UNL d   1       1.087   0.543  -0.054  0.00  0.00     0.000 A 
ATOM      6  C7  UNL d   1       0.967  -0.832   0.213  0.00  0.00    -0.073 A 
ATOM      7  C8  UNL d   1       2.196  -1.694   0.121  0.00  0.00     0.078 C 
ENDROOT
BRANCH   1   8
ATOM      8  C1  UNL d   1      -0.486  -2.811   0.939  0.00  0.00     0.053 C 
ATOM      9  C   UNL d   1      -1.947  -3.160   1.176  0.00  0.00     0.018 C 
ENDBRANCH   1   8
TORSDOF 1
ENDMDL
