MODEL 1
REMARK minimizedAffinity -5.11580133
REMARK minimizedRMSD -1
REMARK  1 active torsions:
REMARK  status: ('A' for Active; 'I' for Inactive)
REMARK    1  A    between atoms: C1_2  and  C2_3 
ROOT
ATOM      1  C2  UNL d   1      -0.050  -1.286   0.497  0.00  0.00    -0.076 A 
ATOM      2  C3  UNL d   1      -1.052  -0.305   0.408  0.00  0.00     0.004 A 
ATOM      3  C4  UNL d   1      -0.755   0.987  -0.023  0.00  0.00    -0.003 A 
ATOM      4  C5  UNL d   1       0.549   1.318  -0.373  0.00  0.00     0.000 A 
ATOM      5  C6  UNL d   1       1.553   0.352  -0.308  0.00  0.00     0.000 A 
ATOM      6  C7  UNL d   1       1.267  -0.960   0.109  0.00  0.00    -0.073 A 
ATOM      7  C8  UNL d   1       2.389  -1.960   0.166  0.00  0.00     0.078 C 
ENDROOT
BRANCH   1   8
ATOM      8  C1  UNL d   1      -0.427  -2.663   0.997  0.00  0.00     0.053 C 
ATOM      9  C   UNL d   1      -1.914  -2.948   0.855  0.00  0.00     0.018 C 
ENDBRANCH   1   8
TORSDOF 1
ENDMDL
