MODEL 1
REMARK minimizedAffinity -5.0248785
REMARK minimizedRMSD -1
REMARK  1 active torsions:
REMARK  status: ('A' for Active; 'I' for Inactive)
REMARK    1  A    between atoms: C1_2  and  C2_3 
ROOT
ATOM      1  C2  UNL d   1      -0.324  -0.646   0.163  0.00  0.00    -0.076 A 
ATOM      2  C3  UNL d   1       0.022  -1.947  -0.239  0.00  0.00     0.004 A 
ATOM      3  C4  UNL d   1      -0.782  -3.037   0.091  0.00  0.00    -0.003 A 
ATOM      4  C5  UNL d   1      -1.945  -2.843   0.827  0.00  0.00     0.000 A 
ATOM      5  C6  UNL d   1      -2.313  -1.557   1.220  0.00  0.00     0.000 A 
ATOM      6  C7  UNL d   1      -1.522  -0.445   0.882  0.00  0.00    -0.073 A 
ATOM      7  C8  UNL d   1      -1.963   0.919   1.336  0.00  0.00     0.078 C 
ENDROOT
BRANCH   1   8
ATOM      8  C1  UNL d   1       0.601   0.494  -0.200  0.00  0.00     0.053 C 
ATOM      9  C   UNL d   1       0.805   0.623  -1.702  0.00  0.00     0.018 C 
ENDBRANCH   1   8
TORSDOF 1
ENDMDL
