MODEL 1
REMARK minimizedAffinity -5.30007553
REMARK minimizedRMSD -1
REMARK  1 active torsions:
REMARK  status: ('A' for Active; 'I' for Inactive)
REMARK    1  A    between atoms: C1_2  and  C2_3 
ROOT
ATOM      1  C2  UNL d   1      -0.575   0.052   0.363  0.00  0.00    -0.076 A 
ATOM      2  C3  UNL d   1      -1.940   0.310   0.582  0.00  0.00     0.004 A 
ATOM      3  C4  UNL d   1      -2.767  -0.651   1.161  0.00  0.00    -0.003 A 
ATOM      4  C5  UNL d   1      -2.243  -1.885   1.531  0.00  0.00     0.000 A 
ATOM      5  C6  UNL d   1      -0.888  -2.151   1.337  0.00  0.00     0.000 A 
ATOM      6  C7  UNL d   1      -0.037  -1.187   0.769  0.00  0.00    -0.073 A 
ATOM      7  C8  UNL d   1       1.415  -1.530   0.577  0.00  0.00     0.078 C 
ENDROOT
BRANCH   1   8
ATOM      8  C1  UNL d   1       0.267   1.122  -0.294  0.00  0.00     0.053 C 
ATOM      9  C   UNL d   1       0.169   2.462   0.420  0.00  0.00     0.018 C 
ENDBRANCH   1   8
TORSDOF 1
ENDMDL
