MODEL 1
REMARK minimizedAffinity 11.3961029
REMARK minimizedRMSD -1
REMARK  0 active torsions:
REMARK  status: ('A' for Active; 'I' for Inactive)
ROOT
ATOM      1  C1  DEN d   1      -3.404  -5.619  -5.999  0.00  0.00     0.130 A 
ATOM      2  C2  DEN d   1      -4.408  -6.000  -5.009  0.00  0.00    -0.031 A 
ATOM      3  C3  DEN d   1      -4.278  -5.091  -3.853  0.00  0.00     0.027 A 
ATOM      4  C4  DEN d   1      -2.630  -3.138  -3.502  0.00  0.00     0.027 A 
ATOM      5  C5  DEN d   1      -1.582  -2.440  -4.060  0.00  0.00    -0.003 A 
ATOM      6  C6  DEN d   1      -1.050  -2.771  -5.278  0.00  0.00     0.001 A 
ATOM      7  C7  DEN d   1      -1.594  -3.800  -5.999  0.00  0.00     0.017 A 
ATOM      8  C8  DEN d   1      -2.646  -4.514  -5.440  0.00  0.00    -0.094 A 
ATOM      9  C9  DEN d   1      -3.178  -4.156  -4.213  0.00  0.00    -0.072 A 
ENDROOT
TORSDOF 0
ENDMDL
