MODEL 1
REMARK minimizedAffinity 19.4525928
REMARK minimizedRMSD -1
REMARK  0 active torsions:
REMARK  status: ('A' for Active; 'I' for Inactive)
ROOT
ATOM      1  C1  DEN d   1       4.611  -6.000  -2.196  0.00  0.00     0.130 A 
ATOM      2  C2  DEN d   1       6.000  -5.729  -2.557  0.00  0.00    -0.031 A 
ATOM      3  C3  DEN d   1       6.000  -4.811  -3.714  0.00  0.00     0.027 A 
ATOM      4  C4  DEN d   1       3.995  -3.785  -4.972  0.00  0.00     0.027 A 
ATOM      5  C5  DEN d   1       2.620  -3.732  -5.039  0.00  0.00    -0.003 A 
ATOM      6  C6  DEN d   1       1.819  -4.451  -4.191  0.00  0.00     0.001 A 
ATOM      7  C7  DEN d   1       2.387  -5.220  -3.211  0.00  0.00     0.017 A 
ATOM      8  C8  DEN d   1       3.773  -5.285  -3.142  0.00  0.00    -0.094 A 
ATOM      9  C9  DEN d   1       4.565  -4.541  -4.000  0.00  0.00    -0.072 A 
ENDROOT
TORSDOF 0
ENDMDL
