MODEL 1
REMARK minimizedAffinity 9.5857563
REMARK minimizedRMSD -1
REMARK  0 active torsions:
REMARK  status: ('A' for Active; 'I' for Inactive)
ROOT
ATOM      1  C1  DEN d   1      -3.047  -1.880  -2.479  0.00  0.00     0.130 A 
ATOM      2  C2  DEN d   1      -1.933  -1.380  -1.677  0.00  0.00    -0.031 A 
ATOM      3  C3  DEN d   1      -0.707  -1.466  -2.496  0.00  0.00     0.027 A 
ATOM      4  C4  DEN d   1      -0.427  -2.315  -4.915  0.00  0.00     0.027 A 
ATOM      5  C5  DEN d   1      -1.085  -2.851  -6.000  0.00  0.00    -0.003 A 
ATOM      6  C6  DEN d   1      -2.426  -3.131  -5.975  0.00  0.00     0.001 A 
ATOM      7  C7  DEN d   1      -3.161  -2.833  -4.859  0.00  0.00     0.017 A 
ATOM      8  C8  DEN d   1      -2.503  -2.299  -3.758  0.00  0.00    -0.094 A 
ATOM      9  C9  DEN d   1      -1.150  -2.012  -3.807  0.00  0.00    -0.072 A 
ENDROOT
TORSDOF 0
ENDMDL
