MODEL 1
REMARK minimizedAffinity 15.0227709
REMARK minimizedRMSD -1
REMARK  0 active torsions:
REMARK  status: ('A' for Active; 'I' for Inactive)
ROOT
ATOM      1  C1  DEN d   1       3.682   5.329  -1.662  0.00  0.00     0.130 A 
ATOM      2  C2  DEN d   1       3.332   5.720  -3.025  0.00  0.00    -0.031 A 
ATOM      3  C3  DEN d   1       1.880   5.988  -3.064  0.00  0.00     0.027 A 
ATOM      4  C4  DEN d   1       0.151   5.843  -1.155  0.00  0.00     0.027 A 
ATOM      5  C5  DEN d   1      -0.027   5.542   0.177  0.00  0.00    -0.003 A 
ATOM      6  C6  DEN d   1       1.003   5.121   0.975  0.00  0.00     0.001 A 
ATOM      7  C7  DEN d   1       2.268   5.031   0.459  0.00  0.00     0.017 A 
ATOM      8  C8  DEN d   1       2.455   5.325  -0.886  0.00  0.00    -0.094 A 
ATOM      9  C9  DEN d   1       1.403   5.761  -1.673  0.00  0.00    -0.072 A 
ENDROOT
TORSDOF 0
ENDMDL
