MODEL 1
REMARK minimizedAffinity 22.143837
REMARK minimizedRMSD -1
REMARK  0 active torsions:
REMARK  status: ('A' for Active; 'I' for Inactive)
ROOT
ATOM      1  C1  DEN d   1      -0.876  -3.002  -2.005  0.00  0.00     0.130 A 
ATOM      2  C2  DEN d   1      -0.555  -1.682  -2.541  0.00  0.00    -0.031 A 
ATOM      3  C3  DEN d   1       0.758  -1.768  -3.211  0.00  0.00     0.027 A 
ATOM      4  C4  DEN d   1       2.315  -3.807  -3.474  0.00  0.00     0.027 A 
ATOM      5  C5  DEN d   1       2.476  -5.142  -3.176  0.00  0.00    -0.003 A 
ATOM      6  C6  DEN d   1       1.555  -5.843  -2.444  0.00  0.00     0.001 A 
ATOM      7  C7  DEN d   1       0.408  -5.223  -2.023  0.00  0.00     0.017 A 
ATOM      8  C8  DEN d   1       0.242  -3.875  -2.313  0.00  0.00    -0.094 A 
ATOM      9  C9  DEN d   1       1.179  -3.187  -3.065  0.00  0.00    -0.072 A 
ENDROOT
TORSDOF 0
ENDMDL
