MODEL 1
REMARK minimizedAffinity 18.8719254
REMARK minimizedRMSD -1
REMARK  0 active torsions:
REMARK  status: ('A' for Active; 'I' for Inactive)
ROOT
ATOM      1  C1  DEN d   1       2.098   3.238   0.382  0.00  0.00     0.130 A 
ATOM      2  C2  DEN d   1       0.654   3.453   0.349  0.00  0.00    -0.031 A 
ATOM      3  C3  DEN d   1       0.348   4.316  -0.810  0.00  0.00     0.027 A 
ATOM      4  C4  DEN d   1       1.960   5.330  -2.549  0.00  0.00     0.027 A 
ATOM      5  C5  DEN d   1       3.280   5.437  -2.928  0.00  0.00    -0.003 A 
ATOM      6  C6  DEN d   1       4.294   4.851  -2.217  0.00  0.00     0.001 A 
ATOM      7  C7  DEN d   1       3.999   4.094  -1.114  0.00  0.00     0.017 A 
ATOM      8  C8  DEN d   1       2.671   3.988  -0.721  0.00  0.00    -0.094 A 
ATOM      9  C9  DEN d   1       1.660   4.577  -1.461  0.00  0.00    -0.072 A 
ENDROOT
TORSDOF 0
ENDMDL
