MODEL 1
REMARK minimizedAffinity 13.1954184
REMARK minimizedRMSD -1
REMARK  0 active torsions:
REMARK  status: ('A' for Active; 'I' for Inactive)
ROOT
ATOM      1  C1  DEN d   1       5.499  -2.967   5.999  0.00  0.00     0.130 A 
ATOM      2  C2  DEN d   1       6.000  -4.335   5.893  0.00  0.00    -0.031 A 
ATOM      3  C3  DEN d   1       5.371  -4.960   4.712  0.00  0.00     0.027 A 
ATOM      4  C4  DEN d   1       3.684  -3.948   3.045  0.00  0.00     0.027 A 
ATOM      5  C5  DEN d   1       2.953  -2.824   2.731  0.00  0.00    -0.003 A 
ATOM      6  C6  DEN d   1       2.993  -1.689   3.497  0.00  0.00     0.001 A 
ATOM      7  C7  DEN d   1       3.816  -1.638   4.591  0.00  0.00     0.017 A 
ATOM      8  C8  DEN d   1       4.550  -2.770   4.918  0.00  0.00    -0.094 A 
ATOM      9  C9  DEN d   1       4.505  -3.903   4.124  0.00  0.00    -0.072 A 
ENDROOT
TORSDOF 0
ENDMDL
