MODEL 1
REMARK minimizedAffinity 9.25893974
REMARK minimizedRMSD -1
REMARK  0 active torsions:
REMARK  status: ('A' for Active; 'I' for Inactive)
ROOT
ATOM      1  C1  DEN d   1       5.790   6.000  -3.171  0.00  0.00     0.130 A 
ATOM      2  C2  DEN d   1       5.998   6.000  -1.726  0.00  0.00    -0.031 A 
ATOM      3  C3  DEN d   1       4.674   5.936  -1.074  0.00  0.00     0.027 A 
ATOM      4  C4  DEN d   1       2.336   5.833  -2.157  0.00  0.00     0.027 A 
ATOM      5  C5  DEN d   1       1.652   5.821  -3.352  0.00  0.00    -0.003 A 
ATOM      6  C6  DEN d   1       2.292   5.901  -4.561  0.00  0.00     0.001 A 
ATOM      7  C7  DEN d   1       3.660   5.951  -4.602  0.00  0.00     0.017 A 
ATOM      8  C8  DEN d   1       4.356   5.972  -3.400  0.00  0.00    -0.094 A 
ATOM      9  C9  DEN d   1       3.691   5.877  -2.190  0.00  0.00    -0.072 A 
ENDROOT
TORSDOF 0
ENDMDL
