MODEL 1
REMARK minimizedAffinity 22.3171482
REMARK minimizedRMSD -1
REMARK  0 active torsions:
REMARK  status: ('A' for Active; 'I' for Inactive)
ROOT
ATOM      1  C1  DEN d   1       2.984  -2.823  -2.211  0.00  0.00     0.130 A 
ATOM      2  C2  DEN d   1       2.963  -3.631  -3.428  0.00  0.00    -0.031 A 
ATOM      3  C3  DEN d   1       1.560  -3.750  -3.873  0.00  0.00     0.027 A 
ATOM      4  C4  DEN d   1      -0.570  -2.764  -2.805  0.00  0.00     0.027 A 
ATOM      5  C5  DEN d   1      -1.057  -2.017  -1.755  0.00  0.00    -0.003 A 
ATOM      6  C6  DEN d   1      -0.242  -1.519  -0.773  0.00  0.00     0.001 A 
ATOM      7  C7  DEN d   1       1.111  -1.724  -0.845  0.00  0.00     0.017 A 
ATOM      8  C8  DEN d   1       1.608  -2.483  -1.897  0.00  0.00    -0.094 A 
ATOM      9  C9  DEN d   1       0.769  -2.967  -2.886  0.00  0.00    -0.072 A 
ENDROOT
TORSDOF 0
ENDMDL
