MODEL 1
REMARK minimizedAffinity 13.5957956
REMARK minimizedRMSD -1
REMARK  0 active torsions:
REMARK  status: ('A' for Active; 'I' for Inactive)
ROOT
ATOM      1  C1  DEN d   1      -1.788  -2.251  -3.191  0.00  0.00     0.130 A 
ATOM      2  C2  DEN d   1      -0.782  -2.985  -3.954  0.00  0.00    -0.031 A 
ATOM      3  C3  DEN d   1       0.200  -3.538  -3.000  0.00  0.00     0.027 A 
ATOM      4  C4  DEN d   1       0.258  -3.334  -0.429  0.00  0.00     0.027 A 
ATOM      5  C5  DEN d   1      -0.377  -2.797   0.669  0.00  0.00    -0.003 A 
ATOM      6  C6  DEN d   1      -1.499  -2.018   0.555  0.00  0.00     0.001 A 
ATOM      7  C7  DEN d   1      -2.046  -1.792  -0.680  0.00  0.00     0.017 A 
ATOM      8  C8  DEN d   1      -1.407  -2.324  -1.792  0.00  0.00    -0.094 A 
ATOM      9  C9  DEN d   1      -0.281  -3.118  -1.656  0.00  0.00    -0.072 A 
ENDROOT
TORSDOF 0
ENDMDL
