MODEL 1
REMARK minimizedAffinity 12.2823257
REMARK minimizedRMSD -1
REMARK  0 active torsions:
REMARK  status: ('A' for Active; 'I' for Inactive)
ROOT
ATOM      1  C1  DEN d   1       5.179  -2.242   6.000  0.00  0.00     0.130 A 
ATOM      2  C2  DEN d   1       5.851  -3.539   5.999  0.00  0.00    -0.031 A 
ATOM      3  C3  DEN d   1       5.345  -4.314   4.848  0.00  0.00     0.027 A 
ATOM      4  C4  DEN d   1       3.599  -3.635   3.076  0.00  0.00     0.027 A 
ATOM      5  C5  DEN d   1       2.743  -2.636   2.668  0.00  0.00    -0.003 A 
ATOM      6  C6  DEN d   1       2.615  -1.459   3.357  0.00  0.00     0.001 A 
ATOM      7  C7  DEN d   1       3.388  -1.233   4.464  0.00  0.00     0.017 A 
ATOM      8  C8  DEN d   1       4.248  -2.238   4.886  0.00  0.00    -0.094 A 
ATOM      9  C9  DEN d   1       4.372  -3.417   4.169  0.00  0.00    -0.072 A 
ENDROOT
TORSDOF 0
ENDMDL
