MODEL 1
REMARK minimizedAffinity 17.5700798
REMARK minimizedRMSD -1
REMARK  0 active torsions:
REMARK  status: ('A' for Active; 'I' for Inactive)
ROOT
ATOM      1  C1  DEN d   1      -0.751  -1.252  -0.710  0.00  0.00     0.130 A 
ATOM      2  C2  DEN d   1      -1.369  -2.487  -0.234  0.00  0.00    -0.031 A 
ATOM      3  C3  DEN d   1      -2.585  -2.126   0.523  0.00  0.00     0.027 A 
ATOM      4  C4  DEN d   1      -3.569   0.211   0.996  0.00  0.00     0.027 A 
ATOM      5  C5  DEN d   1      -3.390   1.563   0.806  0.00  0.00    -0.003 A 
ATOM      6  C6  DEN d   1      -2.310   2.070   0.133  0.00  0.00     0.001 A 
ATOM      7  C7  DEN d   1      -1.390   1.215  -0.415  0.00  0.00     0.017 A 
ATOM      8  C8  DEN d   1      -1.559  -0.149  -0.222  0.00  0.00    -0.094 A 
ATOM      9  C9  DEN d   1      -2.664  -0.642   0.451  0.00  0.00    -0.072 A 
ENDROOT
TORSDOF 0
ENDMDL
