MODEL 1
REMARK minimizedAffinity 16.2227116
REMARK minimizedRMSD -1
REMARK  0 active torsions:
REMARK  status: ('A' for Active; 'I' for Inactive)
ROOT
ATOM      1  C1  DEN d   1       6.000   4.896  -2.456  0.00  0.00     0.130 A 
ATOM      2  C2  DEN d   1       6.000   5.942  -1.437  0.00  0.00    -0.031 A 
ATOM      3  C3  DEN d   1       4.649   6.000  -0.842  0.00  0.00     0.027 A 
ATOM      4  C4  DEN d   1       2.571   4.577  -1.395  0.00  0.00     0.027 A 
ATOM      5  C5  DEN d   1       2.080   3.570  -2.198  0.00  0.00    -0.003 A 
ATOM      6  C6  DEN d   1       2.846   2.963  -3.157  0.00  0.00     0.001 A 
ATOM      7  C7  DEN d   1       4.158   3.326  -3.309  0.00  0.00     0.017 A 
ATOM      8  C8  DEN d   1       4.658   4.346  -2.509  0.00  0.00    -0.094 A 
ATOM      9  C9  DEN d   1       3.871   4.939  -1.536  0.00  0.00    -0.072 A 
ENDROOT
TORSDOF 0
ENDMDL
