MODEL 1
REMARK minimizedAffinity 1.25830376
REMARK minimizedRMSD -1
REMARK  0 active torsions:
REMARK  status: ('A' for Active; 'I' for Inactive)
ROOT
ATOM      1  C1  DEN d   1       5.880   5.998  -2.320  0.00  0.00     0.130 A 
ATOM      2  C2  DEN d   1       5.809   4.915  -1.344  0.00  0.00    -0.031 A 
ATOM      3  C3  DEN d   1       5.809   3.635  -2.081  0.00  0.00     0.027 A 
ATOM      4  C4  DEN d   1       5.919   3.228  -4.625  0.00  0.00     0.027 A 
ATOM      5  C5  DEN d   1       5.979   3.840  -5.858  0.00  0.00    -0.003 A 
ATOM      6  C6  DEN d   1       5.976   5.202  -5.999  0.00  0.00     0.001 A 
ATOM      7  C7  DEN d   1       5.957   5.999  -4.885  0.00  0.00     0.017 A 
ATOM      8  C8  DEN d   1       5.889   5.390  -3.639  0.00  0.00    -0.094 A 
ATOM      9  C9  DEN d   1       5.905   4.011  -3.517  0.00  0.00    -0.072 A 
ENDROOT
TORSDOF 0
ENDMDL
