MODEL 1
REMARK minimizedAffinity 9.73235607
REMARK minimizedRMSD -1
REMARK  0 active torsions:
REMARK  status: ('A' for Active; 'I' for Inactive)
ROOT
ATOM      1  C1  DEN d   1       5.439   2.551  -4.194  0.00  0.00     0.130 A 
ATOM      2  C2  DEN d   1       5.759   3.085  -5.515  0.00  0.00    -0.031 A 
ATOM      3  C3  DEN d   1       5.995   4.536  -5.377  0.00  0.00     0.027 A 
ATOM      4  C4  DEN d   1       5.900   6.000  -3.255  0.00  0.00     0.027 A 
ATOM      5  C5  DEN d   1       5.658   5.997  -1.900  0.00  0.00    -0.003 A 
ATOM      6  C6  DEN d   1       5.295   4.862  -1.225  0.00  0.00     0.001 A 
ATOM      7  C7  DEN d   1       5.208   3.671  -1.897  0.00  0.00     0.017 A 
ATOM      8  C8  DEN d   1       5.444   3.667  -3.266  0.00  0.00    -0.094 A 
ATOM      9  C9  DEN d   1       5.822   4.824  -3.927  0.00  0.00    -0.072 A 
ENDROOT
TORSDOF 0
ENDMDL
