MODEL 1
REMARK minimizedAffinity 20.6496792
REMARK minimizedRMSD -1
REMARK  0 active torsions:
REMARK  status: ('A' for Active; 'I' for Inactive)
ROOT
ATOM      1  C1  DEN d   1      -3.494  -0.142   1.203  0.00  0.00     0.130 A 
ATOM      2  C2  DEN d   1      -3.268  -1.499   0.713  0.00  0.00    -0.031 A 
ATOM      3  C3  DEN d   1      -2.655  -2.283   1.804  0.00  0.00     0.027 A 
ATOM      4  C4  DEN d   1      -2.041  -1.532   4.194  0.00  0.00     0.027 A 
ATOM      5  C5  DEN d   1      -2.033  -0.469   5.069  0.00  0.00    -0.003 A 
ATOM      6  C6  DEN d   1      -2.477   0.776   4.710  0.00  0.00     0.001 A 
ATOM      7  C7  DEN d   1      -2.989   0.978   3.455  0.00  0.00     0.017 A 
ATOM      8  C8  DEN d   1      -2.993  -0.087   2.565  0.00  0.00    -0.094 A 
ATOM      9  C9  DEN d   1      -2.552  -1.341   2.951  0.00  0.00    -0.072 A 
ENDROOT
TORSDOF 0
ENDMDL
