MODEL 1
REMARK minimizedAffinity -3.04474711
REMARK minimizedRMSD -1
REMARK  0 active torsions:
REMARK  status: ('A' for Active; 'I' for Inactive)
ROOT
ATOM      1  C   UNL d   1      -0.917   1.838   2.878  0.00  0.00     0.077 C 
ATOM      2  C1  UNL d   1      -1.038   1.081   1.589  0.00  0.00    -0.074 A 
ATOM      3  C2  UNL d   1      -2.291   0.786   1.043  0.00  0.00    -0.005 A 
ATOM      4  C3  UNL d   1      -2.388   0.089  -0.161  0.00  0.00     0.006 A 
ATOM      5  C4  UNL d   1      -1.234  -0.319  -0.831  0.00  0.00    -0.005 A 
ATOM      6  C5  UNL d   1       0.028  -0.032  -0.302  0.00  0.00    -0.074 A 
ATOM      7  C6  UNL d   1       1.279  -0.454  -1.014  0.00  0.00     0.077 C 
ATOM      8  C7  UNL d   1       0.117   0.675   0.906  0.00  0.00    -0.001 A 
ENDROOT
TORSDOF 0
ENDMDL
