MODEL 1
REMARK minimizedAffinity -5.77384853
REMARK minimizedRMSD -1
REMARK  0 active torsions:
REMARK  status: ('A' for Active; 'I' for Inactive)
ROOT
ATOM      1  C   UNL d   1       1.518   0.511   2.830  0.00  0.00     0.077 C 
ATOM      2  C1  UNL d   1       0.388   0.377   1.853  0.00  0.00    -0.074 A 
ATOM      3  C2  UNL d   1      -0.835   1.020   2.075  0.00  0.00    -0.005 A 
ATOM      4  C3  UNL d   1      -1.873   0.894   1.153  0.00  0.00     0.006 A 
ATOM      5  C4  UNL d   1      -1.701   0.125   0.001  0.00  0.00    -0.005 A 
ATOM      6  C5  UNL d   1      -0.485  -0.524  -0.239  0.00  0.00    -0.074 A 
ATOM      7  C6  UNL d   1      -0.280  -1.345  -1.476  0.00  0.00     0.077 C 
ATOM      8  C7  UNL d   1       0.556  -0.387   0.689  0.00  0.00    -0.001 A 
ENDROOT
TORSDOF 0
ENDMDL
