MODEL 1
REMARK minimizedAffinity -2.80688357
REMARK minimizedRMSD -1
REMARK  0 active torsions:
REMARK  status: ('A' for Active; 'I' for Inactive)
ROOT
ATOM      1  C   UNL d   1      -0.387   1.404   3.510  0.00  0.00     0.077 C 
ATOM      2  C1  UNL d   1      -0.293   0.652   2.215  0.00  0.00    -0.074 A 
ATOM      3  C2  UNL d   1       0.949   0.309   1.671  0.00  0.00    -0.005 A 
ATOM      4  C3  UNL d   1       1.020  -0.398   0.472  0.00  0.00     0.006 A 
ATOM      5  C4  UNL d   1      -0.148  -0.770  -0.195  0.00  0.00    -0.005 A 
ATOM      6  C5  UNL d   1      -1.399  -0.437   0.334  0.00  0.00    -0.074 A 
ATOM      7  C6  UNL d   1      -2.665  -0.837  -0.365  0.00  0.00     0.077 C 
ATOM      8  C7  UNL d   1      -1.462   0.268   1.544  0.00  0.00    -0.001 A 
ENDROOT
TORSDOF 0
ENDMDL
