MODEL 1
REMARK minimizedAffinity 11.3224773
REMARK minimizedRMSD -1
REMARK  1 active torsions:
REMARK  status: ('A' for Active; 'I' for Inactive)
REMARK    1  A    between atoms: C1_2  and  C2_3 
ROOT
ATOM      1  C2  UNL d   1       3.711  -3.088   4.370  0.00  0.00    -0.081 A 
ATOM      2  C3  UNL d   1       4.227  -1.786   4.380  0.00  0.00     0.006 A 
ATOM      3  C4  UNL d   1       3.372  -0.685   4.282  0.00  0.00     0.002 A 
ATOM      4  C5  UNL d   1       1.988  -0.868   4.181  0.00  0.00    -0.080 A 
ATOM      5  C6  UNL d   1       1.058   0.306   4.105  0.00  0.00     0.076 C 
ATOM      6  C7  UNL d   1       1.475  -2.169   4.153  0.00  0.00     0.002 A 
ATOM      7  C8  UNL d   1       2.329  -3.270   4.250  0.00  0.00     0.006 A 
ENDROOT
BRANCH   1   8
ATOM      8  C1  UNL d   1       4.625  -4.275   4.541  0.00  0.00     0.054 C 
ATOM      9  C   UNL d   1       5.997  -3.849   5.044  0.00  0.00     0.018 C 
ENDBRANCH   1   8
TORSDOF 1
ENDMDL
