MODEL 1
REMARK minimizedAffinity 18.8951397
REMARK minimizedRMSD -1
REMARK  1 active torsions:
REMARK  status: ('A' for Active; 'I' for Inactive)
REMARK    1  A    between atoms: C1_2  and  C2_3 
ROOT
ATOM      1  C2  UNL d   1      -1.640  -2.897  -5.165  0.00  0.00    -0.081 A 
ATOM      2  C3  UNL d   1      -0.708  -2.037  -5.760  0.00  0.00     0.006 A 
ATOM      3  C4  UNL d   1       0.035  -1.148  -4.979  0.00  0.00     0.002 A 
ATOM      4  C5  UNL d   1      -0.135  -1.110  -3.591  0.00  0.00    -0.080 A 
ATOM      5  C6  UNL d   1       0.679  -0.182  -2.739  0.00  0.00     0.076 C 
ATOM      6  C7  UNL d   1      -1.078  -1.957  -2.999  0.00  0.00     0.002 A 
ATOM      7  C8  UNL d   1      -1.822  -2.845  -3.779  0.00  0.00     0.006 A 
ENDROOT
BRANCH   1   8
ATOM      8  C1  UNL d   1      -2.396  -3.901  -5.996  0.00  0.00     0.054 C 
ATOM      9  C   UNL d   1      -1.703  -5.256  -5.994  0.00  0.00     0.018 C 
ENDBRANCH   1   8
TORSDOF 1
ENDMDL
