MODEL 1
REMARK minimizedAffinity 0.749011934
REMARK minimizedRMSD -1
REMARK  1 active torsions:
REMARK  status: ('A' for Active; 'I' for Inactive)
REMARK    1  A    between atoms: C1_2  and  C2_3 
ROOT
ATOM      1  C2  UNL d   1       3.347  -2.511   5.058  0.00  0.00    -0.081 A 
ATOM      2  C3  UNL d   1       3.419  -1.208   4.549  0.00  0.00     0.006 A 
ATOM      3  C4  UNL d   1       2.405  -0.714   3.725  0.00  0.00     0.002 A 
ATOM      4  C5  UNL d   1       1.301  -1.510   3.403  0.00  0.00    -0.080 A 
ATOM      5  C6  UNL d   1       0.191  -0.980   2.543  0.00  0.00     0.076 C 
ATOM      6  C7  UNL d   1       1.238  -2.817   3.897  0.00  0.00     0.002 A 
ATOM      7  C8  UNL d   1       2.251  -3.312   4.721  0.00  0.00     0.006 A 
ENDROOT
BRANCH   1   8
ATOM      8  C1  UNL d   1       4.406  -3.025   6.000  0.00  0.00     0.054 C 
ATOM      9  C   UNL d   1       4.965  -4.360   5.529  0.00  0.00     0.018 C 
ENDBRANCH   1   8
TORSDOF 1
ENDMDL
