MODEL 1
REMARK minimizedAffinity 11.8035345
REMARK minimizedRMSD -1
REMARK  1 active torsions:
REMARK  status: ('A' for Active; 'I' for Inactive)
REMARK    1  A    between atoms: C1_2  and  C2_3 
ROOT
ATOM      1  C2  UNL d   1      -1.598  -3.426  -5.150  0.00  0.00    -0.081 A 
ATOM      2  C3  UNL d   1      -1.645  -3.108  -3.787  0.00  0.00     0.006 A 
ATOM      3  C4  UNL d   1      -0.909  -2.031  -3.286  0.00  0.00     0.002 A 
ATOM      4  C5  UNL d   1      -0.121  -1.251  -4.140  0.00  0.00    -0.080 A 
ATOM      5  C6  UNL d   1       0.650  -0.075  -3.620  0.00  0.00     0.076 C 
ATOM      6  C7  UNL d   1      -0.061  -1.580  -5.498  0.00  0.00     0.002 A 
ATOM      7  C8  UNL d   1      -0.796  -2.657  -5.999  0.00  0.00     0.006 A 
ENDROOT
BRANCH   1   8
ATOM      8  C1  UNL d   1      -2.441  -4.547  -5.704  0.00  0.00     0.054 C 
ATOM      9  C   UNL d   1      -2.128  -5.867  -5.016  0.00  0.00     0.018 C 
ENDBRANCH   1   8
TORSDOF 1
ENDMDL
