MODEL 1
REMARK minimizedAffinity 6.74439716
REMARK minimizedRMSD -1
REMARK  1 active torsions:
REMARK  status: ('A' for Active; 'I' for Inactive)
REMARK    1  A    between atoms: C1_2  and  C2_3 
ROOT
ATOM      1  C2  UNL d   1      -0.775  -1.891  -4.864  0.00  0.00    -0.081 A 
ATOM      2  C3  UNL d   1      -1.525  -2.260  -3.740  0.00  0.00     0.006 A 
ATOM      3  C4  UNL d   1      -1.924  -3.587  -3.560  0.00  0.00     0.002 A 
ATOM      4  C5  UNL d   1      -1.573  -4.566  -4.495  0.00  0.00    -0.080 A 
ATOM      5  C6  UNL d   1      -1.968  -6.000  -4.298  0.00  0.00     0.076 C 
ATOM      6  C7  UNL d   1      -0.838  -4.194  -5.626  0.00  0.00     0.002 A 
ATOM      7  C8  UNL d   1      -0.440  -2.868  -5.807  0.00  0.00     0.006 A 
ENDROOT
BRANCH   1   8
ATOM      8  C1  UNL d   1      -0.288  -0.473  -5.028  0.00  0.00     0.054 C 
ATOM      9  C   UNL d   1       0.859  -0.168  -4.076  0.00  0.00     0.018 C 
ENDBRANCH   1   8
TORSDOF 1
ENDMDL
