MODEL 1
REMARK minimizedAffinity 15.0567617
REMARK minimizedRMSD -1
REMARK  1 active torsions:
REMARK  status: ('A' for Active; 'I' for Inactive)
REMARK    1  A    between atoms: C1_2  and  C2_3 
ROOT
ATOM      1  C2  UNL d   1       1.770  -2.283   3.761  0.00  0.00    -0.081 A 
ATOM      2  C3  UNL d   1       0.570  -2.794   3.254  0.00  0.00     0.006 A 
ATOM      3  C4  UNL d   1      -0.150  -3.754   3.970  0.00  0.00     0.002 A 
ATOM      4  C5  UNL d   1       0.314  -4.212   5.207  0.00  0.00    -0.080 A 
ATOM      5  C6  UNL d   1      -0.464  -5.220   6.000  0.00  0.00     0.076 C 
ATOM      6  C7  UNL d   1       1.523  -3.714   5.706  0.00  0.00     0.002 A 
ATOM      7  C8  UNL d   1       2.243  -2.755   4.990  0.00  0.00     0.006 A 
ENDROOT
BRANCH   1   8
ATOM      8  C1  UNL d   1       2.516  -1.201   3.022  0.00  0.00     0.054 C 
ATOM      9  C   UNL d   1       1.995   0.181   3.392  0.00  0.00     0.018 C 
ENDBRANCH   1   8
TORSDOF 1
ENDMDL
