MODEL 1
REMARK minimizedAffinity -1.50431693
REMARK minimizedRMSD -1
REMARK  3 active torsions:
REMARK  status: ('A' for Active; 'I' for Inactive)
REMARK    1  A    between atoms: C3'_2  and  C2'_3 
REMARK    2  A    between atoms: C2'_3  and  C1'_4 
REMARK    3  A    between atoms: C1'_4  and  C1_5 
ROOT
ATOM      1  C1  N4B d   1       1.158   2.022   0.771  0.00  0.00    -0.075 A 
ATOM      2  C2  N4B d   1       1.220   3.125  -0.108  0.00  0.00     0.002 A 
ATOM      3  C3  N4B d   1       1.390   2.920  -1.455  0.00  0.00     0.002 A 
ATOM      4  C4  N4B d   1       1.520   1.628  -1.942  0.00  0.00    -0.004 A 
ATOM      5  C5  N4B d   1       1.434   0.567  -1.089  0.00  0.00     0.002 A 
ATOM      6  C6  N4B d   1       1.259   0.757   0.267  0.00  0.00     0.002 A 
ENDROOT
BRANCH   1   7
ATOM      7  C1' N4B d   1       1.059   2.199   2.262  0.00  0.00     0.057 C 
BRANCH   7   8
ATOM      8  C2' N4B d   1       2.257   1.528   2.927  0.00  0.00     0.009 C 
BRANCH   8   9
ATOM      9  C3' N4B d   1       1.832   0.493   3.954  0.00  0.00     0.004 C 
ATOM     10  C4' N4B d   1       2.550   0.643   5.262  0.00  0.00     0.003 C 
ENDBRANCH   8   9
ENDBRANCH   7   8
ENDBRANCH   1   7
TORSDOF 3
ENDMDL
