MODEL 1
REMARK minimizedAffinity -0.462645769
REMARK minimizedRMSD -1
REMARK  3 active torsions:
REMARK  status: ('A' for Active; 'I' for Inactive)
REMARK    1  A    between atoms: C3'_2  and  C2'_3 
REMARK    2  A    between atoms: C2'_3  and  C1'_4 
REMARK    3  A    between atoms: C1'_4  and  C1_5 
ROOT
ATOM      1  C1  N4B d   1       1.487   2.050  -0.095  0.00  0.00    -0.075 A 
ATOM      2  C2  N4B d   1       1.279   1.700  -1.447  0.00  0.00     0.002 A 
ATOM      3  C3  N4B d   1       0.895   0.423  -1.774  0.00  0.00     0.002 A 
ATOM      4  C4  N4B d   1       0.731  -0.522  -0.772  0.00  0.00    -0.004 A 
ATOM      5  C5  N4B d   1       0.909  -0.169   0.534  0.00  0.00     0.002 A 
ATOM      6  C6  N4B d   1       1.292   1.112   0.877  0.00  0.00     0.002 A 
ENDROOT
BRANCH   1   7
ATOM      7  C1' N4B d   1       1.991   3.410   0.305  0.00  0.00     0.057 C 
BRANCH   7   8
ATOM      8  C2' N4B d   1       2.201   4.255  -0.949  0.00  0.00     0.009 C 
BRANCH   8   9
ATOM      9  C3' N4B d   1       2.003   5.736  -0.676  0.00  0.00     0.004 C 
ATOM     10  C4' N4B d   1       1.040   5.997   0.444  0.00  0.00     0.003 C 
ENDBRANCH   8   9
ENDBRANCH   7   8
ENDBRANCH   1   7
TORSDOF 3
ENDMDL
