MODEL 1
REMARK minimizedAffinity 3.57397151
REMARK minimizedRMSD -1
REMARK  3 active torsions:
REMARK  status: ('A' for Active; 'I' for Inactive)
REMARK    1  A    between atoms: C3'_2  and  C2'_3 
REMARK    2  A    between atoms: C2'_3  and  C1'_4 
REMARK    3  A    between atoms: C1'_4  and  C1_5 
ROOT
ATOM      1  C1  N4B d   1       1.264   3.168  -1.058  0.00  0.00    -0.075 A 
ATOM      2  C2  N4B d   1       0.984   2.974   0.313  0.00  0.00     0.002 A 
ATOM      3  C3  N4B d   1       1.112   4.019   1.195  0.00  0.00     0.002 A 
ATOM      4  C4  N4B d   1       1.534   5.257   0.734  0.00  0.00    -0.004 A 
ATOM      5  C5  N4B d   1       1.777   5.443  -0.595  0.00  0.00     0.002 A 
ATOM      6  C6  N4B d   1       1.649   4.403  -1.493  0.00  0.00     0.002 A 
ENDROOT
BRANCH   1   7
ATOM      7  C1' N4B d   1       1.221   2.034  -2.045  0.00  0.00     0.057 C 
BRANCH   7   8
ATOM      8  C2' N4B d   1       0.297   0.942  -1.514  0.00  0.00     0.009 C 
BRANCH   8   9
ATOM      9  C3' N4B d   1       1.042  -0.356  -1.257  0.00  0.00     0.004 C 
ATOM     10  C4' N4B d   1       1.750  -0.367   0.065  0.00  0.00     0.003 C 
ENDBRANCH   8   9
ENDBRANCH   7   8
ENDBRANCH   1   7
TORSDOF 3
ENDMDL
