MODEL 1
REMARK minimizedAffinity 6.16845131
REMARK minimizedRMSD -1
REMARK  3 active torsions:
REMARK  status: ('A' for Active; 'I' for Inactive)
REMARK    1  A    between atoms: C3'_2  and  C2'_3 
REMARK    2  A    between atoms: C2'_3  and  C1'_4 
REMARK    3  A    between atoms: C1'_4  and  C1_5 
ROOT
ATOM      1  C1  N4B d   1       1.492   2.073  -1.625  0.00  0.00    -0.075 A 
ATOM      2  C2  N4B d   1       2.577   1.638  -0.832  0.00  0.00     0.002 A 
ATOM      3  C3  N4B d   1       2.843   0.296  -0.710  0.00  0.00     0.002 A 
ATOM      4  C4  N4B d   1       2.031  -0.626  -1.352  0.00  0.00    -0.004 A 
ATOM      5  C5  N4B d   1       1.000  -0.197  -2.137  0.00  0.00     0.002 A 
ATOM      6  C6  N4B d   1       0.724   1.149  -2.272  0.00  0.00     0.002 A 
ENDROOT
BRANCH   1   7
ATOM      7  C1' N4B d   1       1.110   3.524  -1.721  0.00  0.00     0.057 C 
BRANCH   7   8
ATOM      8  C2' N4B d   1       1.413   4.210  -0.392  0.00  0.00     0.009 C 
BRANCH   8   9
ATOM      9  C3' N4B d   1       0.946   3.383   0.794  0.00  0.00     0.004 C 
ATOM     10  C4' N4B d   1       1.311   3.999   2.111  0.00  0.00     0.003 C 
ENDBRANCH   8   9
ENDBRANCH   7   8
ENDBRANCH   1   7
TORSDOF 3
ENDMDL
