MODEL 1
REMARK minimizedAffinity -1.01510084
REMARK minimizedRMSD -1
REMARK  3 active torsions:
REMARK  status: ('A' for Active; 'I' for Inactive)
REMARK    1  A    between atoms: C3'_2  and  C2'_3 
REMARK    2  A    between atoms: C2'_3  and  C1'_4 
REMARK    3  A    between atoms: C1'_4  and  C1_5 
ROOT
ATOM      1  C1  N4B d   1       1.340   2.053  -1.321  0.00  0.00    -0.075 A 
ATOM      2  C2  N4B d   1       2.158   1.471  -0.327  0.00  0.00     0.002 A 
ATOM      3  C3  N4B d   1       2.239   0.105  -0.218  0.00  0.00     0.002 A 
ATOM      4  C4  N4B d   1       1.500  -0.697  -1.076  0.00  0.00    -0.004 A 
ATOM      5  C5  N4B d   1       0.733  -0.127  -2.049  0.00  0.00     0.002 A 
ATOM      6  C6  N4B d   1       0.645   1.245  -2.173  0.00  0.00     0.002 A 
ENDROOT
BRANCH   1   7
ATOM      7  C1' N4B d   1       1.153   3.542  -1.423  0.00  0.00     0.057 C 
BRANCH   7   8
ATOM      8  C2' N4B d   1       1.223   4.153  -0.027  0.00  0.00     0.009 C 
BRANCH   8   9
ATOM      9  C3' N4B d   1       1.596   5.625  -0.069  0.00  0.00     0.004 C 
ATOM     10  C4' N4B d   1       2.472   5.969  -1.237  0.00  0.00     0.003 C 
ENDBRANCH   8   9
ENDBRANCH   7   8
ENDBRANCH   1   7
TORSDOF 3
ENDMDL
