MODEL 1
REMARK minimizedAffinity 4.09501028
REMARK minimizedRMSD -1
REMARK  3 active torsions:
REMARK  status: ('A' for Active; 'I' for Inactive)
REMARK    1  A    between atoms: C3'_2  and  C2'_3 
REMARK    2  A    between atoms: C2'_3  and  C1'_4 
REMARK    3  A    between atoms: C1'_4  and  C1_5 
ROOT
ATOM      1  C1  N4B d   1       1.779   2.184  -1.550  0.00  0.00    -0.075 A 
ATOM      2  C2  N4B d   1       2.436   1.655  -0.418  0.00  0.00     0.002 A 
ATOM      3  C3  N4B d   1       2.293   0.326  -0.099  0.00  0.00     0.002 A 
ATOM      4  C4  N4B d   1       1.486  -0.484  -0.884  0.00  0.00    -0.004 A 
ATOM      5  C5  N4B d   1       0.875   0.030  -1.990  0.00  0.00     0.002 A 
ATOM      6  C6  N4B d   1       1.013   1.362  -2.324  0.00  0.00     0.002 A 
ENDROOT
BRANCH   1   7
ATOM      7  C1' N4B d   1       1.836   3.649  -1.889  0.00  0.00     0.057 C 
BRANCH   7   8
ATOM      8  C2' N4B d   1       1.688   4.465  -0.608  0.00  0.00     0.009 C 
BRANCH   8   9
ATOM      9  C3' N4B d   1       2.187   5.890  -0.782  0.00  0.00     0.004 C 
ATOM     10  C4' N4B d   1       3.301   5.997  -1.780  0.00  0.00     0.003 C 
ENDBRANCH   8   9
ENDBRANCH   7   8
ENDBRANCH   1   7
TORSDOF 3
ENDMDL
