MODEL 1
REMARK minimizedAffinity -3.78490472
REMARK minimizedRMSD -1
REMARK  3 active torsions:
REMARK  status: ('A' for Active; 'I' for Inactive)
REMARK    1  A    between atoms: C3'_2  and  C2'_3 
REMARK    2  A    between atoms: C2'_3  and  C1'_4 
REMARK    3  A    between atoms: C1'_4  and  C1_5 
ROOT
ATOM      1  C1  N4B d   1       1.228   3.108  -0.904  0.00  0.00    -0.075 A 
ATOM      2  C2  N4B d   1       0.854   2.440   0.283  0.00  0.00     0.002 A 
ATOM      3  C3  N4B d   1       0.674   3.152   1.443  0.00  0.00     0.002 A 
ATOM      4  C4  N4B d   1       0.880   4.523   1.446  0.00  0.00    -0.004 A 
ATOM      5  C5  N4B d   1       1.216   5.164   0.289  0.00  0.00     0.002 A 
ATOM      6  C6  N4B d   1       1.396   4.462  -0.886  0.00  0.00     0.002 A 
ENDROOT
BRANCH   1   7
ATOM      7  C1' N4B d   1       1.520   2.361  -2.177  0.00  0.00     0.057 C 
BRANCH   7   8
ATOM      8  C2' N4B d   1       2.365   1.132  -1.854  0.00  0.00     0.009 C 
BRANCH   8   9
ATOM      9  C3' N4B d   1       1.531   0.007  -1.265  0.00  0.00     0.004 C 
ATOM     10  C4' N4B d   1       2.261  -0.762  -0.205  0.00  0.00     0.003 C 
ENDBRANCH   8   9
ENDBRANCH   7   8
ENDBRANCH   1   7
TORSDOF 3
ENDMDL
