MODEL 1
REMARK minimizedAffinity -3.36189079
REMARK minimizedRMSD -1
REMARK  0 active torsions:
REMARK  status: ('A' for Active; 'I' for Inactive)
ROOT
ATOM      1  C   UNL d   1       1.365   1.277  -0.128  0.00  0.00     0.077 C 
ATOM      2  C1  UNL d   1       0.151   0.494   0.272  0.00  0.00    -0.074 A 
ATOM      3  C2  UNL d   1       0.226  -0.885   0.495  0.00  0.00    -0.005 A 
ATOM      4  C3  UNL d   1      -0.910  -1.599   0.875  0.00  0.00     0.006 A 
ATOM      5  C4  UNL d   1      -2.131  -0.943   1.036  0.00  0.00    -0.005 A 
ATOM      6  C5  UNL d   1      -2.225   0.436   0.819  0.00  0.00    -0.074 A 
ATOM      7  C6  UNL d   1      -3.528   1.158   0.997  0.00  0.00     0.077 C 
ATOM      8  C7  UNL d   1      -1.078   1.147   0.443  0.00  0.00    -0.001 A 
ENDROOT
TORSDOF 0
ENDMDL
