MODEL 1
REMARK minimizedAffinity -3.82524562
REMARK minimizedRMSD -1
REMARK  0 active torsions:
REMARK  status: ('A' for Active; 'I' for Inactive)
ROOT
ATOM      1  C   UNL d   1       0.832  -1.113  -0.004  0.00  0.00     0.077 C 
ATOM      2  C1  UNL d   1      -0.346  -0.202  -0.185  0.00  0.00    -0.074 A 
ATOM      3  C2  UNL d   1      -0.350   0.778  -1.183  0.00  0.00    -0.005 A 
ATOM      4  C3  UNL d   1      -1.457   1.611  -1.345  0.00  0.00     0.006 A 
ATOM      5  C4  UNL d   1      -2.568   1.474  -0.512  0.00  0.00    -0.005 A 
ATOM      6  C5  UNL d   1      -2.582   0.499   0.491  0.00  0.00    -0.074 A 
ATOM      7  C6  UNL d   1      -3.772   0.331   1.388  0.00  0.00     0.077 C 
ATOM      8  C7  UNL d   1      -1.469  -0.339   0.643  0.00  0.00    -0.001 A 
ENDROOT
TORSDOF 0
ENDMDL
