MODEL 1
REMARK minimizedAffinity -0.903989553
REMARK minimizedRMSD -1
REMARK  0 active torsions:
REMARK  status: ('A' for Active; 'I' for Inactive)
ROOT
ATOM      1  C   UNL d   1       0.577  -1.970   0.018  0.00  0.00     0.077 C 
ATOM      2  C1  UNL d   1      -0.267  -0.730   0.038  0.00  0.00    -0.074 A 
ATOM      3  C2  UNL d   1       0.113   0.409  -0.678  0.00  0.00    -0.005 A 
ATOM      4  C3  UNL d   1      -0.687   1.552  -0.658  0.00  0.00     0.006 A 
ATOM      5  C4  UNL d   1      -1.873   1.566   0.077  0.00  0.00    -0.005 A 
ATOM      6  C5  UNL d   1      -2.270   0.436   0.799  0.00  0.00    -0.074 A 
ATOM      7  C6  UNL d   1      -3.546   0.431   1.586  0.00  0.00     0.077 C 
ATOM      8  C7  UNL d   1      -1.464  -0.711   0.768  0.00  0.00    -0.001 A 
ENDROOT
TORSDOF 0
ENDMDL
