MODEL 1
REMARK minimizedAffinity -2.09923172
REMARK minimizedRMSD -1
REMARK  0 active torsions:
REMARK  status: ('A' for Active; 'I' for Inactive)
ROOT
ATOM      1  C   UNL d   1      -5.479  -1.004  -0.545  0.00  0.00     0.077 C 
ATOM      2  C1  UNL d   1      -4.411  -0.146   0.066  0.00  0.00    -0.074 A 
ATOM      3  C2  UNL d   1      -4.601   0.461   1.311  0.00  0.00    -0.005 A 
ATOM      4  C3  UNL d   1      -3.595   1.249   1.871  0.00  0.00     0.006 A 
ATOM      5  C4  UNL d   1      -2.390   1.437   1.191  0.00  0.00    -0.005 A 
ATOM      6  C5  UNL d   1      -2.182   0.838  -0.055  0.00  0.00    -0.074 A 
ATOM      7  C6  UNL d   1      -0.890   1.022  -0.794  0.00  0.00     0.077 C 
ATOM      8  C7  UNL d   1      -3.195   0.042  -0.607  0.00  0.00    -0.001 A 
ENDROOT
TORSDOF 0
ENDMDL
