MODEL 1
REMARK minimizedAffinity -4.96258354
REMARK minimizedRMSD -1
REMARK  0 active torsions:
REMARK  status: ('A' for Active; 'I' for Inactive)
ROOT
ATOM      1  C   UNL d   1       3.096  -1.499   0.745  0.00  0.00     0.077 C 
ATOM      2  C1  UNL d   1       2.244  -0.305   0.436  0.00  0.00    -0.074 A 
ATOM      3  C2  UNL d   1       2.808   0.969   0.317  0.00  0.00    -0.005 A 
ATOM      4  C3  UNL d   1       2.004   2.069   0.020  0.00  0.00     0.006 A 
ATOM      5  C4  UNL d   1       0.630   1.907  -0.162  0.00  0.00    -0.005 A 
ATOM      6  C5  UNL d   1       0.048   0.640  -0.049  0.00  0.00    -0.074 A 
ATOM      7  C6  UNL d   1      -1.425   0.446  -0.251  0.00  0.00     0.077 C 
ATOM      8  C7  UNL d   1       0.864  -0.462   0.244  0.00  0.00    -0.001 A 
ENDROOT
TORSDOF 0
ENDMDL
