MODEL 1
REMARK minimizedAffinity -1.58181393
REMARK minimizedRMSD -1
REMARK  0 active torsions:
REMARK  status: ('A' for Active; 'I' for Inactive)
ROOT
ATOM      1  C   UNL d   1       1.755   2.536   0.512  0.00  0.00     0.077 C 
ATOM      2  C1  UNL d   1       1.037   1.370  -0.100  0.00  0.00    -0.074 A 
ATOM      3  C2  UNL d   1      -0.201   1.537  -0.729  0.00  0.00    -0.005 A 
ATOM      4  C3  UNL d   1      -0.851   0.444  -1.302  0.00  0.00     0.006 A 
ATOM      5  C4  UNL d   1      -0.272  -0.824  -1.252  0.00  0.00    -0.005 A 
ATOM      6  C5  UNL d   1       0.966  -1.010  -0.628  0.00  0.00    -0.074 A 
ATOM      7  C6  UNL d   1       1.608  -2.365  -0.574  0.00  0.00     0.077 C 
ATOM      8  C7  UNL d   1       1.617   0.094  -0.061  0.00  0.00    -0.001 A 
ENDROOT
TORSDOF 0
ENDMDL
