MODEL 1
REMARK minimizedAffinity -5.59375191
REMARK minimizedRMSD -1
REMARK  0 active torsions:
REMARK  status: ('A' for Active; 'I' for Inactive)
ROOT
ATOM      1  C   UNL d   1      -0.568  -1.136   0.323  0.00  0.00     0.077 C 
ATOM      2  C1  UNL d   1      -0.015  -0.255  -0.758  0.00  0.00    -0.074 A 
ATOM      3  C2  UNL d   1      -0.678   0.915  -1.142  0.00  0.00    -0.005 A 
ATOM      4  C3  UNL d   1      -0.147   1.729  -2.142  0.00  0.00     0.006 A 
ATOM      5  C4  UNL d   1       1.052   1.382  -2.767  0.00  0.00    -0.005 A 
ATOM      6  C5  UNL d   1       1.730   0.217  -2.396  0.00  0.00    -0.074 A 
ATOM      7  C6  UNL d   1       3.024  -0.166  -3.050  0.00  0.00     0.077 C 
ATOM      8  C7  UNL d   1       1.192  -0.593  -1.385  0.00  0.00    -0.001 A 
ENDROOT
TORSDOF 0
ENDMDL
