MODEL 1
REMARK minimizedAffinity -2.98399186
REMARK minimizedRMSD -1
REMARK  0 active torsions:
REMARK  status: ('A' for Active; 'I' for Inactive)
ROOT
ATOM      1  C   UNL d   1      -0.551   2.482  -0.978  0.00  0.00     0.077 C 
ATOM      2  C1  UNL d   1      -0.392   1.011  -0.736  0.00  0.00    -0.074 A 
ATOM      3  C2  UNL d   1      -1.344   0.296  -0.002  0.00  0.00    -0.005 A 
ATOM      4  C3  UNL d   1      -1.187  -1.074   0.207  0.00  0.00     0.006 A 
ATOM      5  C4  UNL d   1      -0.079  -1.742  -0.315  0.00  0.00    -0.005 A 
ATOM      6  C5  UNL d   1       0.883  -1.044  -1.052  0.00  0.00    -0.074 A 
ATOM      7  C6  UNL d   1       2.075  -1.749  -1.627  0.00  0.00     0.077 C 
ATOM      8  C7  UNL d   1       0.715   0.331  -1.263  0.00  0.00    -0.001 A 
ENDROOT
TORSDOF 0
ENDMDL
