MODEL 1
REMARK minimizedAffinity -5.53083563
REMARK minimizedRMSD -1
REMARK  0 active torsions:
REMARK  status: ('A' for Active; 'I' for Inactive)
ROOT
ATOM      1  C   UNL d   1       2.430   1.399  -2.252  0.00  0.00     0.077 C 
ATOM      2  C1  UNL d   1       1.591   0.443  -1.458  0.00  0.00    -0.074 A 
ATOM      3  C2  UNL d   1       1.921  -0.915  -1.386  0.00  0.00    -0.005 A 
ATOM      4  C3  UNL d   1       1.137  -1.791  -0.636  0.00  0.00     0.006 A 
ATOM      5  C4  UNL d   1       0.015  -1.319   0.048  0.00  0.00    -0.005 A 
ATOM      6  C5  UNL d   1      -0.330   0.034  -0.012  0.00  0.00    -0.074 A 
ATOM      7  C6  UNL d   1      -1.527   0.559   0.725  0.00  0.00     0.077 C 
ATOM      8  C7  UNL d   1       0.467   0.910  -0.762  0.00  0.00    -0.001 A 
ENDROOT
TORSDOF 0
ENDMDL
