MODEL 1
REMARK minimizedAffinity -4.14919043
REMARK minimizedRMSD -1
REMARK  0 active torsions:
REMARK  status: ('A' for Active; 'I' for Inactive)
ROOT
ATOM      1  C   UNL d   1      -1.550   0.288   0.680  0.00  0.00     0.077 C 
ATOM      2  C1  UNL d   1      -0.354  -0.056  -0.158  0.00  0.00    -0.074 A 
ATOM      3  C2  UNL d   1       0.337  -1.256   0.035  0.00  0.00    -0.005 A 
ATOM      4  C3  UNL d   1       1.442  -1.567  -0.759  0.00  0.00     0.006 A 
ATOM      5  C4  UNL d   1       1.865  -0.683  -1.751  0.00  0.00    -0.005 A 
ATOM      6  C5  UNL d   1       1.185   0.522  -1.959  0.00  0.00    -0.074 A 
ATOM      7  C6  UNL d   1       1.621   1.479  -3.028  0.00  0.00     0.077 C 
ATOM      8  C7  UNL d   1       0.072   0.824  -1.163  0.00  0.00    -0.001 A 
ENDROOT
TORSDOF 0
ENDMDL
