MODEL 1
REMARK minimizedAffinity -5.14182091
REMARK minimizedRMSD -1
REMARK  0 active torsions:
REMARK  status: ('A' for Active; 'I' for Inactive)
ROOT
ATOM      1  C   UNL d   1       2.282   1.615  -3.874  0.00  0.00     0.077 C 
ATOM      2  C1  UNL d   1       2.158   0.707  -2.687  0.00  0.00    -0.074 A 
ATOM      3  C2  UNL d   1       3.062  -0.342  -2.487  0.00  0.00    -0.005 A 
ATOM      4  C3  UNL d   1       2.940  -1.173  -1.373  0.00  0.00     0.006 A 
ATOM      5  C4  UNL d   1       1.915  -0.964  -0.449  0.00  0.00    -0.005 A 
ATOM      6  C5  UNL d   1       1.003   0.080  -0.632  0.00  0.00    -0.074 A 
ATOM      7  C6  UNL d   1      -0.098   0.325   0.356  0.00  0.00     0.077 C 
ATOM      8  C7  UNL d   1       1.136   0.915  -1.750  0.00  0.00    -0.001 A 
ENDROOT
TORSDOF 0
ENDMDL
