MODEL 1
REMARK minimizedAffinity -5.73920965
REMARK minimizedRMSD -1
REMARK  0 active torsions:
REMARK  status: ('A' for Active; 'I' for Inactive)
ROOT
ATOM      1  C   UNL d   1      -1.440   0.614   0.888  0.00  0.00     0.077 C 
ATOM      2  C1  UNL d   1      -0.250   0.114   0.123  0.00  0.00    -0.074 A 
ATOM      3  C2  UNL d   1       0.126  -1.232   0.177  0.00  0.00    -0.005 A 
ATOM      4  C3  UNL d   1       1.229  -1.683  -0.548  0.00  0.00     0.006 A 
ATOM      5  C4  UNL d   1       1.965  -0.795  -1.333  0.00  0.00    -0.005 A 
ATOM      6  C5  UNL d   1       1.603   0.554  -1.400  0.00  0.00    -0.074 A 
ATOM      7  C6  UNL d   1       2.378   1.520  -2.246  0.00  0.00     0.077 C 
ATOM      8  C7  UNL d   1       0.490   0.999  -0.674  0.00  0.00    -0.001 A 
ENDROOT
TORSDOF 0
ENDMDL
