MODEL 1
REMARK minimizedAffinity -6.70029306
REMARK minimizedRMSD -1
REMARK  0 active torsions:
REMARK  status: ('A' for Active; 'I' for Inactive)
ROOT
ATOM      1  C   UNL d   1      -1.453   0.443   0.476  0.00  0.00     0.077 C 
ATOM      2  C1  UNL d   1      -0.181   0.043  -0.211  0.00  0.00    -0.074 A 
ATOM      3  C2  UNL d   1       0.357  -1.236  -0.039  0.00  0.00    -0.005 A 
ATOM      4  C3  UNL d   1       1.536  -1.597  -0.693  0.00  0.00     0.006 A 
ATOM      5  C4  UNL d   1       2.187  -0.683  -1.522  0.00  0.00    -0.005 A 
ATOM      6  C5  UNL d   1       1.664   0.601  -1.706  0.00  0.00    -0.074 A 
ATOM      7  C6  UNL d   1       2.346   1.592  -2.602  0.00  0.00     0.077 C 
ATOM      8  C7  UNL d   1       0.475   0.953  -1.052  0.00  0.00    -0.001 A 
ENDROOT
TORSDOF 0
ENDMDL
