MODEL 1
REMARK minimizedAffinity -5.42998457
REMARK minimizedRMSD -1
REMARK  0 active torsions:
REMARK  status: ('A' for Active; 'I' for Inactive)
ROOT
ATOM      1  C   UNL d   1      -1.370   0.134   0.755  0.00  0.00     0.077 C 
ATOM      2  C1  UNL d   1      -0.272  -0.160  -0.224  0.00  0.00    -0.074 A 
ATOM      3  C2  UNL d   1       0.463  -1.346  -0.145  0.00  0.00    -0.005 A 
ATOM      4  C3  UNL d   1       1.475  -1.610  -1.069  0.00  0.00     0.006 A 
ATOM      5  C4  UNL d   1       1.760  -0.691  -2.080  0.00  0.00    -0.005 A 
ATOM      6  C5  UNL d   1       1.034   0.501  -2.175  0.00  0.00    -0.074 A 
ATOM      7  C6  UNL d   1       1.321   1.495  -3.261  0.00  0.00     0.077 C 
ATOM      8  C7  UNL d   1       0.015   0.755  -1.247  0.00  0.00    -0.001 A 
ENDROOT
TORSDOF 0
ENDMDL
