MODEL 1
REMARK minimizedAffinity -4.31805134
REMARK minimizedRMSD -1
REMARK  0 active torsions:
REMARK  status: ('A' for Active; 'I' for Inactive)
ROOT
ATOM      1  C   UNL d   1      -1.168   0.183   0.623  0.00  0.00     0.077 C 
ATOM      2  C1  UNL d   1      -0.051   0.003  -0.361  0.00  0.00    -0.074 A 
ATOM      3  C2  UNL d   1       0.793  -1.110  -0.295  0.00  0.00    -0.005 A 
ATOM      4  C3  UNL d   1       1.822  -1.269  -1.223  0.00  0.00     0.006 A 
ATOM      5  C4  UNL d   1       2.017  -0.317  -2.225  0.00  0.00    -0.005 A 
ATOM      6  C5  UNL d   1       1.183   0.803  -2.306  0.00  0.00    -0.074 A 
ATOM      7  C6  UNL d   1       1.374   1.830  -3.382  0.00  0.00     0.077 C 
ATOM      8  C7  UNL d   1       0.147   0.951  -1.374  0.00  0.00    -0.001 A 
ENDROOT
TORSDOF 0
ENDMDL
