MODEL 1
REMARK minimizedAffinity -5.24239302
REMARK minimizedRMSD -1
REMARK  0 active torsions:
REMARK  status: ('A' for Active; 'I' for Inactive)
ROOT
ATOM      1  C   UNL d   1      -1.093   0.588   0.713  0.00  0.00     0.077 C 
ATOM      2  C1  UNL d   1      -0.048  -0.235   0.019  0.00  0.00    -0.074 A 
ATOM      3  C2  UNL d   1      -0.079  -1.633   0.077  0.00  0.00    -0.005 A 
ATOM      4  C3  UNL d   1       0.894  -2.385  -0.581  0.00  0.00     0.006 A 
ATOM      5  C4  UNL d   1       1.906  -1.749  -1.302  0.00  0.00    -0.005 A 
ATOM      6  C5  UNL d   1       1.953  -0.353  -1.371  0.00  0.00    -0.074 A 
ATOM      7  C6  UNL d   1       3.028   0.346  -2.149  0.00  0.00     0.077 C 
ATOM      8  C7  UNL d   1       0.967   0.396  -0.713  0.00  0.00    -0.001 A 
ENDROOT
TORSDOF 0
ENDMDL
