MODEL 1
REMARK minimizedAffinity -3.48882079
REMARK minimizedRMSD -1
REMARK  0 active torsions:
REMARK  status: ('A' for Active; 'I' for Inactive)
ROOT
ATOM      1  C   UNL d   1      -3.012  -0.101   2.270  0.00  0.00     0.077 C 
ATOM      2  C1  UNL d   1      -1.916   0.146   1.276  0.00  0.00    -0.074 A 
ATOM      3  C2  UNL d   1      -1.973   1.234   0.399  0.00  0.00    -0.005 A 
ATOM      4  C3  UNL d   1      -0.942   1.457  -0.514  0.00  0.00     0.006 A 
ATOM      5  C4  UNL d   1       0.155   0.596  -0.558  0.00  0.00    -0.005 A 
ATOM      6  C5  UNL d   1       0.231  -0.496   0.313  0.00  0.00    -0.074 A 
ATOM      7  C6  UNL d   1       1.408  -1.425   0.285  0.00  0.00     0.077 C 
ATOM      8  C7  UNL d   1      -0.806  -0.710   1.231  0.00  0.00    -0.001 A 
ENDROOT
TORSDOF 0
ENDMDL
