MODEL 1
REMARK minimizedAffinity -2.58447194
REMARK minimizedRMSD -1
REMARK  0 active torsions:
REMARK  status: ('A' for Active; 'I' for Inactive)
ROOT
ATOM      1  C   UNL d   1       1.847   1.350  -2.629  0.00  0.00     0.077 C 
ATOM      2  C1  UNL d   1       1.144   0.548  -1.574  0.00  0.00    -0.074 A 
ATOM      3  C2  UNL d   1       1.478  -0.792  -1.348  0.00  0.00    -0.005 A 
ATOM      4  C3  UNL d   1       0.823  -1.522  -0.357  0.00  0.00     0.006 A 
ATOM      5  C4  UNL d   1      -0.171  -0.922   0.417  0.00  0.00    -0.005 A 
ATOM      6  C5  UNL d   1      -0.518   0.416   0.206  0.00  0.00    -0.074 A 
ATOM      7  C6  UNL d   1      -1.577   1.079   1.036  0.00  0.00     0.077 C 
ATOM      8  C7  UNL d   1       0.150   1.146  -0.787  0.00  0.00    -0.001 A 
ENDROOT
TORSDOF 0
ENDMDL
