MODEL 1
REMARK minimizedAffinity -1.73238146
REMARK minimizedRMSD -1
REMARK  0 active torsions:
REMARK  status: ('A' for Active; 'I' for Inactive)
ROOT
ATOM      1  C   UNL d   1       1.170   2.160  -2.761  0.00  0.00     0.077 C 
ATOM      2  C1  UNL d   1       1.019   0.967  -1.865  0.00  0.00    -0.074 A 
ATOM      3  C2  UNL d   1       1.807  -0.174  -2.048  0.00  0.00    -0.005 A 
ATOM      4  C3  UNL d   1       1.662  -1.272  -1.201  0.00  0.00     0.006 A 
ATOM      5  C4  UNL d   1       0.729  -1.242  -0.164  0.00  0.00    -0.005 A 
ATOM      6  C5  UNL d   1      -0.067  -0.109   0.035  0.00  0.00    -0.074 A 
ATOM      7  C6  UNL d   1      -1.067  -0.056   1.152  0.00  0.00     0.077 C 
ATOM      8  C7  UNL d   1       0.089   0.993  -0.816  0.00  0.00    -0.001 A 
ENDROOT
TORSDOF 0
ENDMDL
