MODEL 1
REMARK minimizedAffinity -4.46473694
REMARK minimizedRMSD -1
REMARK  0 active torsions:
REMARK  status: ('A' for Active; 'I' for Inactive)
ROOT
ATOM      1  C   UNL d   1       0.355  -1.516   0.066  0.00  0.00     0.077 C 
ATOM      2  C1  UNL d   1       1.147  -0.551  -0.765  0.00  0.00    -0.074 A 
ATOM      3  C2  UNL d   1       0.667   0.736  -1.026  0.00  0.00    -0.005 A 
ATOM      4  C3  UNL d   1       1.419   1.625  -1.793  0.00  0.00     0.006 A 
ATOM      5  C4  UNL d   1       2.658   1.238  -2.304  0.00  0.00    -0.005 A 
ATOM      6  C5  UNL d   1       3.156  -0.045  -2.053  0.00  0.00    -0.074 A 
ATOM      7  C6  UNL d   1       4.490  -0.474  -2.587  0.00  0.00     0.077 C 
ATOM      8  C7  UNL d   1       2.397  -0.931  -1.276  0.00  0.00    -0.001 A 
ENDROOT
TORSDOF 0
ENDMDL
