MODEL 1
REMARK minimizedAffinity -5.65123558
REMARK minimizedRMSD -1
REMARK  0 active torsions:
REMARK  status: ('A' for Active; 'I' for Inactive)
ROOT
ATOM      1  C   UNL d   1       0.500  -1.018   0.187  0.00  0.00     0.077 C 
ATOM      2  C1  UNL d   1       1.488  -0.345  -0.719  0.00  0.00    -0.074 A 
ATOM      3  C2  UNL d   1       2.657  -1.000  -1.121  0.00  0.00    -0.005 A 
ATOM      4  C3  UNL d   1       3.562  -0.365  -1.972  0.00  0.00     0.006 A 
ATOM      5  C4  UNL d   1       3.308   0.929  -2.428  0.00  0.00    -0.005 A 
ATOM      6  C5  UNL d   1       2.144   1.599  -2.037  0.00  0.00    -0.074 A 
ATOM      7  C6  UNL d   1       1.851   2.987  -2.526  0.00  0.00     0.077 C 
ATOM      8  C7  UNL d   1       1.236   0.952  -1.188  0.00  0.00    -0.001 A 
ENDROOT
TORSDOF 0
ENDMDL
