MODEL 1
REMARK minimizedAffinity 2.45756412
REMARK minimizedRMSD -1
REMARK  0 active torsions:
REMARK  status: ('A' for Active; 'I' for Inactive)
ROOT
ATOM      1  C   UNL d   1      -0.121   0.329   3.079  0.00  0.00     0.078 C 
ATOM      2  C1  UNL d   1      -1.523   0.340   2.546  0.00  0.00    -0.077 A 
ATOM      3  C2  UNL d   1      -2.616   0.545   3.397  0.00  0.00    -0.001 A 
ATOM      4  C3  UNL d   1      -3.916   0.543   2.889  0.00  0.00     0.003 A 
ATOM      5  C4  UNL d   1      -4.135   0.335   1.528  0.00  0.00    -0.005 A 
ATOM      6  C5  UNL d   1      -3.054   0.128   0.675  0.00  0.00     0.003 A 
ATOM      7  C6  UNL d   1      -1.753   0.130   1.181  0.00  0.00    -0.001 A 
ENDROOT
TORSDOF 0
ENDMDL
