MODEL 1
REMARK minimizedAffinity 6.20042896
REMARK minimizedRMSD -1
REMARK  0 active torsions:
REMARK  status: ('A' for Active; 'I' for Inactive)
ROOT
ATOM      1  C   UNL d   1      -4.232  -2.504   0.388  0.00  0.00     0.078 C 
ATOM      2  C1  UNL d   1      -3.872  -1.066   0.612  0.00  0.00    -0.077 A 
ATOM      3  C2  UNL d   1      -2.723  -0.713   1.329  0.00  0.00    -0.001 A 
ATOM      4  C3  UNL d   1      -2.405   0.630   1.538  0.00  0.00     0.003 A 
ATOM      5  C4  UNL d   1      -3.233   1.631   1.034  0.00  0.00    -0.005 A 
ATOM      6  C5  UNL d   1      -4.380   1.290   0.320  0.00  0.00     0.003 A 
ATOM      7  C6  UNL d   1      -4.699  -0.053   0.111  0.00  0.00    -0.001 A 
ENDROOT
TORSDOF 0
ENDMDL
