MODEL 1
REMARK minimizedAffinity 2.63747621
REMARK minimizedRMSD -1
REMARK  0 active torsions:
REMARK  status: ('A' for Active; 'I' for Inactive)
ROOT
ATOM      1  C   UNL d   1      -4.337  -4.634  -5.996  0.00  0.00     0.078 C 
ATOM      2  C1  UNL d   1      -3.598  -3.329  -5.990  0.00  0.00    -0.077 A 
ATOM      3  C2  UNL d   1      -4.288  -2.110  -5.993  0.00  0.00    -0.001 A 
ATOM      4  C3  UNL d   1      -3.588  -0.903  -5.997  0.00  0.00     0.003 A 
ATOM      5  C4  UNL d   1      -2.194  -0.902  -5.999  0.00  0.00    -0.005 A 
ATOM      6  C5  UNL d   1      -1.499  -2.110  -5.999  0.00  0.00     0.003 A 
ATOM      7  C6  UNL d   1      -2.198  -3.318  -5.995  0.00  0.00    -0.001 A 
ENDROOT
TORSDOF 0
ENDMDL
