MODEL 1
REMARK minimizedAffinity 5.6089325
REMARK minimizedRMSD -1
REMARK  0 active torsions:
REMARK  status: ('A' for Active; 'I' for Inactive)
ROOT
ATOM      1  C   UNL d   1      -0.015   0.102   3.005  0.00  0.00     0.078 C 
ATOM      2  C1  UNL d   1      -1.471   0.192   2.660  0.00  0.00    -0.077 A 
ATOM      3  C2  UNL d   1      -2.454   0.119   3.655  0.00  0.00    -0.001 A 
ATOM      4  C3  UNL d   1      -3.806   0.194   3.318  0.00  0.00     0.003 A 
ATOM      5  C4  UNL d   1      -4.188   0.342   1.986  0.00  0.00    -0.005 A 
ATOM      6  C5  UNL d   1      -3.218   0.413   0.989  0.00  0.00     0.003 A 
ATOM      7  C6  UNL d   1      -1.865   0.338   1.324  0.00  0.00    -0.001 A 
ENDROOT
TORSDOF 0
ENDMDL
