MODEL 1
REMARK minimizedAffinity 15.2239065
REMARK minimizedRMSD -1
REMARK  0 active torsions:
REMARK  status: ('A' for Active; 'I' for Inactive)
ROOT
ATOM      1  C   UNL d   1       1.868  -0.039  -4.791  0.00  0.00     0.078 C 
ATOM      2  C1  UNL d   1       0.679  -0.844  -5.220  0.00  0.00    -0.077 A 
ATOM      3  C2  UNL d   1      -0.513  -0.219  -5.609  0.00  0.00    -0.001 A 
ATOM      4  C3  UNL d   1      -1.616  -0.982  -5.997  0.00  0.00     0.003 A 
ATOM      5  C4  UNL d   1      -1.538  -2.373  -6.000  0.00  0.00    -0.005 A 
ATOM      6  C5  UNL d   1      -0.358  -3.004  -5.613  0.00  0.00     0.003 A 
ATOM      7  C6  UNL d   1       0.746  -2.243  -5.224  0.00  0.00    -0.001 A 
ENDROOT
TORSDOF 0
ENDMDL
