MODEL 1
REMARK minimizedAffinity -4.49814367
REMARK minimizedRMSD -1
REMARK  0 active torsions:
REMARK  status: ('A' for Active; 'I' for Inactive)
ROOT
ATOM      1  C   UNL d   1      -3.588  -1.836   0.261  0.00  0.00     0.078 C 
ATOM      2  C1  UNL d   1      -2.792  -0.845   1.057  0.00  0.00    -0.077 A 
ATOM      3  C2  UNL d   1      -1.411  -0.713   0.871  0.00  0.00    -0.001 A 
ATOM      4  C3  UNL d   1      -0.681   0.207   1.626  0.00  0.00     0.003 A 
ATOM      5  C4  UNL d   1      -1.324   1.000   2.574  0.00  0.00    -0.005 A 
ATOM      6  C5  UNL d   1      -2.698   0.874   2.768  0.00  0.00     0.003 A 
ATOM      7  C6  UNL d   1      -3.429  -0.045   2.014  0.00  0.00    -0.001 A 
ENDROOT
TORSDOF 0
ENDMDL
