MODEL 1
REMARK minimizedAffinity 3.91023254
REMARK minimizedRMSD -1
REMARK  0 active torsions:
REMARK  status: ('A' for Active; 'I' for Inactive)
ROOT
ATOM      1  C   UNL d   1      -4.168  -0.627   0.297  0.00  0.00     0.078 C 
ATOM      2  C1  UNL d   1      -3.302   0.449   0.880  0.00  0.00    -0.077 A 
ATOM      3  C2  UNL d   1      -1.978   0.186   1.254  0.00  0.00    -0.001 A 
ATOM      4  C3  UNL d   1      -1.187   1.195   1.805  0.00  0.00     0.003 A 
ATOM      5  C4  UNL d   1      -1.710   2.474   1.989  0.00  0.00    -0.005 A 
ATOM      6  C5  UNL d   1      -3.027   2.744   1.622  0.00  0.00     0.003 A 
ATOM      7  C6  UNL d   1      -3.820   1.736   1.071  0.00  0.00    -0.001 A 
ENDROOT
TORSDOF 0
ENDMDL
