MODEL 1
REMARK minimizedAffinity 7.12608433
REMARK minimizedRMSD -1
REMARK  0 active torsions:
REMARK  status: ('A' for Active; 'I' for Inactive)
ROOT
ATOM      1  C   UNL d   1      -0.453   0.385   2.454  0.00  0.00     0.078 C 
ATOM      2  C1  UNL d   1      -1.939   0.408   2.250  0.00  0.00    -0.077 A 
ATOM      3  C2  UNL d   1      -2.492   0.332   0.966  0.00  0.00    -0.001 A 
ATOM      4  C3  UNL d   1      -3.876   0.364   0.791  0.00  0.00     0.003 A 
ATOM      5  C4  UNL d   1      -4.719   0.473   1.895  0.00  0.00    -0.005 A 
ATOM      6  C5  UNL d   1      -4.178   0.551   3.176  0.00  0.00     0.003 A 
ATOM      7  C6  UNL d   1      -2.794   0.519   3.354  0.00  0.00    -0.001 A 
ENDROOT
TORSDOF 0
ENDMDL
