MODEL 1
REMARK minimizedAffinity 1.01150203
REMARK minimizedRMSD -1
REMARK  0 active torsions:
REMARK  status: ('A' for Active; 'I' for Inactive)
ROOT
ATOM      1  C   UNL d   1      -2.412  -0.841  -5.986  0.00  0.00     0.078 C 
ATOM      2  C1  UNL d   1      -3.079  -2.184  -5.996  0.00  0.00    -0.077 A 
ATOM      3  C2  UNL d   1      -4.474  -2.297  -5.990  0.00  0.00    -0.001 A 
ATOM      4  C3  UNL d   1      -5.081  -3.554  -5.990  0.00  0.00     0.003 A 
ATOM      5  C4  UNL d   1      -4.300  -4.708  -5.996  0.00  0.00    -0.005 A 
ATOM      6  C5  UNL d   1      -2.911  -4.606  -6.000  0.00  0.00     0.003 A 
ATOM      7  C6  UNL d   1      -2.302  -3.350  -6.000  0.00  0.00    -0.001 A 
ENDROOT
TORSDOF 0
ENDMDL
