MODEL 1
REMARK minimizedAffinity 7.9292779
REMARK minimizedRMSD -1
REMARK  0 active torsions:
REMARK  status: ('A' for Active; 'I' for Inactive)
ROOT
ATOM      1  C   UNL d   1      -4.574  -5.264  -5.999  0.00  0.00     0.078 C 
ATOM      2  C1  UNL d   1      -4.093  -3.844  -5.991  0.00  0.00    -0.077 A 
ATOM      3  C2  UNL d   1      -4.998  -2.775  -5.990  0.00  0.00    -0.001 A 
ATOM      4  C3  UNL d   1      -4.535  -1.458  -5.992  0.00  0.00     0.003 A 
ATOM      5  C4  UNL d   1      -3.167  -1.197  -5.996  0.00  0.00    -0.005 A 
ATOM      6  C5  UNL d   1      -2.258  -2.254  -6.000  0.00  0.00     0.003 A 
ATOM      7  C6  UNL d   1      -2.719  -3.572  -5.998  0.00  0.00    -0.001 A 
ENDROOT
TORSDOF 0
ENDMDL
