MODEL 1
REMARK minimizedAffinity 9.44760895
REMARK minimizedRMSD -1
REMARK  0 active torsions:
REMARK  status: ('A' for Active; 'I' for Inactive)
ROOT
ATOM      1  C   UNL d   1      -3.456   0.654   2.187  0.00  0.00     0.078 C 
ATOM      2  C1  UNL d   1      -4.159   0.726   3.510  0.00  0.00    -0.077 A 
ATOM      3  C2  UNL d   1      -5.187   1.650   3.730  0.00  0.00    -0.001 A 
ATOM      4  C3  UNL d   1      -5.827   1.713   4.969  0.00  0.00     0.003 A 
ATOM      5  C4  UNL d   1      -5.444   0.855   5.998  0.00  0.00    -0.005 A 
ATOM      6  C5  UNL d   1      -4.421  -0.067   5.789  0.00  0.00     0.003 A 
ATOM      7  C6  UNL d   1      -3.780  -0.131   4.550  0.00  0.00    -0.001 A 
ENDROOT
TORSDOF 0
ENDMDL
