MODEL 1
REMARK minimizedAffinity -2.25873351
REMARK minimizedRMSD -1
REMARK  0 active torsions:
REMARK  status: ('A' for Active; 'I' for Inactive)
ROOT
ATOM      1  C   UNL d   1      -2.554  -1.009  -5.989  0.00  0.00     0.078 C 
ATOM      2  C1  UNL d   1      -3.525  -2.153  -5.985  0.00  0.00    -0.077 A 
ATOM      3  C2  UNL d   1      -3.076  -3.479  -5.991  0.00  0.00    -0.001 A 
ATOM      4  C3  UNL d   1      -3.991  -4.533  -5.997  0.00  0.00     0.003 A 
ATOM      5  C4  UNL d   1      -5.359  -4.272  -5.998  0.00  0.00    -0.005 A 
ATOM      6  C5  UNL d   1      -5.815  -2.956  -5.995  0.00  0.00     0.003 A 
ATOM      7  C6  UNL d   1      -4.902  -1.900  -5.989  0.00  0.00    -0.001 A 
ENDROOT
TORSDOF 0
ENDMDL
