MODEL 1
REMARK minimizedAffinity -1.34657693
REMARK minimizedRMSD -1
REMARK  0 active torsions:
REMARK  status: ('A' for Active; 'I' for Inactive)
ROOT
ATOM      1  C   UNL d   1      -5.957  -3.001  -5.957  0.00  0.00     0.078 C 
ATOM      2  C1  UNL d   1      -4.535  -2.526  -5.973  0.00  0.00    -0.077 A 
ATOM      3  C2  UNL d   1      -3.471  -3.437  -5.995  0.00  0.00    -0.001 A 
ATOM      4  C3  UNL d   1      -2.152  -2.981  -6.000  0.00  0.00     0.003 A 
ATOM      5  C4  UNL d   1      -1.884  -1.613  -5.982  0.00  0.00    -0.005 A 
ATOM      6  C5  UNL d   1      -2.936  -0.700  -5.957  0.00  0.00     0.003 A 
ATOM      7  C6  UNL d   1      -4.256  -1.154  -5.952  0.00  0.00    -0.001 A 
ENDROOT
TORSDOF 0
ENDMDL
