MODEL 1
REMARK minimizedAffinity -1.74429584
REMARK minimizedRMSD -1
REMARK  0 active torsions:
REMARK  status: ('A' for Active; 'I' for Inactive)
ROOT
ATOM      1  C   UNL d   1      -4.799   0.997   4.828  0.00  0.00     0.078 C 
ATOM      2  C1  UNL d   1      -3.957   0.949   3.588  0.00  0.00    -0.077 A 
ATOM      3  C2  UNL d   1      -4.545   0.902   2.318  0.00  0.00    -0.001 A 
ATOM      4  C3  UNL d   1      -3.748   0.848   1.173  0.00  0.00     0.003 A 
ATOM      5  C4  UNL d   1      -2.359   0.838   1.287  0.00  0.00    -0.005 A 
ATOM      6  C5  UNL d   1      -1.765   0.881   2.546  0.00  0.00     0.003 A 
ATOM      7  C6  UNL d   1      -2.560   0.936   3.692  0.00  0.00    -0.001 A 
ENDROOT
TORSDOF 0
ENDMDL
