MODEL 1
REMARK minimizedAffinity -2.75791216
REMARK minimizedRMSD -1
REMARK  0 active torsions:
REMARK  status: ('A' for Active; 'I' for Inactive)
ROOT
ATOM      1  C   UNL d   1      -5.636  -3.270  -5.933  0.00  0.00     0.078 C 
ATOM      2  C1  UNL d   1      -4.307  -2.578  -5.964  0.00  0.00    -0.077 A 
ATOM      3  C2  UNL d   1      -3.113  -3.309  -5.978  0.00  0.00    -0.001 A 
ATOM      4  C3  UNL d   1      -1.882  -2.651  -5.996  0.00  0.00     0.003 A 
ATOM      5  C4  UNL d   1      -1.833  -1.259  -6.000  0.00  0.00    -0.005 A 
ATOM      6  C5  UNL d   1      -3.016  -0.522  -5.984  0.00  0.00     0.003 A 
ATOM      7  C6  UNL d   1      -4.247  -1.178  -5.965  0.00  0.00    -0.001 A 
ENDROOT
TORSDOF 0
ENDMDL
