MODEL 1
REMARK minimizedAffinity 7.06931114
REMARK minimizedRMSD -1
REMARK  0 active torsions:
REMARK  status: ('A' for Active; 'I' for Inactive)
ROOT
ATOM      1  C   UNL d   1       1.719  -5.614   2.976  0.00  0.00     0.078 C 
ATOM      2  C1  UNL d   1       3.211  -5.462   3.002  0.00  0.00    -0.077 A 
ATOM      3  C2  UNL d   1       3.973  -5.998   4.047  0.00  0.00    -0.001 A 
ATOM      4  C3  UNL d   1       5.359  -5.841   4.063  0.00  0.00     0.003 A 
ATOM      5  C4  UNL d   1       5.996  -5.146   3.036  0.00  0.00    -0.005 A 
ATOM      6  C5  UNL d   1       5.247  -4.607   1.993  0.00  0.00     0.003 A 
ATOM      7  C6  UNL d   1       3.860  -4.763   1.976  0.00  0.00    -0.001 A 
ENDROOT
TORSDOF 0
ENDMDL
