MODEL 1
REMARK minimizedAffinity 6.84345579
REMARK minimizedRMSD -1
REMARK  0 active torsions:
REMARK  status: ('A' for Active; 'I' for Inactive)
ROOT
ATOM      1  C   UNL d   1      -4.925  -0.004   2.207  0.00  0.00     0.078 C 
ATOM      2  C1  UNL d   1      -3.658   0.791   2.107  0.00  0.00    -0.077 A 
ATOM      3  C2  UNL d   1      -2.427   0.160   1.889  0.00  0.00    -0.001 A 
ATOM      4  C3  UNL d   1      -1.253   0.912   1.808  0.00  0.00     0.003 A 
ATOM      5  C4  UNL d   1      -1.299   2.298   1.946  0.00  0.00    -0.005 A 
ATOM      6  C5  UNL d   1      -2.519   2.934   2.166  0.00  0.00     0.003 A 
ATOM      7  C6  UNL d   1      -3.693   2.184   2.247  0.00  0.00    -0.001 A 
ENDROOT
TORSDOF 0
ENDMDL
