MODEL 1
REMARK minimizedAffinity 7.86617279
REMARK minimizedRMSD -1
REMARK  0 active torsions:
REMARK  status: ('A' for Active; 'I' for Inactive)
ROOT
ATOM      1  C1  BNZ d   1      -0.126  -5.926  -4.491  0.00  0.00     0.000 A 
ATOM      2  C2  BNZ d   1       0.621  -4.930  -3.920  0.00  0.00     0.000 A 
ATOM      3  C3  BNZ d   1       0.021  -3.838  -3.360  0.00  0.00     0.000 A 
ATOM      4  C4  BNZ d   1      -1.322  -3.723  -3.406  0.00  0.00     0.000 A 
ATOM      5  C5  BNZ d   1      -2.089  -4.714  -3.987  0.00  0.00     0.000 A 
ATOM      6  C6  BNZ d   1      -1.483  -5.830  -4.515  0.00  0.00     0.000 A 
ENDROOT
TORSDOF 0
ENDMDL
