MODEL 1
REMARK minimizedAffinity 2.6073668
REMARK minimizedRMSD -1
REMARK  0 active torsions:
REMARK  status: ('A' for Active; 'I' for Inactive)
ROOT
ATOM      1  C1  BNZ d   1      -1.659  -0.746   1.756  0.00  0.00     0.000 A 
ATOM      2  C2  BNZ d   1      -2.717  -0.902   0.900  0.00  0.00     0.000 A 
ATOM      3  C3  BNZ d   1      -3.627   0.102   0.722  0.00  0.00     0.000 A 
ATOM      4  C4  BNZ d   1      -3.502   1.244   1.429  0.00  0.00     0.000 A 
ATOM      5  C5  BNZ d   1      -2.446   1.412   2.303  0.00  0.00     0.000 A 
ATOM      6  C6  BNZ d   1      -1.510   0.415   2.450  0.00  0.00     0.000 A 
ENDROOT
TORSDOF 0
ENDMDL
