MODEL 1
REMARK minimizedAffinity 6.57803535
REMARK minimizedRMSD -1
REMARK  0 active torsions:
REMARK  status: ('A' for Active; 'I' for Inactive)
ROOT
ATOM      1  C1  BNZ d   1       5.977  -5.242   0.608  0.00  0.00     0.000 A 
ATOM      2  C2  BNZ d   1       5.984  -3.935   0.200  0.00  0.00     0.000 A 
ATOM      3  C3  BNZ d   1       4.873  -3.371  -0.362  0.00  0.00     0.000 A 
ATOM      4  C4  BNZ d   1       3.771  -4.124  -0.551  0.00  0.00     0.000 A 
ATOM      5  C5  BNZ d   1       3.751  -5.446  -0.154  0.00  0.00     0.000 A 
ATOM      6  C6  BNZ d   1       4.858  -6.000   0.447  0.00  0.00     0.000 A 
ENDROOT
TORSDOF 0
ENDMDL
