MODEL 1
REMARK minimizedAffinity 11.982832
REMARK minimizedRMSD -1
REMARK  0 active torsions:
REMARK  status: ('A' for Active; 'I' for Inactive)
ROOT
ATOM      1  C1  BNZ d   1      -0.690  -2.554   1.400  0.00  0.00     0.000 A 
ATOM      2  C2  BNZ d   1      -1.842  -1.865   1.131  0.00  0.00     0.000 A 
ATOM      3  C3  BNZ d   1      -2.216  -0.798   1.900  0.00  0.00     0.000 A 
ATOM      4  C4  BNZ d   1      -1.460  -0.448   2.960  0.00  0.00     0.000 A 
ATOM      5  C5  BNZ d   1      -0.300  -1.138   3.250  0.00  0.00     0.000 A 
ATOM      6  C6  BNZ d   1       0.094  -2.186   2.450  0.00  0.00     0.000 A 
ENDROOT
TORSDOF 0
ENDMDL
