MODEL 1
REMARK minimizedAffinity 2.31756544
REMARK minimizedRMSD -1
REMARK  0 active torsions:
REMARK  status: ('A' for Active; 'I' for Inactive)
ROOT
ATOM      1  C1  BNZ d   1      -1.038  -0.346   3.472  0.00  0.00     0.000 A 
ATOM      2  C2  BNZ d   1      -0.561  -1.382   2.714  0.00  0.00     0.000 A 
ATOM      3  C3  BNZ d   1      -1.201  -1.763   1.568  0.00  0.00     0.000 A 
ATOM      4  C4  BNZ d   1      -2.338  -1.136   1.203  0.00  0.00     0.000 A 
ATOM      5  C5  BNZ d   1      -2.837  -0.096   1.962  0.00  0.00     0.000 A 
ATOM      6  C6  BNZ d   1      -2.168   0.311   3.094  0.00  0.00     0.000 A 
ENDROOT
TORSDOF 0
ENDMDL
