MODEL 1
REMARK minimizedAffinity 7.81324673
REMARK minimizedRMSD -1
REMARK  0 active torsions:
REMARK  status: ('A' for Active; 'I' for Inactive)
ROOT
ATOM      1  C1  BNZ d   1      -3.074   1.058   3.314  0.00  0.00     0.000 A 
ATOM      2  C2  BNZ d   1      -1.920   0.421   3.682  0.00  0.00     0.000 A 
ATOM      3  C3  BNZ d   1      -1.348  -0.518   2.869  0.00  0.00     0.000 A 
ATOM      4  C4  BNZ d   1      -1.951  -0.845   1.709  0.00  0.00     0.000 A 
ATOM      5  C5  BNZ d   1      -3.120  -0.218   1.327  0.00  0.00     0.000 A 
ATOM      6  C6  BNZ d   1      -3.672   0.754   2.130  0.00  0.00     0.000 A 
ENDROOT
TORSDOF 0
ENDMDL
