MODEL 1
REMARK minimizedAffinity 4.23027229
REMARK minimizedRMSD -1
REMARK  0 active torsions:
REMARK  status: ('A' for Active; 'I' for Inactive)
ROOT
ATOM      1  C1  BNZ d   1      -4.119  -4.833   3.381  0.00  0.00     0.000 A 
ATOM      2  C2  BNZ d   1      -4.494  -5.996   3.999  0.00  0.00     0.000 A 
ATOM      3  C3  BNZ d   1      -4.901  -5.995   5.304  0.00  0.00     0.000 A 
ATOM      4  C4  BNZ d   1      -4.893  -4.840   6.000  0.00  0.00     0.000 A 
ATOM      5  C5  BNZ d   1      -4.509  -3.661   5.393  0.00  0.00     0.000 A 
ATOM      6  C6  BNZ d   1      -4.138  -3.659   4.068  0.00  0.00     0.000 A 
ENDROOT
TORSDOF 0
ENDMDL
