MODEL 1
REMARK minimizedAffinity 8.77198792
REMARK minimizedRMSD -1
REMARK  0 active torsions:
REMARK  status: ('A' for Active; 'I' for Inactive)
ROOT
ATOM      1  C1  BNZ d   1       3.864   3.380   1.894  0.00  0.00     0.000 A 
ATOM      2  C2  BNZ d   1       5.096   3.971   1.799  0.00  0.00     0.000 A 
ATOM      3  C3  BNZ d   1       5.984   3.585   0.834  0.00  0.00     0.000 A 
ATOM      4  C4  BNZ d   1       5.656   2.584  -0.007  0.00  0.00     0.000 A 
ATOM      5  C5  BNZ d   1       4.422   1.972   0.082  0.00  0.00     0.000 A 
ATOM      6  C6  BNZ d   1       3.515   2.389   1.030  0.00  0.00     0.000 A 
ENDROOT
TORSDOF 0
ENDMDL
