MODEL 1
REMARK minimizedAffinity 5.78321743
REMARK minimizedRMSD -1
REMARK  0 active torsions:
REMARK  status: ('A' for Active; 'I' for Inactive)
ROOT
ATOM      1  C1  BNZ d   1      -0.374  -4.538  -4.139  0.00  0.00     0.000 A 
ATOM      2  C2  BNZ d   1      -0.749  -5.281  -5.226  0.00  0.00     0.000 A 
ATOM      3  C3  BNZ d   1      -1.914  -5.997  -5.217  0.00  0.00     0.000 A 
ATOM      4  C4  BNZ d   1      -2.681  -6.000  -4.107  0.00  0.00     0.000 A 
ATOM      5  C5  BNZ d   1      -2.311  -5.263  -3.000  0.00  0.00     0.000 A 
ATOM      6  C6  BNZ d   1      -1.158  -4.513  -3.027  0.00  0.00     0.000 A 
ENDROOT
TORSDOF 0
ENDMDL
