MODEL 1
REMARK minimizedAffinity 11.4911547
REMARK minimizedRMSD -1
REMARK  0 active torsions:
REMARK  status: ('A' for Active; 'I' for Inactive)
ROOT
ATOM      1  C1  BNZ d   1       4.050   2.490   1.858  0.00  0.00     0.000 A 
ATOM      2  C2  BNZ d   1       5.089   3.382   1.864  0.00  0.00     0.000 A 
ATOM      3  C3  BNZ d   1       6.000   3.403   0.844  0.00  0.00     0.000 A 
ATOM      4  C4  BNZ d   1       5.893   2.506  -0.157  0.00  0.00     0.000 A 
ATOM      5  C5  BNZ d   1       4.857   1.594  -0.173  0.00  0.00     0.000 A 
ATOM      6  C6  BNZ d   1       3.920   1.602   0.835  0.00  0.00     0.000 A 
ENDROOT
TORSDOF 0
ENDMDL
