MODEL 1
REMARK minimizedAffinity 6.23809004
REMARK minimizedRMSD -1
REMARK  0 active torsions:
REMARK  status: ('A' for Active; 'I' for Inactive)
ROOT
ATOM      1  C1  BNZ d   1      -4.711  -5.994   3.979  0.00  0.00     0.000 A 
ATOM      2  C2  BNZ d   1      -5.281  -6.000   5.224  0.00  0.00     0.000 A 
ATOM      3  C3  BNZ d   1      -5.281  -4.874   6.000  0.00  0.00     0.000 A 
ATOM      4  C4  BNZ d   1      -4.677  -3.757   5.546  0.00  0.00     0.000 A 
ATOM      5  C5  BNZ d   1      -4.090  -3.737   4.297  0.00  0.00     0.000 A 
ATOM      6  C6  BNZ d   1      -4.126  -4.861   3.503  0.00  0.00     0.000 A 
ENDROOT
TORSDOF 0
ENDMDL
