MODEL 1
REMARK minimizedAffinity 2.89989376
REMARK minimizedRMSD -1
REMARK  0 active torsions:
REMARK  status: ('A' for Active; 'I' for Inactive)
ROOT
ATOM      1  C1  BNZ d   1      -1.093  -0.474   3.138  0.00  0.00     0.000 A 
ATOM      2  C2  BNZ d   1      -1.209  -1.453   2.188  0.00  0.00     0.000 A 
ATOM      3  C3  BNZ d   1      -2.243  -1.443   1.294  0.00  0.00     0.000 A 
ATOM      4  C4  BNZ d   1      -3.181  -0.478   1.377  0.00  0.00     0.000 A 
ATOM      5  C5  BNZ d   1      -3.084   0.511   2.335  0.00  0.00     0.000 A 
ATOM      6  C6  BNZ d   1      -2.020   0.520   3.208  0.00  0.00     0.000 A 
ENDROOT
TORSDOF 0
ENDMDL
