MODEL 1
REMARK minimizedAffinity 5.85411406
REMARK minimizedRMSD -1
REMARK  0 active torsions:
REMARK  status: ('A' for Active; 'I' for Inactive)
ROOT
ATOM      1  C1  BNZ d   1      -1.962   0.225   2.900  0.00  0.00     0.000 A 
ATOM      2  C2  BNZ d   1      -1.631  -0.479   1.773  0.00  0.00     0.000 A 
ATOM      3  C3  BNZ d   1      -0.627  -1.405   1.796  0.00  0.00     0.000 A 
ATOM      4  C4  BNZ d   1       0.071  -1.598   2.934  0.00  0.00     0.000 A 
ATOM      5  C5  BNZ d   1      -0.244  -0.890   4.076  0.00  0.00     0.000 A 
ATOM      6  C6  BNZ d   1      -1.282   0.014   4.060  0.00  0.00     0.000 A 
ENDROOT
TORSDOF 0
ENDMDL
