MODEL 1
REMARK minimizedAffinity 8.17223358
REMARK minimizedRMSD -1
REMARK  0 active torsions:
REMARK  status: ('A' for Active; 'I' for Inactive)
ROOT
ATOM      1  C1  BNZ d   1      -1.040  -1.119   1.538  0.00  0.00     0.000 A 
ATOM      2  C2  BNZ d   1      -0.639  -0.559   2.721  0.00  0.00     0.000 A 
ATOM      3  C3  BNZ d   1      -1.437   0.337   3.377  0.00  0.00     0.000 A 
ATOM      4  C4  BNZ d   1      -2.614   0.702   2.829  0.00  0.00     0.000 A 
ATOM      5  C5  BNZ d   1      -3.028   0.153   1.632  0.00  0.00     0.000 A 
ATOM      6  C6  BNZ d   1      -2.240  -0.778   0.994  0.00  0.00     0.000 A 
ENDROOT
TORSDOF 0
ENDMDL
