MODEL 1
REMARK minimizedAffinity 9.48815346
REMARK minimizedRMSD -1
REMARK  0 active torsions:
REMARK  status: ('A' for Active; 'I' for Inactive)
ROOT
ATOM      1  C1  BNZ d   1       4.668   2.169   0.794  0.00  0.00     0.000 A 
ATOM      2  C2  BNZ d   1       3.398   2.460   1.215  0.00  0.00     0.000 A 
ATOM      3  C3  BNZ d   1       2.317   1.828   0.668  0.00  0.00     0.000 A 
ATOM      4  C4  BNZ d   1       2.503   0.937  -0.327  0.00  0.00     0.000 A 
ATOM      5  C5  BNZ d   1       3.777   0.639  -0.769  0.00  0.00     0.000 A 
ATOM      6  C6  BNZ d   1       4.866   1.249  -0.189  0.00  0.00     0.000 A 
ENDROOT
TORSDOF 0
ENDMDL
