MODEL 1
REMARK minimizedAffinity 8.78089619
REMARK minimizedRMSD -1
REMARK  0 active torsions:
REMARK  status: ('A' for Active; 'I' for Inactive)
ROOT
ATOM      1  C1  BNZ d   1       5.997   5.999  -0.644  0.00  0.00     0.000 A 
ATOM      2  C2  BNZ d   1       6.000   4.814   0.043  0.00  0.00     0.000 A 
ATOM      3  C3  BNZ d   1       5.996   3.620  -0.622  0.00  0.00     0.000 A 
ATOM      4  C4  BNZ d   1       5.949   3.611  -1.969  0.00  0.00     0.000 A 
ATOM      5  C5  BNZ d   1       5.936   4.797  -2.676  0.00  0.00     0.000 A 
ATOM      6  C6  BNZ d   1       5.980   5.998  -2.005  0.00  0.00     0.000 A 
ENDROOT
TORSDOF 0
ENDMDL
