MODEL 1
REMARK minimizedAffinity 7.39845419
REMARK minimizedRMSD -1
REMARK  0 active torsions:
REMARK  status: ('A' for Active; 'I' for Inactive)
ROOT
ATOM      1  C1  BNZ d   1       5.873   5.997  -0.789  0.00  0.00     0.000 A 
ATOM      2  C2  BNZ d   1       5.824   5.432  -2.035  0.00  0.00     0.000 A 
ATOM      3  C3  BNZ d   1       5.838   4.074  -2.189  0.00  0.00     0.000 A 
ATOM      4  C4  BNZ d   1       5.941   3.285  -1.101  0.00  0.00     0.000 A 
ATOM      5  C5  BNZ d   1       6.000   3.839   0.162  0.00  0.00     0.000 A 
ATOM      6  C6  BNZ d   1       5.946   5.205   0.316  0.00  0.00     0.000 A 
ENDROOT
TORSDOF 0
ENDMDL
