MODEL 1
REMARK minimizedAffinity 5.02311993
REMARK minimizedRMSD -1
REMARK  0 active torsions:
REMARK  status: ('A' for Active; 'I' for Inactive)
ROOT
ATOM      1  C1  BNZ d   1      -3.893  -5.999  -5.993  0.00  0.00     0.000 A 
ATOM      2  C2  BNZ d   1      -5.262  -5.979  -5.988  0.00  0.00     0.000 A 
ATOM      3  C3  BNZ d   1      -5.947  -5.172  -5.124  0.00  0.00     0.000 A 
ATOM      4  C4  BNZ d   1      -5.264  -4.417  -4.239  0.00  0.00     0.000 A 
ATOM      5  C5  BNZ d   1      -3.883  -4.433  -4.226  0.00  0.00     0.000 A 
ATOM      6  C6  BNZ d   1      -3.197  -5.217  -5.124  0.00  0.00     0.000 A 
ENDROOT
TORSDOF 0
ENDMDL
