MODEL 1
REMARK minimizedAffinity 8.10492802
REMARK minimizedRMSD -1
REMARK  0 active torsions:
REMARK  status: ('A' for Active; 'I' for Inactive)
ROOT
ATOM      1  C1  BNZ d   1      -1.656   0.136   0.813  0.00  0.00     0.000 A 
ATOM      2  C2  BNZ d   1      -0.754  -0.312   1.740  0.00  0.00     0.000 A 
ATOM      3  C3  BNZ d   1      -1.175  -0.829   2.933  0.00  0.00     0.000 A 
ATOM      4  C4  BNZ d   1      -2.494  -0.860   3.214  0.00  0.00     0.000 A 
ATOM      5  C5  BNZ d   1      -3.415  -0.403   2.293  0.00  0.00     0.000 A 
ATOM      6  C6  BNZ d   1      -2.990   0.081   1.077  0.00  0.00     0.000 A 
ENDROOT
TORSDOF 0
ENDMDL
