MODEL 1
REMARK minimizedAffinity 9.24977875
REMARK minimizedRMSD -1
REMARK  2 active torsions:
REMARK  status: ('A' for Active; 'I' for Inactive)
REMARK    1  A    between atoms: C1_2  and  C2_3 
REMARK    2  A    between atoms: C2_3  and  C3_4 
ROOT
ATOM      1  C3  UNL d   1       0.533  -1.127   1.363  0.00  0.00    -0.075 A 
ATOM      2  C4  UNL d   1      -0.866  -1.198   1.424  0.00  0.00     0.002 A 
ATOM      3  C5  UNL d   1      -1.514  -2.433   1.396  0.00  0.00     0.002 A 
ATOM      4  C6  UNL d   1      -0.774  -3.610   1.296  0.00  0.00    -0.004 A 
ATOM      5  C7  UNL d   1       0.616  -3.550   1.218  0.00  0.00     0.002 A 
ATOM      6  C8  UNL d   1       1.267  -2.315   1.251  0.00  0.00     0.002 A 
ENDROOT
BRANCH   1   7
ATOM      7  C2  UNL d   1       1.242   0.205   1.422  0.00  0.00     0.056 C 
BRANCH   7   8
ATOM      8  C1  UNL d   1       2.770   0.098   1.438  0.00  0.00     0.007 C 
ATOM      9  C   UNL d   1       3.441   0.912   0.339  0.00  0.00     0.009 C 
ENDBRANCH   7   8
ENDBRANCH   1   7
TORSDOF 2
ENDMDL
