MODEL 1
REMARK minimizedAffinity 6.42358637
REMARK minimizedRMSD -1
REMARK  2 active torsions:
REMARK  status: ('A' for Active; 'I' for Inactive)
REMARK    1  A    between atoms: C1_2  and  C2_3 
REMARK    2  A    between atoms: C2_3  and  C3_4 
ROOT
ATOM      1  C3  UNL d   1      -4.190  -1.396  -3.117  0.00  0.00    -0.075 A 
ATOM      2  C4  UNL d   1      -5.069  -1.263  -2.033  0.00  0.00     0.002 A 
ATOM      3  C5  UNL d   1      -5.191  -0.043  -1.366  0.00  0.00     0.002 A 
ATOM      4  C6  UNL d   1      -4.430   1.053  -1.767  0.00  0.00    -0.004 A 
ATOM      5  C7  UNL d   1      -3.541   0.927  -2.832  0.00  0.00     0.002 A 
ATOM      6  C8  UNL d   1      -3.421  -0.291  -3.504  0.00  0.00     0.002 A 
ENDROOT
BRANCH   1   7
ATOM      7  C2  UNL d   1      -4.075  -2.705  -3.861  0.00  0.00     0.056 C 
BRANCH   7   8
ATOM      8  C1  UNL d   1      -4.971  -2.799  -5.101  0.00  0.00     0.007 C 
ATOM      9  C   UNL d   1      -5.646  -4.156  -5.253  0.00  0.00     0.009 C 
ENDBRANCH   7   8
ENDBRANCH   1   7
TORSDOF 2
ENDMDL
