MODEL 1
REMARK minimizedAffinity 12.8197441
REMARK minimizedRMSD -1
REMARK  2 active torsions:
REMARK  status: ('A' for Active; 'I' for Inactive)
REMARK    1  A    between atoms: C1_2  and  C2_3 
REMARK    2  A    between atoms: C2_3  and  C3_4 
ROOT
ATOM      1  C3  UNL d   1       1.510  -0.346   2.464  0.00  0.00    -0.075 A 
ATOM      2  C4  UNL d   1       1.661  -1.390   1.538  0.00  0.00     0.002 A 
ATOM      3  C5  UNL d   1       1.273  -2.689   1.866  0.00  0.00     0.002 A 
ATOM      4  C6  UNL d   1       0.739  -2.963   3.123  0.00  0.00    -0.004 A 
ATOM      5  C7  UNL d   1       0.600  -1.938   4.056  0.00  0.00     0.002 A 
ATOM      6  C8  UNL d   1       0.984  -0.636   3.729  0.00  0.00     0.002 A 
ENDROOT
BRANCH   1   7
ATOM      7  C2  UNL d   1       1.901   1.067   2.105  0.00  0.00     0.056 C 
BRANCH   7   8
ATOM      8  C1  UNL d   1       1.283   2.135   3.013  0.00  0.00     0.007 C 
ATOM      9  C   UNL d   1       2.314   2.890   3.841  0.00  0.00     0.009 C 
ENDBRANCH   7   8
ENDBRANCH   1   7
TORSDOF 2
ENDMDL
