MODEL 1
REMARK minimizedAffinity 7.6662879
REMARK minimizedRMSD -1
REMARK  2 active torsions:
REMARK  status: ('A' for Active; 'I' for Inactive)
REMARK    1  A    between atoms: C1_2  and  C2_3 
REMARK    2  A    between atoms: C2_3  and  C3_4 
ROOT
ATOM      1  C3  UNL d   1       2.650  -1.489   2.100  0.00  0.00    -0.075 A 
ATOM      2  C4  UNL d   1       1.897  -0.338   1.829  0.00  0.00     0.002 A 
ATOM      3  C5  UNL d   1       0.715  -0.084   2.526  0.00  0.00     0.002 A 
ATOM      4  C6  UNL d   1       0.267  -0.981   3.493  0.00  0.00    -0.004 A 
ATOM      5  C7  UNL d   1       0.999  -2.136   3.759  0.00  0.00     0.002 A 
ATOM      6  C8  UNL d   1       2.184  -2.391   3.066  0.00  0.00     0.002 A 
ENDROOT
BRANCH   1   7
ATOM      7  C2  UNL d   1       3.945  -1.755   1.369  0.00  0.00     0.056 C 
BRANCH   7   8
ATOM      8  C1  UNL d   1       4.767  -2.907   1.956  0.00  0.00     0.007 C 
ATOM      9  C   UNL d   1       6.000  -2.439   2.717  0.00  0.00     0.009 C 
ENDBRANCH   7   8
ENDBRANCH   1   7
TORSDOF 2
ENDMDL
