MODEL 1
REMARK minimizedAffinity 7.65169811
REMARK minimizedRMSD -1
REMARK  2 active torsions:
REMARK  status: ('A' for Active; 'I' for Inactive)
REMARK    1  A    between atoms: C1_2  and  C2_3 
REMARK    2  A    between atoms: C2_3  and  C3_4 
ROOT
ATOM      1  C3  UNL d   1      -5.062  -2.383  -4.735  0.00  0.00    -0.075 A 
ATOM      2  C4  UNL d   1      -5.865  -2.870  -5.776  0.00  0.00     0.002 A 
ATOM      3  C5  UNL d   1      -5.996  -4.243  -5.987  0.00  0.00     0.002 A 
ATOM      4  C6  UNL d   1      -5.320  -5.144  -5.168  0.00  0.00    -0.004 A 
ATOM      5  C7  UNL d   1      -4.507  -4.671  -4.140  0.00  0.00     0.002 A 
ATOM      6  C8  UNL d   1      -4.377  -3.298  -3.924  0.00  0.00     0.002 A 
ENDROOT
BRANCH   1   7
ATOM      7  C2  UNL d   1      -4.940  -0.899  -4.483  0.00  0.00     0.056 C 
BRANCH   7   8
ATOM      8  C1  UNL d   1      -4.528  -0.541  -3.051  0.00  0.00     0.007 C 
ATOM      9  C   UNL d   1      -5.530   0.362  -2.346  0.00  0.00     0.009 C 
ENDBRANCH   7   8
ENDBRANCH   1   7
TORSDOF 2
ENDMDL
