MODEL 1
REMARK minimizedAffinity 12.3363638
REMARK minimizedRMSD -1
REMARK  2 active torsions:
REMARK  status: ('A' for Active; 'I' for Inactive)
REMARK    1  A    between atoms: C1_2  and  C2_3 
REMARK    2  A    between atoms: C2_3  and  C3_4 
ROOT
ATOM      1  C3  UNL d   1       1.210   0.303   1.691  0.00  0.00    -0.075 A 
ATOM      2  C4  UNL d   1       2.129  -0.010   0.680  0.00  0.00     0.002 A 
ATOM      3  C5  UNL d   1       2.578  -1.321   0.512  0.00  0.00     0.002 A 
ATOM      4  C6  UNL d   1       2.123  -2.330   1.358  0.00  0.00    -0.004 A 
ATOM      5  C7  UNL d   1       1.223  -2.027   2.377  0.00  0.00     0.002 A 
ATOM      6  C8  UNL d   1       0.769  -0.717   2.544  0.00  0.00     0.002 A 
ENDROOT
BRANCH   1   7
ATOM      7  C2  UNL d   1       0.698   1.714   1.859  0.00  0.00     0.056 C 
BRANCH   7   8
ATOM      8  C1  UNL d   1      -0.151   2.213   0.686  0.00  0.00     0.007 C 
ATOM      9  C   UNL d   1      -1.586   2.539   1.079  0.00  0.00     0.009 C 
ENDBRANCH   7   8
ENDBRANCH   1   7
TORSDOF 2
ENDMDL
