MODEL 1
REMARK minimizedAffinity 14.0246267
REMARK minimizedRMSD -1
REMARK  2 active torsions:
REMARK  status: ('A' for Active; 'I' for Inactive)
REMARK    1  A    between atoms: C1_2  and  C2_3 
REMARK    2  A    between atoms: C2_3  and  C3_4 
ROOT
ATOM      1  C3  UNL d   1       0.760  -0.823   3.622  0.00  0.00    -0.075 A 
ATOM      2  C4  UNL d   1       1.300  -0.387   4.841  0.00  0.00     0.002 A 
ATOM      3  C5  UNL d   1       1.137  -1.147   6.000  0.00  0.00     0.002 A 
ATOM      4  C6  UNL d   1       0.425  -2.344   5.958  0.00  0.00    -0.004 A 
ATOM      5  C7  UNL d   1      -0.130  -2.778   4.756  0.00  0.00     0.002 A 
ATOM      6  C8  UNL d   1       0.035  -2.022   3.594  0.00  0.00     0.002 A 
ENDROOT
BRANCH   1   7
ATOM      7  C2  UNL d   1       0.958  -0.021   2.359  0.00  0.00     0.056 C 
BRANCH   7   8
ATOM      8  C1  UNL d   1       2.401  -0.018   1.841  0.00  0.00     0.007 C 
ATOM      9  C   UNL d   1       3.039  -1.401   1.834  0.00  0.00     0.009 C 
ENDBRANCH   7   8
ENDBRANCH   1   7
TORSDOF 2
ENDMDL
