MODEL 1
REMARK minimizedAffinity 5.74571323
REMARK minimizedRMSD -1
REMARK  2 active torsions:
REMARK  status: ('A' for Active; 'I' for Inactive)
REMARK    1  A    between atoms: C1_2  and  C2_3 
REMARK    2  A    between atoms: C2_3  and  C3_4 
ROOT
ATOM      1  C3  UNL d   1       0.798  -2.101   0.349  0.00  0.00    -0.075 A 
ATOM      2  C4  UNL d   1       1.154  -2.351  -0.984  0.00  0.00     0.002 A 
ATOM      3  C5  UNL d   1       0.184  -2.357  -1.987  0.00  0.00     0.002 A 
ATOM      4  C6  UNL d   1      -1.152  -2.125  -1.669  0.00  0.00    -0.004 A 
ATOM      5  C7  UNL d   1      -1.520  -1.893  -0.346  0.00  0.00     0.002 A 
ATOM      6  C8  UNL d   1      -0.551  -1.881   0.659  0.00  0.00     0.002 A 
ENDROOT
BRANCH   1   7
ATOM      7  C2  UNL d   1       1.847  -2.064   1.435  0.00  0.00     0.056 C 
BRANCH   7   8
ATOM      8  C1  UNL d   1       2.069  -0.673   2.039  0.00  0.00     0.007 C 
ATOM      9  C   UNL d   1       2.892   0.245   1.146  0.00  0.00     0.009 C 
ENDBRANCH   7   8
ENDBRANCH   1   7
TORSDOF 2
ENDMDL
