MODEL 1
REMARK minimizedAffinity 3.0941062
REMARK minimizedRMSD -1
REMARK  0 active torsions:
REMARK  status: ('A' for Active; 'I' for Inactive)
ROOT
ATOM      1  C1  BNZ d   1      -3.424  -0.858   2.300  0.00  0.00     0.000 A 
ATOM      2  C2  BNZ d   1      -2.214  -0.216   2.330  0.00  0.00     0.000 A 
ATOM      3  C3  BNZ d   1      -1.405  -0.197   1.228  0.00  0.00     0.000 A 
ATOM      4  C4  BNZ d   1      -1.788  -0.851   0.113  0.00  0.00     0.000 A 
ATOM      5  C5  BNZ d   1      -3.000  -1.511   0.070  0.00  0.00     0.000 A 
ATOM      6  C6  BNZ d   1      -3.829  -1.496   1.168  0.00  0.00     0.000 A 
ENDROOT
TORSDOF 0
ENDMDL
