MODEL 1
REMARK minimizedAffinity 1.88654971
REMARK minimizedRMSD -1
REMARK  0 active torsions:
REMARK  status: ('A' for Active; 'I' for Inactive)
ROOT
ATOM      1  C1  BNZ d   1      -0.500  -1.302   1.484  0.00  0.00     0.000 A 
ATOM      2  C2  BNZ d   1      -1.829  -1.396   1.800  0.00  0.00     0.000 A 
ATOM      3  C3  BNZ d   1      -2.780  -0.817   1.008  0.00  0.00     0.000 A 
ATOM      4  C4  BNZ d   1      -2.399  -0.110  -0.075  0.00  0.00     0.000 A 
ATOM      5  C5  BNZ d   1      -1.062   0.003  -0.402  0.00  0.00     0.000 A 
ATOM      6  C6  BNZ d   1      -0.110  -0.615   0.376  0.00  0.00     0.000 A 
ENDROOT
TORSDOF 0
ENDMDL
