MODEL 1
REMARK minimizedAffinity -4.3961153
REMARK minimizedRMSD -1
REMARK  0 active torsions:
REMARK  status: ('A' for Active; 'I' for Inactive)
ROOT
ATOM      1  C1  BNZ d   1       1.150  -1.958   0.647  0.00  0.00     0.000 A 
ATOM      2  C2  BNZ d   1       0.298  -1.268   1.468  0.00  0.00     0.000 A 
ATOM      3  C3  BNZ d   1      -0.350  -1.898   2.493  0.00  0.00     0.000 A 
ATOM      4  C4  BNZ d   1      -0.177  -3.224   2.672  0.00  0.00     0.000 A 
ATOM      5  C5  BNZ d   1       0.671  -3.936   1.847  0.00  0.00     0.000 A 
ATOM      6  C6  BNZ d   1       1.352  -3.290   0.840  0.00  0.00     0.000 A 
ENDROOT
TORSDOF 0
ENDMDL
