MODEL 1
REMARK minimizedAffinity -0.404603064
REMARK minimizedRMSD -1
REMARK  0 active torsions:
REMARK  status: ('A' for Active; 'I' for Inactive)
ROOT
ATOM      1  C1  BNZ d   1       0.547  -3.042   2.572  0.00  0.00     0.000 A 
ATOM      2  C2  BNZ d   1      -0.227  -1.912   2.586  0.00  0.00     0.000 A 
ATOM      3  C3  BNZ d   1      -0.271  -1.080   1.502  0.00  0.00     0.000 A 
ATOM      4  C4  BNZ d   1       0.487  -1.358   0.422  0.00  0.00     0.000 A 
ATOM      5  C5  BNZ d   1       1.279  -2.488   0.396  0.00  0.00     0.000 A 
ATOM      6  C6  BNZ d   1       1.291  -3.344   1.473  0.00  0.00     0.000 A 
ENDROOT
TORSDOF 0
ENDMDL
