MODEL 1
REMARK minimizedAffinity -3.39333463
REMARK minimizedRMSD -1
REMARK  0 active torsions:
REMARK  status: ('A' for Active; 'I' for Inactive)
ROOT
ATOM      1  C1  BNZ d   1      -1.833  -0.967   2.407  0.00  0.00     0.000 A 
ATOM      2  C2  BNZ d   1      -1.473  -0.280   1.278  0.00  0.00     0.000 A 
ATOM      3  C3  BNZ d   1      -0.240  -0.455   0.716  0.00  0.00     0.000 A 
ATOM      4  C4  BNZ d   1       0.645  -1.285   1.304  0.00  0.00     0.000 A 
ATOM      5  C5  BNZ d   1       0.301  -1.978   2.448  0.00  0.00     0.000 A 
ATOM      6  C6  BNZ d   1      -0.956  -1.829   2.989  0.00  0.00     0.000 A 
ENDROOT
TORSDOF 0
ENDMDL
