MODEL 1
REMARK minimizedAffinity -1.42130136
REMARK minimizedRMSD -1
REMARK  0 active torsions:
REMARK  status: ('A' for Active; 'I' for Inactive)
ROOT
ATOM      1  C1  BNZ d   1      -0.223  -2.531   2.985  0.00  0.00     0.000 A 
ATOM      2  C2  BNZ d   1       0.996  -2.569   2.361  0.00  0.00     0.000 A 
ATOM      3  C3  BNZ d   1       1.566  -3.761   2.012  0.00  0.00     0.000 A 
ATOM      4  C4  BNZ d   1       0.938  -4.914   2.322  0.00  0.00     0.000 A 
ATOM      5  C5  BNZ d   1      -0.287  -4.892   2.959  0.00  0.00     0.000 A 
ATOM      6  C6  BNZ d   1      -0.877  -3.689   3.274  0.00  0.00     0.000 A 
ENDROOT
TORSDOF 0
ENDMDL
