MODEL 1
REMARK minimizedAffinity -6.29655647
REMARK minimizedRMSD -1
REMARK  1 active torsions:
REMARK  status: ('A' for Active; 'I' for Inactive)
REMARK    1  A    between atoms: C1_2  and  C2_3 
ROOT
ATOM      1  C2  UNL d   1       0.260  -0.054  -0.000  0.00  0.00    -0.073 A 
ATOM      2  C3  UNL d   1      -0.641   0.430  -0.956  0.00  0.00    -0.002 A 
ATOM      3  C4  UNL d   1      -1.946  -0.063  -1.006  0.00  0.00     0.004 A 
ATOM      4  C5  UNL d   1      -2.365  -1.036  -0.100  0.00  0.00    -0.004 A 
ATOM      5  C6  UNL d   1      -1.482  -1.523   0.870  0.00  0.00    -0.075 A 
ATOM      6  C7  UNL d   1      -1.916  -2.572   1.851  0.00  0.00     0.076 C 
ATOM      7  C8  UNL d   1      -0.173  -1.026   0.913  0.00  0.00     0.001 A 
ENDROOT
BRANCH   1   8
ATOM      8  C1  UNL d   1       1.668   0.479   0.062  0.00  0.00     0.053 C 
ATOM      9  C   UNL d   1       1.772   1.711   0.948  0.00  0.00     0.018 C 
ENDBRANCH   1   8
TORSDOF 1
ENDMDL
