MODEL 1
REMARK minimizedAffinity -4.8160162
REMARK minimizedRMSD -1
REMARK  1 active torsions:
REMARK  status: ('A' for Active; 'I' for Inactive)
REMARK    1  A    between atoms: C1_2  and  C2_3 
ROOT
ATOM      1  C2  UNL d   1      -1.631  -1.342   0.231  0.00  0.00    -0.073 A 
ATOM      2  C3  UNL d   1      -2.235  -0.867  -0.939  0.00  0.00    -0.002 A 
ATOM      3  C4  UNL d   1      -1.621   0.133  -1.694  0.00  0.00     0.004 A 
ATOM      4  C5  UNL d   1      -0.394   0.662  -1.292  0.00  0.00    -0.004 A 
ATOM      5  C6  UNL d   1       0.231   0.192  -0.133  0.00  0.00    -0.075 A 
ATOM      6  C7  UNL d   1       1.550   0.752   0.314  0.00  0.00     0.076 C 
ATOM      7  C8  UNL d   1      -0.394  -0.811   0.621  0.00  0.00     0.001 A 
ENDROOT
BRANCH   1   8
ATOM      8  C1  UNL d   1      -2.288  -2.427   1.045  0.00  0.00     0.053 C 
ATOM      9  C   UNL d   1      -1.315  -3.080   2.014  0.00  0.00     0.018 C 
ENDBRANCH   1   8
TORSDOF 1
ENDMDL
