MODEL 1
REMARK minimizedAffinity 0.636980653
REMARK minimizedRMSD -1
REMARK  1 active torsions:
REMARK  status: ('A' for Active; 'I' for Inactive)
REMARK    1  A    between atoms: C1_2  and  C2_3 
ROOT
ATOM      1  C2  UNL d   1      -3.050  -1.693   5.351  0.00  0.00    -0.073 A 
ATOM      2  C3  UNL d   1      -3.736  -0.630   5.950  0.00  0.00    -0.002 A 
ATOM      3  C4  UNL d   1      -3.755   0.627   5.343  0.00  0.00     0.004 A 
ATOM      4  C5  UNL d   1      -3.097   0.831   4.131  0.00  0.00    -0.004 A 
ATOM      5  C6  UNL d   1      -2.416  -0.222   3.511  0.00  0.00    -0.075 A 
ATOM      6  C7  UNL d   1      -1.701  -0.018   2.208  0.00  0.00     0.076 C 
ATOM      7  C8  UNL d   1      -2.399  -1.480   4.128  0.00  0.00     0.001 A 
ENDROOT
BRANCH   1   8
ATOM      8  C1  UNL d   1      -3.032  -3.054   5.999  0.00  0.00     0.053 C 
ATOM      9  C   UNL d   1      -3.856  -4.067   5.221  0.00  0.00     0.018 C 
ENDBRANCH   1   8
TORSDOF 1
ENDMDL
