MODEL 1
REMARK minimizedAffinity -2.50874472
REMARK minimizedRMSD -1
REMARK  1 active torsions:
REMARK  status: ('A' for Active; 'I' for Inactive)
REMARK    1  A    between atoms: C1_2  and  C2_3 
ROOT
ATOM      1  C2  UNL d   1       1.653   1.470  -0.117  0.00  0.00    -0.073 A 
ATOM      2  C3  UNL d   1       1.572   2.863  -0.223  0.00  0.00    -0.002 A 
ATOM      3  C4  UNL d   1       2.308   3.680   0.635  0.00  0.00     0.004 A 
ATOM      4  C5  UNL d   1       3.138   3.114   1.603  0.00  0.00    -0.004 A 
ATOM      5  C6  UNL d   1       3.242   1.724   1.718  0.00  0.00    -0.075 A 
ATOM      6  C7  UNL d   1       4.128   1.099   2.755  0.00  0.00     0.076 C 
ATOM      7  C8  UNL d   1       2.497   0.910   0.853  0.00  0.00     0.001 A 
ENDROOT
BRANCH   1   8
ATOM      8  C1  UNL d   1       0.864   0.583  -1.046  0.00  0.00     0.053 C 
ATOM      9  C   UNL d   1      -0.048  -0.368  -0.288  0.00  0.00     0.018 C 
ENDBRANCH   1   8
TORSDOF 1
ENDMDL
