MODEL 1
REMARK minimizedAffinity -4.19476032
REMARK minimizedRMSD -1
REMARK  1 active torsions:
REMARK  status: ('A' for Active; 'I' for Inactive)
REMARK    1  A    between atoms: C1_2  and  C2_3 
ROOT
ATOM      1  C2  UNL d   1       0.063  -0.091  -0.384  0.00  0.00    -0.073 A 
ATOM      2  C3  UNL d   1      -1.071   0.102  -1.181  0.00  0.00    -0.002 A 
ATOM      3  C4  UNL d   1      -2.175  -0.741  -1.051  0.00  0.00     0.004 A 
ATOM      4  C5  UNL d   1      -2.161  -1.779  -0.120  0.00  0.00    -0.004 A 
ATOM      5  C6  UNL d   1      -1.041  -1.981   0.695  0.00  0.00    -0.075 A 
ATOM      6  C7  UNL d   1      -1.009  -3.094   1.700  0.00  0.00     0.076 C 
ATOM      7  C8  UNL d   1       0.065  -1.132   0.556  0.00  0.00     0.001 A 
ENDROOT
BRANCH   1   8
ATOM      8  C1  UNL d   1       1.256   0.821  -0.516  0.00  0.00     0.053 C 
ATOM      9  C   UNL d   1       1.927   1.078   0.824  0.00  0.00     0.018 C 
ENDBRANCH   1   8
TORSDOF 1
ENDMDL
