MODEL 1
REMARK minimizedAffinity -5.5376606
REMARK minimizedRMSD -1
REMARK  1 active torsions:
REMARK  status: ('A' for Active; 'I' for Inactive)
REMARK    1  A    between atoms: C1_2  and  C2_3 
ROOT
ATOM      1  C2  UNL d   1       0.804  -0.537   0.011  0.00  0.00    -0.073 A 
ATOM      2  C3  UNL d   1       0.101   0.135  -0.996  0.00  0.00    -0.002 A 
ATOM      3  C4  UNL d   1      -1.215  -0.221  -1.294  0.00  0.00     0.004 A 
ATOM      4  C5  UNL d   1      -1.843  -1.244  -0.585  0.00  0.00    -0.004 A 
ATOM      5  C6  UNL d   1      -1.162  -1.919   0.433  0.00  0.00    -0.075 A 
ATOM      6  C7  UNL d   1      -1.822  -3.024   1.203  0.00  0.00     0.076 C 
ATOM      7  C8  UNL d   1       0.161  -1.558   0.724  0.00  0.00     0.001 A 
ENDROOT
BRANCH   1   8
ATOM      8  C1  UNL d   1       2.223  -0.152   0.340  0.00  0.00     0.053 C 
ATOM      9  C   UNL d   1       2.528   1.287  -0.046  0.00  0.00     0.018 C 
ENDBRANCH   1   8
TORSDOF 1
ENDMDL
