MODEL 1
REMARK minimizedAffinity -4.74924278
REMARK minimizedRMSD -1
REMARK  1 active torsions:
REMARK  status: ('A' for Active; 'I' for Inactive)
REMARK    1  A    between atoms: C1_2  and  C2_3 
ROOT
ATOM      1  C2  UNL d   1      -0.936  -0.624  -0.462  0.00  0.00    -0.073 A 
ATOM      2  C3  UNL d   1      -2.144  -0.885  -1.118  0.00  0.00    -0.002 A 
ATOM      3  C4  UNL d   1      -3.036  -1.827  -0.604  0.00  0.00     0.004 A 
ATOM      4  C5  UNL d   1      -2.733  -2.512   0.572  0.00  0.00    -0.004 A 
ATOM      5  C6  UNL d   1      -1.536  -2.257   1.249  0.00  0.00    -0.075 A 
ATOM      6  C7  UNL d   1      -1.195  -2.987   2.514  0.00  0.00     0.076 C 
ATOM      7  C8  UNL d   1      -0.644  -1.311   0.726  0.00  0.00     0.001 A 
ENDROOT
BRANCH   1   8
ATOM      8  C1  UNL d   1       0.027   0.397  -1.009  0.00  0.00     0.053 C 
ATOM      9  C   UNL d   1       1.359   0.375  -0.275  0.00  0.00     0.018 C 
ENDBRANCH   1   8
TORSDOF 1
ENDMDL
