MODEL 1
REMARK minimizedAffinity -6.48907614
REMARK minimizedRMSD -1
REMARK  1 active torsions:
REMARK  status: ('A' for Active; 'I' for Inactive)
REMARK    1  A    between atoms: C1_2  and  C2_3 
ROOT
ATOM      1  C2  UNL d   1       0.348  -0.681   0.283  0.00  0.00    -0.073 A 
ATOM      2  C3  UNL d   1       0.483  -1.641   1.292  0.00  0.00    -0.002 A 
ATOM      3  C4  UNL d   1      -0.628  -2.364   1.729  0.00  0.00     0.004 A 
ATOM      4  C5  UNL d   1      -1.880  -2.141   1.158  0.00  0.00    -0.004 A 
ATOM      5  C6  UNL d   1      -2.033  -1.194   0.140  0.00  0.00    -0.075 A 
ATOM      6  C7  UNL d   1      -3.374  -0.940  -0.483  0.00  0.00     0.076 C 
ATOM      7  C8  UNL d   1      -0.914  -0.470  -0.292  0.00  0.00     0.001 A 
ENDROOT
BRANCH   1   8
ATOM      8  C1  UNL d   1       1.545   0.098  -0.197  0.00  0.00     0.053 C 
ATOM      9  C   UNL d   1       1.998   1.132   0.821  0.00  0.00     0.018 C 
ENDBRANCH   1   8
TORSDOF 1
ENDMDL
