MODEL 1
REMARK minimizedAffinity -4.11506271
REMARK minimizedRMSD -1
REMARK  1 active torsions:
REMARK  status: ('A' for Active; 'I' for Inactive)
REMARK    1  A    between atoms: C1_2  and  C2_3 
ROOT
ATOM      1  C2  UNL d   1      -0.756  -0.303  -0.594  0.00  0.00    -0.073 A 
ATOM      2  C3  UNL d   1      -2.076  -0.357  -1.054  0.00  0.00    -0.002 A 
ATOM      3  C4  UNL d   1      -3.013  -1.170  -0.415  0.00  0.00     0.004 A 
ATOM      4  C5  UNL d   1      -2.642  -1.931   0.694  0.00  0.00    -0.004 A 
ATOM      5  C6  UNL d   1      -1.330  -1.881   1.176  0.00  0.00    -0.075 A 
ATOM      6  C7  UNL d   1      -0.914  -2.695   2.366  0.00  0.00     0.076 C 
ATOM      7  C8  UNL d   1      -0.394  -1.064   0.527  0.00  0.00     0.001 A 
ENDROOT
BRANCH   1   8
ATOM      8  C1  UNL d   1       0.257   0.579  -1.277  0.00  0.00     0.053 C 
ATOM      9  C   UNL d   1       1.513   0.759  -0.439  0.00  0.00     0.018 C 
ENDBRANCH   1   8
TORSDOF 1
ENDMDL
