MODEL 1
REMARK minimizedAffinity -1.69833398
REMARK minimizedRMSD -1
REMARK  1 active torsions:
REMARK  status: ('A' for Active; 'I' for Inactive)
REMARK    1  A    between atoms: C3_4  and  O_7 
ROOT
ATOM      1  C   UNL d   1       3.116   5.487  -2.187  0.00  0.00    -0.033 A 
ATOM      2  C1  UNL d   1       2.325   5.001  -1.144  0.00  0.00     0.039 A 
ATOM      3  C2  UNL d   1       2.810   5.011   0.166  0.00  0.00    -0.080 A 
ATOM      4  C3  UNL d   1       4.084   5.510   0.419  0.00  0.00     0.150 A 
ATOM      5  C4  UNL d   1       4.876   5.999  -0.615  0.00  0.00    -0.007 A 
ATOM      6  C5  UNL d   1       4.391   5.988  -1.922  0.00  0.00     0.039 A 
ENDROOT
BRANCH   4   7
ATOM      7  O   UNL d   1       4.602   5.536   1.679  0.00  0.00    -0.526 OA
ATOM      8  H5  UNL d   1       3.955   5.140   2.286  0.00  0.00     0.418 HD
ENDBRANCH   4   7
TORSDOF 1
ENDMDL
