MODEL 1
REMARK minimizedAffinity 6.36124086
REMARK minimizedRMSD -1
REMARK  1 active torsions:
REMARK  status: ('A' for Active; 'I' for Inactive)
REMARK    1  A    between atoms: C3_4  and  O_7 
ROOT
ATOM      1  C   UNL d   1       4.635  -5.972   6.000  0.00  0.00    -0.033 A 
ATOM      2  C1  UNL d   1       5.869  -5.991   5.347  0.00  0.00     0.039 A 
ATOM      3  C2  UNL d   1       5.922  -6.000   3.952  0.00  0.00    -0.080 A 
ATOM      4  C3  UNL d   1       4.737  -5.987   3.222  0.00  0.00     0.150 A 
ATOM      5  C4  UNL d   1       3.504  -5.964   3.867  0.00  0.00    -0.007 A 
ATOM      6  C5  UNL d   1       3.453  -5.956   5.260  0.00  0.00     0.039 A 
ENDROOT
BRANCH   4   7
ATOM      7  O   UNL d   1       4.738  -5.999   1.859  0.00  0.00    -0.526 OA
ATOM      8  H5  UNL d   1       5.659  -6.044   1.553  0.00  0.00     0.418 HD
ENDBRANCH   4   7
TORSDOF 1
ENDMDL
