MODEL 1
REMARK minimizedAffinity -1.58258867
REMARK minimizedRMSD -1
REMARK  1 active torsions:
REMARK  status: ('A' for Active; 'I' for Inactive)
REMARK    1  A    between atoms: C3_4  and  O_7 
ROOT
ATOM      1  C   UNL d   1       5.245   0.619  -4.985  0.00  0.00    -0.033 A 
ATOM      2  C1  UNL d   1       4.099   0.754  -4.199  0.00  0.00     0.039 A 
ATOM      3  C2  UNL d   1       3.705   2.014  -3.747  0.00  0.00    -0.080 A 
ATOM      4  C3  UNL d   1       4.463   3.131  -4.088  0.00  0.00     0.150 A 
ATOM      5  C4  UNL d   1       5.604   3.005  -4.874  0.00  0.00    -0.007 A 
ATOM      6  C5  UNL d   1       5.997   1.745  -5.324  0.00  0.00     0.039 A 
ENDROOT
BRANCH   4   7
ATOM      7  O   UNL d   1       4.120   4.381  -3.666  0.00  0.00    -0.526 OA
ATOM      8  H5  UNL d   1       3.328   4.311  -3.109  0.00  0.00     0.418 HD
ENDBRANCH   4   7
TORSDOF 1
ENDMDL
