MODEL 1
REMARK minimizedAffinity 5.53872442
REMARK minimizedRMSD -1
REMARK  1 active torsions:
REMARK  status: ('A' for Active; 'I' for Inactive)
REMARK    1  A    between atoms: C3_4  and  O_7 
ROOT
ATOM      1  C   UNL d   1      -0.103   2.033   1.053  0.00  0.00    -0.033 A 
ATOM      2  C1  UNL d   1      -0.590   1.742  -0.223  0.00  0.00     0.039 A 
ATOM      3  C2  UNL d   1       0.281   1.295  -1.218  0.00  0.00    -0.080 A 
ATOM      4  C3  UNL d   1       1.633   1.142  -0.926  0.00  0.00     0.150 A 
ATOM      5  C4  UNL d   1       2.124   1.427   0.344  0.00  0.00    -0.007 A 
ATOM      6  C5  UNL d   1       1.253   1.874   1.337  0.00  0.00     0.039 A 
ENDROOT
BRANCH   4   7
ATOM      7  O   UNL d   1       2.522   0.714  -1.866  0.00  0.00    -0.526 OA
ATOM      8  H5  UNL d   1       2.045   0.583  -2.703  0.00  0.00     0.418 HD
ENDBRANCH   4   7
TORSDOF 1
ENDMDL
