MODEL 1
REMARK minimizedAffinity 8.81326199
REMARK minimizedRMSD -1
REMARK  1 active torsions:
REMARK  status: ('A' for Active; 'I' for Inactive)
REMARK    1  A    between atoms: C3_4  and  O_7 
ROOT
ATOM      1  C   UNL d   1      -0.727   2.312  -1.140  0.00  0.00    -0.033 A 
ATOM      2  C1  UNL d   1      -1.334   2.727   0.047  0.00  0.00     0.039 A 
ATOM      3  C2  UNL d   1      -0.578   2.851   1.214  0.00  0.00    -0.080 A 
ATOM      4  C3  UNL d   1       0.783   2.558   1.180  0.00  0.00     0.150 A 
ATOM      5  C4  UNL d   1       1.395   2.148   0.000  0.00  0.00    -0.007 A 
ATOM      6  C5  UNL d   1       0.637   2.024  -1.164  0.00  0.00     0.039 A 
ENDROOT
BRANCH   4   7
ATOM      7  O   UNL d   1       1.561   2.659   2.295  0.00  0.00    -0.526 OA
ATOM      8  H5  UNL d   1       0.998   2.925   3.041  0.00  0.00     0.418 HD
ENDBRANCH   4   7
TORSDOF 1
ENDMDL
