MODEL 1
REMARK minimizedAffinity 5.62524652
REMARK minimizedRMSD -1
REMARK  1 active torsions:
REMARK  status: ('A' for Active; 'I' for Inactive)
REMARK    1  A    between atoms: C3_4  and  O_7 
ROOT
ATOM      1  C   UNL d   1       4.642  -1.054   3.025  0.00  0.00    -0.033 A 
ATOM      2  C1  UNL d   1       4.745  -2.437   3.186  0.00  0.00     0.039 A 
ATOM      3  C2  UNL d   1       3.880  -3.288   2.496  0.00  0.00    -0.080 A 
ATOM      4  C3  UNL d   1       2.919  -2.745   1.649  0.00  0.00     0.150 A 
ATOM      5  C4  UNL d   1       2.813  -1.368   1.480  0.00  0.00    -0.007 A 
ATOM      6  C5  UNL d   1       3.677  -0.520   2.171  0.00  0.00     0.039 A 
ENDROOT
BRANCH   4   7
ATOM      7  O   UNL d   1       2.049  -3.536   0.958  0.00  0.00    -0.526 OA
ATOM      8  H5  UNL d   1       2.221  -4.462   1.195  0.00  0.00     0.418 HD
ENDBRANCH   4   7
TORSDOF 1
ENDMDL
