MODEL 1
REMARK minimizedAffinity 5.14890146
REMARK minimizedRMSD -1
REMARK  1 active torsions:
REMARK  status: ('A' for Active; 'I' for Inactive)
REMARK    1  A    between atoms: C3_4  and  O_7 
ROOT
ATOM      1  C   UNL d   1       1.657  -2.324  -0.774  0.00  0.00    -0.033 A 
ATOM      2  C1  UNL d   1       0.492  -1.851  -1.382  0.00  0.00     0.039 A 
ATOM      3  C2  UNL d   1       0.470  -0.578  -1.955  0.00  0.00    -0.080 A 
ATOM      4  C3  UNL d   1       1.617   0.210  -1.915  0.00  0.00     0.150 A 
ATOM      5  C4  UNL d   1       2.782  -0.257  -1.315  0.00  0.00    -0.007 A 
ATOM      6  C5  UNL d   1       2.802  -1.528  -0.742  0.00  0.00     0.039 A 
ENDROOT
BRANCH   4   7
ATOM      7  O   UNL d   1       1.642   1.461  -2.457  0.00  0.00    -0.526 OA
ATOM      8  H5  UNL d   1       0.759   1.660  -2.811  0.00  0.00     0.418 HD
ENDBRANCH   4   7
TORSDOF 1
ENDMDL
