MODEL 1
REMARK minimizedAffinity -2.01267314
REMARK minimizedRMSD -1
REMARK  1 active torsions:
REMARK  status: ('A' for Active; 'I' for Inactive)
REMARK    1  A    between atoms: C3_4  and  O_7 
ROOT
ATOM      1  C   UNL d   1       2.941  -2.163  -1.328  0.00  0.00    -0.033 A 
ATOM      2  C1  UNL d   1       2.677  -1.115  -2.212  0.00  0.00     0.039 A 
ATOM      3  C2  UNL d   1       1.547  -0.316  -2.033  0.00  0.00    -0.080 A 
ATOM      4  C3  UNL d   1       0.691  -0.573  -0.966  0.00  0.00     0.150 A 
ATOM      5  C4  UNL d   1       0.950  -1.612  -0.078  0.00  0.00    -0.007 A 
ATOM      6  C5  UNL d   1       2.078  -2.411  -0.260  0.00  0.00     0.039 A 
ENDROOT
BRANCH   4   7
ATOM      7  O   UNL d   1      -0.427   0.177  -0.753  0.00  0.00    -0.526 OA
ATOM      8  H5  UNL d   1      -0.493   0.840  -1.460  0.00  0.00     0.418 HD
ENDBRANCH   4   7
TORSDOF 1
ENDMDL
