MODEL 1
REMARK minimizedAffinity 5.15816116
REMARK minimizedRMSD -1
REMARK  1 active torsions:
REMARK  status: ('A' for Active; 'I' for Inactive)
REMARK    1  A    between atoms: C3_4  and  O_7 
ROOT
ATOM      1  C   UNL d   1       1.871  -1.505  -0.308  0.00  0.00    -0.033 A 
ATOM      2  C1  UNL d   1       0.485  -1.524  -0.475  0.00  0.00     0.039 A 
ATOM      3  C2  UNL d   1      -0.065  -1.717  -1.743  0.00  0.00    -0.080 A 
ATOM      4  C3  UNL d   1       0.780  -1.891  -2.835  0.00  0.00     0.150 A 
ATOM      5  C4  UNL d   1       2.162  -1.877  -2.676  0.00  0.00    -0.007 A 
ATOM      6  C5  UNL d   1       2.710  -1.682  -1.409  0.00  0.00     0.039 A 
ENDROOT
BRANCH   4   7
ATOM      7  O   UNL d   1       0.290  -2.078  -4.094  0.00  0.00    -0.526 OA
ATOM      8  H5  UNL d   1      -0.680  -2.036  -4.055  0.00  0.00     0.418 HD
ENDBRANCH   4   7
TORSDOF 1
ENDMDL
