MODEL 1
REMARK minimizedAffinity -0.593045473
REMARK minimizedRMSD -1
REMARK  1 active torsions:
REMARK  status: ('A' for Active; 'I' for Inactive)
REMARK    1  A    between atoms: C3_4  and  O_7 
ROOT
ATOM      1  C   UNL d   1       0.217   0.972  -1.045  0.00  0.00    -0.033 A 
ATOM      2  C1  UNL d   1       1.538   0.522  -1.001  0.00  0.00     0.039 A 
ATOM      3  C2  UNL d   1       2.354   0.850   0.082  0.00  0.00    -0.080 A 
ATOM      4  C3  UNL d   1       1.838   1.628   1.115  0.00  0.00     0.150 A 
ATOM      5  C4  UNL d   1       0.522   2.077   1.080  0.00  0.00    -0.007 A 
ATOM      6  C5  UNL d   1      -0.292   1.749  -0.003  0.00  0.00     0.039 A 
ENDROOT
BRANCH   4   7
ATOM      7  O   UNL d   1       2.598   1.979   2.192  0.00  0.00    -0.526 OA
ATOM      8  H5  UNL d   1       3.493   1.622   2.065  0.00  0.00     0.418 HD
ENDBRANCH   4   7
TORSDOF 1
ENDMDL
