MODEL 1
REMARK minimizedAffinity 6.83305025
REMARK minimizedRMSD -1
REMARK  1 active torsions:
REMARK  status: ('A' for Active; 'I' for Inactive)
REMARK    1  A    between atoms: C3_4  and  O_7 
ROOT
ATOM      1  C   UNL d   1      -2.246  -1.135   1.369  0.00  0.00    -0.033 A 
ATOM      2  C1  UNL d   1      -2.385  -0.780   0.025  0.00  0.00     0.039 A 
ATOM      3  C2  UNL d   1      -3.643  -0.809  -0.580  0.00  0.00    -0.080 A 
ATOM      4  C3  UNL d   1      -4.752  -1.194   0.169  0.00  0.00     0.150 A 
ATOM      5  C4  UNL d   1      -4.621  -1.545   1.508  0.00  0.00    -0.007 A 
ATOM      6  C5  UNL d   1      -3.364  -1.516   2.110  0.00  0.00     0.039 A 
ENDROOT
BRANCH   4   7
ATOM      7  O   UNL d   1      -5.999  -1.243  -0.379  0.00  0.00    -0.526 OA
ATOM      8  H5  UNL d   1      -5.933  -1.002  -1.318  0.00  0.00     0.418 HD
ENDBRANCH   4   7
TORSDOF 1
ENDMDL
