MODEL 1
REMARK minimizedAffinity -0.159599081
REMARK minimizedRMSD -1
REMARK  1 active torsions:
REMARK  status: ('A' for Active; 'I' for Inactive)
REMARK    1  A    between atoms: C3_4  and  O_7 
ROOT
ATOM      1  C   UNL d   1       2.937  -4.697   0.543  0.00  0.00    -0.033 A 
ATOM      2  C1  UNL d   1       1.883  -4.071   1.212  0.00  0.00     0.039 A 
ATOM      3  C2  UNL d   1       1.140  -3.077   0.574  0.00  0.00    -0.080 A 
ATOM      4  C3  UNL d   1       1.459  -2.719  -0.733  0.00  0.00     0.150 A 
ATOM      5  C4  UNL d   1       2.504  -3.340  -1.408  0.00  0.00    -0.007 A 
ATOM      6  C5  UNL d   1       3.246  -4.332  -0.768  0.00  0.00     0.039 A 
ENDROOT
BRANCH   4   7
ATOM      7  O   UNL d   1       0.765  -1.750  -1.396  0.00  0.00    -0.526 OA
ATOM      8  H5  UNL d   1       0.090  -1.390  -0.796  0.00  0.00     0.418 HD
ENDBRANCH   4   7
TORSDOF 1
ENDMDL
