MODEL 1
REMARK minimizedAffinity -1.04356372
REMARK minimizedRMSD -1
REMARK  1 active torsions:
REMARK  status: ('A' for Active; 'I' for Inactive)
REMARK    1  A    between atoms: C3_4  and  O_7 
ROOT
ATOM      1  C   UNL d   1       2.030   1.059  -2.520  0.00  0.00    -0.033 A 
ATOM      2  C1  UNL d   1       1.612  -0.223  -2.157  0.00  0.00     0.039 A 
ATOM      3  C2  UNL d   1       2.512  -1.111  -1.564  0.00  0.00    -0.080 A 
ATOM      4  C3  UNL d   1       3.825  -0.705  -1.340  0.00  0.00     0.150 A 
ATOM      5  C4  UNL d   1       4.247   0.572  -1.696  0.00  0.00    -0.007 A 
ATOM      6  C5  UNL d   1       3.347   1.457  -2.288  0.00  0.00     0.039 A 
ENDROOT
BRANCH   4   7
ATOM      7  O   UNL d   1       4.740  -1.538  -0.768  0.00  0.00    -0.526 OA
ATOM      8  H5  UNL d   1       4.315  -2.395  -0.602  0.00  0.00     0.418 HD
ENDBRANCH   4   7
TORSDOF 1
ENDMDL
