MODEL 1
REMARK minimizedAffinity -2.95540166
REMARK minimizedRMSD -1
REMARK  1 active torsions:
REMARK  status: ('A' for Active; 'I' for Inactive)
REMARK    1  A    between atoms: C3_4  and  O_7 
ROOT
ATOM      1  C   UNL d   1       1.875  -0.445  -1.793  0.00  0.00    -0.033 A 
ATOM      2  C1  UNL d   1       3.119  -0.988  -1.467  0.00  0.00     0.039 A 
ATOM      3  C2  UNL d   1       3.196  -2.141  -0.684  0.00  0.00    -0.080 A 
ATOM      4  C3  UNL d   1       2.023  -2.741  -0.235  0.00  0.00     0.150 A 
ATOM      5  C4  UNL d   1       0.780  -2.208  -0.559  0.00  0.00    -0.007 A 
ATOM      6  C5  UNL d   1       0.705  -1.056  -1.340  0.00  0.00     0.039 A 
ENDROOT
BRANCH   4   7
ATOM      7  O   UNL d   1       2.048  -3.865   0.536  0.00  0.00    -0.526 OA
ATOM      8  H5  UNL d   1       2.975  -4.103   0.703  0.00  0.00     0.418 HD
ENDBRANCH   4   7
TORSDOF 1
ENDMDL
