MODEL 1
REMARK minimizedAffinity 3.12715983
REMARK minimizedRMSD -1
REMARK  1 active torsions:
REMARK  status: ('A' for Active; 'I' for Inactive)
REMARK    1  A    between atoms: C3_4  and  O_7 
ROOT
ATOM      1  C   UNL d   1       2.105  -1.365  -2.114  0.00  0.00    -0.033 A 
ATOM      2  C1  UNL d   1       0.861  -1.964  -1.907  0.00  0.00     0.039 A 
ATOM      3  C2  UNL d   1       0.728  -3.000  -0.980  0.00  0.00    -0.080 A 
ATOM      4  C3  UNL d   1       1.845  -3.426  -0.267  0.00  0.00     0.150 A 
ATOM      5  C4  UNL d   1       3.087  -2.831  -0.465  0.00  0.00    -0.007 A 
ATOM      6  C5  UNL d   1       3.217  -1.797  -1.392  0.00  0.00     0.039 A 
ENDROOT
BRANCH   4   7
ATOM      7  O   UNL d   1       1.766  -4.436   0.645  0.00  0.00    -0.526 OA
ATOM      8  H5  UNL d   1       0.853  -4.771   0.655  0.00  0.00     0.418 HD
ENDBRANCH   4   7
TORSDOF 1
ENDMDL
