MODEL 1
REMARK minimizedAffinity -3.34276795
REMARK minimizedRMSD -1
REMARK  1 active torsions:
REMARK  status: ('A' for Active; 'I' for Inactive)
REMARK    1  A    between atoms: C3_4  and  O_7 
ROOT
ATOM      1  C   UNL d   1       1.362  -2.178  -0.914  0.00  0.00    -0.033 A 
ATOM      2  C1  UNL d   1       2.197  -1.323  -1.637  0.00  0.00     0.039 A 
ATOM      3  C2  UNL d   1       1.776  -0.027  -1.942  0.00  0.00    -0.080 A 
ATOM      4  C3  UNL d   1       0.521   0.401  -1.519  0.00  0.00     0.150 A 
ATOM      5  C4  UNL d   1      -0.314  -0.444  -0.795  0.00  0.00    -0.007 A 
ATOM      6  C5  UNL d   1       0.108  -1.737  -0.491  0.00  0.00     0.039 A 
ENDROOT
BRANCH   4   7
ATOM      7  O   UNL d   1       0.064   1.655  -1.798  0.00  0.00    -0.526 OA
ATOM      8  H5  UNL d   1       0.735   2.116  -2.328  0.00  0.00     0.418 HD
ENDBRANCH   4   7
TORSDOF 1
ENDMDL
