MODEL 1
REMARK minimizedAffinity 2.40839934
REMARK minimizedRMSD -1
REMARK  1 active torsions:
REMARK  status: ('A' for Active; 'I' for Inactive)
REMARK    1  A    between atoms: C3_4  and  O_7 
ROOT
ATOM      1  C   UNL d   1       2.311  -2.576  -0.857  0.00  0.00    -0.033 A 
ATOM      2  C1  UNL d   1       2.159  -1.944  -2.092  0.00  0.00     0.039 A 
ATOM      3  C2  UNL d   1       1.475  -0.730  -2.177  0.00  0.00    -0.080 A 
ATOM      4  C3  UNL d   1       0.950  -0.159  -1.021  0.00  0.00     0.150 A 
ATOM      5  C4  UNL d   1       1.101  -0.781   0.213  0.00  0.00    -0.007 A 
ATOM      6  C5  UNL d   1       1.783  -1.994   0.296  0.00  0.00     0.039 A 
ENDROOT
BRANCH   4   7
ATOM      7  O   UNL d   1       0.270   1.023  -1.056  0.00  0.00    -0.526 OA
ATOM      8  H5  UNL d   1       0.219   1.322  -1.979  0.00  0.00     0.418 HD
ENDBRANCH   4   7
TORSDOF 1
ENDMDL
