MODEL 1
REMARK minimizedAffinity 0.331112176
REMARK minimizedRMSD -1
REMARK  1 active torsions:
REMARK  status: ('A' for Active; 'I' for Inactive)
REMARK    1  A    between atoms: N_2  and  C1_3 
ROOT
ATOM      1  C1  UNL d   1       0.100   1.475  -0.020  0.00  0.00     0.143 A 
ATOM      2  C2  UNL d   1       0.774   0.250  -0.056  0.00  0.00    -0.057 A 
ATOM      3  C3  UNL d   1       1.161  -0.401   1.122  0.00  0.00     0.033 A 
ATOM      4  C4  UNL d   1       0.905   0.179   2.360  0.00  0.00    -0.042 A 
ATOM      5  C5  UNL d   1       0.258   1.409   2.419  0.00  0.00     0.033 A 
ATOM      6  C6  UNL d   1      -0.131   2.050   1.239  0.00  0.00    -0.057 A 
ENDROOT
BRANCH   1   7
ATOM      7  N   UNL d   1      -0.223   2.219  -1.158  0.00  0.00    -0.732 N 
ATOM      8  C   UNL d   1       0.111   3.624  -1.240  0.00  0.00     0.284 C 
ATOM      9  H3  UNL d   1      -0.060   1.702  -2.019  0.00  0.00     0.395 HD
ENDBRANCH   1   7
TORSDOF 1
ENDMDL
