MODEL 1
REMARK minimizedAffinity -0.450938851
REMARK minimizedRMSD -1
REMARK  1 active torsions:
REMARK  status: ('A' for Active; 'I' for Inactive)
REMARK    1  A    between atoms: N_2  and  C1_3 
ROOT
ATOM      1  C1  UNL d   1       0.522   2.297  -0.488  0.00  0.00     0.143 A 
ATOM      2  C2  UNL d   1       0.838   0.971  -0.803  0.00  0.00    -0.057 A 
ATOM      3  C3  UNL d   1       1.067   0.021   0.199  0.00  0.00     0.033 A 
ATOM      4  C4  UNL d   1       1.011   0.389   1.540  0.00  0.00    -0.042 A 
ATOM      5  C5  UNL d   1       0.723   1.707   1.876  0.00  0.00     0.033 A 
ATOM      6  C6  UNL d   1       0.489   2.649   0.870  0.00  0.00    -0.057 A 
ENDROOT
BRANCH   1   7
ATOM      7  N   UNL d   1       0.381   3.311  -1.439  0.00  0.00    -0.732 N 
ATOM      8  C   UNL d   1       0.620   4.693  -1.085  0.00  0.00     0.284 C 
ATOM      9  H3  UNL d   1       0.752   3.044  -2.348  0.00  0.00     0.395 HD
ENDBRANCH   1   7
TORSDOF 1
ENDMDL
