MODEL 1
REMARK minimizedAffinity -1.9802773
REMARK minimizedRMSD -1
REMARK  1 active torsions:
REMARK  status: ('A' for Active; 'I' for Inactive)
REMARK    1  A    between atoms: N_2  and  C1_3 
ROOT
ATOM      1  C1  UNL d   1       0.379  -0.289  -0.466  0.00  0.00     0.143 A 
ATOM      2  C2  UNL d   1       0.329   0.774  -1.374  0.00  0.00    -0.057 A 
ATOM      3  C3  UNL d   1      -0.761   0.941  -2.237  0.00  0.00     0.033 A 
ATOM      4  C4  UNL d   1      -1.811   0.028  -2.226  0.00  0.00    -0.042 A 
ATOM      5  C5  UNL d   1      -1.770  -1.050  -1.348  0.00  0.00     0.033 A 
ATOM      6  C6  UNL d   1      -0.682  -1.207  -0.485  0.00  0.00    -0.057 A 
ENDROOT
BRANCH   1   7
ATOM      7  N   UNL d   1       1.480  -0.565   0.349  0.00  0.00    -0.732 N 
ATOM      8  C   UNL d   1       1.449  -0.254   1.762  0.00  0.00     0.284 C 
ATOM      9  H3  UNL d   1       1.910  -1.461   0.130  0.00  0.00     0.395 HD
ENDBRANCH   1   7
TORSDOF 1
ENDMDL
