MODEL 1
REMARK minimizedAffinity -1.01857817
REMARK minimizedRMSD -1
REMARK  1 active torsions:
REMARK  status: ('A' for Active; 'I' for Inactive)
REMARK    1  A    between atoms: N_2  and  C1_3 
ROOT
ATOM      1  C1  UNL d   1       0.356   2.752  -0.339  0.00  0.00     0.143 A 
ATOM      2  C2  UNL d   1       0.323   1.374  -0.576  0.00  0.00    -0.057 A 
ATOM      3  C3  UNL d   1       0.326   0.455   0.481  0.00  0.00     0.033 A 
ATOM      4  C4  UNL d   1       0.392   0.900   1.797  0.00  0.00    -0.042 A 
ATOM      5  C5  UNL d   1       0.451   2.265   2.056  0.00  0.00     0.033 A 
ATOM      6  C6  UNL d   1       0.441   3.177   0.996  0.00  0.00    -0.057 A 
ENDROOT
BRANCH   1   7
ATOM      7  N   UNL d   1       0.455   3.713  -1.348  0.00  0.00    -0.732 N 
ATOM      8  C   UNL d   1       0.942   5.043  -1.054  0.00  0.00     0.284 C 
ATOM      9  H3  UNL d   1       0.806   3.325  -2.221  0.00  0.00     0.395 HD
ENDBRANCH   1   7
TORSDOF 1
ENDMDL
