MODEL 1
REMARK minimizedAffinity 6.52011919
REMARK minimizedRMSD -1
REMARK  1 active torsions:
REMARK  status: ('A' for Active; 'I' for Inactive)
REMARK    1  A    between atoms: N_2  and  C1_3 
ROOT
ATOM      1  C1  UNL d   1      -4.830  -0.856   4.440  0.00  0.00     0.143 A 
ATOM      2  C2  UNL d   1      -4.910  -1.372   5.738  0.00  0.00    -0.057 A 
ATOM      3  C3  UNL d   1      -5.475  -2.629   5.986  0.00  0.00     0.033 A 
ATOM      4  C4  UNL d   1      -5.999  -3.382   4.940  0.00  0.00    -0.042 A 
ATOM      5  C5  UNL d   1      -5.953  -2.877   3.645  0.00  0.00     0.033 A 
ATOM      6  C6  UNL d   1      -5.381  -1.625   3.403  0.00  0.00    -0.057 A 
ENDROOT
BRANCH   1   7
ATOM      7  N   UNL d   1      -4.369   0.428   4.141  0.00  0.00    -0.732 N 
ATOM      8  C   UNL d   1      -3.219   0.618   3.283  0.00  0.00     0.284 C 
ATOM      9  H3  UNL d   1      -5.129   1.083   3.969  0.00  0.00     0.395 HD
ENDBRANCH   1   7
TORSDOF 1
ENDMDL
