MODEL 1
REMARK minimizedAffinity 1.6859808
REMARK minimizedRMSD -1
REMARK  1 active torsions:
REMARK  status: ('A' for Active; 'I' for Inactive)
REMARK    1  A    between atoms: N_2  and  C1_3 
ROOT
ATOM      1  C1  UNL d   1       0.680   3.463   0.285  0.00  0.00     0.143 A 
ATOM      2  C2  UNL d   1       0.126   2.735  -0.774  0.00  0.00    -0.057 A 
ATOM      3  C3  UNL d   1       0.026   3.284  -2.058  0.00  0.00     0.033 A 
ATOM      4  C4  UNL d   1       0.453   4.585  -2.300  0.00  0.00    -0.042 A 
ATOM      5  C5  UNL d   1       0.984   5.336  -1.257  0.00  0.00     0.033 A 
ATOM      6  C6  UNL d   1       1.087   4.780   0.022  0.00  0.00    -0.057 A 
ENDROOT
BRANCH   1   7
ATOM      7  N   UNL d   1       0.717   3.009   1.606  0.00  0.00    -0.732 N 
ATOM      8  C   UNL d   1       0.210   1.697   1.949  0.00  0.00     0.284 C 
ATOM      9  H3  UNL d   1       1.584   3.256   2.077  0.00  0.00     0.395 HD
ENDBRANCH   1   7
TORSDOF 1
ENDMDL
