MODEL 1
REMARK minimizedAffinity 7.37010145
REMARK minimizedRMSD -1
REMARK  0 active torsions:
REMARK  status: ('A' for Active; 'I' for Inactive)
ROOT
ATOM      1  C2' OXE d   1       0.681   0.004   2.311  0.00  0.00     0.078 C 
ATOM      2  C1' OXE d   1       2.063  -1.222   0.197  0.00  0.00     0.078 C 
ATOM      3  C1  OXE d   1       0.949  -0.267  -0.151  0.00  0.00    -0.078 A 
ATOM      4  C2  OXE d   1       0.248   0.293   0.889  0.00  0.00    -0.078 A 
ATOM      5  C3  OXE d   1      -0.753   1.223   0.625  0.00  0.00     0.003 A 
ATOM      6  C4  OXE d   1      -1.154   1.477  -0.693  0.00  0.00    -0.002 A 
ATOM      7  C5  OXE d   1      -0.479   0.887  -1.767  0.00  0.00    -0.002 A 
ATOM      8  C6  OXE d   1       0.600   0.048  -1.515  0.00  0.00     0.003 A 
ENDROOT
TORSDOF 0
ENDMDL
