MODEL 1
REMARK minimizedAffinity 4.92429447
REMARK minimizedRMSD -1
REMARK  0 active torsions:
REMARK  status: ('A' for Active; 'I' for Inactive)
ROOT
ATOM      1  C2' OXE d   1      -3.285   0.030  -2.806  0.00  0.00     0.078 C 
ATOM      2  C1' OXE d   1      -4.228  -0.553  -5.385  0.00  0.00     0.078 C 
ATOM      3  C1  OXE d   1      -4.189   0.893  -4.961  0.00  0.00    -0.078 A 
ATOM      4  C2  OXE d   1      -3.771   1.166  -3.681  0.00  0.00    -0.078 A 
ATOM      5  C3  OXE d   1      -3.664   2.487  -3.257  0.00  0.00     0.003 A 
ATOM      6  C4  OXE d   1      -4.124   3.531  -4.068  0.00  0.00    -0.002 A 
ATOM      7  C5  OXE d   1      -4.591   3.273  -5.361  0.00  0.00    -0.002 A 
ATOM      8  C6  OXE d   1      -4.591   1.966  -5.837  0.00  0.00     0.003 A 
ENDROOT
TORSDOF 0
ENDMDL
