MODEL 1
REMARK minimizedAffinity 3.80524826
REMARK minimizedRMSD -1
REMARK  0 active torsions:
REMARK  status: ('A' for Active; 'I' for Inactive)
ROOT
ATOM      1  C2' OXE d   1       2.067  -1.228   1.175  0.00  0.00     0.078 C 
ATOM      2  C1' OXE d   1       0.460   0.645   2.513  0.00  0.00     0.078 C 
ATOM      3  C1  OXE d   1       0.355   0.574   1.010  0.00  0.00    -0.078 A 
ATOM      4  C2  OXE d   1       1.179  -0.313   0.360  0.00  0.00    -0.078 A 
ATOM      5  C3  OXE d   1       1.084  -0.456  -1.021  0.00  0.00     0.003 A 
ATOM      6  C4  OXE d   1       0.268   0.401  -1.769  0.00  0.00    -0.002 A 
ATOM      7  C5  OXE d   1      -0.550   1.339  -1.129  0.00  0.00    -0.002 A 
ATOM      8  C6  OXE d   1      -0.550   1.409   0.260  0.00  0.00     0.003 A 
ENDROOT
TORSDOF 0
ENDMDL
