MODEL 1
REMARK minimizedAffinity 10.5825233
REMARK minimizedRMSD -1
REMARK  0 active torsions:
REMARK  status: ('A' for Active; 'I' for Inactive)
ROOT
ATOM      1  C2' OXE d   1       0.722  -0.077  -1.149  0.00  0.00     0.078 C 
ATOM      2  C1' OXE d   1      -0.825   2.248  -0.866  0.00  0.00     0.078 C 
ATOM      3  C1  OXE d   1      -1.445   1.073  -1.581  0.00  0.00    -0.078 A 
ATOM      4  C2  OXE d   1      -0.664  -0.044  -1.756  0.00  0.00    -0.078 A 
ATOM      5  C3  OXE d   1      -1.204  -1.175  -2.361  0.00  0.00     0.003 A 
ATOM      6  C4  OXE d   1      -2.484  -1.132  -2.929  0.00  0.00    -0.002 A 
ATOM      7  C5  OXE d   1      -3.281   0.009  -2.797  0.00  0.00    -0.002 A 
ATOM      8  C6  OXE d   1      -2.794   1.103  -2.090  0.00  0.00     0.003 A 
ENDROOT
TORSDOF 0
ENDMDL
