MODEL 1
REMARK minimizedAffinity 11.7889738
REMARK minimizedRMSD -1
REMARK  0 active torsions:
REMARK  status: ('A' for Active; 'I' for Inactive)
ROOT
ATOM      1  C2' OXE d   1      -5.758   0.204   5.770  0.00  0.00     0.078 C 
ATOM      2  C1' OXE d   1      -5.996  -2.593   5.799  0.00  0.00     0.078 C 
ATOM      3  C1  OXE d   1      -5.944  -1.905   4.458  0.00  0.00    -0.078 A 
ATOM      4  C2  OXE d   1      -5.875  -0.532   4.453  0.00  0.00    -0.078 A 
ATOM      5  C3  OXE d   1      -5.769   0.149   3.244  0.00  0.00     0.003 A 
ATOM      6  C4  OXE d   1      -5.888  -0.539   2.030  0.00  0.00    -0.002 A 
ATOM      7  C5  OXE d   1      -5.999  -1.934   2.013  0.00  0.00    -0.002 A 
ATOM      8  C6  OXE d   1      -5.986  -2.634   3.214  0.00  0.00     0.003 A 
ENDROOT
TORSDOF 0
ENDMDL
