MODEL 1
REMARK minimizedAffinity 1.9660877
REMARK minimizedRMSD -1
REMARK  0 active torsions:
REMARK  status: ('A' for Active; 'I' for Inactive)
ROOT
ATOM      1  C2' OXE d   1      -0.665   1.971   2.117  0.00  0.00     0.078 C 
ATOM      2  C1' OXE d   1      -0.268   2.066  -0.660  0.00  0.00     0.078 C 
ATOM      3  C1  OXE d   1       0.566   1.095   0.136  0.00  0.00    -0.078 A 
ATOM      4  C2  OXE d   1       0.398   1.088   1.500  0.00  0.00    -0.078 A 
ATOM      5  C3  OXE d   1       1.103   0.172   2.277  0.00  0.00     0.003 A 
ATOM      6  C4  OXE d   1       2.092  -0.634   1.700  0.00  0.00    -0.002 A 
ATOM      7  C5  OXE d   1       2.306  -0.614   0.318  0.00  0.00    -0.002 A 
ATOM      8  C6  OXE d   1       1.524   0.212  -0.482  0.00  0.00     0.003 A 
ENDROOT
TORSDOF 0
ENDMDL
