MODEL 1
REMARK minimizedAffinity 2.87482882
REMARK minimizedRMSD -1
REMARK  0 active torsions:
REMARK  status: ('A' for Active; 'I' for Inactive)
ROOT
ATOM      1  C2' OXE d   1       1.406  -0.647   2.269  0.00  0.00     0.078 C 
ATOM      2  C1' OXE d   1       1.647  -1.630  -0.349  0.00  0.00     0.078 C 
ATOM      3  C1  OXE d   1       0.916  -0.326  -0.152  0.00  0.00    -0.078 A 
ATOM      4  C2  OXE d   1       0.762   0.124   1.137  0.00  0.00    -0.078 A 
ATOM      5  C3  OXE d   1       0.143   1.349   1.370  0.00  0.00     0.003 A 
ATOM      6  C4  OXE d   1      -0.458   2.051   0.319  0.00  0.00    -0.002 A 
ATOM      7  C5  OXE d   1      -0.348   1.590  -0.997  0.00  0.00    -0.002 A 
ATOM      8  C6  OXE d   1       0.371   0.428  -1.254  0.00  0.00     0.003 A 
ENDROOT
TORSDOF 0
ENDMDL
