MODEL 1
REMARK minimizedAffinity -1.36984277
REMARK minimizedRMSD -1
REMARK  0 active torsions:
REMARK  status: ('A' for Active; 'I' for Inactive)
ROOT
ATOM      1  C2' OXE d   1      -0.409   1.079  -1.456  0.00  0.00     0.078 C 
ATOM      2  C1' OXE d   1       0.012   3.849  -1.620  0.00  0.00     0.078 C 
ATOM      3  C1  OXE d   1       0.003   3.219  -0.250  0.00  0.00    -0.078 A 
ATOM      4  C2  OXE d   1      -0.250   1.870  -0.176  0.00  0.00    -0.078 A 
ATOM      5  C3  OXE d   1      -0.216   1.229   1.059  0.00  0.00     0.003 A 
ATOM      6  C4  OXE d   1      -0.078   1.970   2.239  0.00  0.00    -0.002 A 
ATOM      7  C5  OXE d   1       0.142   3.351   2.188  0.00  0.00    -0.002 A 
ATOM      8  C6  OXE d   1       0.227   3.982   0.953  0.00  0.00     0.003 A 
ENDROOT
TORSDOF 0
ENDMDL
