MODEL 1
REMARK minimizedAffinity 7.68071222
REMARK minimizedRMSD -1
REMARK  0 active torsions:
REMARK  status: ('A' for Active; 'I' for Inactive)
ROOT
ATOM      1  C2' OXE d   1      -1.257   2.504   1.726  0.00  0.00     0.078 C 
ATOM      2  C1' OXE d   1      -0.879   2.866  -1.032  0.00  0.00     0.078 C 
ATOM      3  C1  OXE d   1      -0.232   1.668  -0.385  0.00  0.00    -0.078 A 
ATOM      4  C2  OXE d   1      -0.383   1.524   0.973  0.00  0.00    -0.078 A 
ATOM      5  C3  OXE d   1       0.148   0.407   1.612  0.00  0.00     0.003 A 
ATOM      6  C4  OXE d   1       0.964  -0.489   0.911  0.00  0.00    -0.002 A 
ATOM      7  C5  OXE d   1       1.164  -0.339  -0.466  0.00  0.00    -0.002 A 
ATOM      8  C6  OXE d   1       0.540   0.708  -1.135  0.00  0.00     0.003 A 
ENDROOT
TORSDOF 0
ENDMDL
