MODEL 1
REMARK minimizedAffinity -2.24182057
REMARK minimizedRMSD -1
REMARK  0 active torsions:
REMARK  status: ('A' for Active; 'I' for Inactive)
ROOT
ATOM      1  C   UNL d   1       1.248   1.482  -1.724  0.00  0.00     0.077 C 
ATOM      2  C1  UNL d   1       0.529   0.997  -0.500  0.00  0.00    -0.074 A 
ATOM      3  C2  UNL d   1       1.068  -0.020   0.295  0.00  0.00    -0.005 A 
ATOM      4  C3  UNL d   1       0.392  -0.454   1.435  0.00  0.00     0.006 A 
ATOM      5  C4  UNL d   1      -0.828   0.123   1.791  0.00  0.00    -0.005 A 
ATOM      6  C5  UNL d   1      -1.382   1.141   1.009  0.00  0.00    -0.074 A 
ATOM      7  C6  UNL d   1      -2.687   1.778   1.383  0.00  0.00     0.077 C 
ATOM      8  C7  UNL d   1      -0.693   1.577  -0.131  0.00  0.00    -0.001 A 
ENDROOT
TORSDOF 0
ENDMDL
