MODEL 1
REMARK minimizedAffinity -3.90399146
REMARK minimizedRMSD -1
REMARK  0 active torsions:
REMARK  status: ('A' for Active; 'I' for Inactive)
ROOT
ATOM      1  C   UNL d   1       0.381  -1.102  -0.360  0.00  0.00     0.077 C 
ATOM      2  C1  UNL d   1      -0.369  -0.088   0.451  0.00  0.00    -0.074 A 
ATOM      3  C2  UNL d   1      -1.471   0.588  -0.083  0.00  0.00    -0.005 A 
ATOM      4  C3  UNL d   1      -2.164   1.522   0.687  0.00  0.00     0.006 A 
ATOM      5  C4  UNL d   1      -1.764   1.788   1.997  0.00  0.00    -0.005 A 
ATOM      6  C5  UNL d   1      -0.666   1.121   2.549  0.00  0.00    -0.074 A 
ATOM      7  C6  UNL d   1      -0.229   1.388   3.959  0.00  0.00     0.077 C 
ATOM      8  C7  UNL d   1       0.021   0.179   1.771  0.00  0.00    -0.001 A 
ENDROOT
TORSDOF 0
ENDMDL
