MODEL 1
REMARK minimizedAffinity -4.5545764
REMARK minimizedRMSD -1
REMARK  0 active torsions:
REMARK  status: ('A' for Active; 'I' for Inactive)
ROOT
ATOM      1  C   UNL d   1      -2.580   1.908   0.945  0.00  0.00     0.077 C 
ATOM      2  C1  UNL d   1      -1.459   0.914   0.878  0.00  0.00    -0.074 A 
ATOM      3  C2  UNL d   1      -0.814   0.478   2.040  0.00  0.00    -0.005 A 
ATOM      4  C3  UNL d   1       0.221  -0.454   1.963  0.00  0.00     0.006 A 
ATOM      5  C4  UNL d   1       0.621  -0.959   0.725  0.00  0.00    -0.005 A 
ATOM      6  C5  UNL d   1      -0.013  -0.536  -0.447  0.00  0.00    -0.074 A 
ATOM      7  C6  UNL d   1       0.398  -1.076  -1.785  0.00  0.00     0.077 C 
ATOM      8  C7  UNL d   1      -1.056   0.396  -0.361  0.00  0.00    -0.001 A 
ENDROOT
TORSDOF 0
ENDMDL
