MODEL 1
REMARK minimizedAffinity -4.66948509
REMARK minimizedRMSD -1
REMARK  0 active torsions:
REMARK  status: ('A' for Active; 'I' for Inactive)
ROOT
ATOM      1  C   UNL d   1       0.801  -1.761  -0.753  0.00  0.00     0.077 C 
ATOM      2  C1  UNL d   1       0.397  -0.316  -0.770  0.00  0.00    -0.074 A 
ATOM      3  C2  UNL d   1       1.031   0.598  -1.617  0.00  0.00    -0.005 A 
ATOM      4  C3  UNL d   1       0.638   1.936  -1.628  0.00  0.00     0.006 A 
ATOM      5  C4  UNL d   1      -0.391   2.373  -0.794  0.00  0.00    -0.005 A 
ATOM      6  C5  UNL d   1      -1.038   1.473   0.059  0.00  0.00    -0.074 A 
ATOM      7  C6  UNL d   1      -2.153   1.924   0.955  0.00  0.00     0.077 C 
ATOM      8  C7  UNL d   1      -0.642   0.129   0.060  0.00  0.00    -0.001 A 
ENDROOT
TORSDOF 0
ENDMDL
