MODEL 1
REMARK minimizedAffinity -3.67157173
REMARK minimizedRMSD -1
REMARK  0 active torsions:
REMARK  status: ('A' for Active; 'I' for Inactive)
ROOT
ATOM      1  C   UNL d   1       1.000  -1.246  -1.110  0.00  0.00     0.077 C 
ATOM      2  C1  UNL d   1       0.207  -0.411  -0.149  0.00  0.00    -0.074 A 
ATOM      3  C2  UNL d   1      -0.303   0.834  -0.531  0.00  0.00    -0.005 A 
ATOM      4  C3  UNL d   1      -1.047   1.596   0.371  0.00  0.00     0.006 A 
ATOM      5  C4  UNL d   1      -1.287   1.121   1.661  0.00  0.00    -0.005 A 
ATOM      6  C5  UNL d   1      -0.786  -0.122   2.060  0.00  0.00    -0.074 A 
ATOM      7  C6  UNL d   1      -1.043  -0.651   3.440  0.00  0.00     0.077 C 
ATOM      8  C7  UNL d   1      -0.045  -0.884   1.146  0.00  0.00    -0.001 A 
ENDROOT
TORSDOF 0
ENDMDL
