MODEL 1
REMARK minimizedAffinity -2.84195995
REMARK minimizedRMSD -1
REMARK  0 active torsions:
REMARK  status: ('A' for Active; 'I' for Inactive)
ROOT
ATOM      1  C   UNL d   1       1.293  -4.882  -0.137  0.00  0.00     0.077 C 
ATOM      2  C1  UNL d   1       0.930  -3.699  -0.984  0.00  0.00    -0.074 A 
ATOM      3  C2  UNL d   1       0.043  -3.828  -2.058  0.00  0.00    -0.005 A 
ATOM      4  C3  UNL d   1      -0.292  -2.717  -2.831  0.00  0.00     0.006 A 
ATOM      5  C4  UNL d   1       0.255  -1.467  -2.539  0.00  0.00    -0.005 A 
ATOM      6  C5  UNL d   1       1.143  -1.318  -1.469  0.00  0.00    -0.074 A 
ATOM      7  C6  UNL d   1       1.732   0.020  -1.135  0.00  0.00     0.077 C 
ATOM      8  C7  UNL d   1       1.470  -2.438  -0.692  0.00  0.00    -0.001 A 
ENDROOT
TORSDOF 0
ENDMDL
