MODEL 1
REMARK minimizedAffinity -4.24712133
REMARK minimizedRMSD -1
REMARK  0 active torsions:
REMARK  status: ('A' for Active; 'I' for Inactive)
ROOT
ATOM      1  C   UNL d   1      -2.434   2.596   1.521  0.00  0.00     0.077 C 
ATOM      2  C1  UNL d   1      -1.409   1.502   1.461  0.00  0.00    -0.074 A 
ATOM      3  C2  UNL d   1      -1.149   0.699   2.576  0.00  0.00    -0.005 A 
ATOM      4  C3  UNL d   1      -0.200  -0.321   2.502  0.00  0.00     0.006 A 
ATOM      5  C4  UNL d   1       0.496  -0.548   1.314  0.00  0.00    -0.005 A 
ATOM      6  C5  UNL d   1       0.248   0.245   0.188  0.00  0.00    -0.074 A 
ATOM      7  C6  UNL d   1       0.981   0.008  -1.099  0.00  0.00     0.077 C 
ATOM      8  C7  UNL d   1      -0.711   1.263   0.269  0.00  0.00    -0.001 A 
ENDROOT
TORSDOF 0
ENDMDL
