MODEL 1
REMARK minimizedAffinity -3.42201471
REMARK minimizedRMSD -1
REMARK  0 active torsions:
REMARK  status: ('A' for Active; 'I' for Inactive)
ROOT
ATOM      1  C   UNL d   1      -0.010  -3.755  -1.130  0.00  0.00     0.077 C 
ATOM      2  C1  UNL d   1       0.270  -2.297  -0.914  0.00  0.00    -0.074 A 
ATOM      3  C2  UNL d   1       1.106  -1.589  -1.784  0.00  0.00    -0.005 A 
ATOM      4  C3  UNL d   1       1.349  -0.231  -1.576  0.00  0.00     0.006 A 
ATOM      5  C4  UNL d   1       0.759   0.431  -0.498  0.00  0.00    -0.005 A 
ATOM      6  C5  UNL d   1      -0.080  -0.260   0.381  0.00  0.00    -0.074 A 
ATOM      7  C6  UNL d   1      -0.730   0.439   1.538  0.00  0.00     0.077 C 
ATOM      8  C7  UNL d   1      -0.325  -1.623   0.162  0.00  0.00    -0.001 A 
ENDROOT
TORSDOF 0
ENDMDL
