MODEL 1
REMARK minimizedAffinity -5.44534588
REMARK minimizedRMSD -1
REMARK  0 active torsions:
REMARK  status: ('A' for Active; 'I' for Inactive)
ROOT
ATOM      1  C   UNL d   1       1.281  -1.757  -0.610  0.00  0.00     0.077 C 
ATOM      2  C1  UNL d   1       0.769  -0.355  -0.463  0.00  0.00    -0.074 A 
ATOM      3  C2  UNL d   1       1.268   0.680  -1.260  0.00  0.00    -0.005 A 
ATOM      4  C3  UNL d   1       0.775   1.977  -1.118  0.00  0.00     0.006 A 
ATOM      5  C4  UNL d   1      -0.220   2.252  -0.180  0.00  0.00    -0.005 A 
ATOM      6  C5  UNL d   1      -0.732   1.230   0.626  0.00  0.00    -0.074 A 
ATOM      7  C6  UNL d   1      -1.810   1.506   1.632  0.00  0.00     0.077 C 
ATOM      8  C7  UNL d   1      -0.237  -0.072   0.472  0.00  0.00    -0.001 A 
ENDROOT
TORSDOF 0
ENDMDL
