MODEL 1
REMARK minimizedAffinity -3.38742423
REMARK minimizedRMSD -1
REMARK  0 active torsions:
REMARK  status: ('A' for Active; 'I' for Inactive)
ROOT
ATOM      1  C   UNL d   1      -2.373   1.943   1.777  0.00  0.00     0.077 C 
ATOM      2  C1  UNL d   1      -1.372   0.848   1.558  0.00  0.00    -0.074 A 
ATOM      3  C2  UNL d   1      -0.995  -0.000   2.604  0.00  0.00    -0.005 A 
ATOM      4  C3  UNL d   1      -0.069  -1.020   2.383  0.00  0.00     0.006 A 
ATOM      5  C4  UNL d   1       0.488  -1.201   1.116  0.00  0.00    -0.005 A 
ATOM      6  C5  UNL d   1       0.123  -0.363   0.058  0.00  0.00    -0.074 A 
ATOM      7  C6  UNL d   1       0.705  -0.550  -1.311  0.00  0.00     0.077 C 
ATOM      8  C7  UNL d   1      -0.813   0.655   0.287  0.00  0.00    -0.001 A 
ENDROOT
TORSDOF 0
ENDMDL
