MODEL 1
REMARK minimizedAffinity -4.02991581
REMARK minimizedRMSD -1
REMARK  0 active torsions:
REMARK  status: ('A' for Active; 'I' for Inactive)
ROOT
ATOM      1  C   UNL d   1       0.781  -4.500  -0.010  0.00  0.00     0.077 C 
ATOM      2  C1  UNL d   1       0.796  -3.045  -0.372  0.00  0.00    -0.074 A 
ATOM      3  C2  UNL d   1       1.287  -2.617  -1.610  0.00  0.00    -0.005 A 
ATOM      4  C3  UNL d   1       1.286  -1.261  -1.936  0.00  0.00     0.006 A 
ATOM      5  C4  UNL d   1       0.796  -0.321  -1.030  0.00  0.00    -0.005 A 
ATOM      6  C5  UNL d   1       0.300  -0.729   0.212  0.00  0.00    -0.074 A 
ATOM      7  C6  UNL d   1      -0.240   0.268   1.194  0.00  0.00     0.077 C 
ATOM      8  C7  UNL d   1       0.298  -2.094   0.530  0.00  0.00    -0.001 A 
ENDROOT
TORSDOF 0
ENDMDL
