MODEL 1
REMARK minimizedAffinity -5.20105028
REMARK minimizedRMSD -1
REMARK  0 active torsions:
REMARK  status: ('A' for Active; 'I' for Inactive)
ROOT
ATOM      1  C   UNL d   1      -2.255   2.879   0.826  0.00  0.00     0.077 C 
ATOM      2  C1  UNL d   1      -1.453   1.635   1.066  0.00  0.00    -0.074 A 
ATOM      3  C2  UNL d   1      -1.266   1.139   2.361  0.00  0.00    -0.005 A 
ATOM      4  C3  UNL d   1      -0.526  -0.025   2.568  0.00  0.00     0.006 A 
ATOM      5  C4  UNL d   1       0.033  -0.704   1.486  0.00  0.00    -0.005 A 
ATOM      6  C5  UNL d   1      -0.144  -0.225   0.184  0.00  0.00    -0.074 A 
ATOM      7  C6  UNL d   1       0.442  -0.948  -0.992  0.00  0.00     0.077 C 
ATOM      8  C7  UNL d   1      -0.895   0.942  -0.017  0.00  0.00    -0.001 A 
ENDROOT
TORSDOF 0
ENDMDL
