MODEL 1
REMARK minimizedAffinity -3.66136336
REMARK minimizedRMSD -1
REMARK  0 active torsions:
REMARK  status: ('A' for Active; 'I' for Inactive)
ROOT
ATOM      1  C   UNL d   1       0.572  -1.222  -0.685  0.00  0.00     0.077 C 
ATOM      2  C1  UNL d   1      -0.235  -0.162   0.004  0.00  0.00    -0.074 A 
ATOM      3  C2  UNL d   1      -0.818   0.882  -0.721  0.00  0.00    -0.005 A 
ATOM      4  C3  UNL d   1      -1.574   1.856  -0.068  0.00  0.00     0.006 A 
ATOM      5  C4  UNL d   1      -1.753   1.796   1.314  0.00  0.00    -0.005 A 
ATOM      6  C5  UNL d   1      -1.178   0.759   2.056  0.00  0.00    -0.074 A 
ATOM      7  C6  UNL d   1      -1.369   0.674   3.541  0.00  0.00     0.077 C 
ATOM      8  C7  UNL d   1      -0.426  -0.220   1.392  0.00  0.00    -0.001 A 
ENDROOT
TORSDOF 0
ENDMDL
