MODEL 1
REMARK minimizedAffinity -3.31298184
REMARK minimizedRMSD -1
REMARK  0 active torsions:
REMARK  status: ('A' for Active; 'I' for Inactive)
ROOT
ATOM      1  C   UNL d   1       0.646  -0.748  -0.981  0.00  0.00     0.077 C 
ATOM      2  C1  UNL d   1       0.009  -0.275   0.292  0.00  0.00    -0.074 A 
ATOM      3  C2  UNL d   1       0.373  -0.825   1.525  0.00  0.00    -0.005 A 
ATOM      4  C3  UNL d   1      -0.222  -0.368   2.701  0.00  0.00     0.006 A 
ATOM      5  C4  UNL d   1      -1.185   0.641   2.656  0.00  0.00    -0.005 A 
ATOM      6  C5  UNL d   1      -1.561   1.203   1.432  0.00  0.00    -0.074 A 
ATOM      7  C6  UNL d   1      -2.588   2.294   1.367  0.00  0.00     0.077 C 
ATOM      8  C7  UNL d   1      -0.954   0.744   0.255  0.00  0.00    -0.001 A 
ENDROOT
TORSDOF 0
ENDMDL
