MODEL 1
REMARK minimizedAffinity 3.78500557
REMARK minimizedRMSD -1
REMARK  3 active torsions:
REMARK  status: ('A' for Active; 'I' for Inactive)
REMARK    1  A    between atoms: C3'_2  and  C2'_3 
REMARK    2  A    between atoms: C2'_3  and  C1'_4 
REMARK    3  A    between atoms: C1'_4  and  C1_5 
ROOT
ATOM      1  C1  N4B d   1      -5.799   3.459  -3.411  0.00  0.00    -0.075 A 
ATOM      2  C2  N4B d   1      -5.994   2.583  -4.501  0.00  0.00     0.002 A 
ATOM      3  C3  N4B d   1      -5.999   3.074  -5.784  0.00  0.00     0.002 A 
ATOM      4  C4  N4B d   1      -5.830   4.434  -5.999  0.00  0.00    -0.004 A 
ATOM      5  C5  N4B d   1      -5.616   5.269  -4.942  0.00  0.00     0.002 A 
ATOM      6  C6  N4B d   1      -5.604   4.789  -3.647  0.00  0.00     0.002 A 
ENDROOT
BRANCH   1   7
ATOM      7  C1' N4B d   1      -5.871   2.981  -1.986  0.00  0.00     0.057 C 
BRANCH   7   8
ATOM      8  C2' N4B d   1      -4.464   2.654  -1.496  0.00  0.00     0.009 C 
BRANCH   8   9
ATOM      9  C3' N4B d   1      -4.477   1.627  -0.376  0.00  0.00     0.004 C 
ATOM     10  C4' N4B d   1      -3.107   1.118  -0.039  0.00  0.00     0.003 C 
ENDBRANCH   8   9
ENDBRANCH   7   8
ENDBRANCH   1   7
TORSDOF 3
ENDMDL
