MODEL 1
REMARK minimizedAffinity 7.94753599
REMARK minimizedRMSD -1
REMARK  3 active torsions:
REMARK  status: ('A' for Active; 'I' for Inactive)
REMARK    1  A    between atoms: C3'_2  and  C2'_3 
REMARK    2  A    between atoms: C2'_3  and  C1'_4 
REMARK    3  A    between atoms: C1'_4  and  C1_5 
ROOT
ATOM      1  C1  N4B d   1       0.340   3.045   1.414  0.00  0.00    -0.075 A 
ATOM      2  C2  N4B d   1       1.486   3.584   2.038  0.00  0.00     0.002 A 
ATOM      3  C3  N4B d   1       1.883   3.116   3.267  0.00  0.00     0.002 A 
ATOM      4  C4  N4B d   1       1.142   2.128   3.896  0.00  0.00    -0.004 A 
ATOM      5  C5  N4B d   1       0.051   1.594   3.275  0.00  0.00     0.002 A 
ATOM      6  C6  N4B d   1      -0.357   2.052   2.038  0.00  0.00     0.002 A 
ENDROOT
BRANCH   1   7
ATOM      7  C1' N4B d   1      -0.181   3.583   0.110  0.00  0.00     0.057 C 
BRANCH   7   8
ATOM      8  C2' N4B d   1       0.348   5.000  -0.095  0.00  0.00     0.009 C 
BRANCH   8   9
ATOM      9  C3' N4B d   1      -0.775   5.998  -0.321  0.00  0.00     0.004 C 
ATOM     10  C4' N4B d   1      -1.366   5.906  -1.696  0.00  0.00     0.003 C 
ENDBRANCH   8   9
ENDBRANCH   7   8
ENDBRANCH   1   7
TORSDOF 3
ENDMDL
