MODEL 1
REMARK minimizedAffinity 5.29143524
REMARK minimizedRMSD -1
REMARK  3 active torsions:
REMARK  status: ('A' for Active; 'I' for Inactive)
REMARK    1  A    between atoms: C3'_2  and  C2'_3 
REMARK    2  A    between atoms: C2'_3  and  C1'_4 
REMARK    3  A    between atoms: C1'_4  and  C1_5 
ROOT
ATOM      1  C1  N4B d   1      -0.153   5.181  -0.962  0.00  0.00    -0.075 A 
ATOM      2  C2  N4B d   1      -1.558   5.126  -1.098  0.00  0.00     0.002 A 
ATOM      3  C3  N4B d   1      -2.149   5.512  -2.275  0.00  0.00     0.002 A 
ATOM      4  C4  N4B d   1      -1.362   5.974  -3.319  0.00  0.00    -0.004 A 
ATOM      5  C5  N4B d   1      -0.004   6.000  -3.189  0.00  0.00     0.002 A 
ATOM      6  C6  N4B d   1       0.604   5.610  -2.013  0.00  0.00     0.002 A 
ENDROOT
BRANCH   1   7
ATOM      7  C1' N4B d   1       0.533   4.849   0.335  0.00  0.00     0.057 C 
BRANCH   7   8
ATOM      8  C2' N4B d   1      -0.016   3.530   0.869  0.00  0.00     0.009 C 
BRANCH   8   9
ATOM      9  C3' N4B d   1      -1.122   3.745   1.888  0.00  0.00     0.004 C 
ATOM     10  C4' N4B d   1      -1.159   2.676   2.939  0.00  0.00     0.003 C 
ENDBRANCH   8   9
ENDBRANCH   7   8
ENDBRANCH   1   7
TORSDOF 3
ENDMDL
