MODEL 1
REMARK minimizedAffinity 8.7237711
REMARK minimizedRMSD -1
REMARK  3 active torsions:
REMARK  status: ('A' for Active; 'I' for Inactive)
REMARK    1  A    between atoms: C3'_2  and  C2'_3 
REMARK    2  A    between atoms: C2'_3  and  C1'_4 
REMARK    3  A    between atoms: C1'_4  and  C1_5 
ROOT
ATOM      1  C1  N4B d   1       1.207   3.750   1.206  0.00  0.00    -0.075 A 
ATOM      2  C2  N4B d   1       2.068   4.816   0.864  0.00  0.00     0.002 A 
ATOM      3  C3  N4B d   1       2.913   5.345   1.808  0.00  0.00     0.002 A 
ATOM      4  C4  N4B d   1       2.902   4.840   3.099  0.00  0.00    -0.004 A 
ATOM      5  C5  N4B d   1       2.086   3.793   3.415  0.00  0.00     0.002 A 
ATOM      6  C6  N4B d   1       1.234   3.249   2.475  0.00  0.00     0.002 A 
ENDROOT
BRANCH   1   7
ATOM      7  C1' N4B d   1       0.204   3.195   0.232  0.00  0.00     0.057 C 
BRANCH   7   8
ATOM      8  C2' N4B d   1       0.057   4.161  -0.940  0.00  0.00     0.009 C 
BRANCH   8   9
ATOM      9  C3' N4B d   1      -1.267   4.904  -0.902  0.00  0.00     0.004 C 
ATOM     10  C4' N4B d   1      -2.212   4.461  -1.980  0.00  0.00     0.003 C 
ENDBRANCH   8   9
ENDBRANCH   7   8
ENDBRANCH   1   7
TORSDOF 3
ENDMDL
