MODEL 1
REMARK minimizedAffinity 9.17351913
REMARK minimizedRMSD -1
REMARK  3 active torsions:
REMARK  status: ('A' for Active; 'I' for Inactive)
REMARK    1  A    between atoms: C3'_2  and  C2'_3 
REMARK    2  A    between atoms: C2'_3  and  C1'_4 
REMARK    3  A    between atoms: C1'_4  and  C1_5 
ROOT
ATOM      1  C1  N4B d   1       0.195   2.661   1.387  0.00  0.00    -0.075 A 
ATOM      2  C2  N4B d   1      -0.839   2.101   2.169  0.00  0.00     0.002 A 
ATOM      3  C3  N4B d   1      -0.551   1.544   3.391  0.00  0.00     0.002 A 
ATOM      4  C4  N4B d   1       0.761   1.517   3.841  0.00  0.00    -0.004 A 
ATOM      5  C5  N4B d   1       1.750   2.083   3.091  0.00  0.00     0.002 A 
ATOM      6  C6  N4B d   1       1.475   2.650   1.863  0.00  0.00     0.002 A 
ENDROOT
BRANCH   1   7
ATOM      7  C1' N4B d   1      -0.058   3.205   0.008  0.00  0.00     0.057 C 
BRANCH   7   8
ATOM      8  C2' N4B d   1       0.695   4.522  -0.157  0.00  0.00     0.009 C 
BRANCH   8   9
ATOM      9  C3' N4B d   1      -0.240   5.673  -0.491  0.00  0.00     0.004 C 
ATOM     10  C4' N4B d   1      -1.181   6.000   0.630  0.00  0.00     0.003 C 
ENDBRANCH   8   9
ENDBRANCH   7   8
ENDBRANCH   1   7
TORSDOF 3
ENDMDL
