MODEL 1
REMARK minimizedAffinity -4.21261597
REMARK minimizedRMSD -1
REMARK  2 active torsions:
REMARK  status: ('A' for Active; 'I' for Inactive)
REMARK    1  A    between atoms: C2'_3  and  C1'_4 
REMARK    2  A    between atoms: C1'_4  and  C1_5 
ROOT
ATOM      1  C1  I4B d   1      -0.235  -0.241  -0.108  0.00  0.00    -0.075 A 
ATOM      2  C2  I4B d   1      -1.371  -0.626   0.559  0.00  0.00     0.003 A 
ATOM      3  C3  I4B d   1      -1.297  -1.037   1.913  0.00  0.00     0.002 A 
ATOM      4  C4  I4B d   1      -0.070  -1.096   2.540  0.00  0.00    -0.004 A 
ATOM      5  C5  I4B d   1       1.078  -0.684   1.868  0.00  0.00     0.002 A 
ATOM      6  C6  I4B d   1       0.994  -0.242   0.540  0.00  0.00     0.003 A 
ENDROOT
BRANCH   1   7
ATOM      7  C1' I4B d   1      -0.343   0.156  -1.546  0.00  0.00     0.060 C 
BRANCH   7   8
ATOM      8  C2' I4B d   1      -0.409   1.668  -1.609  0.00  0.00    -0.013 C 
ATOM      9  C4' I4B d   1       0.761   2.233  -2.371  0.00  0.00     0.013 C 
ATOM     10  C3' I4B d   1      -1.709   2.049  -2.253  0.00  0.00     0.013 C 
ENDBRANCH   7   8
ENDBRANCH   1   7
TORSDOF 2
ENDMDL
