MODEL 1
REMARK minimizedAffinity -3.78215957
REMARK minimizedRMSD -1
REMARK  2 active torsions:
REMARK  status: ('A' for Active; 'I' for Inactive)
REMARK    1  A    between atoms: C2'_3  and  C1'_4 
REMARK    2  A    between atoms: C1'_4  and  C1_5 
ROOT
ATOM      1  C1  I4B d   1      -0.534  -0.477   1.664  0.00  0.00    -0.075 A 
ATOM      2  C2  I4B d   1      -1.084  -1.730   1.563  0.00  0.00     0.003 A 
ATOM      3  C3  I4B d   1      -0.621  -2.781   2.390  0.00  0.00     0.002 A 
ATOM      4  C4  I4B d   1       0.422  -2.549   3.264  0.00  0.00    -0.004 A 
ATOM      5  C5  I4B d   1       0.964  -1.273   3.381  0.00  0.00     0.002 A 
ATOM      6  C6  I4B d   1       0.475  -0.226   2.586  0.00  0.00     0.003 A 
ENDROOT
BRANCH   1   7
ATOM      7  C1' I4B d   1      -1.024   0.603   0.752  0.00  0.00     0.060 C 
BRANCH   7   8
ATOM      8  C2' I4B d   1      -0.834   0.130  -0.675  0.00  0.00    -0.013 C 
ATOM      9  C4' I4B d   1      -1.315   1.162  -1.660  0.00  0.00     0.013 C 
ATOM     10  C3' I4B d   1       0.622  -0.170  -0.873  0.00  0.00     0.013 C 
ENDBRANCH   7   8
ENDBRANCH   1   7
TORSDOF 2
ENDMDL
