MODEL 1
REMARK minimizedAffinity -3.81717825
REMARK minimizedRMSD -1
REMARK  2 active torsions:
REMARK  status: ('A' for Active; 'I' for Inactive)
REMARK    1  A    between atoms: C2'_3  and  C1'_4 
REMARK    2  A    between atoms: C1'_4  and  C1_5 
ROOT
ATOM      1  C1  I4B d   1      -0.019   1.004  -0.153  0.00  0.00    -0.075 A 
ATOM      2  C2  I4B d   1       0.858  -0.033   0.049  0.00  0.00     0.003 A 
ATOM      3  C3  I4B d   1       0.613  -0.985   1.067  0.00  0.00     0.002 A 
ATOM      4  C4  I4B d   1      -0.486  -0.835   1.888  0.00  0.00    -0.004 A 
ATOM      5  C5  I4B d   1      -1.386   0.204   1.668  0.00  0.00     0.002 A 
ATOM      6  C6  I4B d   1      -1.158   1.122   0.633  0.00  0.00     0.003 A 
ENDROOT
BRANCH   1   7
ATOM      7  C1' I4B d   1       0.287   2.011  -1.216  0.00  0.00     0.060 C 
BRANCH   7   8
ATOM      8  C2' I4B d   1      -0.971   2.225  -2.033  0.00  0.00    -0.013 C 
ATOM      9  C4' I4B d   1      -1.352   3.681  -2.076  0.00  0.00     0.013 C 
ATOM     10  C3' I4B d   1      -0.725   1.689  -3.412  0.00  0.00     0.013 C 
ENDBRANCH   7   8
ENDBRANCH   1   7
TORSDOF 2
ENDMDL
