MODEL 1
REMARK minimizedAffinity -2.38609982
REMARK minimizedRMSD -1
REMARK  2 active torsions:
REMARK  status: ('A' for Active; 'I' for Inactive)
REMARK    1  A    between atoms: C2'_3  and  C1'_4 
REMARK    2  A    between atoms: C1'_4  and  C1_5 
ROOT
ATOM      1  C1  I4B d   1       0.067  -0.292  -0.259  0.00  0.00    -0.075 A 
ATOM      2  C2  I4B d   1      -0.827   0.073   0.717  0.00  0.00     0.003 A 
ATOM      3  C3  I4B d   1      -0.660  -0.388   2.045  0.00  0.00     0.002 A 
ATOM      4  C4  I4B d   1       0.378  -1.247   2.341  0.00  0.00    -0.004 A 
ATOM      5  C5  I4B d   1       1.297  -1.598   1.356  0.00  0.00     0.002 A 
ATOM      6  C6  I4B d   1       1.148  -1.107   0.050  0.00  0.00     0.003 A 
ENDROOT
BRANCH   1   7
ATOM      7  C1' I4B d   1      -0.158   0.187  -1.658  0.00  0.00     0.060 C 
BRANCH   7   8
ATOM      8  C2' I4B d   1      -0.953   1.475  -1.589  0.00  0.00    -0.013 C 
ATOM      9  C4' I4B d   1      -0.080   2.670  -1.872  0.00  0.00     0.013 C 
ATOM     10  C3' I4B d   1      -2.077   1.379  -2.577  0.00  0.00     0.013 C 
ENDBRANCH   7   8
ENDBRANCH   1   7
TORSDOF 2
ENDMDL
