MODEL 1
REMARK minimizedAffinity -4.47531319
REMARK minimizedRMSD -1
REMARK  2 active torsions:
REMARK  status: ('A' for Active; 'I' for Inactive)
REMARK    1  A    between atoms: C2'_3  and  C1'_4 
REMARK    2  A    between atoms: C1'_4  and  C1_5 
ROOT
ATOM      1  C1  I4B d   1      -0.212   0.179  -0.127  0.00  0.00    -0.075 A 
ATOM      2  C2  I4B d   1      -1.315   0.368   0.667  0.00  0.00     0.003 A 
ATOM      3  C3  I4B d   1      -1.242   0.124   2.060  0.00  0.00     0.002 A 
ATOM      4  C4  I4B d   1      -0.067  -0.353   2.605  0.00  0.00    -0.004 A 
ATOM      5  C5  I4B d   1       1.057  -0.521   1.803  0.00  0.00     0.002 A 
ATOM      6  C6  I4B d   1       0.989  -0.242   0.430  0.00  0.00     0.003 A 
ENDROOT
BRANCH   1   7
ATOM      7  C1' I4B d   1      -0.334   0.415  -1.599  0.00  0.00     0.060 C 
BRANCH   7   8
ATOM      8  C2' I4B d   1      -0.911   1.801  -1.804  0.00  0.00    -0.013 C 
ATOM      9  C4' I4B d   1       0.153   2.778  -2.229  0.00  0.00     0.013 C 
ATOM     10  C3' I4B d   1      -1.998   1.702  -2.833  0.00  0.00     0.013 C 
ENDBRANCH   7   8
ENDBRANCH   1   7
TORSDOF 2
ENDMDL
