MODEL 1
REMARK minimizedAffinity -4.64742088
REMARK minimizedRMSD -1
REMARK  2 active torsions:
REMARK  status: ('A' for Active; 'I' for Inactive)
REMARK    1  A    between atoms: C2'_3  and  C1'_4 
REMARK    2  A    between atoms: C1'_4  and  C1_5 
ROOT
ATOM      1  C1  I4B d   1       0.362  -0.476  -0.044  0.00  0.00    -0.075 A 
ATOM      2  C2  I4B d   1       1.456  -1.290   0.112  0.00  0.00     0.003 A 
ATOM      3  C3  I4B d   1       1.873  -1.683   1.407  0.00  0.00     0.002 A 
ATOM      4  C4  I4B d   1       1.203  -1.201   2.512  0.00  0.00    -0.004 A 
ATOM      5  C5  I4B d   1       0.080  -0.394   2.352  0.00  0.00     0.002 A 
ATOM      6  C6  I4B d   1      -0.351  -0.039   1.065  0.00  0.00     0.003 A 
ENDROOT
BRANCH   1   7
ATOM      7  C1' I4B d   1      -0.032  -0.053  -1.424  0.00  0.00     0.060 C 
BRANCH   7   8
ATOM      8  C2' I4B d   1      -0.352   1.427  -1.385  0.00  0.00    -0.013 C 
ATOM      9  C4' I4B d   1       0.852   2.255  -1.749  0.00  0.00     0.013 C 
ATOM     10  C3' I4B d   1      -1.488   1.680  -2.331  0.00  0.00     0.013 C 
ENDBRANCH   7   8
ENDBRANCH   1   7
TORSDOF 2
ENDMDL
