MODEL 1
REMARK minimizedAffinity -4.65537882
REMARK minimizedRMSD -1
REMARK  2 active torsions:
REMARK  status: ('A' for Active; 'I' for Inactive)
REMARK    1  A    between atoms: C2'_3  and  C1'_4 
REMARK    2  A    between atoms: C1'_4  and  C1_5 
ROOT
ATOM      1  C1  I4B d   1      -0.560   0.184  -0.477  0.00  0.00    -0.075 A 
ATOM      2  C2  I4B d   1       0.567  -0.406   0.039  0.00  0.00     0.003 A 
ATOM      3  C3  I4B d   1       0.624  -0.760   1.408  0.00  0.00     0.002 A 
ATOM      4  C4  I4B d   1      -0.443  -0.463   2.232  0.00  0.00    -0.004 A 
ATOM      5  C5  I4B d   1      -1.594   0.114   1.703  0.00  0.00     0.002 A 
ATOM      6  C6  I4B d   1      -1.658   0.429   0.338  0.00  0.00     0.003 A 
ENDROOT
BRANCH   1   7
ATOM      7  C1' I4B d   1      -0.573   0.576  -1.920  0.00  0.00     0.060 C 
BRANCH   7   8
ATOM      8  C2' I4B d   1      -1.209   1.947  -2.026  0.00  0.00    -0.013 C 
ATOM      9  C4' I4B d   1      -0.190   2.992  -2.400  0.00  0.00     0.013 C 
ATOM     10  C3' I4B d   1      -2.306   1.871  -3.046  0.00  0.00     0.013 C 
ENDBRANCH   7   8
ENDBRANCH   1   7
TORSDOF 2
ENDMDL
