MODEL 1
REMARK minimizedAffinity -3.22603989
REMARK minimizedRMSD -1
REMARK  2 active torsions:
REMARK  status: ('A' for Active; 'I' for Inactive)
REMARK    1  A    between atoms: C2'_3  and  C1'_4 
REMARK    2  A    between atoms: C1'_4  and  C1_5 
ROOT
ATOM      1  C1  I4B d   1      -0.024  -0.252  -0.498  0.00  0.00    -0.075 A 
ATOM      2  C2  I4B d   1       1.002  -1.122  -0.223  0.00  0.00     0.003 A 
ATOM      3  C3  I4B d   1       1.117  -1.705   1.062  0.00  0.00     0.002 A 
ATOM      4  C4  I4B d   1       0.220  -1.355   2.051  0.00  0.00    -0.004 A 
ATOM      5  C5  I4B d   1      -0.833  -0.491   1.764  0.00  0.00     0.002 A 
ATOM      6  C6  I4B d   1      -0.963   0.055   0.478  0.00  0.00     0.003 A 
ENDROOT
BRANCH   1   7
ATOM      7  C1' I4B d   1      -0.096   0.371  -1.855  0.00  0.00     0.060 C 
BRANCH   7   8
ATOM      8  C2' I4B d   1      -0.922   1.636  -1.745  0.00  0.00    -0.013 C 
ATOM      9  C4' I4B d   1      -0.165   2.829  -2.269  0.00  0.00     0.013 C 
ATOM     10  C3' I4B d   1      -2.196   1.426  -2.507  0.00  0.00     0.013 C 
ENDBRANCH   7   8
ENDBRANCH   1   7
TORSDOF 2
ENDMDL
