MODEL 1
REMARK minimizedAffinity 15.6905479
REMARK minimizedRMSD -1
REMARK  0 active torsions:
REMARK  status: ('A' for Active; 'I' for Inactive)
ROOT
ATOM      1  N1  IND d   1       1.626  -1.985   3.663  0.00  0.00    -0.196 N 
ATOM      2  C2  IND d   1       0.998  -1.099   4.492  0.00  0.00     0.054 A 
ATOM      3  C3  IND d   1      -0.328  -1.069   4.231  0.00  0.00    -0.031 A 
ATOM      4  C4  IND d   1      -1.696  -2.465   2.555  0.00  0.00     0.051 A 
ATOM      5  C5  IND d   1      -1.558  -3.381   1.551  0.00  0.00    -0.031 A 
ATOM      6  C6  IND d   1      -0.327  -3.891   1.193  0.00  0.00     0.015 A 
ATOM      7  C7  IND d   1       0.816  -3.510   1.838  0.00  0.00    -0.016 A 
ATOM      8  C8  IND d   1       0.680  -2.575   2.854  0.00  0.00    -0.047 A 
ATOM      9  C9  IND d   1      -0.561  -2.022   3.192  0.00  0.00    -0.096 A 
ATOM     10  HN1 IND d   1       2.471  -2.146   3.648  0.00  0.00     0.298 HD
ENDROOT
TORSDOF 0
ENDMDL
