MODEL 1
REMARK minimizedAffinity 13.1931992
REMARK minimizedRMSD -1
REMARK  0 active torsions:
REMARK  status: ('A' for Active; 'I' for Inactive)
ROOT
ATOM      1  N1  IND d   1       5.759   2.035   2.483  0.00  0.00    -0.196 N 
ATOM      2  C2  IND d   1       5.884   3.333   2.073  0.00  0.00     0.054 A 
ATOM      3  C3  IND d   1       4.896   3.651   1.208  0.00  0.00    -0.031 A 
ATOM      4  C4  IND d   1       2.907   2.228   0.402  0.00  0.00     0.051 A 
ATOM      5  C5  IND d   1       2.387   0.966   0.472  0.00  0.00    -0.031 A 
ATOM      6  C6  IND d   1       2.975  -0.023   1.234  0.00  0.00     0.015 A 
ATOM      7  C7  IND d   1       4.103   0.217   1.966  0.00  0.00    -0.016 A 
ATOM      8  C8  IND d   1       4.638   1.495   1.891  0.00  0.00    -0.047 A 
ATOM      9  C9  IND d   1       4.070   2.491   1.086  0.00  0.00    -0.096 A 
ATOM     10  HN1 IND d   1       6.291   1.625   3.019  0.00  0.00     0.298 HD
ENDROOT
TORSDOF 0
ENDMDL
