MODEL 1
REMARK minimizedAffinity 15.5637455
REMARK minimizedRMSD -1
REMARK  0 active torsions:
REMARK  status: ('A' for Active; 'I' for Inactive)
ROOT
ATOM      1  N1  IND d   1       3.879  -2.552  -0.975  0.00  0.00    -0.196 N 
ATOM      2  C2  IND d   1       5.002  -1.781  -0.859  0.00  0.00     0.054 A 
ATOM      3  C3  IND d   1       5.983  -2.469  -0.234  0.00  0.00    -0.031 A 
ATOM      4  C4  IND d   1       6.000  -4.907   0.593  0.00  0.00     0.051 A 
ATOM      5  C5  IND d   1       5.193  -5.999   0.742  0.00  0.00    -0.031 A 
ATOM      6  C6  IND d   1       3.880  -6.000   0.315  0.00  0.00     0.015 A 
ATOM      7  C7  IND d   1       3.328  -4.906  -0.289  0.00  0.00    -0.016 A 
ATOM      8  C8  IND d   1       4.143  -3.793  -0.436  0.00  0.00    -0.047 A 
ATOM      9  C9  IND d   1       5.462  -3.772   0.034  0.00  0.00    -0.096 A 
ATOM     10  HN1 IND d   1       3.134  -2.305  -1.325  0.00  0.00     0.298 HD
ENDROOT
TORSDOF 0
ENDMDL
