MODEL 1
REMARK minimizedAffinity 11.3773336
REMARK minimizedRMSD -1
REMARK  0 active torsions:
REMARK  status: ('A' for Active; 'I' for Inactive)
ROOT
ATOM      1  N1  IND d   1      -0.199  -0.292   3.916  0.00  0.00    -0.196 N 
ATOM      2  C2  IND d   1       0.527  -1.370   3.493  0.00  0.00     0.054 A 
ATOM      3  C3  IND d   1       0.008  -1.867   2.347  0.00  0.00    -0.031 A 
ATOM      4  C4  IND d   1      -1.967  -1.005   0.939  0.00  0.00     0.051 A 
ATOM      5  C5  IND d   1      -2.964  -0.070   0.940  0.00  0.00    -0.031 A 
ATOM      6  C6  IND d   1      -3.091   0.859   1.952  0.00  0.00     0.015 A 
ATOM      7  C7  IND d   1      -2.215   0.895   3.000  0.00  0.00    -0.016 A 
ATOM      8  C8  IND d   1      -1.206  -0.057   3.006  0.00  0.00    -0.047 A 
ATOM      9  C9  IND d   1      -1.098  -1.030   2.004  0.00  0.00    -0.096 A 
ATOM     10  HN1 IND d   1      -0.052   0.162   4.631  0.00  0.00     0.298 HD
ENDROOT
TORSDOF 0
ENDMDL
