MODEL 1
REMARK minimizedAffinity 20.0349903
REMARK minimizedRMSD -1
REMARK  0 active torsions:
REMARK  status: ('A' for Active; 'I' for Inactive)
ROOT
ATOM      1  N1  IND d   1       2.321   2.620  -3.998  0.00  0.00    -0.196 N 
ATOM      2  C2  IND d   1       2.019   2.706  -2.668  0.00  0.00     0.054 A 
ATOM      3  C3  IND d   1       3.039   3.278  -1.989  0.00  0.00    -0.031 A 
ATOM      4  C4  IND d   1       5.256   4.240  -2.876  0.00  0.00     0.051 A 
ATOM      5  C5  IND d   1       5.999   4.359  -4.017  0.00  0.00    -0.031 A 
ATOM      6  C6  IND d   1       5.543   3.898  -5.235  0.00  0.00     0.015 A 
ATOM      7  C7  IND d   1       4.317   3.308  -5.360  0.00  0.00    -0.016 A 
ATOM      8  C8  IND d   1       3.563   3.179  -4.202  0.00  0.00    -0.047 A 
ATOM      9  C9  IND d   1       4.039   3.607  -2.956  0.00  0.00    -0.096 A 
ATOM     10  HN1 IND d   1       1.819   2.275  -4.605  0.00  0.00     0.298 HD
ENDROOT
TORSDOF 0
ENDMDL
