MODEL 1
REMARK minimizedAffinity 6.77923584
REMARK minimizedRMSD -1
REMARK  0 active torsions:
REMARK  status: ('A' for Active; 'I' for Inactive)
ROOT
ATOM      1  N1  IND d   1      -1.632   0.394   4.367  0.00  0.00    -0.196 N 
ATOM      2  C2  IND d   1      -2.768   1.098   4.081  0.00  0.00     0.054 A 
ATOM      3  C3  IND d   1      -3.224   0.775   2.850  0.00  0.00    -0.031 A 
ATOM      4  C4  IND d   1      -2.320  -0.958   1.174  0.00  0.00     0.051 A 
ATOM      5  C5  IND d   1      -1.281  -1.823   0.974  0.00  0.00    -0.031 A 
ATOM      6  C6  IND d   1      -0.286  -1.998   1.915  0.00  0.00     0.015 A 
ATOM      7  C7  IND d   1      -0.301  -1.320   3.101  0.00  0.00    -0.016 A 
ATOM      8  C8  IND d   1      -1.351  -0.436   3.305  0.00  0.00    -0.047 A 
ATOM      9  C9  IND d   1      -2.340  -0.223   2.336  0.00  0.00    -0.096 A 
ATOM     10  HN1 IND d   1      -1.170   0.460   5.089  0.00  0.00     0.298 HD
ENDROOT
TORSDOF 0
ENDMDL
