MODEL 1
REMARK minimizedAffinity 14.8926449
REMARK minimizedRMSD -1
REMARK  0 active torsions:
REMARK  status: ('A' for Active; 'I' for Inactive)
ROOT
ATOM      1  N1  IND d   1      -3.904   2.050   5.277  0.00  0.00    -0.196 N 
ATOM      2  C2  IND d   1      -5.207   2.383   5.520  0.00  0.00     0.054 A 
ATOM      3  C3  IND d   1      -5.979   2.069   4.456  0.00  0.00    -0.031 A 
ATOM      4  C4  IND d   1      -5.331   0.908   2.251  0.00  0.00     0.051 A 
ATOM      5  C5  IND d   1      -4.249   0.447   1.554  0.00  0.00    -0.031 A 
ATOM      6  C6  IND d   1      -2.972   0.494   2.074  0.00  0.00     0.015 A 
ATOM      7  C7  IND d   1      -2.729   0.997   3.321  0.00  0.00    -0.016 A 
ATOM      8  C8  IND d   1      -3.824   1.473   4.029  0.00  0.00    -0.047 A 
ATOM      9  C9  IND d   1      -5.116   1.467   3.489  0.00  0.00    -0.096 A 
ATOM     10  HN1 IND d   1      -3.244   2.179   5.814  0.00  0.00     0.298 HD
ENDROOT
TORSDOF 0
ENDMDL
