MODEL 1
REMARK minimizedAffinity 16.4142342
REMARK minimizedRMSD -1
REMARK  0 active torsions:
REMARK  status: ('A' for Active; 'I' for Inactive)
ROOT
ATOM      1  N1  IND d   1      -0.457  -0.041   5.278  0.00  0.00    -0.196 N 
ATOM      2  C2  IND d   1      -1.513   0.772   5.583  0.00  0.00     0.054 A 
ATOM      3  C3  IND d   1      -2.285   0.969   4.491  0.00  0.00    -0.031 A 
ATOM      4  C4  IND d   1      -2.061  -0.025   2.127  0.00  0.00     0.051 A 
ATOM      5  C5  IND d   1      -1.235  -0.794   1.356  0.00  0.00    -0.031 A 
ATOM      6  C6  IND d   1      -0.086  -1.365   1.864  0.00  0.00     0.015 A 
ATOM      7  C7  IND d   1       0.276  -1.197   3.170  0.00  0.00    -0.016 A 
ATOM      8  C8  IND d   1      -0.556  -0.411   3.955  0.00  0.00    -0.047 A 
ATOM      9  C9  IND d   1      -1.701   0.206   3.434  0.00  0.00    -0.096 A 
ATOM     10  HN1 IND d   1       0.165  -0.281   5.821  0.00  0.00     0.298 HD
ENDROOT
TORSDOF 0
ENDMDL
