MODEL 1
REMARK minimizedAffinity 14.1063824
REMARK minimizedRMSD -1
REMARK  0 active torsions:
REMARK  status: ('A' for Active; 'I' for Inactive)
ROOT
ATOM      1  N1  IND d   1      -2.877   5.383  -5.054  0.00  0.00    -0.196 N 
ATOM      2  C2  IND d   1      -1.531   5.302  -5.281  0.00  0.00     0.054 A 
ATOM      3  C3  IND d   1      -0.854   5.335  -4.111  0.00  0.00    -0.031 A 
ATOM      4  C4  IND d   1      -1.756   5.416  -1.701  0.00  0.00     0.051 A 
ATOM      5  C5  IND d   1      -2.916   5.539  -0.989  0.00  0.00    -0.031 A 
ATOM      6  C6  IND d   1      -4.147   5.614  -1.607  0.00  0.00     0.015 A 
ATOM      7  C7  IND d   1      -4.266   5.558  -2.967  0.00  0.00    -0.016 A 
ATOM      8  C8  IND d   1      -3.090   5.441  -3.694  0.00  0.00    -0.047 A 
ATOM      9  C9  IND d   1      -1.834   5.407  -3.074  0.00  0.00    -0.096 A 
ATOM     10  HN1 IND d   1      -3.488   5.396  -5.659  0.00  0.00     0.298 HD
ENDROOT
TORSDOF 0
ENDMDL
