MODEL 1
REMARK minimizedAffinity 17.7341423
REMARK minimizedRMSD -1
REMARK  0 active torsions:
REMARK  status: ('A' for Active; 'I' for Inactive)
ROOT
ATOM      1  N1  IND d   1       3.008   2.385  -3.225  0.00  0.00    -0.196 N 
ATOM      2  C2  IND d   1       2.133   3.428  -3.353  0.00  0.00     0.054 A 
ATOM      3  C3  IND d   1       1.492   3.650  -2.184  0.00  0.00    -0.031 A 
ATOM      4  C4  IND d   1       1.796   2.491   0.094  0.00  0.00     0.051 A 
ATOM      5  C5  IND d   1       2.454   1.455   0.697  0.00  0.00    -0.031 A 
ATOM      6  C6  IND d   1       3.350   0.662   0.009  0.00  0.00     0.015 A 
ATOM      7  C7  IND d   1       3.632   0.884  -1.309  0.00  0.00    -0.016 A 
ATOM      8  C8  IND d   1       2.960   1.930  -1.926  0.00  0.00    -0.047 A 
ATOM      9  C9  IND d   1       2.018   2.711  -1.244  0.00  0.00    -0.096 A 
ATOM     10  HN1 IND d   1       3.504   2.067  -3.851  0.00  0.00     0.298 HD
ENDROOT
TORSDOF 0
ENDMDL
