MODEL 1
REMARK minimizedAffinity 7.86388874
REMARK minimizedRMSD -1
REMARK  0 active torsions:
REMARK  status: ('A' for Active; 'I' for Inactive)
ROOT
ATOM      1  N1  IND d   1      -4.109  -0.532  -0.335  0.00  0.00    -0.196 N 
ATOM      2  C2  IND d   1      -5.039   0.466  -0.243  0.00  0.00     0.054 A 
ATOM      3  C3  IND d   1      -4.856   1.176   0.892  0.00  0.00    -0.031 A 
ATOM      4  C4  IND d   1      -3.031   0.941   2.693  0.00  0.00     0.051 A 
ATOM      5  C5  IND d   1      -1.979   0.151   3.064  0.00  0.00    -0.031 A 
ATOM      6  C6  IND d   1      -1.574  -0.927   2.304  0.00  0.00     0.015 A 
ATOM      7  C7  IND d   1      -2.200  -1.250   1.134  0.00  0.00    -0.016 A 
ATOM      8  C8  IND d   1      -3.273  -0.454   0.758  0.00  0.00    -0.047 A 
ATOM      9  C9  IND d   1      -3.716   0.616   1.546  0.00  0.00    -0.096 A 
ATOM     10  HN1 IND d   1      -4.054  -1.110  -0.969  0.00  0.00     0.298 HD
ENDROOT
TORSDOF 0
ENDMDL
