MODEL 1
REMARK minimizedAffinity 17.8358059
REMARK minimizedRMSD -1
REMARK  0 active torsions:
REMARK  status: ('A' for Active; 'I' for Inactive)
ROOT
ATOM      1  N1  IND d   1      -1.206   0.308   4.355  0.00  0.00    -0.196 N 
ATOM      2  C2  IND d   1      -2.261   1.142   4.602  0.00  0.00     0.054 A 
ATOM      3  C3  IND d   1      -3.042   1.249   3.503  0.00  0.00    -0.031 A 
ATOM      4  C4  IND d   1      -2.834   0.066   1.226  0.00  0.00     0.051 A 
ATOM      5  C5  IND d   1      -2.013  -0.762   0.513  0.00  0.00    -0.031 A 
ATOM      6  C6  IND d   1      -0.859  -1.288   1.057  0.00  0.00     0.015 A 
ATOM      7  C7  IND d   1      -0.487  -1.014   2.342  0.00  0.00    -0.016 A 
ATOM      8  C8  IND d   1      -1.315  -0.168   3.067  0.00  0.00    -0.047 A 
ATOM      9  C9  IND d   1      -2.465   0.403   2.507  0.00  0.00    -0.096 A 
ATOM     10  HN1 IND d   1      -0.579   0.114   4.911  0.00  0.00     0.298 HD
ENDROOT
TORSDOF 0
ENDMDL
