MODEL 1
REMARK minimizedAffinity 21.087183
REMARK minimizedRMSD -1
REMARK  0 active torsions:
REMARK  status: ('A' for Active; 'I' for Inactive)
ROOT
ATOM      1  N1  IND d   1       5.034   5.338  -1.778  0.00  0.00    -0.196 N 
ATOM      2  C2  IND d   1       6.000   5.852  -2.598  0.00  0.00     0.054 A 
ATOM      3  C3  IND d   1       6.000   5.208  -3.786  0.00  0.00    -0.031 A 
ATOM      4  C4  IND d   1       4.437   3.348  -4.638  0.00  0.00     0.051 A 
ATOM      5  C5  IND d   1       3.423   2.525  -4.235  0.00  0.00    -0.031 A 
ATOM      6  C6  IND d   1       2.881   2.601  -2.969  0.00  0.00     0.015 A 
ATOM      7  C7  IND d   1       3.328   3.515  -2.057  0.00  0.00    -0.016 A 
ATOM      8  C8  IND d   1       4.362   4.347  -2.459  0.00  0.00    -0.047 A 
ATOM      9  C9  IND d   1       4.945   4.246  -3.729  0.00  0.00    -0.096 A 
ATOM     10  HN1 IND d   1       4.874   5.591  -0.972  0.00  0.00     0.298 HD
ENDROOT
TORSDOF 0
ENDMDL
