MODEL 1
REMARK minimizedAffinity 18.6778984
REMARK minimizedRMSD -1
REMARK  0 active torsions:
REMARK  status: ('A' for Active; 'I' for Inactive)
ROOT
ATOM      1  N1  IND d   1       2.132   1.410   0.797  0.00  0.00    -0.196 N 
ATOM      2  C2  IND d   1       1.905   0.710  -0.354  0.00  0.00     0.054 A 
ATOM      3  C3  IND d   1       3.005   0.727  -1.140  0.00  0.00    -0.031 A 
ATOM      4  C4  IND d   1       5.321   1.757  -0.690  0.00  0.00     0.051 A 
ATOM      5  C5  IND d   1       6.000   2.529   0.211  0.00  0.00    -0.031 A 
ATOM      6  C6  IND d   1       5.413   2.974   1.378  0.00  0.00     0.015 A 
ATOM      7  C7  IND d   1       4.123   2.653   1.695  0.00  0.00    -0.016 A 
ATOM      8  C8  IND d   1       3.429   1.875   0.779  0.00  0.00    -0.047 A 
ATOM      9  C9  IND d   1       4.005   1.456  -0.427  0.00  0.00    -0.096 A 
ATOM     10  HN1 IND d   1       1.561   1.538   1.427  0.00  0.00     0.298 HD
ENDROOT
TORSDOF 0
ENDMDL
