MODEL 1
REMARK minimizedAffinity 15.8212585
REMARK minimizedRMSD -1
REMARK  0 active torsions:
REMARK  status: ('A' for Active; 'I' for Inactive)
ROOT
ATOM      1  N1  IND d   1       2.835   2.897  -1.570  0.00  0.00    -0.196 N 
ATOM      2  C2  IND d   1       2.078   2.254  -2.509  0.00  0.00     0.054 A 
ATOM      3  C3  IND d   1       2.664   2.340  -3.725  0.00  0.00    -0.031 A 
ATOM      4  C4  IND d   1       4.916   3.397  -4.384  0.00  0.00     0.051 A 
ATOM      5  C5  IND d   1       5.949   4.135  -3.878  0.00  0.00    -0.031 A 
ATOM      6  C6  IND d   1       5.999   4.503  -2.549  0.00  0.00     0.015 A 
ATOM      7  C7  IND d   1       5.019   4.136  -1.670  0.00  0.00    -0.016 A 
ATOM      8  C8  IND d   1       3.965   3.392  -2.183  0.00  0.00    -0.047 A 
ATOM      9  C9  IND d   1       3.888   3.052  -3.539  0.00  0.00    -0.096 A 
ATOM     10  HN1 IND d   1       2.639   2.978  -0.737  0.00  0.00     0.298 HD
ENDROOT
TORSDOF 0
ENDMDL
