MODEL 1
REMARK minimizedAffinity 14.0725193
REMARK minimizedRMSD -1
REMARK  0 active torsions:
REMARK  status: ('A' for Active; 'I' for Inactive)
ROOT
ATOM      1  N1  IND d   1      -5.148  -4.438  -3.996  0.00  0.00    -0.196 N 
ATOM      2  C2  IND d   1      -5.962  -4.951  -4.967  0.00  0.00     0.054 A 
ATOM      3  C3  IND d   1      -5.227  -5.587  -5.907  0.00  0.00    -0.031 A 
ATOM      4  C4  IND d   1      -2.687  -5.996  -5.999  0.00  0.00     0.051 A 
ATOM      5  C5  IND d   1      -1.522  -5.687  -5.355  0.00  0.00    -0.031 A 
ATOM      6  C6  IND d   1      -1.507  -4.932  -4.199  0.00  0.00     0.015 A 
ATOM      7  C7  IND d   1      -2.661  -4.467  -3.636  0.00  0.00    -0.016 A 
ATOM      8  C8  IND d   1      -3.845  -4.773  -4.292  0.00  0.00    -0.047 A 
ATOM      9  C9  IND d   1      -3.864  -5.502  -5.488  0.00  0.00    -0.096 A 
ATOM     10  HN1 IND d   1      -5.407  -3.982  -3.314  0.00  0.00     0.298 HD
ENDROOT
TORSDOF 0
ENDMDL
