MODEL 1
REMARK minimizedAffinity 14.6167221
REMARK minimizedRMSD -1
REMARK  0 active torsions:
REMARK  status: ('A' for Active; 'I' for Inactive)
ROOT
ATOM      1  N1  IND d   1      -5.332   0.239   1.500  0.00  0.00    -0.196 N 
ATOM      2  C2  IND d   1      -5.531   0.800   0.269  0.00  0.00     0.054 A 
ATOM      3  C3  IND d   1      -4.351   0.957  -0.372  0.00  0.00    -0.031 A 
ATOM      4  C4  IND d   1      -1.983   0.270   0.368  0.00  0.00     0.051 A 
ATOM      5  C5  IND d   1      -1.293  -0.243   1.430  0.00  0.00    -0.031 A 
ATOM      6  C6  IND d   1      -1.928  -0.633   2.592  0.00  0.00     0.015 A 
ATOM      7  C7  IND d   1      -3.283  -0.533   2.732  0.00  0.00    -0.016 A 
ATOM      8  C8  IND d   1      -3.986  -0.006   1.658  0.00  0.00    -0.047 A 
ATOM      9  C9  IND d   1      -3.343   0.431   0.493  0.00  0.00    -0.096 A 
ATOM     10  HN1 IND d   1      -5.945   0.068   2.078  0.00  0.00     0.298 HD
ENDROOT
TORSDOF 0
ENDMDL
