MODEL 1
REMARK minimizedAffinity 2.08273935
REMARK minimizedRMSD -1
REMARK  1 active torsions:
REMARK  status: ('A' for Active; 'I' for Inactive)
REMARK    1  A    between atoms: C1_2  and  C2_3 
ROOT
ATOM      1  C2  UNL d   1       0.802   0.053  -0.125  0.00  0.00    -0.073 A 
ATOM      2  C3  UNL d   1       0.233  -0.503  -1.277  0.00  0.00    -0.002 A 
ATOM      3  C4  UNL d   1      -1.152  -0.632  -1.387  0.00  0.00     0.004 A 
ATOM      4  C5  UNL d   1      -1.982  -0.201  -0.352  0.00  0.00    -0.004 A 
ATOM      5  C6  UNL d   1      -1.433   0.369   0.802  0.00  0.00    -0.075 A 
ATOM      6  C7  UNL d   1      -2.311   0.836   1.925  0.00  0.00     0.076 C 
ATOM      7  C8  UNL d   1      -0.041   0.493   0.906  0.00  0.00     0.001 A 
ENDROOT
BRANCH   1   8
ATOM      8  C1  UNL d   1       2.297   0.201  -0.005  0.00  0.00     0.053 C 
ATOM      9  C   UNL d   1       2.835   1.304  -0.902  0.00  0.00     0.018 C 
ENDBRANCH   1   8
TORSDOF 1
ENDMDL
