MODEL 1
REMARK minimizedAffinity 8.0232439
REMARK minimizedRMSD -1
REMARK  1 active torsions:
REMARK  status: ('A' for Active; 'I' for Inactive)
REMARK    1  A    between atoms: C1_2  and  C2_3 
ROOT
ATOM      1  C2  UNL d   1      -0.239  -0.655  -2.191  0.00  0.00    -0.073 A 
ATOM      2  C3  UNL d   1      -1.141  -0.991  -3.207  0.00  0.00    -0.002 A 
ATOM      3  C4  UNL d   1      -0.993  -0.456  -4.487  0.00  0.00     0.004 A 
ATOM      4  C5  UNL d   1       0.060   0.414  -4.767  0.00  0.00    -0.004 A 
ATOM      5  C6  UNL d   1       0.979   0.753  -3.768  0.00  0.00    -0.075 A 
ATOM      6  C7  UNL d   1       2.117   1.690  -4.052  0.00  0.00     0.076 C 
ATOM      7  C8  UNL d   1       0.823   0.214  -2.484  0.00  0.00     0.001 A 
ENDROOT
BRANCH   1   8
ATOM      8  C1  UNL d   1      -0.390  -1.236  -0.809  0.00  0.00     0.053 C 
ATOM      9  C   UNL d   1      -1.611  -0.684  -0.090  0.00  0.00     0.018 C 
ENDBRANCH   1   8
TORSDOF 1
ENDMDL
