MODEL 1
REMARK minimizedAffinity -5.82897091
REMARK minimizedRMSD -1
REMARK  1 active torsions:
REMARK  status: ('A' for Active; 'I' for Inactive)
REMARK    1  A    between atoms: C1_2  and  C2_3 
ROOT
ATOM      1  C2  UNL d   1       0.192  -0.044   0.338  0.00  0.00    -0.073 A 
ATOM      2  C3  UNL d   1      -1.135   0.250   0.007  0.00  0.00    -0.002 A 
ATOM      3  C4  UNL d   1      -1.988   0.821   0.953  0.00  0.00     0.004 A 
ATOM      4  C5  UNL d   1      -1.521   1.111   2.235  0.00  0.00    -0.004 A 
ATOM      5  C6  UNL d   1      -0.194   0.836   2.581  0.00  0.00    -0.075 A 
ATOM      6  C7  UNL d   1       0.324   1.139   3.957  0.00  0.00     0.076 C 
ATOM      7  C8  UNL d   1       0.655   0.260   1.627  0.00  0.00     0.001 A 
ENDROOT
BRANCH   1   8
ATOM      8  C1  UNL d   1       1.118  -0.655  -0.681  0.00  0.00     0.053 C 
ATOM      9  C   UNL d   1       0.769  -0.226  -2.098  0.00  0.00     0.018 C 
ENDBRANCH   1   8
TORSDOF 1
ENDMDL
