MODEL 1
REMARK minimizedAffinity -3.39320874
REMARK minimizedRMSD -1
REMARK  1 active torsions:
REMARK  status: ('A' for Active; 'I' for Inactive)
REMARK    1  A    between atoms: C1_2  and  C2_3 
ROOT
ATOM      1  C2  UNL d   1      -0.500   0.466   0.584  0.00  0.00    -0.073 A 
ATOM      2  C3  UNL d   1      -1.240   1.293   1.437  0.00  0.00    -0.002 A 
ATOM      3  C4  UNL d   1      -0.713   1.690   2.666  0.00  0.00     0.004 A 
ATOM      4  C5  UNL d   1       0.561   1.271   3.051  0.00  0.00    -0.004 A 
ATOM      5  C6  UNL d   1       1.321   0.455   2.207  0.00  0.00    -0.075 A 
ATOM      6  C7  UNL d   1       2.692  -0.005   2.608  0.00  0.00     0.076 C 
ATOM      7  C8  UNL d   1       0.783   0.059   0.976  0.00  0.00     0.001 A 
ENDROOT
BRANCH   1   8
ATOM      8  C1  UNL d   1      -1.064   0.040  -0.747  0.00  0.00     0.053 C 
ATOM      9  C   UNL d   1      -0.049  -0.733  -1.574  0.00  0.00     0.018 C 
ENDBRANCH   1   8
TORSDOF 1
ENDMDL
