MODEL 1
REMARK minimizedAffinity -0.442152321
REMARK minimizedRMSD -1
REMARK  1 active torsions:
REMARK  status: ('A' for Active; 'I' for Inactive)
REMARK    1  A    between atoms: C1_2  and  C2_3 
ROOT
ATOM      1  C2  UNL d   1       0.709   0.071  -1.022  0.00  0.00    -0.073 A 
ATOM      2  C3  UNL d   1       1.906  -0.366  -0.445  0.00  0.00    -0.002 A 
ATOM      3  C4  UNL d   1       2.003  -0.530   0.938  0.00  0.00     0.004 A 
ATOM      4  C5  UNL d   1       0.903  -0.268   1.755  0.00  0.00    -0.004 A 
ATOM      5  C6  UNL d   1      -0.306   0.157   1.195  0.00  0.00    -0.075 A 
ATOM      6  C7  UNL d   1      -1.497   0.446   2.060  0.00  0.00     0.076 C 
ATOM      7  C8  UNL d   1      -0.394   0.323  -0.194  0.00  0.00     0.001 A 
ENDROOT
BRANCH   1   8
ATOM      8  C1  UNL d   1       0.598   0.244  -2.515  0.00  0.00     0.053 C 
ATOM      9  C   UNL d   1       1.755   1.051  -3.083  0.00  0.00     0.018 C 
ENDBRANCH   1   8
TORSDOF 1
ENDMDL
