MODEL 1
REMARK minimizedAffinity -1.81096935
REMARK minimizedRMSD -1
REMARK  1 active torsions:
REMARK  status: ('A' for Active; 'I' for Inactive)
REMARK    1  A    between atoms: C1_2  and  C2_3 
ROOT
ATOM      1  C2  UNL d   1      -0.066  -0.343  -0.453  0.00  0.00    -0.073 A 
ATOM      2  C3  UNL d   1      -1.423  -0.294  -0.794  0.00  0.00    -0.002 A 
ATOM      3  C4  UNL d   1      -2.372   0.111   0.146  0.00  0.00     0.004 A 
ATOM      4  C5  UNL d   1      -1.974   0.475   1.433  0.00  0.00    -0.004 A 
ATOM      5  C6  UNL d   1      -0.622   0.443   1.789  0.00  0.00    -0.075 A 
ATOM      6  C7  UNL d   1      -0.179   0.830   3.169  0.00  0.00     0.076 C 
ATOM      7  C8  UNL d   1       0.324   0.034   0.840  0.00  0.00     0.001 A 
ENDROOT
BRANCH   1   8
ATOM      8  C1  UNL d   1       0.963  -0.773  -1.466  0.00  0.00     0.053 C 
ATOM      9  C   UNL d   1       0.807  -0.033  -2.785  0.00  0.00     0.018 C 
ENDBRANCH   1   8
TORSDOF 1
ENDMDL
