MODEL 1
REMARK minimizedAffinity 3.5198524
REMARK minimizedRMSD -1
REMARK  0 active torsions:
REMARK  status: ('A' for Active; 'I' for Inactive)
ROOT
ATOM      1  C1  BNZ d   1       4.211  -3.222   4.819  0.00  0.00     0.000 A 
ATOM      2  C2  BNZ d   1       4.144  -3.918   5.996  0.00  0.00     0.000 A 
ATOM      3  C3  BNZ d   1       4.093  -5.284   5.999  0.00  0.00     0.000 A 
ATOM      4  C4  BNZ d   1       4.069  -5.949   4.826  0.00  0.00     0.000 A 
ATOM      5  C5  BNZ d   1       4.126  -5.261   3.631  0.00  0.00     0.000 A 
ATOM      6  C6  BNZ d   1       4.217  -3.888   3.632  0.00  0.00     0.000 A 
ENDROOT
TORSDOF 0
ENDMDL
