MODEL 1
REMARK minimizedAffinity -0.788686395
REMARK minimizedRMSD -1
REMARK  0 active torsions:
REMARK  status: ('A' for Active; 'I' for Inactive)
ROOT
ATOM      1  C1  BNZ d   1      -3.704   1.455   5.006  0.00  0.00     0.000 A 
ATOM      2  C2  BNZ d   1      -3.407   1.366   3.673  0.00  0.00     0.000 A 
ATOM      3  C3  BNZ d   1      -4.392   1.451   2.729  0.00  0.00     0.000 A 
ATOM      4  C4  BNZ d   1      -5.676   1.585   3.121  0.00  0.00     0.000 A 
ATOM      5  C5  BNZ d   1      -5.992   1.667   4.462  0.00  0.00     0.000 A 
ATOM      6  C6  BNZ d   1      -4.994   1.620   5.408  0.00  0.00     0.000 A 
ENDROOT
TORSDOF 0
ENDMDL
