MODEL 1
REMARK minimizedAffinity 4.09061861
REMARK minimizedRMSD -1
REMARK  0 active torsions:
REMARK  status: ('A' for Active; 'I' for Inactive)
ROOT
ATOM      1  C1  BNZ d   1       4.960  -2.483   1.246  0.00  0.00     0.000 A 
ATOM      2  C2  BNZ d   1       3.915  -2.986   1.974  0.00  0.00     0.000 A 
ATOM      3  C3  BNZ d   1       3.894  -2.876   3.336  0.00  0.00     0.000 A 
ATOM      4  C4  BNZ d   1       4.935  -2.299   3.971  0.00  0.00     0.000 A 
ATOM      5  C5  BNZ d   1       6.000  -1.795   3.252  0.00  0.00     0.000 A 
ATOM      6  C6  BNZ d   1       6.000  -1.874   1.878  0.00  0.00     0.000 A 
ENDROOT
TORSDOF 0
ENDMDL
