MODEL 1
REMARK minimizedAffinity 6.67702579
REMARK minimizedRMSD -1
REMARK  0 active torsions:
REMARK  status: ('A' for Active; 'I' for Inactive)
ROOT
ATOM      1  C1  BNZ d   1      -4.116  -1.350  -2.543  0.00  0.00     0.000 A 
ATOM      2  C2  BNZ d   1      -3.382  -1.102  -1.414  0.00  0.00     0.000 A 
ATOM      3  C3  BNZ d   1      -2.962   0.165  -1.117  0.00  0.00     0.000 A 
ATOM      4  C4  BNZ d   1      -3.242   1.173  -1.968  0.00  0.00     0.000 A 
ATOM      5  C5  BNZ d   1      -3.973   0.936  -3.116  0.00  0.00     0.000 A 
ATOM      6  C6  BNZ d   1      -4.427  -0.333  -3.391  0.00  0.00     0.000 A 
ENDROOT
TORSDOF 0
ENDMDL
