MODEL 1
REMARK minimizedAffinity 0.918476999
REMARK minimizedRMSD -1
REMARK  0 active torsions:
REMARK  status: ('A' for Active; 'I' for Inactive)
ROOT
ATOM      1  C1  BNZ d   1       2.056  -3.275  -0.592  0.00  0.00     0.000 A 
ATOM      2  C2  BNZ d   1       2.372  -1.946  -0.506  0.00  0.00     0.000 A 
ATOM      3  C3  BNZ d   1       1.984  -1.203   0.574  0.00  0.00     0.000 A 
ATOM      4  C4  BNZ d   1       1.247  -1.779   1.545  0.00  0.00     0.000 A 
ATOM      5  C5  BNZ d   1       0.912  -3.116   1.468  0.00  0.00     0.000 A 
ATOM      6  C6  BNZ d   1       1.337  -3.871   0.399  0.00  0.00     0.000 A 
ENDROOT
TORSDOF 0
ENDMDL
