MODEL 1
REMARK minimizedAffinity 2.22598886
REMARK minimizedRMSD -1
REMARK  0 active torsions:
REMARK  status: ('A' for Active; 'I' for Inactive)
ROOT
ATOM      1  C1  BNZ d   1      -1.371   2.109  -4.671  0.00  0.00     0.000 A 
ATOM      2  C2  BNZ d   1      -2.235   1.653  -5.631  0.00  0.00     0.000 A 
ATOM      3  C3  BNZ d   1      -3.588   1.751  -5.458  0.00  0.00     0.000 A 
ATOM      4  C4  BNZ d   1      -4.074   2.266  -4.310  0.00  0.00     0.000 A 
ATOM      5  C5  BNZ d   1      -3.215   2.721  -3.329  0.00  0.00     0.000 A 
ATOM      6  C6  BNZ d   1      -1.854   2.657  -3.524  0.00  0.00     0.000 A 
ENDROOT
TORSDOF 0
ENDMDL
