MODEL 1
REMARK minimizedAffinity -4.23664713
REMARK minimizedRMSD -1
REMARK  0 active torsions:
REMARK  status: ('A' for Active; 'I' for Inactive)
ROOT
ATOM      1  C2' OXE d   1       0.724  -0.573  -0.712  0.00  0.00     0.078 C 
ATOM      2  C1' OXE d   1      -0.484  -0.769   1.815  0.00  0.00     0.078 C 
ATOM      3  C1  OXE d   1      -0.544   0.562   1.108  0.00  0.00    -0.078 A 
ATOM      4  C2  OXE d   1       0.090   0.662  -0.107  0.00  0.00    -0.078 A 
ATOM      5  C3  OXE d   1       0.019   1.852  -0.826  0.00  0.00     0.003 A 
ATOM      6  C4  OXE d   1      -0.560   2.991  -0.255  0.00  0.00    -0.002 A 
ATOM      7  C5  OXE d   1      -1.176   2.922   0.999  0.00  0.00    -0.002 A 
ATOM      8  C6  OXE d   1      -1.214   1.707   1.673  0.00  0.00     0.003 A 
ENDROOT
TORSDOF 0
ENDMDL
