MODEL 1
REMARK minimizedAffinity -4.25045395
REMARK minimizedRMSD -1
REMARK  0 active torsions:
REMARK  status: ('A' for Active; 'I' for Inactive)
ROOT
ATOM      1  C2' OXE d   1       0.211  -1.151   2.112  0.00  0.00     0.078 C 
ATOM      2  C1' OXE d   1       0.857  -0.916  -0.610  0.00  0.00     0.078 C 
ATOM      3  C1  OXE d   1      -0.073   0.112  -0.016  0.00  0.00    -0.078 A 
ATOM      4  C2  OXE d   1      -0.421  -0.037   1.305  0.00  0.00    -0.078 A 
ATOM      5  C3  OXE d   1      -1.232   0.914   1.916  0.00  0.00     0.003 A 
ATOM      6  C4  OXE d   1      -1.820   1.936   1.160  0.00  0.00    -0.002 A 
ATOM      7  C5  OXE d   1      -1.510   2.083  -0.196  0.00  0.00    -0.002 A 
ATOM      8  C6  OXE d   1      -0.607   1.207  -0.788  0.00  0.00     0.003 A 
ENDROOT
TORSDOF 0
ENDMDL
