MODEL 1
REMARK minimizedAffinity -3.43327093
REMARK minimizedRMSD -1
REMARK  0 active torsions:
REMARK  status: ('A' for Active; 'I' for Inactive)
ROOT
ATOM      1  C2' OXE d   1      -2.053   2.307   1.439  0.00  0.00     0.078 C 
ATOM      2  C1' OXE d   1      -0.689   2.791  -0.966  0.00  0.00     0.078 C 
ATOM      3  C1  OXE d   1      -0.531   1.433  -0.329  0.00  0.00    -0.078 A 
ATOM      4  C2  OXE d   1      -1.165   1.221   0.872  0.00  0.00    -0.078 A 
ATOM      5  C3  OXE d   1      -1.097  -0.032   1.475  0.00  0.00     0.003 A 
ATOM      6  C4  OXE d   1      -0.265  -1.027   0.949  0.00  0.00    -0.002 A 
ATOM      7  C5  OXE d   1       0.421  -0.818  -0.252  0.00  0.00    -0.002 A 
ATOM      8  C6  OXE d   1       0.265   0.389  -0.925  0.00  0.00     0.003 A 
ENDROOT
TORSDOF 0
ENDMDL
