MODEL 1
REMARK minimizedAffinity -4.38012123
REMARK minimizedRMSD -1
REMARK  0 active torsions:
REMARK  status: ('A' for Active; 'I' for Inactive)
ROOT
ATOM      1  C2' OXE d   1      -0.177  -0.477   1.653  0.00  0.00     0.078 C 
ATOM      2  C1' OXE d   1      -1.659   1.861   2.121  0.00  0.00     0.078 C 
ATOM      3  C1  OXE d   1      -0.846   1.785   0.853  0.00  0.00    -0.078 A 
ATOM      4  C2  OXE d   1      -0.087   0.656   0.655  0.00  0.00    -0.078 A 
ATOM      5  C3  OXE d   1       0.638   0.512  -0.524  0.00  0.00     0.003 A 
ATOM      6  C4  OXE d   1       0.724   1.569  -1.438  0.00  0.00    -0.002 A 
ATOM      7  C5  OXE d   1      -0.009   2.743  -1.236  0.00  0.00    -0.002 A 
ATOM      8  C6  OXE d   1      -0.831   2.850  -0.119  0.00  0.00     0.003 A 
ENDROOT
TORSDOF 0
ENDMDL
