MODEL 1
REMARK minimizedAffinity -2.4886477
REMARK minimizedRMSD -1
REMARK  0 active torsions:
REMARK  status: ('A' for Active; 'I' for Inactive)
ROOT
ATOM      1  C2' OXE d   1       0.690  -1.176  -0.613  0.00  0.00     0.078 C 
ATOM      2  C1' OXE d   1       0.674  -1.327   2.190  0.00  0.00     0.078 C 
ATOM      3  C1  OXE d   1      -0.011  -0.148   1.545  0.00  0.00    -0.078 A 
ATOM      4  C2  OXE d   1       0.042  -0.058   0.175  0.00  0.00    -0.078 A 
ATOM      5  C3  OXE d   1      -0.620   0.980  -0.473  0.00  0.00     0.003 A 
ATOM      6  C4  OXE d   1      -1.209   2.015   0.263  0.00  0.00    -0.002 A 
ATOM      7  C5  OXE d   1      -1.240   1.963   1.661  0.00  0.00    -0.002 A 
ATOM      8  C6  OXE d   1      -0.684   0.869   2.315  0.00  0.00     0.003 A 
ENDROOT
TORSDOF 0
ENDMDL
