MODEL 1
REMARK minimizedAffinity -3.88155103
REMARK minimizedRMSD -1
REMARK  0 active torsions:
REMARK  status: ('A' for Active; 'I' for Inactive)
ROOT
ATOM      1  C2' OXE d   1      -2.193   1.797   1.061  0.00  0.00     0.078 C 
ATOM      2  C1' OXE d   1      -0.845   2.178  -1.371  0.00  0.00     0.078 C 
ATOM      3  C1  OXE d   1      -0.403   1.034  -0.494  0.00  0.00    -0.078 A 
ATOM      4  C2  OXE d   1      -1.037   0.883   0.716  0.00  0.00    -0.078 A 
ATOM      5  C3  OXE d   1      -0.705  -0.189   1.539  0.00  0.00     0.003 A 
ATOM      6  C4  OXE d   1       0.372  -1.024   1.216  0.00  0.00    -0.002 A 
ATOM      7  C5  OXE d   1       1.057  -0.864   0.007  0.00  0.00    -0.002 A 
ATOM      8  C6  OXE d   1       0.655   0.132  -0.877  0.00  0.00     0.003 A 
ENDROOT
TORSDOF 0
ENDMDL
