MODEL 1
REMARK minimizedAffinity -4.28866005
REMARK minimizedRMSD -1
REMARK  0 active torsions:
REMARK  status: ('A' for Active; 'I' for Inactive)
ROOT
ATOM      1  C2' OXE d   1      -2.043   2.103   1.098  0.00  0.00     0.078 C 
ATOM      2  C1' OXE d   1      -0.511   2.482  -1.224  0.00  0.00     0.078 C 
ATOM      3  C1  OXE d   1      -0.298   1.211  -0.440  0.00  0.00    -0.078 A 
ATOM      4  C2  OXE d   1      -1.018   1.055   0.720  0.00  0.00    -0.078 A 
ATOM      5  C3  OXE d   1      -0.900  -0.123   1.452  0.00  0.00     0.003 A 
ATOM      6  C4  OXE d   1       0.057  -1.083   1.101  0.00  0.00    -0.002 A 
ATOM      7  C5  OXE d   1       0.829  -0.925  -0.054  0.00  0.00    -0.002 A 
ATOM      8  C6  OXE d   1       0.634   0.193  -0.857  0.00  0.00     0.003 A 
ENDROOT
TORSDOF 0
ENDMDL
