MODEL 1
REMARK minimizedAffinity -4.51791048
REMARK minimizedRMSD -1
REMARK  0 active torsions:
REMARK  status: ('A' for Active; 'I' for Inactive)
ROOT
ATOM      1  C2' OXE d   1       0.365  -1.496   1.907  0.00  0.00     0.078 C 
ATOM      2  C1' OXE d   1       0.976  -0.966  -0.781  0.00  0.00     0.078 C 
ATOM      3  C1  OXE d   1       0.040  -0.019  -0.072  0.00  0.00    -0.078 A 
ATOM      4  C2  OXE d   1      -0.290  -0.312   1.229  0.00  0.00    -0.078 A 
ATOM      5  C3  OXE d   1      -1.106   0.558   1.946  0.00  0.00     0.003 A 
ATOM      6  C4  OXE d   1      -1.717   1.645   1.308  0.00  0.00    -0.002 A 
ATOM      7  C5  OXE d   1      -1.425   1.939  -0.028  0.00  0.00    -0.002 A 
ATOM      8  C6  OXE d   1      -0.518   1.143  -0.719  0.00  0.00     0.003 A 
ENDROOT
TORSDOF 0
ENDMDL
