MODEL 1
REMARK minimizedAffinity -3.78328753
REMARK minimizedRMSD -1
REMARK  0 active torsions:
REMARK  status: ('A' for Active; 'I' for Inactive)
ROOT
ATOM      1  C2' OXE d   1      -0.746   2.267  -1.251  0.00  0.00     0.078 C 
ATOM      2  C1' OXE d   1      -2.215   2.236   1.141  0.00  0.00     0.078 C 
ATOM      3  C1  OXE d   1      -1.233   1.116   0.904  0.00  0.00    -0.078 A 
ATOM      4  C2  OXE d   1      -0.553   1.114  -0.290  0.00  0.00    -0.078 A 
ATOM      5  C3  OXE d   1       0.405   0.134  -0.535  0.00  0.00     0.003 A 
ATOM      6  C4  OXE d   1       0.571  -0.934   0.355  0.00  0.00    -0.002 A 
ATOM      7  C5  OXE d   1      -0.141  -0.972   1.559  0.00  0.00    -0.002 A 
ATOM      8  C6  OXE d   1      -1.014   0.065   1.867  0.00  0.00     0.003 A 
ENDROOT
TORSDOF 0
ENDMDL
