MODEL 1
REMARK minimizedAffinity -6.1073966
REMARK minimizedRMSD -1
REMARK  0 active torsions:
REMARK  status: ('A' for Active; 'I' for Inactive)
ROOT
ATOM      1  C2' OXE d   1       0.233  -0.894   1.997  0.00  0.00     0.078 C 
ATOM      2  C1' OXE d   1       0.554  -0.626  -0.779  0.00  0.00     0.078 C 
ATOM      3  C1  OXE d   1      -0.274   0.412  -0.063  0.00  0.00    -0.078 A 
ATOM      4  C2  OXE d   1      -0.465   0.247   1.288  0.00  0.00    -0.078 A 
ATOM      5  C3  OXE d   1      -1.174   1.205   2.006  0.00  0.00     0.003 A 
ATOM      6  C4  OXE d   1      -1.825   2.251   1.341  0.00  0.00    -0.002 A 
ATOM      7  C5  OXE d   1      -1.677   2.416  -0.041  0.00  0.00    -0.002 A 
ATOM      8  C6  OXE d   1      -0.872   1.531  -0.749  0.00  0.00     0.003 A 
ENDROOT
TORSDOF 0
ENDMDL
