MODEL 1
REMARK minimizedAffinity -2.63729143
REMARK minimizedRMSD -1
REMARK  0 active torsions:
REMARK  status: ('A' for Active; 'I' for Inactive)
ROOT
ATOM      1  C2' OXE d   1      -0.542   0.577  -0.874  0.00  0.00     0.078 C 
ATOM      2  C1' OXE d   1       0.956  -0.974   0.924  0.00  0.00     0.078 C 
ATOM      3  C1  OXE d   1       0.685  -1.548  -0.444  0.00  0.00    -0.078 A 
ATOM      4  C2  OXE d   1      -0.088  -0.803  -1.301  0.00  0.00    -0.078 A 
ATOM      5  C3  OXE d   1      -0.322  -1.262  -2.594  0.00  0.00     0.003 A 
ATOM      6  C4  OXE d   1       0.093  -2.543  -2.978  0.00  0.00    -0.002 A 
ATOM      7  C5  OXE d   1       0.848  -3.335  -2.106  0.00  0.00    -0.002 A 
ATOM      8  C6  OXE d   1       1.188  -2.836  -0.854  0.00  0.00     0.003 A 
ENDROOT
TORSDOF 0
ENDMDL
