MODEL 1
REMARK minimizedAffinity 1.01772988
REMARK minimizedRMSD -1
REMARK  0 active torsions:
REMARK  status: ('A' for Active; 'I' for Inactive)
ROOT
ATOM      1  C2' OXE d   1       1.666  -1.360  -0.241  0.00  0.00     0.078 C 
ATOM      2  C1' OXE d   1      -0.578  -1.122   1.429  0.00  0.00     0.078 C 
ATOM      3  C1  OXE d   1      -0.275   0.019   0.491  0.00  0.00    -0.078 A 
ATOM      4  C2  OXE d   1       0.851  -0.085  -0.289  0.00  0.00    -0.078 A 
ATOM      5  C3  OXE d   1       1.147   0.915  -1.211  0.00  0.00     0.003 A 
ATOM      6  C4  OXE d   1       0.394   2.095  -1.242  0.00  0.00    -0.002 A 
ATOM      7  C5  OXE d   1      -0.735   2.239  -0.428  0.00  0.00    -0.002 A 
ATOM      8  C6  OXE d   1      -1.106   1.195   0.412  0.00  0.00     0.003 A 
ENDROOT
TORSDOF 0
ENDMDL
