MODEL 1
REMARK minimizedAffinity -3.79322767
REMARK minimizedRMSD -1
REMARK  0 active torsions:
REMARK  status: ('A' for Active; 'I' for Inactive)
ROOT
ATOM      1  C2' OXE d   1       0.176  -0.817  -0.842  0.00  0.00     0.078 C 
ATOM      2  C1' OXE d   1       0.564  -0.914   1.936  0.00  0.00     0.078 C 
ATOM      3  C1  OXE d   1      -0.301   0.192   1.384  0.00  0.00    -0.078 A 
ATOM      4  C2  OXE d   1      -0.447   0.259   0.020  0.00  0.00    -0.078 A 
ATOM      5  C3  OXE d   1      -1.278   1.226  -0.538  0.00  0.00     0.003 A 
ATOM      6  C4  OXE d   1      -1.843   2.224   0.266  0.00  0.00    -0.002 A 
ATOM      7  C5  OXE d   1      -1.674   2.198   1.654  0.00  0.00    -0.002 A 
ATOM      8  C6  OXE d   1      -0.943   1.166   2.232  0.00  0.00     0.003 A 
ENDROOT
TORSDOF 0
ENDMDL
