MODEL 1
REMARK minimizedAffinity -3.51337457
REMARK minimizedRMSD -1
REMARK  0 active torsions:
REMARK  status: ('A' for Active; 'I' for Inactive)
ROOT
ATOM      1  C2' OXE d   1      -1.636   1.759   0.802  0.00  0.00     0.078 C 
ATOM      2  C1' OXE d   1      -0.074   2.793  -1.288  0.00  0.00     0.078 C 
ATOM      3  C1  OXE d   1       0.218   1.390  -0.819  0.00  0.00    -0.078 A 
ATOM      4  C2  OXE d   1      -0.520   0.909   0.235  0.00  0.00    -0.078 A 
ATOM      5  C3  OXE d   1      -0.328  -0.399   0.672  0.00  0.00     0.003 A 
ATOM      6  C4  OXE d   1       0.713  -1.175   0.149  0.00  0.00    -0.002 A 
ATOM      7  C5  OXE d   1       1.503  -0.690  -0.899  0.00  0.00    -0.002 A 
ATOM      8  C6  OXE d   1       1.242   0.571  -1.422  0.00  0.00     0.003 A 
ENDROOT
TORSDOF 0
ENDMDL
