MODEL 1
REMARK minimizedAffinity -1.86883438
REMARK minimizedRMSD -1
REMARK  0 active torsions:
REMARK  status: ('A' for Active; 'I' for Inactive)
ROOT
ATOM      1  C2' OXE d   1      -2.816   0.319  -0.154  0.00  0.00     0.078 C 
ATOM      2  C1' OXE d   1      -0.507  -1.257   0.103  0.00  0.00     0.078 C 
ATOM      3  C1  OXE d   1      -0.347   0.143  -0.433  0.00  0.00    -0.078 A 
ATOM      4  C2  OXE d   1      -1.488   0.891  -0.600  0.00  0.00    -0.078 A 
ATOM      5  C3  OXE d   1      -1.391   2.208  -1.039  0.00  0.00     0.003 A 
ATOM      6  C4  OXE d   1      -0.160   2.727  -1.459  0.00  0.00    -0.002 A 
ATOM      7  C5  OXE d   1       1.009   1.968  -1.335  0.00  0.00    -0.002 A 
ATOM      8  C6  OXE d   1       0.939   0.693  -0.786  0.00  0.00     0.003 A 
ENDROOT
TORSDOF 0
ENDMDL
