MODEL 1
REMARK minimizedAffinity 5.41647243
REMARK minimizedRMSD -1
REMARK  0 active torsions:
REMARK  status: ('A' for Active; 'I' for Inactive)
ROOT
ATOM      1  C   UNL d   1      -4.908  -3.610  -6.000  0.00  0.00     0.020 A 
ATOM      2  C1  UNL d   1      -4.430  -4.918  -5.944  0.00  0.00     0.020 A 
ATOM      3  C2  UNL d   1      -3.350  -5.233  -5.116  0.00  0.00     0.034 A 
ATOM      4  C3  UNL d   1      -2.745  -4.237  -4.340  0.00  0.00     0.017 A 
ATOM      5  C4  UNL d   1      -3.226  -2.924  -4.396  0.00  0.00     0.017 A 
ATOM      6  C5  UNL d   1      -4.307  -2.615  -5.228  0.00  0.00     0.034 A 
ATOM      7 Cl   UNL d   1      -2.532  -1.642  -3.468  0.00  0.00    -0.070 Cl
ATOM      8 Cl1  UNL d   1      -1.415  -4.697  -3.338  0.00  0.00    -0.070 Cl
ENDROOT
TORSDOF 0
ENDMDL
