MODEL 1
REMARK minimizedAffinity 12.4091282
REMARK minimizedRMSD -1
REMARK  0 active torsions:
REMARK  status: ('A' for Active; 'I' for Inactive)
ROOT
ATOM      1  C   UNL d   1       4.175   1.005   0.134  0.00  0.00     0.020 A 
ATOM      2  C1  UNL d   1       4.849  -0.014   0.807  0.00  0.00     0.020 A 
ATOM      3  C2  UNL d   1       4.482  -1.346   0.604  0.00  0.00     0.034 A 
ATOM      4  C3  UNL d   1       3.438  -1.662  -0.274  0.00  0.00     0.017 A 
ATOM      5  C4  UNL d   1       2.763  -0.639  -0.949  0.00  0.00     0.017 A 
ATOM      6  C5  UNL d   1       3.135   0.693  -0.742  0.00  0.00     0.034 A 
ATOM      7 Cl   UNL d   1       1.466  -0.952  -2.047  0.00  0.00    -0.070 Cl
ATOM      8 Cl1  UNL d   1       3.038  -3.331  -0.477  0.00  0.00    -0.070 Cl
ENDROOT
TORSDOF 0
ENDMDL
