MODEL 1
REMARK minimizedAffinity 11.0194921
REMARK minimizedRMSD -1
REMARK  0 active torsions:
REMARK  status: ('A' for Active; 'I' for Inactive)
ROOT
ATOM      1  C   UNL d   1       3.004  -5.242  -0.478  0.00  0.00     0.020 A 
ATOM      2  C1  UNL d   1       3.571  -4.014  -0.140  0.00  0.00     0.020 A 
ATOM      3  C2  UNL d   1       3.154  -2.850  -0.789  0.00  0.00     0.034 A 
ATOM      4  C3  UNL d   1       2.166  -2.911  -1.779  0.00  0.00     0.017 A 
ATOM      5  C4  UNL d   1       1.598  -4.144  -2.118  0.00  0.00     0.017 A 
ATOM      6  C5  UNL d   1       2.019  -5.307  -1.465  0.00  0.00     0.034 A 
ATOM      7 Cl   UNL d   1       0.375  -4.300  -3.329  0.00  0.00    -0.070 Cl
ATOM      8 Cl1  UNL d   1       1.698  -1.432  -2.540  0.00  0.00    -0.070 Cl
ENDROOT
TORSDOF 0
ENDMDL
