MODEL 1
REMARK minimizedAffinity 7.96800995
REMARK minimizedRMSD -1
REMARK  0 active torsions:
REMARK  status: ('A' for Active; 'I' for Inactive)
ROOT
ATOM      1  C   UNL d   1       1.635  -1.334  -0.772  0.00  0.00     0.020 A 
ATOM      2  C1  UNL d   1       1.961  -0.314  -1.664  0.00  0.00     0.020 A 
ATOM      3  C2  UNL d   1       2.355  -0.625  -2.967  0.00  0.00     0.034 A 
ATOM      4  C3  UNL d   1       2.423  -1.960  -3.382  0.00  0.00     0.017 A 
ATOM      5  C4  UNL d   1       2.094  -2.984  -2.486  0.00  0.00     0.017 A 
ATOM      6  C5  UNL d   1       1.701  -2.666  -1.182  0.00  0.00     0.034 A 
ATOM      7 Cl   UNL d   1       2.154  -4.655  -2.925  0.00  0.00    -0.070 Cl
ATOM      8 Cl1  UNL d   1       2.917  -2.272  -5.008  0.00  0.00    -0.070 Cl
ENDROOT
TORSDOF 0
ENDMDL
