MODEL 1
REMARK minimizedAffinity 0.0847916454
REMARK minimizedRMSD -1
REMARK  0 active torsions:
REMARK  status: ('A' for Active; 'I' for Inactive)
ROOT
ATOM      1  C   UNL d   1       3.072  -5.998  -1.340  0.00  0.00     0.020 A 
ATOM      2  C1  UNL d   1       3.545  -5.060  -0.423  0.00  0.00     0.020 A 
ATOM      3  C2  UNL d   1       3.210  -3.712  -0.567  0.00  0.00     0.034 A 
ATOM      4  C3  UNL d   1       2.399  -3.298  -1.630  0.00  0.00     0.017 A 
ATOM      5  C4  UNL d   1       1.925  -4.240  -2.550  0.00  0.00     0.017 A 
ATOM      6  C5  UNL d   1       2.264  -5.589  -2.401  0.00  0.00     0.034 A 
ATOM      7 Cl   UNL d   1       0.920  -3.806  -3.888  0.00  0.00    -0.070 Cl
ATOM      8 Cl1  UNL d   1       2.024  -1.616  -1.747  0.00  0.00    -0.070 Cl
ENDROOT
TORSDOF 0
ENDMDL
