MODEL 1
REMARK minimizedAffinity 14.7376852
REMARK minimizedRMSD -1
REMARK  0 active torsions:
REMARK  status: ('A' for Active; 'I' for Inactive)
ROOT
ATOM      1  C   UNL d   1       0.948  -3.850  -2.785  0.00  0.00     0.020 A 
ATOM      2  C1  UNL d   1       1.341  -2.513  -2.743  0.00  0.00     0.020 A 
ATOM      3  C2  UNL d   1       2.206  -2.071  -1.740  0.00  0.00     0.034 A 
ATOM      4  C3  UNL d   1       2.681  -2.967  -0.775  0.00  0.00     0.017 A 
ATOM      5  C4  UNL d   1       2.286  -4.309  -0.819  0.00  0.00     0.017 A 
ATOM      6  C5  UNL d   1       1.420  -4.746  -1.826  0.00  0.00     0.034 A 
ATOM      7 Cl   UNL d   1       2.831  -5.474   0.336  0.00  0.00    -0.070 Cl
ATOM      8 Cl1  UNL d   1       3.749  -2.353   0.436  0.00  0.00    -0.070 Cl
ENDROOT
TORSDOF 0
ENDMDL
