MODEL 1
REMARK minimizedAffinity 15.125967
REMARK minimizedRMSD -1
REMARK  0 active torsions:
REMARK  status: ('A' for Active; 'I' for Inactive)
ROOT
ATOM      1  C   UNL d   1       3.641  -1.265  -0.090  0.00  0.00     0.020 A 
ATOM      2  C1  UNL d   1       2.446  -0.758  -0.599  0.00  0.00     0.020 A 
ATOM      3  C2  UNL d   1       1.365  -1.612  -0.825  0.00  0.00     0.034 A 
ATOM      4  C3  UNL d   1       1.475  -2.978  -0.542  0.00  0.00     0.017 A 
ATOM      5  C4  UNL d   1       2.675  -3.486  -0.030  0.00  0.00     0.017 A 
ATOM      6  C5  UNL d   1       3.755  -2.627   0.194  0.00  0.00     0.034 A 
ATOM      7 Cl   UNL d   1       2.887  -5.160   0.345  0.00  0.00    -0.070 Cl
ATOM      8 Cl1  UNL d   1       0.098  -3.975  -0.845  0.00  0.00    -0.070 Cl
ENDROOT
TORSDOF 0
ENDMDL
