MODEL 1
REMARK minimizedAffinity 9.61565876
REMARK minimizedRMSD -1
REMARK  0 active torsions:
REMARK  status: ('A' for Active; 'I' for Inactive)
ROOT
ATOM      1  C   UNL d   1      -2.356  -4.494  -6.000  0.00  0.00     0.020 A 
ATOM      2  C1  UNL d   1      -3.361  -3.949  -5.202  0.00  0.00     0.020 A 
ATOM      3  C2  UNL d   1      -3.270  -4.032  -3.811  0.00  0.00     0.034 A 
ATOM      4  C3  UNL d   1      -2.172  -4.661  -3.213  0.00  0.00     0.017 A 
ATOM      5  C4  UNL d   1      -1.163  -5.208  -4.015  0.00  0.00     0.017 A 
ATOM      6  C5  UNL d   1      -1.259  -5.122  -5.408  0.00  0.00     0.034 A 
ATOM      7 Cl   UNL d   1       0.222  -5.999  -3.351  0.00  0.00    -0.070 Cl
ATOM      8 Cl1  UNL d   1      -2.125  -4.727  -1.487  0.00  0.00    -0.070 Cl
ENDROOT
TORSDOF 0
ENDMDL
