MODEL 1
REMARK minimizedAffinity 5.58738661
REMARK minimizedRMSD -1
REMARK  0 active torsions:
REMARK  status: ('A' for Active; 'I' for Inactive)
ROOT
ATOM      1  C   UNL d   1      -5.063   5.331  -5.997  0.00  0.00     0.020 A 
ATOM      2  C1  UNL d   1      -5.169   3.941  -5.999  0.00  0.00     0.020 A 
ATOM      3  C2  UNL d   1      -4.169   3.164  -5.409  0.00  0.00     0.034 A 
ATOM      4  C3  UNL d   1      -3.059   3.776  -4.816  0.00  0.00     0.017 A 
ATOM      5  C4  UNL d   1      -2.954   5.172  -4.815  0.00  0.00     0.017 A 
ATOM      6  C5  UNL d   1      -3.958   5.945  -5.407  0.00  0.00     0.034 A 
ATOM      7 Cl   UNL d   1      -1.615   6.000  -4.102  0.00  0.00    -0.070 Cl
ATOM      8 Cl1  UNL d   1      -1.862   2.753  -4.105  0.00  0.00    -0.070 Cl
ENDROOT
TORSDOF 0
ENDMDL
