MODEL 1
REMARK minimizedAffinity 14.717762
REMARK minimizedRMSD -1
REMARK  0 active torsions:
REMARK  status: ('A' for Active; 'I' for Inactive)
ROOT
ATOM      1  C   UNL d   1      -6.000   2.136   3.694  0.00  0.00     0.020 A 
ATOM      2  C1  UNL d   1      -4.896   2.963   3.898  0.00  0.00     0.020 A 
ATOM      3  C2  UNL d   1      -3.615   2.509   3.580  0.00  0.00     0.034 A 
ATOM      4  C3  UNL d   1      -3.434   1.224   3.055  0.00  0.00     0.017 A 
ATOM      5  C4  UNL d   1      -4.543   0.394   2.850  0.00  0.00     0.017 A 
ATOM      6  C5  UNL d   1      -5.823   0.855   3.171  0.00  0.00     0.034 A 
ATOM      7 Cl   UNL d   1      -4.399  -1.203   2.206  0.00  0.00    -0.070 Cl
ATOM      8 Cl1  UNL d   1      -1.821   0.727   2.683  0.00  0.00    -0.070 Cl
ENDROOT
TORSDOF 0
ENDMDL
