MODEL 1
REMARK minimizedAffinity 7.43067312
REMARK minimizedRMSD -1
REMARK  0 active torsions:
REMARK  status: ('A' for Active; 'I' for Inactive)
ROOT
ATOM      1  C   UNL d   1       2.119  -1.792  -0.671  0.00  0.00     0.020 A 
ATOM      2  C1  UNL d   1       2.004  -0.445  -1.013  0.00  0.00     0.020 A 
ATOM      3  C2  UNL d   1       3.132   0.379  -0.994  0.00  0.00     0.034 A 
ATOM      4  C3  UNL d   1       4.379  -0.143  -0.633  0.00  0.00     0.017 A 
ATOM      5  C4  UNL d   1       4.494  -1.496  -0.290  0.00  0.00     0.017 A 
ATOM      6  C5  UNL d   1       3.362  -2.316  -0.311  0.00  0.00     0.034 A 
ATOM      7 Cl   UNL d   1       5.999  -2.212   0.166  0.00  0.00    -0.070 Cl
ATOM      8 Cl1  UNL d   1       5.731   0.933  -0.631  0.00  0.00    -0.070 Cl
ENDROOT
TORSDOF 0
ENDMDL
