MODEL 1
REMARK minimizedAffinity 14.4219971
REMARK minimizedRMSD -1
REMARK  0 active torsions:
REMARK  status: ('A' for Active; 'I' for Inactive)
ROOT
ATOM      1  C   UNL d   1       3.679   1.293  -0.053  0.00  0.00     0.020 A 
ATOM      2  C1  UNL d   1       4.177   0.506   0.984  0.00  0.00     0.020 A 
ATOM      3  C2  UNL d   1       3.961  -0.873   0.980  0.00  0.00     0.034 A 
ATOM      4  C3  UNL d   1       3.244  -1.470  -0.064  0.00  0.00     0.017 A 
ATOM      5  C4  UNL d   1       2.745  -0.679  -1.105  0.00  0.00     0.017 A 
ATOM      6  C5  UNL d   1       2.965   0.702  -1.095  0.00  0.00     0.034 A 
ATOM      7 Cl   UNL d   1       1.852  -1.344  -2.427  0.00  0.00    -0.070 Cl
ATOM      8 Cl1  UNL d   1       3.015  -3.182  -0.005  0.00  0.00    -0.070 Cl
ENDROOT
TORSDOF 0
ENDMDL
