MODEL 1
REMARK minimizedAffinity 15.0396929
REMARK minimizedRMSD -1
REMARK  0 active torsions:
REMARK  status: ('A' for Active; 'I' for Inactive)
ROOT
ATOM      1  C   UNL d   1       1.332  -5.393  -2.370  0.00  0.00     0.020 A 
ATOM      2  C1  UNL d   1       2.010  -5.745  -1.204  0.00  0.00     0.020 A 
ATOM      3  C2  UNL d   1       2.634  -4.761  -0.435  0.00  0.00     0.034 A 
ATOM      4  C3  UNL d   1       2.583  -3.419  -0.832  0.00  0.00     0.017 A 
ATOM      5  C4  UNL d   1       1.902  -3.067  -2.003  0.00  0.00     0.017 A 
ATOM      6  C5  UNL d   1       1.278  -4.057  -2.769  0.00  0.00     0.034 A 
ATOM      7 Cl   UNL d   1       1.795  -1.433  -2.557  0.00  0.00    -0.070 Cl
ATOM      8 Cl1  UNL d   1       3.377  -2.255   0.167  0.00  0.00    -0.070 Cl
ENDROOT
TORSDOF 0
ENDMDL
