MODEL 1
REMARK minimizedAffinity 7.67378187
REMARK minimizedRMSD -1
REMARK  0 active torsions:
REMARK  status: ('A' for Active; 'I' for Inactive)
ROOT
ATOM      1  C   UNL d   1       2.242  -0.548   0.742  0.00  0.00     0.020 A 
ATOM      2  C1  UNL d   1       3.406   0.009   1.270  0.00  0.00     0.020 A 
ATOM      3  C2  UNL d   1       4.555  -0.773   1.406  0.00  0.00     0.034 A 
ATOM      4  C3  UNL d   1       4.543  -2.117   1.014  0.00  0.00     0.017 A 
ATOM      5  C4  UNL d   1       3.374  -2.675   0.484  0.00  0.00     0.017 A 
ATOM      6  C5  UNL d   1       2.226  -1.887   0.350  0.00  0.00     0.034 A 
ATOM      7 Cl   UNL d   1       3.282  -4.325  -0.022  0.00  0.00    -0.070 Cl
ATOM      8 Cl1  UNL d   1       6.000  -3.024   1.210  0.00  0.00    -0.070 Cl
ENDROOT
TORSDOF 0
ENDMDL
