MODEL 1
REMARK minimizedAffinity 13.4362898
REMARK minimizedRMSD -1
REMARK  0 active torsions:
REMARK  status: ('A' for Active; 'I' for Inactive)
ROOT
ATOM      1  C   UNL d   1       1.497  -2.548  -0.769  0.00  0.00     0.020 A 
ATOM      2  C1  UNL d   1       1.886  -2.074  -2.021  0.00  0.00     0.020 A 
ATOM      3  C2  UNL d   1       1.205  -2.489  -3.167  0.00  0.00     0.034 A 
ATOM      4  C3  UNL d   1       0.131  -3.380  -3.064  0.00  0.00     0.017 A 
ATOM      5  C4  UNL d   1      -0.259  -3.856  -1.807  0.00  0.00     0.017 A 
ATOM      6  C5  UNL d   1       0.427  -3.437  -0.662  0.00  0.00     0.034 A 
ATOM      7 Cl   UNL d   1      -1.574  -4.958  -1.600  0.00  0.00    -0.070 Cl
ATOM      8 Cl1  UNL d   1      -0.666  -3.850  -4.523  0.00  0.00    -0.070 Cl
ENDROOT
TORSDOF 0
ENDMDL
