MODEL 1
REMARK minimizedAffinity 7.84020138
REMARK minimizedRMSD -1
REMARK  0 active torsions:
REMARK  status: ('A' for Active; 'I' for Inactive)
ROOT
ATOM      1  C   UNL d   1       1.486  -1.464  -2.724  0.00  0.00     0.020 A 
ATOM      2  C1  UNL d   1       1.520  -1.816  -1.375  0.00  0.00     0.020 A 
ATOM      3  C2  UNL d   1       1.873  -0.867  -0.414  0.00  0.00     0.034 A 
ATOM      4  C3  UNL d   1       2.193   0.440  -0.800  0.00  0.00     0.017 A 
ATOM      5  C4  UNL d   1       2.159   0.793  -2.154  0.00  0.00     0.017 A 
ATOM      6  C5  UNL d   1       1.804  -0.162  -3.112  0.00  0.00     0.034 A 
ATOM      7 Cl   UNL d   1       2.541   2.385  -2.706  0.00  0.00    -0.070 Cl
ATOM      8 Cl1  UNL d   1       2.621   1.563   0.442  0.00  0.00    -0.070 Cl
ENDROOT
TORSDOF 0
ENDMDL
