MODEL 1
REMARK minimizedAffinity 16.1741314
REMARK minimizedRMSD -1
REMARK  0 active torsions:
REMARK  status: ('A' for Active; 'I' for Inactive)
ROOT
ATOM      1  C   UNL d   1      -5.377  -4.493  -6.000  0.00  0.00     0.020 A 
ATOM      2  C1  UNL d   1      -5.072  -3.132  -6.000  0.00  0.00     0.020 A 
ATOM      3  C2  UNL d   1      -4.098  -2.636  -5.131  0.00  0.00     0.034 A 
ATOM      4  C3  UNL d   1      -3.427  -3.500  -4.258  0.00  0.00     0.017 A 
ATOM      5  C4  UNL d   1      -3.734  -4.865  -4.259  0.00  0.00     0.017 A 
ATOM      6  C5  UNL d   1      -4.710  -5.357  -5.131  0.00  0.00     0.034 A 
ATOM      7 Cl   UNL d   1      -2.949  -5.993  -3.211  0.00  0.00    -0.070 Cl
ATOM      8 Cl1  UNL d   1      -2.234  -2.817  -3.211  0.00  0.00    -0.070 Cl
ENDROOT
TORSDOF 0
ENDMDL
