MODEL 1
REMARK minimizedAffinity 22.8215389
REMARK minimizedRMSD -1
REMARK  0 active torsions:
REMARK  status: ('A' for Active; 'I' for Inactive)
ROOT
ATOM      1  C   UNL d   1      -3.362   0.549   3.617  0.00  0.00     0.020 A 
ATOM      2  C1  UNL d   1      -2.953   0.781   4.930  0.00  0.00     0.020 A 
ATOM      3  C2  UNL d   1      -3.485   1.854   5.648  0.00  0.00     0.034 A 
ATOM      4  C3  UNL d   1      -4.429   2.700   5.053  0.00  0.00     0.017 A 
ATOM      5  C4  UNL d   1      -4.839   2.466   3.736  0.00  0.00     0.017 A 
ATOM      6  C5  UNL d   1      -4.303   1.390   3.021  0.00  0.00     0.034 A 
ATOM      7 Cl   UNL d   1      -5.999   3.466   2.935  0.00  0.00    -0.070 Cl
ATOM      8 Cl1  UNL d   1      -5.045   4.007   6.000  0.00  0.00    -0.070 Cl
ENDROOT
TORSDOF 0
ENDMDL
