MODEL 1
REMARK minimizedAffinity 0.469411016
REMARK minimizedRMSD -1
REMARK  1 active torsions:
REMARK  status: ('A' for Active; 'I' for Inactive)
REMARK    1  A    between atoms: N_2  and  C1_3 
ROOT
ATOM      1  C1  UNL d   1       1.637   0.707   0.507  0.00  0.00     0.143 A 
ATOM      2  C2  UNL d   1       1.542  -0.655   0.202  0.00  0.00    -0.057 A 
ATOM      3  C3  UNL d   1       0.302  -1.262  -0.029  0.00  0.00     0.033 A 
ATOM      4  C4  UNL d   1      -0.871  -0.522   0.071  0.00  0.00    -0.042 A 
ATOM      5  C5  UNL d   1      -0.803   0.828   0.398  0.00  0.00     0.033 A 
ATOM      6  C6  UNL d   1       0.439   1.430   0.621  0.00  0.00    -0.057 A 
ENDROOT
BRANCH   1   7
ATOM      7  N   UNL d   1       2.832   1.348   0.844  0.00  0.00    -0.732 N 
ATOM      8  C   UNL d   1       2.820   2.590   1.585  0.00  0.00     0.284 C 
ATOM      9  H3  UNL d   1       3.553   0.694   1.141  0.00  0.00     0.395 HD
ENDBRANCH   1   7
TORSDOF 1
ENDMDL
