MODEL 1
REMARK minimizedAffinity -1.55450475
REMARK minimizedRMSD -1
REMARK  1 active torsions:
REMARK  status: ('A' for Active; 'I' for Inactive)
REMARK    1  A    between atoms: N_2  and  C1_3 
ROOT
ATOM      1  C1  UNL d   1       0.642   0.215   0.462  0.00  0.00     0.143 A 
ATOM      2  C2  UNL d   1      -0.329   1.209   0.623  0.00  0.00    -0.057 A 
ATOM      3  C3  UNL d   1       0.025   2.524   0.948  0.00  0.00     0.033 A 
ATOM      4  C4  UNL d   1       1.360   2.862   1.147  0.00  0.00    -0.042 A 
ATOM      5  C5  UNL d   1       2.340   1.885   1.018  0.00  0.00     0.033 A 
ATOM      6  C6  UNL d   1       1.980   0.575   0.686  0.00  0.00    -0.057 A 
ENDROOT
BRANCH   1   7
ATOM      7  N   UNL d   1       0.346  -1.132   0.236  0.00  0.00    -0.732 N 
ATOM      8  C   UNL d   1      -0.148  -1.572  -1.050  0.00  0.00     0.284 C 
ATOM      9  H3  UNL d   1       1.033  -1.755   0.654  0.00  0.00     0.395 HD
ENDBRANCH   1   7
TORSDOF 1
ENDMDL
