MODEL 1
REMARK minimizedAffinity -3.43084669
REMARK minimizedRMSD -1
REMARK  1 active torsions:
REMARK  status: ('A' for Active; 'I' for Inactive)
REMARK    1  A    between atoms: N_2  and  C1_3 
ROOT
ATOM      1  C1  UNL d   1      -0.131  -0.210   0.047  0.00  0.00     0.143 A 
ATOM      2  C2  UNL d   1      -1.379   0.203   0.527  0.00  0.00    -0.057 A 
ATOM      3  C3  UNL d   1      -1.661   1.557   0.744  0.00  0.00     0.033 A 
ATOM      4  C4  UNL d   1      -0.688   2.523   0.511  0.00  0.00    -0.042 A 
ATOM      5  C5  UNL d   1       0.568   2.133   0.058  0.00  0.00     0.033 A 
ATOM      6  C6  UNL d   1       0.842   0.780  -0.163  0.00  0.00    -0.057 A 
ENDROOT
BRANCH   1   7
ATOM      7  N   UNL d   1       0.243  -1.549  -0.095  0.00  0.00    -0.732 N 
ATOM      8  C   UNL d   1      -0.377  -2.385  -1.099  0.00  0.00     0.284 C 
ATOM      9  H3  UNL d   1       1.248  -1.682  -0.005  0.00  0.00     0.395 HD
ENDBRANCH   1   7
TORSDOF 1
ENDMDL
