MODEL 1
REMARK minimizedAffinity -2.22064257
REMARK minimizedRMSD -1
REMARK  1 active torsions:
REMARK  status: ('A' for Active; 'I' for Inactive)
REMARK    1  A    between atoms: N_2  and  C1_3 
ROOT
ATOM      1  C1  UNL d   1      -0.317  -2.087  -0.768  0.00  0.00     0.143 A 
ATOM      2  C2  UNL d   1      -1.084  -0.920  -0.689  0.00  0.00    -0.057 A 
ATOM      3  C3  UNL d   1      -0.646   0.189   0.047  0.00  0.00     0.033 A 
ATOM      4  C4  UNL d   1       0.558   0.138   0.742  0.00  0.00    -0.042 A 
ATOM      5  C5  UNL d   1       1.325  -1.021   0.698  0.00  0.00     0.033 A 
ATOM      6  C6  UNL d   1       0.885  -2.122  -0.044  0.00  0.00    -0.057 A 
ENDROOT
BRANCH   1   7
ATOM      7  N   UNL d   1      -0.744  -3.256  -1.402  0.00  0.00    -0.732 N 
ATOM      8  C   UNL d   1      -0.022  -3.785  -2.539  0.00  0.00     0.284 C 
ATOM      9  H3  UNL d   1      -1.054  -3.965  -0.741  0.00  0.00     0.395 HD
ENDBRANCH   1   7
TORSDOF 1
ENDMDL
