MODEL 1
REMARK minimizedAffinity -2.45609498
REMARK minimizedRMSD -1
REMARK  1 active torsions:
REMARK  status: ('A' for Active; 'I' for Inactive)
REMARK    1  A    between atoms: N_2  and  C1_3 
ROOT
ATOM      1  C1  UNL d   1      -0.327   0.431   0.233  0.00  0.00     0.143 A 
ATOM      2  C2  UNL d   1       0.992   0.893   0.299  0.00  0.00    -0.057 A 
ATOM      3  C3  UNL d   1       2.073   0.003   0.300  0.00  0.00     0.033 A 
ATOM      4  C4  UNL d   1       1.852  -1.370   0.263  0.00  0.00    -0.042 A 
ATOM      5  C5  UNL d   1       0.549  -1.852   0.222  0.00  0.00     0.033 A 
ATOM      6  C6  UNL d   1      -0.526  -0.958   0.215  0.00  0.00    -0.057 A 
ENDROOT
BRANCH   1   7
ATOM      7  N   UNL d   1      -1.447   1.260   0.328  0.00  0.00    -0.732 N 
ATOM      8  C   UNL d   1      -1.294   2.693   0.461  0.00  0.00     0.284 C 
ATOM      9  H3  UNL d   1      -2.194   0.979  -0.303  0.00  0.00     0.395 HD
ENDBRANCH   1   7
TORSDOF 1
ENDMDL
