MODEL 1
REMARK minimizedAffinity -3.60759091
REMARK minimizedRMSD -1
REMARK  1 active torsions:
REMARK  status: ('A' for Active; 'I' for Inactive)
REMARK    1  A    between atoms: N_2  and  C1_3 
ROOT
ATOM      1  C1  UNL d   1      -0.202  -0.340   0.145  0.00  0.00     0.143 A 
ATOM      2  C2  UNL d   1      -1.499  -0.070   0.594  0.00  0.00    -0.057 A 
ATOM      3  C3  UNL d   1      -1.939   1.243   0.797  0.00  0.00     0.033 A 
ATOM      4  C4  UNL d   1      -1.077   2.313   0.581  0.00  0.00    -0.042 A 
ATOM      5  C5  UNL d   1       0.225   2.068   0.158  0.00  0.00     0.033 A 
ATOM      6  C6  UNL d   1       0.656   0.754  -0.048  0.00  0.00    -0.057 A 
ENDROOT
BRANCH   1   7
ATOM      7  N   UNL d   1       0.326  -1.627   0.020  0.00  0.00    -0.732 N 
ATOM      8  C   UNL d   1      -0.244  -2.569  -0.919  0.00  0.00     0.284 C 
ATOM      9  H3  UNL d   1       1.343  -1.634   0.050  0.00  0.00     0.395 HD
ENDBRANCH   1   7
TORSDOF 1
ENDMDL
