MODEL 1
REMARK minimizedAffinity -4.60217524
REMARK minimizedRMSD -1
REMARK  1 active torsions:
REMARK  status: ('A' for Active; 'I' for Inactive)
REMARK    1  A    between atoms: N_2  and  C1_3 
ROOT
ATOM      1  C1  UNL d   1      -2.311  -4.298  -1.055  0.00  0.00     0.143 A 
ATOM      2  C2  UNL d   1      -1.764  -4.079  -2.324  0.00  0.00    -0.057 A 
ATOM      3  C3  UNL d   1      -0.511  -3.474  -2.480  0.00  0.00     0.033 A 
ATOM      4  C4  UNL d   1       0.206  -3.048  -1.367  0.00  0.00    -0.042 A 
ATOM      5  C5  UNL d   1      -0.329  -3.232  -0.097  0.00  0.00     0.033 A 
ATOM      6  C6  UNL d   1      -1.578  -3.844   0.053  0.00  0.00    -0.057 A 
ENDROOT
BRANCH   1   7
ATOM      7  N   UNL d   1      -3.594  -4.805  -0.838  0.00  0.00    -0.732 N 
ATOM      8  C   UNL d   1      -3.996  -5.255   0.477  0.00  0.00     0.284 C 
ATOM      9  H3  UNL d   1      -4.309  -4.277  -1.333  0.00  0.00     0.395 HD
ENDBRANCH   1   7
TORSDOF 1
ENDMDL
