MODEL 1
REMARK minimizedAffinity -1.05487752
REMARK minimizedRMSD -1
REMARK  1 active torsions:
REMARK  status: ('A' for Active; 'I' for Inactive)
REMARK    1  A    between atoms: N_2  and  C1_3 
ROOT
ATOM      1  C1  UNL d   1      -0.534  -0.623  -0.272  0.00  0.00     0.143 A 
ATOM      2  C2  UNL d   1      -1.633   0.210  -0.511  0.00  0.00    -0.057 A 
ATOM      3  C3  UNL d   1      -1.776   1.432   0.156  0.00  0.00     0.033 A 
ATOM      4  C4  UNL d   1      -0.834   1.831   1.099  0.00  0.00    -0.042 A 
ATOM      5  C5  UNL d   1       0.252   1.007   1.371  0.00  0.00     0.033 A 
ATOM      6  C6  UNL d   1       0.393  -0.209   0.697  0.00  0.00    -0.057 A 
ENDROOT
BRANCH   1   7
ATOM      7  N   UNL d   1      -0.387  -1.895  -0.831  0.00  0.00    -0.732 N 
ATOM      8  C   UNL d   1      -1.293  -2.966  -0.476  0.00  0.00     0.284 C 
ATOM      9  H3  UNL d   1      -0.152  -1.860  -1.821  0.00  0.00     0.395 HD
ENDBRANCH   1   7
TORSDOF 1
ENDMDL
