MODEL 1
REMARK minimizedAffinity -2.54971218
REMARK minimizedRMSD -1
REMARK  1 active torsions:
REMARK  status: ('A' for Active; 'I' for Inactive)
REMARK    1  A    between atoms: N_2  and  C1_3 
ROOT
ATOM      1  C1  UNL d   1       1.161   2.307   0.942  0.00  0.00     0.143 A 
ATOM      2  C2  UNL d   1      -0.059   2.989   0.894  0.00  0.00    -0.057 A 
ATOM      3  C3  UNL d   1      -1.189   2.414   0.300  0.00  0.00     0.033 A 
ATOM      4  C4  UNL d   1      -1.111   1.154  -0.284  0.00  0.00    -0.042 A 
ATOM      5  C5  UNL d   1       0.099   0.468  -0.270  0.00  0.00     0.033 A 
ATOM      6  C6  UNL d   1       1.222   1.045   0.331  0.00  0.00    -0.057 A 
ENDROOT
BRANCH   1   7
ATOM      7  N   UNL d   1       2.345   2.864   1.431  0.00  0.00    -0.732 N 
ATOM      8  C   UNL d   1       3.615   2.203   1.217  0.00  0.00     0.284 C 
ATOM      9  H3  UNL d   1       2.377   3.874   1.312  0.00  0.00     0.395 HD
ENDBRANCH   1   7
TORSDOF 1
ENDMDL
