MODEL 1
REMARK minimizedAffinity -0.802089632
REMARK minimizedRMSD -1
REMARK  1 active torsions:
REMARK  status: ('A' for Active; 'I' for Inactive)
REMARK    1  A    between atoms: N_2  and  C1_3 
ROOT
ATOM      1  C1  UNL d   1       0.166   2.163   0.885  0.00  0.00     0.143 A 
ATOM      2  C2  UNL d   1      -1.172   2.447   0.590  0.00  0.00    -0.057 A 
ATOM      3  C3  UNL d   1      -2.029   1.461   0.086  0.00  0.00     0.033 A 
ATOM      4  C4  UNL d   1      -1.554   0.177  -0.160  0.00  0.00    -0.042 A 
ATOM      5  C5  UNL d   1      -0.222  -0.121   0.102  0.00  0.00     0.033 A 
ATOM      6  C6  UNL d   1       0.628   0.866   0.611  0.00  0.00    -0.057 A 
ENDROOT
BRANCH   1   7
ATOM      7  N   UNL d   1       1.093   3.124   1.295  0.00  0.00    -0.732 N 
ATOM      8  C   UNL d   1       2.456   2.749   1.604  0.00  0.00     0.284 C 
ATOM      9  H3  UNL d   1       1.009   3.992   0.771  0.00  0.00     0.395 HD
ENDBRANCH   1   7
TORSDOF 1
ENDMDL
