MODEL 1
REMARK minimizedAffinity -3.90621042
REMARK minimizedRMSD -1
REMARK  1 active torsions:
REMARK  status: ('A' for Active; 'I' for Inactive)
REMARK    1  A    between atoms: N_2  and  C1_3 
ROOT
ATOM      1  C1  UNL d   1      -0.531  -1.469  -0.519  0.00  0.00     0.143 A 
ATOM      2  C2  UNL d   1       0.444  -0.839   0.262  0.00  0.00    -0.057 A 
ATOM      3  C3  UNL d   1       0.217   0.419   0.832  0.00  0.00     0.033 A 
ATOM      4  C4  UNL d   1      -0.983   1.085   0.605  0.00  0.00    -0.042 A 
ATOM      5  C5  UNL d   1      -1.957   0.489  -0.189  0.00  0.00     0.033 A 
ATOM      6  C6  UNL d   1      -1.726  -0.771  -0.749  0.00  0.00    -0.057 A 
ENDROOT
BRANCH   1   7
ATOM      7  N   UNL d   1      -0.327  -2.675  -1.194  0.00  0.00    -0.732 N 
ATOM      8  C   UNL d   1      -1.443  -3.399  -1.763  0.00  0.00     0.284 C 
ATOM      9  H3  UNL d   1       0.500  -2.654  -1.786  0.00  0.00     0.395 HD
ENDBRANCH   1   7
TORSDOF 1
ENDMDL
