MODEL 1
REMARK minimizedAffinity 7.87270117
REMARK minimizedRMSD -1
REMARK  0 active torsions:
REMARK  status: ('A' for Active; 'I' for Inactive)
ROOT
ATOM      1  C   UNL d   1      -0.107   5.453  -1.817  0.00  0.00     0.020 A 
ATOM      2  C1  UNL d   1       0.404   4.164  -1.670  0.00  0.00     0.020 A 
ATOM      3  C2  UNL d   1       0.106   3.421  -0.526  0.00  0.00     0.034 A 
ATOM      4  C3  UNL d   1      -0.705   3.966   0.476  0.00  0.00     0.017 A 
ATOM      5  C4  UNL d   1      -1.218   5.260   0.328  0.00  0.00     0.017 A 
ATOM      6  C5  UNL d   1      -0.917   5.999  -0.820  0.00  0.00     0.034 A 
ATOM      7 Cl   UNL d   1      -2.226   5.999   1.521  0.00  0.00    -0.070 Cl
ATOM      8 Cl1  UNL d   1      -1.032   2.990   1.864  0.00  0.00    -0.070 Cl
ENDROOT
TORSDOF 0
ENDMDL
