MODEL 1
REMARK minimizedAffinity 3.97099614
REMARK minimizedRMSD -1
REMARK  0 active torsions:
REMARK  status: ('A' for Active; 'I' for Inactive)
ROOT
ATOM      1  C   UNL d   1      -0.882   4.427  -0.110  0.00  0.00     0.020 A 
ATOM      2  C1  UNL d   1      -0.707   3.669  -1.267  0.00  0.00     0.020 A 
ATOM      3  C2  UNL d   1      -0.316   2.332  -1.174  0.00  0.00     0.034 A 
ATOM      4  C3  UNL d   1      -0.098   1.748   0.080  0.00  0.00     0.017 A 
ATOM      5  C4  UNL d   1      -0.273   2.510   1.241  0.00  0.00     0.017 A 
ATOM      6  C5  UNL d   1      -0.665   3.848   1.142  0.00  0.00     0.034 A 
ATOM      7 Cl   UNL d   1      -0.023   1.859   2.823  0.00  0.00    -0.070 Cl
ATOM      8 Cl1  UNL d   1       0.385   0.090   0.121  0.00  0.00    -0.070 Cl
ENDROOT
TORSDOF 0
ENDMDL
