MODEL 1
REMARK minimizedAffinity 11.0851049
REMARK minimizedRMSD -1
REMARK  0 active torsions:
REMARK  status: ('A' for Active; 'I' for Inactive)
ROOT
ATOM      1  C   UNL d   1       1.126   4.126  -0.932  0.00  0.00     0.020 A 
ATOM      2  C1  UNL d   1       0.146   3.317  -0.359  0.00  0.00     0.020 A 
ATOM      3  C2  UNL d   1      -1.154   3.326  -0.870  0.00  0.00     0.034 A 
ATOM      4  C3  UNL d   1      -1.477   4.147  -1.957  0.00  0.00     0.017 A 
ATOM      5  C4  UNL d   1      -0.492   4.960  -2.531  0.00  0.00     0.017 A 
ATOM      6  C5  UNL d   1       0.808   4.946  -2.015  0.00  0.00     0.034 A 
ATOM      7 Cl   UNL d   1      -0.815   5.999  -3.874  0.00  0.00    -0.070 Cl
ATOM      8 Cl1  UNL d   1      -3.104   4.109  -2.537  0.00  0.00    -0.070 Cl
ENDROOT
TORSDOF 0
ENDMDL
