MODEL 1
REMARK minimizedAffinity 5.9275918
REMARK minimizedRMSD -1
REMARK  0 active torsions:
REMARK  status: ('A' for Active; 'I' for Inactive)
ROOT
ATOM      1  C   UNL d   1       0.906   4.617  -0.370  0.00  0.00     0.020 A 
ATOM      2  C1  UNL d   1       0.379   3.382   0.008  0.00  0.00     0.020 A 
ATOM      3  C2  UNL d   1      -0.824   2.938  -0.545  0.00  0.00     0.034 A 
ATOM      4  C3  UNL d   1      -1.505   3.729  -1.477  0.00  0.00     0.017 A 
ATOM      5  C4  UNL d   1      -0.976   4.968  -1.855  0.00  0.00     0.017 A 
ATOM      6  C5  UNL d   1       0.229   5.408  -1.299  0.00  0.00     0.034 A 
ATOM      7 Cl   UNL d   1      -1.758   6.000  -3.000  0.00  0.00    -0.070 Cl
ATOM      8 Cl1  UNL d   1      -2.987   3.117  -2.120  0.00  0.00    -0.070 Cl
ENDROOT
TORSDOF 0
ENDMDL
