MODEL 1
REMARK minimizedAffinity 9.36239719
REMARK minimizedRMSD -1
REMARK  0 active torsions:
REMARK  status: ('A' for Active; 'I' for Inactive)
ROOT
ATOM      1  C   UNL d   1      -1.116   5.242  -2.141  0.00  0.00     0.020 A 
ATOM      2  C1  UNL d   1      -0.884   5.718  -0.851  0.00  0.00     0.020 A 
ATOM      3  C2  UNL d   1      -1.957   5.945   0.013  0.00  0.00     0.034 A 
ATOM      4  C3  UNL d   1      -3.267   5.696  -0.412  0.00  0.00     0.017 A 
ATOM      5  C4  UNL d   1      -3.499   5.218  -1.707  0.00  0.00     0.017 A 
ATOM      6  C5  UNL d   1      -2.421   4.993  -2.568  0.00  0.00     0.034 A 
ATOM      7 Cl   UNL d   1      -5.088   4.887  -2.302  0.00  0.00    -0.070 Cl
ATOM      8 Cl1  UNL d   1      -4.546   5.998   0.710  0.00  0.00    -0.070 Cl
ENDROOT
TORSDOF 0
ENDMDL
