MODEL 1
REMARK minimizedAffinity 5.76419163
REMARK minimizedRMSD -1
REMARK  0 active torsions:
REMARK  status: ('A' for Active; 'I' for Inactive)
ROOT
ATOM      1  C   UNL d   1      -2.011  -5.492  -5.705  0.00  0.00     0.020 A 
ATOM      2  C1  UNL d   1      -1.793  -4.115  -5.717  0.00  0.00     0.020 A 
ATOM      3  C2  UNL d   1      -2.875  -3.237  -5.803  0.00  0.00     0.034 A 
ATOM      4  C3  UNL d   1      -4.181  -3.736  -5.878  0.00  0.00     0.017 A 
ATOM      5  C4  UNL d   1      -4.399  -5.118  -5.866  0.00  0.00     0.017 A 
ATOM      6  C5  UNL d   1      -3.311  -5.992  -5.779  0.00  0.00     0.034 A 
ATOM      7 Cl   UNL d   1      -5.981  -5.808  -5.954  0.00  0.00    -0.070 Cl
ATOM      8 Cl1  UNL d   1      -5.473  -2.593  -5.982  0.00  0.00    -0.070 Cl
ENDROOT
TORSDOF 0
ENDMDL
