MODEL 1
REMARK minimizedAffinity 8.26870823
REMARK minimizedRMSD -1
REMARK  0 active torsions:
REMARK  status: ('A' for Active; 'I' for Inactive)
ROOT
ATOM      1  C   UNL d   1      -0.007   2.814   0.005  0.00  0.00     0.020 A 
ATOM      2  C1  UNL d   1      -0.804   1.762  -0.445  0.00  0.00     0.020 A 
ATOM      3  C2  UNL d   1      -1.845   2.008  -1.342  0.00  0.00     0.034 A 
ATOM      4  C3  UNL d   1      -2.092   3.310  -1.794  0.00  0.00     0.017 A 
ATOM      5  C4  UNL d   1      -1.291   4.365  -1.342  0.00  0.00     0.017 A 
ATOM      6  C5  UNL d   1      -0.250   4.113  -0.443  0.00  0.00     0.034 A 
ATOM      7 Cl   UNL d   1      -1.535   5.998  -1.854  0.00  0.00    -0.070 Cl
ATOM      8 Cl1  UNL d   1      -3.396   3.542  -2.903  0.00  0.00    -0.070 Cl
ENDROOT
TORSDOF 0
ENDMDL
