MODEL 1
REMARK minimizedAffinity 8.1606369
REMARK minimizedRMSD -1
REMARK  0 active torsions:
REMARK  status: ('A' for Active; 'I' for Inactive)
ROOT
ATOM      1  C   UNL d   1       0.979   3.123  -1.090  0.00  0.00     0.020 A 
ATOM      2  C1  UNL d   1       0.779   4.457  -1.443  0.00  0.00     0.020 A 
ATOM      3  C2  UNL d   1      -0.145   5.234  -0.741  0.00  0.00     0.034 A 
ATOM      4  C3  UNL d   1      -0.872   4.678   0.318  0.00  0.00     0.017 A 
ATOM      5  C4  UNL d   1      -0.671   3.339   0.671  0.00  0.00     0.017 A 
ATOM      6  C5  UNL d   1       0.256   2.565  -0.035  0.00  0.00     0.034 A 
ATOM      7 Cl   UNL d   1      -1.531   2.582   1.965  0.00  0.00    -0.070 Cl
ATOM      8 Cl1  UNL d   1      -1.998   5.697   1.142  0.00  0.00    -0.070 Cl
ENDROOT
TORSDOF 0
ENDMDL
