MODEL 1
REMARK minimizedAffinity 8.89194775
REMARK minimizedRMSD -1
REMARK  0 active torsions:
REMARK  status: ('A' for Active; 'I' for Inactive)
ROOT
ATOM      1  C   UNL d   1       5.951  -5.232  -1.327  0.00  0.00     0.020 A 
ATOM      2  C1  UNL d   1       5.328  -5.950  -2.347  0.00  0.00     0.020 A 
ATOM      3  C2  UNL d   1       3.934  -5.973  -2.434  0.00  0.00     0.034 A 
ATOM      4  C3  UNL d   1       3.159  -5.277  -1.500  0.00  0.00     0.017 A 
ATOM      5  C4  UNL d   1       3.785  -4.557  -0.476  0.00  0.00     0.017 A 
ATOM      6  C5  UNL d   1       5.181  -4.537  -0.393  0.00  0.00     0.034 A 
ATOM      7 Cl   UNL d   1       2.895  -3.674   0.714  0.00  0.00    -0.070 Cl
ATOM      8 Cl1  UNL d   1       1.441  -5.349  -1.668  0.00  0.00    -0.070 Cl
ENDROOT
TORSDOF 0
ENDMDL
