MODEL 1
REMARK minimizedAffinity 8.66107273
REMARK minimizedRMSD -1
REMARK  0 active torsions:
REMARK  status: ('A' for Active; 'I' for Inactive)
ROOT
ATOM      1  C   UNL d   1      -3.896  -5.973  -5.618  0.00  0.00     0.020 A 
ATOM      2  C1  UNL d   1      -4.817  -4.990  -5.975  0.00  0.00     0.020 A 
ATOM      3  C2  UNL d   1      -4.435  -3.647  -5.989  0.00  0.00     0.034 A 
ATOM      4  C3  UNL d   1      -3.127  -3.284  -5.644  0.00  0.00     0.017 A 
ATOM      5  C4  UNL d   1      -2.203  -4.272  -5.286  0.00  0.00     0.017 A 
ATOM      6  C5  UNL d   1      -2.592  -5.615  -5.274  0.00  0.00     0.034 A 
ATOM      7 Cl   UNL d   1      -0.573  -3.901  -4.849  0.00  0.00    -0.070 Cl
ATOM      8 Cl1  UNL d   1      -2.723  -1.604  -5.683  0.00  0.00    -0.070 Cl
ENDROOT
TORSDOF 0
ENDMDL
