MODEL 1
REMARK minimizedAffinity -3.92253017
REMARK minimizedRMSD -1
REMARK  0 active torsions:
REMARK  status: ('A' for Active; 'I' for Inactive)
ROOT
ATOM      1  C1  DEN d   1       0.773  -1.979   3.075  0.00  0.00     0.130 A 
ATOM      2  C2  DEN d   1      -0.467  -1.383   3.565  0.00  0.00    -0.031 A 
ATOM      3  C3  DEN d   1      -0.945  -0.424   2.550  0.00  0.00     0.027 A 
ATOM      4  C4  DEN d   1       0.104   0.189   0.275  0.00  0.00     0.027 A 
ATOM      5  C5  DEN d   1       1.164  -0.047  -0.572  0.00  0.00    -0.003 A 
ATOM      6  C6  DEN d   1       2.177  -0.911  -0.251  0.00  0.00     0.001 A 
ATOM      7  C7  DEN d   1       2.129  -1.605   0.929  0.00  0.00     0.017 A 
ATOM      8  C8  DEN d   1       1.067  -1.367   1.792  0.00  0.00    -0.094 A 
ATOM      9  C9  DEN d   1       0.046  -0.499   1.443  0.00  0.00    -0.072 A 
ENDROOT
TORSDOF 0
ENDMDL
