MODEL 1
REMARK minimizedAffinity -0.0738081411
REMARK minimizedRMSD -1
REMARK  0 active torsions:
REMARK  status: ('A' for Active; 'I' for Inactive)
ROOT
ATOM      1  C1  DEN d   1      -1.890   0.799  -1.703  0.00  0.00     0.130 A 
ATOM      2  C2  DEN d   1      -1.096   0.666  -2.921  0.00  0.00    -0.031 A 
ATOM      3  C3  DEN d   1       0.129  -0.088  -2.587  0.00  0.00     0.027 A 
ATOM      4  C4  DEN d   1       0.867  -1.062  -0.316  0.00  0.00     0.027 A 
ATOM      5  C5  DEN d   1       0.527  -1.194   1.013  0.00  0.00    -0.003 A 
ATOM      6  C6  DEN d   1      -0.615  -0.646   1.532  0.00  0.00     0.001 A 
ATOM      7  C7  DEN d   1      -1.483   0.021   0.708  0.00  0.00     0.017 A 
ATOM      8  C8  DEN d   1      -1.144   0.164  -0.631  0.00  0.00    -0.094 A 
ATOM      9  C9  DEN d   1       0.009  -0.408  -1.139  0.00  0.00    -0.072 A 
ENDROOT
TORSDOF 0
ENDMDL
