MODEL 1
REMARK minimizedAffinity -2.7183938
REMARK minimizedRMSD -1
REMARK  0 active torsions:
REMARK  status: ('A' for Active; 'I' for Inactive)
ROOT
ATOM      1  C1  DEN d   1      -0.835   1.014  -0.069  0.00  0.00     0.130 A 
ATOM      2  C2  DEN d   1      -1.616   0.692   1.122  0.00  0.00    -0.031 A 
ATOM      3  C3  DEN d   1      -0.921  -0.393   1.843  0.00  0.00     0.027 A 
ATOM      4  C4  DEN d   1       1.279  -1.595   1.238  0.00  0.00     0.027 A 
ATOM      5  C5  DEN d   1       2.297  -1.675   0.314  0.00  0.00    -0.003 A 
ATOM      6  C6  DEN d   1       2.325  -0.894  -0.811  0.00  0.00     0.001 A 
ATOM      7  C7  DEN d   1       1.338   0.034  -1.018  0.00  0.00     0.017 A 
ATOM      8  C8  DEN d   1       0.304   0.115  -0.094  0.00  0.00    -0.094 A 
ATOM      9  C9  DEN d   1       0.301  -0.675   1.043  0.00  0.00    -0.072 A 
ENDROOT
TORSDOF 0
ENDMDL
