MODEL 1
REMARK minimizedAffinity 7.54196119
REMARK minimizedRMSD -1
REMARK  0 active torsions:
REMARK  status: ('A' for Active; 'I' for Inactive)
ROOT
ATOM      1  C1  DEN d   1      -4.928   3.476  -1.300  0.00  0.00     0.130 A 
ATOM      2  C2  DEN d   1      -4.790   2.041  -1.529  0.00  0.00    -0.031 A 
ATOM      3  C3  DEN d   1      -3.500   1.808  -2.208  0.00  0.00     0.027 A 
ATOM      4  C4  DEN d   1      -1.709   3.523  -2.919  0.00  0.00     0.027 A 
ATOM      5  C5  DEN d   1      -1.385   4.862  -2.948  0.00  0.00    -0.003 A 
ATOM      6  C6  DEN d   1      -2.228   5.827  -2.464  0.00  0.00     0.001 A 
ATOM      7  C7  DEN d   1      -3.417   5.464  -1.889  0.00  0.00     0.017 A 
ATOM      8  C8  DEN d   1      -3.754   4.117  -1.864  0.00  0.00    -0.094 A 
ATOM      9  C9  DEN d   1      -2.883   3.155  -2.347  0.00  0.00    -0.072 A 
ENDROOT
TORSDOF 0
ENDMDL
