MODEL 1
REMARK minimizedAffinity -1.1128056
REMARK minimizedRMSD -1
REMARK  0 active torsions:
REMARK  status: ('A' for Active; 'I' for Inactive)
ROOT
ATOM      1  C1  DEN d   1      -1.750  -4.959  -0.155  0.00  0.00     0.130 A 
ATOM      2  C2  DEN d   1      -2.010  -5.460  -1.501  0.00  0.00    -0.031 A 
ATOM      3  C3  DEN d   1      -3.400  -5.959  -1.542  0.00  0.00     0.027 A 
ATOM      4  C4  DEN d   1      -5.165  -5.999   0.337  0.00  0.00     0.027 A 
ATOM      5  C5  DEN d   1      -5.405  -5.692   1.659  0.00  0.00    -0.003 A 
ATOM      6  C6  DEN d   1      -4.441  -5.156   2.471  0.00  0.00     0.001 A 
ATOM      7  C7  DEN d   1      -3.205  -4.867   1.957  0.00  0.00     0.017 A 
ATOM      8  C8  DEN d   1      -2.953  -5.180   0.627  0.00  0.00    -0.094 A 
ATOM      9  C9  DEN d   1      -3.944  -5.711  -0.180  0.00  0.00    -0.072 A 
ENDROOT
TORSDOF 0
ENDMDL
