MODEL 1
REMARK minimizedAffinity -1.54360747
REMARK minimizedRMSD -1
REMARK  0 active torsions:
REMARK  status: ('A' for Active; 'I' for Inactive)
ROOT
ATOM      1  C1  DEN d   1      -1.272   0.778  -3.393  0.00  0.00     0.130 A 
ATOM      2  C2  DEN d   1      -2.094   1.872  -2.882  0.00  0.00    -0.031 A 
ATOM      3  C3  DEN d   1      -1.692   2.130  -1.485  0.00  0.00     0.027 A 
ATOM      4  C4  DEN d   1       0.116   0.953  -0.071  0.00  0.00     0.027 A 
ATOM      5  C5  DEN d   1       1.066  -0.044  -0.069  0.00  0.00    -0.003 A 
ATOM      6  C6  DEN d   1       1.279  -0.852  -1.154  0.00  0.00     0.001 A 
ATOM      7  C7  DEN d   1       0.562  -0.649  -2.304  0.00  0.00     0.017 A 
ATOM      8  C8  DEN d   1      -0.404   0.350  -2.311  0.00  0.00    -0.094 A 
ATOM      9  C9  DEN d   1      -0.595   1.164  -1.208  0.00  0.00    -0.072 A 
ENDROOT
TORSDOF 0
ENDMDL
