MODEL 1
REMARK minimizedAffinity -5.70012712
REMARK minimizedRMSD -1
REMARK  0 active torsions:
REMARK  status: ('A' for Active; 'I' for Inactive)
ROOT
ATOM      1  C1  DEN d   1      -1.965   1.866  -1.810  0.00  0.00     0.130 A 
ATOM      2  C2  DEN d   1      -2.401   1.522  -3.160  0.00  0.00    -0.031 A 
ATOM      3  C3  DEN d   1      -1.549   0.419  -3.648  0.00  0.00     0.027 A 
ATOM      4  C4  DEN d   1       0.390  -0.787  -2.448  0.00  0.00     0.027 A 
ATOM      5  C5  DEN d   1       1.135  -0.838  -1.291  0.00  0.00    -0.003 A 
ATOM      6  C6  DEN d   1       0.924   0.025  -0.248  0.00  0.00     0.001 A 
ATOM      7  C7  DEN d   1      -0.087   0.946  -0.323  0.00  0.00     0.017 A 
ATOM      8  C8  DEN d   1      -0.838   1.008  -1.489  0.00  0.00    -0.094 A 
ATOM      9  C9  DEN d   1      -0.617   0.119  -2.527  0.00  0.00    -0.072 A 
ENDROOT
TORSDOF 0
ENDMDL
