MODEL 1
REMARK minimizedAffinity -0.41917783
REMARK minimizedRMSD -1
REMARK  0 active torsions:
REMARK  status: ('A' for Active; 'I' for Inactive)
ROOT
ATOM      1  C1  DEN d   1       0.987  -1.225  -1.361  0.00  0.00     0.130 A 
ATOM      2  C2  DEN d   1       1.816  -1.094  -0.165  0.00  0.00    -0.031 A 
ATOM      3  C3  DEN d   1       1.407   0.137   0.541  0.00  0.00     0.027 A 
ATOM      4  C4  DEN d   1      -0.420   1.842  -0.095  0.00  0.00     0.027 A 
ATOM      5  C5  DEN d   1      -1.380   2.163  -1.029  0.00  0.00    -0.003 A 
ATOM      6  C6  DEN d   1      -1.593   1.402  -2.148  0.00  0.00     0.001 A 
ATOM      7  C7  DEN d   1      -0.867   0.256  -2.338  0.00  0.00     0.017 A 
ATOM      8  C8  DEN d   1       0.108  -0.070  -1.404  0.00  0.00    -0.094 A 
ATOM      9  C9  DEN d   1       0.300   0.706  -0.273  0.00  0.00    -0.072 A 
ENDROOT
TORSDOF 0
ENDMDL
