MODEL 1
REMARK minimizedAffinity -2.76870394
REMARK minimizedRMSD -1
REMARK  0 active torsions:
REMARK  status: ('A' for Active; 'I' for Inactive)
ROOT
ATOM      1  C1  DEN d   1      -0.338   0.983  -1.605  0.00  0.00     0.130 A 
ATOM      2  C2  DEN d   1      -1.356   1.620  -0.775  0.00  0.00    -0.031 A 
ATOM      3  C3  DEN d   1      -1.188   1.132   0.609  0.00  0.00     0.027 A 
ATOM      4  C4  DEN d   1       0.545  -0.535   1.542  0.00  0.00     0.027 A 
ATOM      5  C5  DEN d   1       1.607  -1.350   1.217  0.00  0.00    -0.003 A 
ATOM      6  C6  DEN d   1       2.070  -1.469  -0.067  0.00  0.00     0.001 A 
ATOM      7  C7  DEN d   1       1.497  -0.727  -1.066  0.00  0.00     0.017 A 
ATOM      8  C8  DEN d   1       0.421   0.091  -0.748  0.00  0.00    -0.094 A 
ATOM      9  C9  DEN d   1      -0.024   0.207   0.558  0.00  0.00    -0.072 A 
ENDROOT
TORSDOF 0
ENDMDL
