MODEL 1
REMARK minimizedAffinity 8.40528297
REMARK minimizedRMSD -1
REMARK  0 active torsions:
REMARK  status: ('A' for Active; 'I' for Inactive)
ROOT
ATOM      1  C1  DEN d   1      -2.536  -1.959  -1.256  0.00  0.00     0.130 A 
ATOM      2  C2  DEN d   1      -1.847  -2.966  -0.453  0.00  0.00    -0.031 A 
ATOM      3  C3  DEN d   1      -1.332  -2.306   0.764  0.00  0.00     0.027 A 
ATOM      4  C4  DEN d   1      -1.537   0.163   1.481  0.00  0.00     0.027 A 
ATOM      5  C5  DEN d   1      -2.024   1.400   1.120  0.00  0.00    -0.003 A 
ATOM      6  C6  DEN d   1      -2.680   1.609  -0.064  0.00  0.00     0.001 A 
ATOM      7  C7  DEN d   1      -2.908   0.556  -0.910  0.00  0.00     0.017 A 
ATOM      8  C8  DEN d   1      -2.413  -0.693  -0.556  0.00  0.00    -0.094 A 
ATOM      9  C9  DEN d   1      -1.763  -0.886   0.651  0.00  0.00    -0.072 A 
ENDROOT
TORSDOF 0
ENDMDL
