MODEL 1
REMARK minimizedAffinity -1.32404816
REMARK minimizedRMSD -1
REMARK  2 active torsions:
REMARK  status: ('A' for Active; 'I' for Inactive)
REMARK    1  A    between atoms: C1_2  and  C2_3 
REMARK    2  A    between atoms: C2_3  and  C3_4 
ROOT
ATOM      1  C3  UNL d   1       1.427  -0.450   1.392  0.00  0.00    -0.075 A 
ATOM      2  C4  UNL d   1       1.213  -1.239   2.531  0.00  0.00     0.002 A 
ATOM      3  C5  UNL d   1      -0.082  -1.587   2.919  0.00  0.00     0.002 A 
ATOM      4  C6  UNL d   1      -1.176  -1.142   2.182  0.00  0.00    -0.004 A 
ATOM      5  C7  UNL d   1      -0.977  -0.343   1.058  0.00  0.00     0.002 A 
ATOM      6  C8  UNL d   1       0.318   0.002   0.664  0.00  0.00     0.002 A 
ENDROOT
BRANCH   1   7
ATOM      7  C2  UNL d   1       2.826  -0.095   0.950  0.00  0.00     0.056 C 
BRANCH   7   8
ATOM      8  C1  UNL d   1       2.971   0.100  -0.563  0.00  0.00     0.007 C 
ATOM      9  C   UNL d   1       2.647  -1.155  -1.364  0.00  0.00     0.009 C 
ENDBRANCH   7   8
ENDBRANCH   1   7
TORSDOF 2
ENDMDL
