MODEL 1
REMARK minimizedAffinity -4.70900154
REMARK minimizedRMSD -1
REMARK  2 active torsions:
REMARK  status: ('A' for Active; 'I' for Inactive)
REMARK    1  A    between atoms: C1_2  and  C2_3 
REMARK    2  A    between atoms: C2_3  and  C3_4 
ROOT
ATOM      1  C3  UNL d   1      -0.076  -0.214  -0.078  0.00  0.00    -0.075 A 
ATOM      2  C4  UNL d   1      -0.705   0.080   1.141  0.00  0.00     0.002 A 
ATOM      3  C5  UNL d   1      -0.257  -0.502   2.327  0.00  0.00     0.002 A 
ATOM      4  C6  UNL d   1       0.815  -1.392   2.309  0.00  0.00    -0.004 A 
ATOM      5  C7  UNL d   1       1.436  -1.704   1.102  0.00  0.00     0.002 A 
ATOM      6  C8  UNL d   1       0.993  -1.119  -0.086  0.00  0.00     0.002 A 
ENDROOT
BRANCH   1   7
ATOM      7  C2  UNL d   1      -0.537   0.436  -1.361  0.00  0.00     0.056 C 
BRANCH   7   8
ATOM      8  C1  UNL d   1      -0.085   1.891  -1.520  0.00  0.00     0.007 C 
ATOM      9  C   UNL d   1      -0.449   2.488  -2.873  0.00  0.00     0.009 C 
ENDBRANCH   7   8
ENDBRANCH   1   7
TORSDOF 2
ENDMDL
