MODEL 1
REMARK minimizedAffinity -2.74735641
REMARK minimizedRMSD -1
REMARK  2 active torsions:
REMARK  status: ('A' for Active; 'I' for Inactive)
REMARK    1  A    between atoms: C1_2  and  C2_3 
REMARK    2  A    between atoms: C2_3  and  C3_4 
ROOT
ATOM      1  C3  UNL d   1       0.992  -0.488   0.630  0.00  0.00    -0.075 A 
ATOM      2  C4  UNL d   1       1.474  -0.975   1.853  0.00  0.00     0.002 A 
ATOM      3  C5  UNL d   1       0.596  -1.501   2.802  0.00  0.00     0.002 A 
ATOM      4  C6  UNL d   1      -0.772  -1.537   2.544  0.00  0.00    -0.004 A 
ATOM      5  C7  UNL d   1      -1.264  -1.041   1.338  0.00  0.00     0.002 A 
ATOM      6  C8  UNL d   1      -0.387  -0.518   0.386  0.00  0.00     0.002 A 
ENDROOT
BRANCH   1   7
ATOM      7  C2  UNL d   1       1.940   0.055  -0.413  0.00  0.00     0.056 C 
BRANCH   7   8
ATOM      8  C1  UNL d   1       2.354  -0.970  -1.474  0.00  0.00     0.007 C 
ATOM      9  C   UNL d   1       1.588  -2.282  -1.373  0.00  0.00     0.009 C 
ENDBRANCH   7   8
ENDBRANCH   1   7
TORSDOF 2
ENDMDL
