MODEL 1
REMARK minimizedAffinity -3.06461215
REMARK minimizedRMSD -1
REMARK  2 active torsions:
REMARK  status: ('A' for Active; 'I' for Inactive)
REMARK    1  A    between atoms: C1_2  and  C2_3 
REMARK    2  A    between atoms: C2_3  and  C3_4 
ROOT
ATOM      1  C3  UNL d   1      -0.688   1.541  -2.231  0.00  0.00    -0.075 A 
ATOM      2  C4  UNL d   1      -1.607   2.401  -1.613  0.00  0.00     0.002 A 
ATOM      3  C5  UNL d   1      -2.275   3.376  -2.355  0.00  0.00     0.002 A 
ATOM      4  C6  UNL d   1      -2.025   3.511  -3.718  0.00  0.00    -0.004 A 
ATOM      5  C7  UNL d   1      -1.101   2.673  -4.340  0.00  0.00     0.002 A 
ATOM      6  C8  UNL d   1      -0.435   1.693  -3.601  0.00  0.00     0.002 A 
ENDROOT
BRANCH   1   7
ATOM      7  C2  UNL d   1       0.016   0.465  -1.440  0.00  0.00     0.056 C 
BRANCH   7   8
ATOM      8  C1  UNL d   1      -0.917  -0.369  -0.555  0.00  0.00     0.007 C 
ATOM      9  C   UNL d   1      -0.503  -0.380   0.910  0.00  0.00     0.009 C 
ENDBRANCH   7   8
ENDBRANCH   1   7
TORSDOF 2
ENDMDL
