MODEL 1
REMARK minimizedAffinity -0.216451213
REMARK minimizedRMSD -1
REMARK  2 active torsions:
REMARK  status: ('A' for Active; 'I' for Inactive)
REMARK    1  A    between atoms: C1_2  and  C2_3 
REMARK    2  A    between atoms: C2_3  and  C3_4 
ROOT
ATOM      1  C3  UNL d   1       0.964  -0.699   1.417  0.00  0.00    -0.075 A 
ATOM      2  C4  UNL d   1       0.581  -1.594   2.427  0.00  0.00     0.002 A 
ATOM      3  C5  UNL d   1      -0.766  -1.887   2.642  0.00  0.00     0.002 A 
ATOM      4  C6  UNL d   1      -1.746  -1.282   1.858  0.00  0.00    -0.004 A 
ATOM      5  C7  UNL d   1      -1.379  -0.379   0.863  0.00  0.00     0.002 A 
ATOM      6  C8  UNL d   1      -0.032  -0.088   0.643  0.00  0.00     0.002 A 
ENDROOT
BRANCH   1   7
ATOM      7  C2  UNL d   1       2.421  -0.401   1.160  0.00  0.00     0.056 C 
BRANCH   7   8
ATOM      8  C1  UNL d   1       2.987  -1.083  -0.091  0.00  0.00     0.007 C 
ATOM      9  C   UNL d   1       2.097  -2.201  -0.619  0.00  0.00     0.009 C 
ENDBRANCH   7   8
ENDBRANCH   1   7
TORSDOF 2
ENDMDL
