MODEL 1
REMARK minimizedAffinity 2.00172997
REMARK minimizedRMSD -1
REMARK  1 active torsions:
REMARK  status: ('A' for Active; 'I' for Inactive)
REMARK    1  A    between atoms: N_2  and  C1_3 
ROOT
ATOM      1  C1  UNL d   1       1.357  -1.372   1.907  0.00  0.00     0.143 A 
ATOM      2  C2  UNL d   1       0.114  -1.900   1.542  0.00  0.00    -0.057 A 
ATOM      3  C3  UNL d   1      -1.072  -1.426   2.115  0.00  0.00     0.033 A 
ATOM      4  C4  UNL d   1      -1.034  -0.432   3.087  0.00  0.00    -0.042 A 
ATOM      5  C5  UNL d   1       0.193   0.090   3.483  0.00  0.00     0.033 A 
ATOM      6  C6  UNL d   1       1.373  -0.383   2.903  0.00  0.00    -0.057 A 
ENDROOT
BRANCH   1   7
ATOM      7  N   UNL d   1       2.579  -1.869   1.446  0.00  0.00    -0.732 N 
ATOM      8  C   UNL d   1       2.647  -2.642   0.224  0.00  0.00     0.284 C 
ATOM      9  H3  UNL d   1       3.337  -1.200   1.558  0.00  0.00     0.395 HD
ENDBRANCH   1   7
TORSDOF 1
ENDMDL
