MODEL 1
REMARK minimizedAffinity 0.0239685755
REMARK minimizedRMSD -1
REMARK  1 active torsions:
REMARK  status: ('A' for Active; 'I' for Inactive)
REMARK    1  A    between atoms: N_2  and  C1_3 
ROOT
ATOM      1  C1  UNL d   1      -0.101  -0.632   2.406  0.00  0.00     0.143 A 
ATOM      2  C2  UNL d   1       0.743   0.298   3.022  0.00  0.00    -0.057 A 
ATOM      3  C3  UNL d   1       2.128   0.098   3.078  0.00  0.00     0.033 A 
ATOM      4  C4  UNL d   1       2.692  -1.055   2.541  0.00  0.00    -0.042 A 
ATOM      5  C5  UNL d   1       1.870  -2.005   1.945  0.00  0.00     0.033 A 
ATOM      6  C6  UNL d   1       0.488  -1.796   1.887  0.00  0.00    -0.057 A 
ENDROOT
BRANCH   1   7
ATOM      7  N   UNL d   1      -1.494  -0.537   2.405  0.00  0.00    -0.732 N 
ATOM      8  C   UNL d   1      -2.153   0.643   2.922  0.00  0.00     0.284 C 
ATOM      9  H3  UNL d   1      -1.908  -0.904   1.552  0.00  0.00     0.395 HD
ENDBRANCH   1   7
TORSDOF 1
ENDMDL
