MODEL 1
REMARK minimizedAffinity 2.19423747
REMARK minimizedRMSD -1
REMARK  1 active torsions:
REMARK  status: ('A' for Active; 'I' for Inactive)
REMARK    1  A    between atoms: N_2  and  C1_3 
ROOT
ATOM      1  C1  UNL d   1       2.634  -0.243  -1.074  0.00  0.00     0.143 A 
ATOM      2  C2  UNL d   1       2.188   0.044  -2.369  0.00  0.00    -0.057 A 
ATOM      3  C3  UNL d   1       2.176   1.356  -2.858  0.00  0.00     0.033 A 
ATOM      4  C4  UNL d   1       2.584   2.410  -2.049  0.00  0.00    -0.042 A 
ATOM      5  C5  UNL d   1       3.007   2.151  -0.750  0.00  0.00     0.033 A 
ATOM      6  C6  UNL d   1       3.023   0.839  -0.269  0.00  0.00    -0.057 A 
ENDROOT
BRANCH   1   7
ATOM      7  N   UNL d   1       2.577  -1.514  -0.496  0.00  0.00    -0.732 N 
ATOM      8  C   UNL d   1       1.929  -1.714   0.782  0.00  0.00     0.284 C 
ATOM      9  H3  UNL d   1       2.383  -2.243  -1.179  0.00  0.00     0.395 HD
ENDBRANCH   1   7
TORSDOF 1
ENDMDL
