MODEL 1
REMARK minimizedAffinity 20.6075287
REMARK minimizedRMSD -1
REMARK  1 active torsions:
REMARK  status: ('A' for Active; 'I' for Inactive)
REMARK    1  A    between atoms: C1_2  and  C2_3 
ROOT
ATOM      1  C2  UNL d   1       3.724   3.528  -0.202  0.00  0.00    -0.076 A 
ATOM      2  C3  UNL d   1       3.626   4.687   0.589  0.00  0.00     0.004 A 
ATOM      3  C4  UNL d   1       4.104   5.912   0.129  0.00  0.00    -0.003 A 
ATOM      4  C5  UNL d   1       4.688   6.000  -1.131  0.00  0.00     0.000 A 
ATOM      5  C6  UNL d   1       4.777   4.865  -1.936  0.00  0.00     0.000 A 
ATOM      6  C7  UNL d   1       4.285   3.625  -1.493  0.00  0.00    -0.073 A 
ATOM      7  C8  UNL d   1       4.413   2.432  -2.400  0.00  0.00     0.078 C 
ENDROOT
BRANCH   1   8
ATOM      8  C1  UNL d   1       3.212   2.222   0.361  0.00  0.00     0.053 C 
ATOM      9  C   UNL d   1       1.693   2.153   0.387  0.00  0.00     0.018 C 
ENDBRANCH   1   8
TORSDOF 1
ENDMDL
