MODEL 1
REMARK minimizedAffinity 21.2406406
REMARK minimizedRMSD -1
REMARK  1 active torsions:
REMARK  status: ('A' for Active; 'I' for Inactive)
REMARK    1  A    between atoms: C1_2  and  C2_3 
ROOT
ATOM      1  C2  UNL d   1      -3.069  -3.818  -0.714  0.00  0.00    -0.076 A 
ATOM      2  C3  UNL d   1      -3.772  -3.824  -1.931  0.00  0.00     0.004 A 
ATOM      3  C4  UNL d   1      -3.345  -3.054  -3.011  0.00  0.00    -0.003 A 
ATOM      4  C5  UNL d   1      -2.206  -2.265  -2.892  0.00  0.00     0.000 A 
ATOM      5  C6  UNL d   1      -1.486  -2.260  -1.697  0.00  0.00     0.000 A 
ATOM      6  C7  UNL d   1      -1.894  -3.043  -0.604  0.00  0.00    -0.073 A 
ATOM      7  C8  UNL d   1      -1.083  -2.995   0.662  0.00  0.00     0.078 C 
ENDROOT
BRANCH   1   8
ATOM      8  C1  UNL d   1      -3.596  -4.652   0.431  0.00  0.00     0.053 C 
ATOM      9  C   UNL d   1      -4.132  -6.000  -0.028  0.00  0.00     0.018 C 
ENDBRANCH   1   8
TORSDOF 1
ENDMDL
