MODEL 1
REMARK minimizedAffinity 15.4897585
REMARK minimizedRMSD -1
REMARK  1 active torsions:
REMARK  status: ('A' for Active; 'I' for Inactive)
REMARK    1  A    between atoms: C1_2  and  C2_3 
ROOT
ATOM      1  C2  UNL d   1       2.720   1.764  -1.804  0.00  0.00    -0.076 A 
ATOM      2  C3  UNL d   1       3.971   1.287  -2.233  0.00  0.00     0.004 A 
ATOM      3  C4  UNL d   1       4.329   1.321  -3.580  0.00  0.00    -0.003 A 
ATOM      4  C5  UNL d   1       3.441   1.832  -4.520  0.00  0.00     0.000 A 
ATOM      5  C6  UNL d   1       2.203   2.326  -4.110  0.00  0.00     0.000 A 
ATOM      6  C7  UNL d   1       1.833   2.314  -2.755  0.00  0.00    -0.073 A 
ATOM      7  C8  UNL d   1       0.483   2.854  -2.370  0.00  0.00     0.078 C 
ENDROOT
BRANCH   1   8
ATOM      8  C1  UNL d   1       2.377   1.677  -0.334  0.00  0.00     0.053 C 
ATOM      9  C   UNL d   1       2.632   0.294   0.243  0.00  0.00     0.018 C 
ENDBRANCH   1   8
TORSDOF 1
ENDMDL
