MODEL 1
REMARK minimizedAffinity 10.792448
REMARK minimizedRMSD -1
REMARK  1 active torsions:
REMARK  status: ('A' for Active; 'I' for Inactive)
REMARK    1  A    between atoms: C1_2  and  C2_3 
ROOT
ATOM      1  C2  UNL d   1       2.273   1.337  -1.633  0.00  0.00    -0.076 A 
ATOM      2  C3  UNL d   1       3.514   0.798  -2.012  0.00  0.00     0.004 A 
ATOM      3  C4  UNL d   1       4.051   1.050  -3.274  0.00  0.00    -0.003 A 
ATOM      4  C5  UNL d   1       3.355   1.847  -4.176  0.00  0.00     0.000 A 
ATOM      5  C6  UNL d   1       2.130   2.406  -3.810  0.00  0.00     0.000 A 
ATOM      6  C7  UNL d   1       1.583   2.174  -2.536  0.00  0.00    -0.073 A 
ATOM      7  C8  UNL d   1       0.257   2.796  -2.196  0.00  0.00     0.078 C 
ENDROOT
BRANCH   1   8
ATOM      8  C1  UNL d   1       1.729   1.007  -0.261  0.00  0.00     0.053 C 
ATOM      9  C   UNL d   1       2.505  -0.110   0.420  0.00  0.00     0.018 C 
ENDBRANCH   1   8
TORSDOF 1
ENDMDL
