MODEL 1
REMARK minimizedAffinity 0.92557472
REMARK minimizedRMSD -1
REMARK  1 active torsions:
REMARK  status: ('A' for Active; 'I' for Inactive)
REMARK    1  A    between atoms: C1_2  and  C2_3 
ROOT
ATOM      1  C2  UNL d   1       2.308   3.746  -4.210  0.00  0.00    -0.076 A 
ATOM      2  C3  UNL d   1       1.973   5.112  -4.232  0.00  0.00     0.004 A 
ATOM      3  C4  UNL d   1       2.635   5.999  -5.078  0.00  0.00    -0.003 A 
ATOM      4  C5  UNL d   1       3.643   5.537  -5.917  0.00  0.00     0.000 A 
ATOM      5  C6  UNL d   1       3.976   4.182  -5.922  0.00  0.00     0.000 A 
ATOM      6  C7  UNL d   1       3.307   3.271  -5.087  0.00  0.00    -0.073 A 
ATOM      7  C8  UNL d   1       3.711   1.823  -5.128  0.00  0.00     0.078 C 
ENDROOT
BRANCH   1   8
ATOM      8  C1  UNL d   1       1.574   2.836  -3.252  0.00  0.00     0.053 C 
ATOM      9  C   UNL d   1       0.535   3.576  -2.425  0.00  0.00     0.018 C 
ENDBRANCH   1   8
TORSDOF 1
ENDMDL
