MODEL 1
REMARK minimizedAffinity 7.92876053
REMARK minimizedRMSD -1
REMARK  1 active torsions:
REMARK  status: ('A' for Active; 'I' for Inactive)
REMARK    1  A    between atoms: C1_2  and  C2_3 
ROOT
ATOM      1  C2  UNL d   1      -1.897  -3.800   0.707  0.00  0.00    -0.076 A 
ATOM      2  C3  UNL d   1      -2.332  -4.415  -0.480  0.00  0.00     0.004 A 
ATOM      3  C4  UNL d   1      -2.759  -3.655  -1.567  0.00  0.00    -0.003 A 
ATOM      4  C5  UNL d   1      -2.759  -2.267  -1.486  0.00  0.00     0.000 A 
ATOM      5  C6  UNL d   1      -2.315  -1.639  -0.322  0.00  0.00     0.000 A 
ATOM      6  C7  UNL d   1      -1.865  -2.391   0.777  0.00  0.00    -0.073 A 
ATOM      7  C8  UNL d   1      -1.403  -1.662   2.009  0.00  0.00     0.078 C 
ENDROOT
BRANCH   1   8
ATOM      8  C1  UNL d   1      -1.471  -4.676   1.863  0.00  0.00     0.053 C 
ATOM      9  C   UNL d   1      -2.218  -6.000   1.897  0.00  0.00     0.018 C 
ENDBRANCH   1   8
TORSDOF 1
ENDMDL
