MODEL 1
REMARK minimizedAffinity 7.54272175
REMARK minimizedRMSD -1
REMARK  1 active torsions:
REMARK  status: ('A' for Active; 'I' for Inactive)
REMARK    1  A    between atoms: C1_2  and  C2_3 
ROOT
ATOM      1  C2  UNL d   1      -5.370   0.434   4.826  0.00  0.00    -0.076 A 
ATOM      2  C3  UNL d   1      -5.763   1.102   5.999  0.00  0.00     0.004 A 
ATOM      3  C4  UNL d   1      -5.999   2.476   5.998  0.00  0.00    -0.003 A 
ATOM      4  C5  UNL d   1      -5.847   3.204   4.823  0.00  0.00     0.000 A 
ATOM      5  C6  UNL d   1      -5.476   2.554   3.646  0.00  0.00     0.000 A 
ATOM      6  C7  UNL d   1      -5.249   1.167   3.627  0.00  0.00    -0.073 A 
ATOM      7  C8  UNL d   1      -4.844   0.520   2.331  0.00  0.00     0.078 C 
ENDROOT
BRANCH   1   8
ATOM      8  C1  UNL d   1      -5.101  -1.052   4.895  0.00  0.00     0.053 C 
ATOM      9  C   UNL d   1      -3.647  -1.395   4.611  0.00  0.00     0.018 C 
ENDBRANCH   1   8
TORSDOF 1
ENDMDL
