MODEL 1
REMARK minimizedAffinity 6.2032485
REMARK minimizedRMSD -1
REMARK  1 active torsions:
REMARK  status: ('A' for Active; 'I' for Inactive)
REMARK    1  A    between atoms: C1_2  and  C2_3 
ROOT
ATOM      1  C2  UNL d   1      -3.767   1.386   3.563  0.00  0.00    -0.076 A 
ATOM      2  C3  UNL d   1      -3.059   2.514   3.112  0.00  0.00     0.004 A 
ATOM      3  C4  UNL d   1      -1.899   2.376   2.351  0.00  0.00    -0.003 A 
ATOM      4  C5  UNL d   1      -1.429   1.108   2.027  0.00  0.00     0.000 A 
ATOM      5  C6  UNL d   1      -2.129  -0.021   2.451  0.00  0.00     0.000 A 
ATOM      6  C7  UNL d   1      -3.308   0.100   3.205  0.00  0.00    -0.073 A 
ATOM      7  C8  UNL d   1      -4.019  -1.152   3.641  0.00  0.00     0.078 C 
ENDROOT
BRANCH   1   8
ATOM      8  C1  UNL d   1      -5.002   1.597   4.408  0.00  0.00     0.053 C 
ATOM      9  C   UNL d   1      -4.789   2.630   5.504  0.00  0.00     0.018 C 
ENDBRANCH   1   8
TORSDOF 1
ENDMDL
