MODEL 1
REMARK minimizedAffinity 11.5806446
REMARK minimizedRMSD -1
REMARK  1 active torsions:
REMARK  status: ('A' for Active; 'I' for Inactive)
REMARK    1  A    between atoms: C1_2  and  C2_3 
ROOT
ATOM      1  C2  UNL d   1      -2.166  -3.203  -3.644  0.00  0.00    -0.076 A 
ATOM      2  C3  UNL d   1      -1.030  -3.714  -2.994  0.00  0.00     0.004 A 
ATOM      3  C4  UNL d   1       0.077  -4.151  -3.720  0.00  0.00    -0.003 A 
ATOM      4  C5  UNL d   1       0.065  -4.083  -5.109  0.00  0.00     0.000 A 
ATOM      5  C6  UNL d   1      -1.048  -3.562  -5.770  0.00  0.00     0.000 A 
ATOM      6  C7  UNL d   1      -2.165  -3.102  -5.051  0.00  0.00    -0.073 A 
ATOM      7  C8  UNL d   1      -3.339  -2.556  -5.816  0.00  0.00     0.078 C 
ENDROOT
BRANCH   1   8
ATOM      8  C1  UNL d   1      -3.347  -2.769  -2.805  0.00  0.00     0.053 C 
ATOM      9  C   UNL d   1      -3.280  -3.306  -1.383  0.00  0.00     0.018 C 
ENDBRANCH   1   8
TORSDOF 1
ENDMDL
