MODEL 1
REMARK minimizedAffinity 4.74517679
REMARK minimizedRMSD -1
REMARK  1 active torsions:
REMARK  status: ('A' for Active; 'I' for Inactive)
REMARK    1  A    between atoms: C1_2  and  C2_3 
ROOT
ATOM      1  C2  UNL d   1      -0.996   1.842   1.494  0.00  0.00    -0.076 A 
ATOM      2  C3  UNL d   1       0.128   2.549   1.032  0.00  0.00     0.004 A 
ATOM      3  C4  UNL d   1       1.376   1.934   0.944  0.00  0.00    -0.003 A 
ATOM      4  C5  UNL d   1       1.520   0.602   1.317  0.00  0.00     0.000 A 
ATOM      5  C6  UNL d   1       0.412  -0.119   1.761  0.00  0.00     0.000 A 
ATOM      6  C7  UNL d   1      -0.856   0.481   1.840  0.00  0.00    -0.073 A 
ATOM      7  C8  UNL d   1      -2.016  -0.342   2.331  0.00  0.00     0.078 C 
ENDROOT
BRANCH   1   8
ATOM      8  C1  UNL d   1      -2.318   2.570   1.593  0.00  0.00     0.053 C 
ATOM      9  C   UNL d   1      -2.797   3.093   0.248  0.00  0.00     0.018 C 
ENDBRANCH   1   8
TORSDOF 1
ENDMDL
