MODEL 1
REMARK minimizedAffinity -3.42488384
REMARK minimizedRMSD -1
REMARK  0 active torsions:
REMARK  status: ('A' for Active; 'I' for Inactive)
ROOT
ATOM      1  C   UNL d   1      -0.289   3.670  -3.474  0.00  0.00     0.172 C 
ATOM      2  N   UNL d   1      -1.271   3.746  -2.418  0.00  0.00    -0.070 N 
ATOM      3  C1  UNL d   1      -2.584   4.105  -2.573  0.00  0.00    -0.004 A 
ATOM      4  C2  UNL d   1      -3.185   4.053  -1.334  0.00  0.00    -0.047 A 
ATOM      5  C3  UNL d   1      -2.199   3.651  -0.402  0.00  0.00    -0.047 A 
ATOM      6  C4  UNL d   1      -1.024   3.468  -1.100  0.00  0.00    -0.004 A 
ENDROOT
TORSDOF 0
ENDMDL
