MODEL 1
REMARK minimizedAffinity -3.83783245
REMARK minimizedRMSD -1
REMARK  0 active torsions:
REMARK  status: ('A' for Active; 'I' for Inactive)
ROOT
ATOM      1  C   UNL d   1      -1.108   3.539  -2.607  0.00  0.00     0.172 C 
ATOM      2  N   UNL d   1      -2.472   3.068  -2.546  0.00  0.00    -0.070 N 
ATOM      3  C1  UNL d   1      -2.866   1.815  -2.158  0.00  0.00    -0.004 A 
ATOM      4  C2  UNL d   1      -4.241   1.763  -2.236  0.00  0.00    -0.047 A 
ATOM      5  C3  UNL d   1      -4.688   3.028  -2.686  0.00  0.00    -0.047 A 
ATOM      6  C4  UNL d   1      -3.572   3.816  -2.870  0.00  0.00    -0.004 A 
ENDROOT
TORSDOF 0
ENDMDL
