MODEL 1
REMARK minimizedAffinity -1.56580794
REMARK minimizedRMSD -1
REMARK  0 active torsions:
REMARK  status: ('A' for Active; 'I' for Inactive)
ROOT
ATOM      1  C   UNL d   1      -0.186  -0.267  -1.688  0.00  0.00     0.172 C 
ATOM      2  N   UNL d   1      -0.519   1.015  -2.263  0.00  0.00    -0.070 N 
ATOM      3  C1  UNL d   1      -1.785   1.496  -2.463  0.00  0.00    -0.004 A 
ATOM      4  C2  UNL d   1      -1.677   2.747  -3.031  0.00  0.00    -0.047 A 
ATOM      5  C3  UNL d   1      -0.297   3.027  -3.178  0.00  0.00    -0.047 A 
ATOM      6  C4  UNL d   1       0.397   1.938  -2.695  0.00  0.00    -0.004 A 
ENDROOT
TORSDOF 0
ENDMDL
