MODEL 1
REMARK minimizedAffinity -2.44925642
REMARK minimizedRMSD -1
REMARK  0 active torsions:
REMARK  status: ('A' for Active; 'I' for Inactive)
ROOT
ATOM      1  C   UNL d   1       0.899  -1.808   2.617  0.00  0.00     0.172 C 
ATOM      2  N   UNL d   1       0.708  -1.387   1.249  0.00  0.00    -0.070 N 
ATOM      3  C1  UNL d   1      -0.289  -0.564   0.798  0.00  0.00    -0.004 A 
ATOM      4  C2  UNL d   1      -0.124  -0.406  -0.561  0.00  0.00    -0.047 A 
ATOM      5  C3  UNL d   1       1.011  -1.161  -0.940  0.00  0.00    -0.047 A 
ATOM      6  C4  UNL d   1       1.507  -1.758   0.199  0.00  0.00    -0.004 A 
ENDROOT
TORSDOF 0
ENDMDL
