MODEL 1
REMARK minimizedAffinity -3.34928799
REMARK minimizedRMSD -1
REMARK  0 active torsions:
REMARK  status: ('A' for Active; 'I' for Inactive)
ROOT
ATOM      1  C   UNL d   1       1.805  -1.580  -0.806  0.00  0.00     0.172 C 
ATOM      2  N   UNL d   1       0.891  -1.162   0.230  0.00  0.00    -0.070 N 
ATOM      3  C1  UNL d   1       1.041  -1.401   1.570  0.00  0.00    -0.004 A 
ATOM      4  C2  UNL d   1      -0.037  -0.843   2.222  0.00  0.00    -0.047 A 
ATOM      5  C3  UNL d   1      -0.865  -0.249   1.239  0.00  0.00    -0.047 A 
ATOM      6  C4  UNL d   1      -0.266  -0.462   0.015  0.00  0.00    -0.004 A 
ENDROOT
TORSDOF 0
ENDMDL
