MODEL 1
REMARK minimizedAffinity -3.13533449
REMARK minimizedRMSD -1
REMARK  0 active torsions:
REMARK  status: ('A' for Active; 'I' for Inactive)
ROOT
ATOM      1  C   UNL d   1      -1.020  -0.415   0.005  0.00  0.00     0.172 C 
ATOM      2  N   UNL d   1      -0.039  -0.442   1.065  0.00  0.00    -0.070 N 
ATOM      3  C1  UNL d   1      -0.313  -0.430   2.406  0.00  0.00    -0.004 A 
ATOM      4  C2  UNL d   1       0.888  -0.465   3.082  0.00  0.00    -0.047 A 
ATOM      5  C3  UNL d   1       1.918  -0.498   2.113  0.00  0.00    -0.047 A 
ATOM      6  C4  UNL d   1       1.316  -0.483   0.873  0.00  0.00    -0.004 A 
ENDROOT
TORSDOF 0
ENDMDL
