MODEL 1
REMARK minimizedAffinity -2.0021565
REMARK minimizedRMSD -1
REMARK  0 active torsions:
REMARK  status: ('A' for Active; 'I' for Inactive)
ROOT
ATOM      1  C2' OXE d   1       1.952   3.767  -1.221  0.00  0.00     0.078 C 
ATOM      2  C1' OXE d   1       4.140   3.381   0.495  0.00  0.00     0.078 C 
ATOM      3  C1  OXE d   1       3.086   2.304   0.445  0.00  0.00    -0.078 A 
ATOM      4  C2  OXE d   1       1.996   2.522  -0.362  0.00  0.00    -0.078 A 
ATOM      5  C3  OXE d   1       1.021   1.536  -0.486  0.00  0.00     0.003 A 
ATOM      6  C4  OXE d   1       1.063   0.392   0.319  0.00  0.00    -0.002 A 
ATOM      7  C5  OXE d   1       2.145   0.168   1.178  0.00  0.00    -0.002 A 
ATOM      8  C6  OXE d   1       3.183   1.092   1.221  0.00  0.00     0.003 A 
ENDROOT
TORSDOF 0
ENDMDL
