MODEL 1
REMARK minimizedAffinity 0.369344622
REMARK minimizedRMSD -1
REMARK  0 active torsions:
REMARK  status: ('A' for Active; 'I' for Inactive)
ROOT
ATOM      1  C2' OXE d   1      -2.638   0.337  -0.418  0.00  0.00     0.078 C 
ATOM      2  C1' OXE d   1      -0.120  -0.553  -1.282  0.00  0.00     0.078 C 
ATOM      3  C1  OXE d   1      -0.267  -0.154   0.165  0.00  0.00    -0.078 A 
ATOM      4  C2  OXE d   1      -1.490   0.325   0.568  0.00  0.00    -0.078 A 
ATOM      5  C3  OXE d   1      -1.695   0.655   1.905  0.00  0.00     0.003 A 
ATOM      6  C4  OXE d   1      -0.626   0.650   2.808  0.00  0.00    -0.002 A 
ATOM      7  C5  OXE d   1       0.638   0.203   2.409  0.00  0.00    -0.002 A 
ATOM      8  C6  OXE d   1       0.824  -0.242   1.105  0.00  0.00     0.003 A 
ENDROOT
TORSDOF 0
ENDMDL
