MODEL 1
REMARK minimizedAffinity -4.14707184
REMARK minimizedRMSD -1
REMARK  0 active torsions:
REMARK  status: ('A' for Active; 'I' for Inactive)
ROOT
ATOM      1  C2' OXE d   1      -2.379  -0.069   0.900  0.00  0.00     0.078 C 
ATOM      2  C1' OXE d   1      -1.029  -0.544   3.315  0.00  0.00     0.078 C 
ATOM      3  C1  OXE d   1      -0.197  -0.304   2.079  0.00  0.00    -0.078 A 
ATOM      4  C2  OXE d   1      -0.866  -0.119   0.893  0.00  0.00    -0.078 A 
ATOM      5  C3  OXE d   1      -0.149   0.160  -0.266  0.00  0.00     0.003 A 
ATOM      6  C4  OXE d   1       1.250   0.102  -0.266  0.00  0.00    -0.002 A 
ATOM      7  C5  OXE d   1       1.951  -0.124   0.924  0.00  0.00    -0.002 A 
ATOM      8  C6  OXE d   1       1.244  -0.287   2.110  0.00  0.00     0.003 A 
ENDROOT
TORSDOF 0
ENDMDL
