MODEL 1
REMARK minimizedAffinity -3.60683966
REMARK minimizedRMSD -1
REMARK  0 active torsions:
REMARK  status: ('A' for Active; 'I' for Inactive)
ROOT
ATOM      1  C2' OXE d   1      -0.824   0.058  -1.057  0.00  0.00     0.078 C 
ATOM      2  C1' OXE d   1      -2.205  -1.147   1.069  0.00  0.00     0.078 C 
ATOM      3  C1  OXE d   1      -0.868  -0.516   1.367  0.00  0.00    -0.078 A 
ATOM      4  C2  OXE d   1      -0.178   0.030   0.311  0.00  0.00    -0.078 A 
ATOM      5  C3  OXE d   1       1.035   0.673   0.539  0.00  0.00     0.003 A 
ATOM      6  C4  OXE d   1       1.631   0.634   1.806  0.00  0.00    -0.002 A 
ATOM      7  C5  OXE d   1       0.963   0.048   2.887  0.00  0.00    -0.002 A 
ATOM      8  C6  OXE d   1      -0.303  -0.492   2.693  0.00  0.00     0.003 A 
ENDROOT
TORSDOF 0
ENDMDL
