MODEL 1
REMARK minimizedAffinity -5.90515375
REMARK minimizedRMSD -1
REMARK  0 active torsions:
REMARK  status: ('A' for Active; 'I' for Inactive)
ROOT
ATOM      1  C2' OXE d   1       2.686   0.102   1.723  0.00  0.00     0.078 C 
ATOM      2  C1' OXE d   1       1.082   0.999  -0.399  0.00  0.00     0.078 C 
ATOM      3  C1  OXE d   1       0.415   0.219   0.706  0.00  0.00    -0.078 A 
ATOM      4  C2  OXE d   1       1.215  -0.256   1.717  0.00  0.00    -0.078 A 
ATOM      5  C3  OXE d   1       0.642  -0.933   2.789  0.00  0.00     0.003 A 
ATOM      6  C4  OXE d   1      -0.717  -1.269   2.771  0.00  0.00    -0.002 A 
ATOM      7  C5  OXE d   1      -1.543  -0.829   1.732  0.00  0.00    -0.002 A 
ATOM      8  C6  OXE d   1      -1.002  -0.050   0.715  0.00  0.00     0.003 A 
ENDROOT
TORSDOF 0
ENDMDL
