MODEL 1
REMARK minimizedAffinity -1.2761091
REMARK minimizedRMSD -1
REMARK  0 active torsions:
REMARK  status: ('A' for Active; 'I' for Inactive)
ROOT
ATOM      1  C2' OXE d   1       1.275  -0.214   0.793  0.00  0.00     0.078 C 
ATOM      2  C1' OXE d   1      -0.803  -1.352   2.298  0.00  0.00     0.078 C 
ATOM      3  C1  OXE d   1      -1.161  -0.699   0.986  0.00  0.00    -0.078 A 
ATOM      4  C2  OXE d   1      -0.144  -0.103   0.278  0.00  0.00    -0.078 A 
ATOM      5  C3  OXE d   1      -0.410   0.465  -0.964  0.00  0.00     0.003 A 
ATOM      6  C4  OXE d   1      -1.727   0.572  -1.427  0.00  0.00    -0.002 A 
ATOM      7  C5  OXE d   1      -2.782   0.007  -0.703  0.00  0.00    -0.002 A 
ATOM      8  C6  OXE d   1      -2.511  -0.668   0.482  0.00  0.00     0.003 A 
ENDROOT
TORSDOF 0
ENDMDL
