MODEL 1
REMARK minimizedAffinity 1.51205325
REMARK minimizedRMSD -1
REMARK  0 active torsions:
REMARK  status: ('A' for Active; 'I' for Inactive)
ROOT
ATOM      1  C2' OXE d   1       2.266  -2.255  -2.614  0.00  0.00     0.078 C 
ATOM      2  C1' OXE d   1       4.499  -0.709  -3.326  0.00  0.00     0.078 C 
ATOM      3  C1  OXE d   1       3.392  -0.033  -2.557  0.00  0.00    -0.078 A 
ATOM      4  C2  OXE d   1       2.283  -0.785  -2.254  0.00  0.00    -0.078 A 
ATOM      5  C3  OXE d   1       1.256  -0.225  -1.498  0.00  0.00     0.003 A 
ATOM      6  C4  OXE d   1       1.274   1.138  -1.178  0.00  0.00    -0.002 A 
ATOM      7  C5  OXE d   1       2.377   1.931  -1.512  0.00  0.00    -0.002 A 
ATOM      8  C6  OXE d   1       3.461   1.352  -2.163  0.00  0.00     0.003 A 
ENDROOT
TORSDOF 0
ENDMDL
