MODEL 1
REMARK minimizedAffinity 0.0541196056
REMARK minimizedRMSD -1
REMARK  0 active torsions:
REMARK  status: ('A' for Active; 'I' for Inactive)
ROOT
ATOM      1  C2' OXE d   1       4.666  -0.558  -2.624  0.00  0.00     0.078 C 
ATOM      2  C1' OXE d   1       2.246   0.487  -1.661  0.00  0.00     0.078 C 
ATOM      3  C1  OXE d   1       2.220  -0.884  -2.288  0.00  0.00    -0.078 A 
ATOM      4  C2  OXE d   1       3.400  -1.368  -2.799  0.00  0.00    -0.078 A 
ATOM      5  C3  OXE d   1       3.443  -2.651  -3.338  0.00  0.00     0.003 A 
ATOM      6  C4  OXE d   1       2.266  -3.389  -3.505  0.00  0.00    -0.002 A 
ATOM      7  C5  OXE d   1       1.046  -2.898  -3.028  0.00  0.00    -0.002 A 
ATOM      8  C6  OXE d   1       1.013  -1.668  -2.380  0.00  0.00     0.003 A 
ENDROOT
TORSDOF 0
ENDMDL
