MODEL 1
REMARK minimizedAffinity -1.65504575
REMARK minimizedRMSD -1
REMARK  0 active torsions:
REMARK  status: ('A' for Active; 'I' for Inactive)
ROOT
ATOM      1  C2' OXE d   1      -5.987   1.985   5.495  0.00  0.00     0.078 C 
ATOM      2  C1' OXE d   1      -6.000   2.808   2.812  0.00  0.00     0.078 C 
ATOM      3  C1  OXE d   1      -4.688   2.353   3.402  0.00  0.00    -0.078 A 
ATOM      4  C2  OXE d   1      -4.682   1.997   4.729  0.00  0.00    -0.078 A 
ATOM      5  C3  OXE d   1      -3.511   1.518   5.309  0.00  0.00     0.003 A 
ATOM      6  C4  OXE d   1      -2.306   1.541   4.596  0.00  0.00    -0.002 A 
ATOM      7  C5  OXE d   1      -2.283   1.938   3.255  0.00  0.00    -0.002 A 
ATOM      8  C6  OXE d   1      -3.470   2.306   2.632  0.00  0.00     0.003 A 
ENDROOT
TORSDOF 0
ENDMDL
