MODEL 1
REMARK minimizedAffinity 7.0664258
REMARK minimizedRMSD -1
REMARK  0 active torsions:
REMARK  status: ('A' for Active; 'I' for Inactive)
ROOT
ATOM      1  C2' OXE d   1      -5.999  -3.064   1.232  0.00  0.00     0.078 C 
ATOM      2  C1' OXE d   1      -6.000  -5.852   1.558  0.00  0.00     0.078 C 
ATOM      3  C1  OXE d   1      -4.808  -5.223   0.880  0.00  0.00    -0.078 A 
ATOM      4  C2  OXE d   1      -4.837  -3.864   0.683  0.00  0.00    -0.078 A 
ATOM      5  C3  OXE d   1      -3.740  -3.226   0.112  0.00  0.00     0.003 A 
ATOM      6  C4  OXE d   1      -2.674  -3.974  -0.402  0.00  0.00    -0.002 A 
ATOM      7  C5  OXE d   1      -2.642  -5.364  -0.247  0.00  0.00    -0.002 A 
ATOM      8  C6  OXE d   1      -3.679  -5.998   0.428  0.00  0.00     0.003 A 
ENDROOT
TORSDOF 0
ENDMDL
