MODEL 1
REMARK minimizedAffinity 1.51016927
REMARK minimizedRMSD -1
REMARK  0 active torsions:
REMARK  status: ('A' for Active; 'I' for Inactive)
ROOT
ATOM      1  C2' OXE d   1       1.800  -0.131  -1.509  0.00  0.00     0.078 C 
ATOM      2  C1' OXE d   1       3.574  -1.417  -3.264  0.00  0.00     0.078 C 
ATOM      3  C1  OXE d   1       2.306  -2.142  -2.890  0.00  0.00    -0.078 A 
ATOM      4  C2  OXE d   1       1.466  -1.525  -1.994  0.00  0.00    -0.078 A 
ATOM      5  C3  OXE d   1       0.256  -2.126  -1.657  0.00  0.00     0.003 A 
ATOM      6  C4  OXE d   1      -0.041  -3.420  -2.103  0.00  0.00    -0.002 A 
ATOM      7  C5  OXE d   1       0.820  -4.082  -2.985  0.00  0.00    -0.002 A 
ATOM      8  C6  OXE d   1       1.974  -3.441  -3.421  0.00  0.00     0.003 A 
ENDROOT
TORSDOF 0
ENDMDL
