MODEL 1
REMARK minimizedAffinity -0.15933162
REMARK minimizedRMSD -1
REMARK  0 active torsions:
REMARK  status: ('A' for Active; 'I' for Inactive)
ROOT
ATOM      1  C2' OXE d   1      -5.991  -5.998   0.951  0.00  0.00     0.078 C 
ATOM      2  C1' OXE d   1      -5.998  -3.214   1.306  0.00  0.00     0.078 C 
ATOM      3  C1  OXE d   1      -4.669  -3.926   1.356  0.00  0.00    -0.078 A 
ATOM      4  C2  OXE d   1      -4.681  -5.294   1.228  0.00  0.00    -0.078 A 
ATOM      5  C3  OXE d   1      -3.478  -5.995   1.213  0.00  0.00     0.003 A 
ATOM      6  C4  OXE d   1      -2.271  -5.338   1.480  0.00  0.00    -0.002 A 
ATOM      7  C5  OXE d   1      -2.242  -3.950   1.653  0.00  0.00    -0.002 A 
ATOM      8  C6  OXE d   1      -3.424  -3.225   1.552  0.00  0.00     0.003 A 
ENDROOT
TORSDOF 0
ENDMDL
