MODEL 1
REMARK minimizedAffinity 3.42517114
REMARK minimizedRMSD -1
REMARK  0 active torsions:
REMARK  status: ('A' for Active; 'I' for Inactive)
ROOT
ATOM      1  C2' OXE d   1      -0.613  -5.633   2.251  0.00  0.00     0.078 C 
ATOM      2  C1' OXE d   1      -0.921  -2.884   1.774  0.00  0.00     0.078 C 
ATOM      3  C1  OXE d   1      -2.099  -3.783   1.494  0.00  0.00    -0.078 A 
ATOM      4  C2  OXE d   1      -1.925  -5.132   1.686  0.00  0.00    -0.078 A 
ATOM      5  C3  OXE d   1      -2.996  -6.000   1.494  0.00  0.00     0.003 A 
ATOM      6  C4  OXE d   1      -4.202  -5.530   0.962  0.00  0.00    -0.002 A 
ATOM      7  C5  OXE d   1      -4.388  -4.164   0.721  0.00  0.00    -0.002 A 
ATOM      8  C6  OXE d   1      -3.363  -3.274   1.022  0.00  0.00     0.003 A 
ENDROOT
TORSDOF 0
ENDMDL
