MODEL 1
REMARK minimizedAffinity 2.5390985
REMARK minimizedRMSD -1
REMARK  0 active torsions:
REMARK  status: ('A' for Active; 'I' for Inactive)
ROOT
ATOM      1  C2' OXE d   1       1.115  -6.000   0.902  0.00  0.00     0.078 C 
ATOM      2  C1' OXE d   1      -0.522  -4.528   2.643  0.00  0.00     0.078 C 
ATOM      3  C1  OXE d   1       0.855  -4.908   3.126  0.00  0.00    -0.078 A 
ATOM      4  C2  OXE d   1       1.632  -5.668   2.285  0.00  0.00    -0.078 A 
ATOM      5  C3  OXE d   1       2.931  -6.000   2.659  0.00  0.00     0.003 A 
ATOM      6  C4  OXE d   1       3.398  -5.698   3.944  0.00  0.00    -0.002 A 
ATOM      7  C5  OXE d   1       2.608  -4.958   4.831  0.00  0.00    -0.002 A 
ATOM      8  C6  OXE d   1       1.353  -4.520   4.422  0.00  0.00     0.003 A 
ENDROOT
TORSDOF 0
ENDMDL
