MODEL 1
REMARK minimizedAffinity 9.02659607
REMARK minimizedRMSD -1
REMARK  0 active torsions:
REMARK  status: ('A' for Active; 'I' for Inactive)
ROOT
ATOM      1  C2' OXE d   1      -3.194  -1.081  -3.802  0.00  0.00     0.078 C 
ATOM      2  C1' OXE d   1      -2.881  -2.859  -5.951  0.00  0.00     0.078 C 
ATOM      3  C1  OXE d   1      -1.683  -2.600  -5.073  0.00  0.00    -0.078 A 
ATOM      4  C2  OXE d   1      -1.832  -1.693  -4.051  0.00  0.00    -0.078 A 
ATOM      5  C3  OXE d   1      -0.774  -1.458  -3.177  0.00  0.00     0.003 A 
ATOM      6  C4  OXE d   1       0.485  -2.020  -3.421  0.00  0.00    -0.002 A 
ATOM      7  C5  OXE d   1       0.669  -2.916  -4.479  0.00  0.00    -0.002 A 
ATOM      8  C6  OXE d   1      -0.413  -3.249  -5.287  0.00  0.00     0.003 A 
ENDROOT
TORSDOF 0
ENDMDL
