MODEL 1
REMARK minimizedAffinity -1.53528738
REMARK minimizedRMSD -1
REMARK  0 active torsions:
REMARK  status: ('A' for Active; 'I' for Inactive)
ROOT
ATOM      1  C2' OXE d   1      -4.959  -3.303   0.013  0.00  0.00     0.078 C 
ATOM      2  C1' OXE d   1      -5.238  -5.998   0.748  0.00  0.00     0.078 C 
ATOM      3  C1  OXE d   1      -3.923  -5.321   1.044  0.00  0.00    -0.078 A 
ATOM      4  C2  OXE d   1      -3.779  -4.016   0.639  0.00  0.00    -0.078 A 
ATOM      5  C3  OXE d   1      -2.607  -3.327   0.936  0.00  0.00     0.003 A 
ATOM      6  C4  OXE d   1      -1.517  -3.996   1.506  0.00  0.00    -0.002 A 
ATOM      7  C5  OXE d   1      -1.628  -5.337   1.890  0.00  0.00    -0.002 A 
ATOM      8  C6  OXE d   1      -2.836  -6.000   1.705  0.00  0.00     0.003 A 
ENDROOT
TORSDOF 0
ENDMDL
