MODEL 1
REMARK minimizedAffinity 0.79946655
REMARK minimizedRMSD -1
REMARK  0 active torsions:
REMARK  status: ('A' for Active; 'I' for Inactive)
ROOT
ATOM      1  C2' OXE d   1      -5.694  -5.996  -0.170  0.00  0.00     0.078 C 
ATOM      2  C1' OXE d   1      -5.667  -3.379   0.843  0.00  0.00     0.078 C 
ATOM      3  C1  OXE d   1      -4.340  -4.053   0.601  0.00  0.00    -0.078 A 
ATOM      4  C2  OXE d   1      -4.363  -5.350   0.149  0.00  0.00    -0.078 A 
ATOM      5  C3  OXE d   1      -3.167  -6.000  -0.143  0.00  0.00     0.003 A 
ATOM      6  C4  OXE d   1      -1.940  -5.399   0.165  0.00  0.00    -0.002 A 
ATOM      7  C5  OXE d   1      -1.895  -4.092   0.663  0.00  0.00    -0.002 A 
ATOM      8  C6  OXE d   1      -3.082  -3.391   0.846  0.00  0.00     0.003 A 
ENDROOT
TORSDOF 0
ENDMDL
