MODEL 1
REMARK minimizedAffinity 5.28600454
REMARK minimizedRMSD -1
REMARK  0 active torsions:
REMARK  status: ('A' for Active; 'I' for Inactive)
ROOT
ATOM      1  C2' OXE d   1      -2.415   1.364   2.558  0.00  0.00     0.078 C 
ATOM      2  C1' OXE d   1      -0.060   0.330   1.433  0.00  0.00     0.078 C 
ATOM      3  C1  OXE d   1       0.074   1.264   2.610  0.00  0.00    -0.078 A 
ATOM      4  C2  OXE d   1      -1.082   1.802   3.124  0.00  0.00    -0.078 A 
ATOM      5  C3  OXE d   1      -1.019   2.626   4.244  0.00  0.00     0.003 A 
ATOM      6  C4  OXE d   1       0.218   3.035   4.756  0.00  0.00    -0.002 A 
ATOM      7  C5  OXE d   1       1.409   2.530   4.222  0.00  0.00    -0.002 A 
ATOM      8  C6  OXE d   1       1.353   1.613   3.178  0.00  0.00     0.003 A 
ENDROOT
TORSDOF 0
ENDMDL
