MODEL 1
REMARK minimizedAffinity 0.734479427
REMARK minimizedRMSD -1
REMARK  0 active torsions:
REMARK  status: ('A' for Active; 'I' for Inactive)
ROOT
ATOM      1  C   UNL d   1       1.533  -0.294  -2.032  0.00  0.00     0.077 C 
ATOM      2  C1  UNL d   1       0.449  -0.234  -0.997  0.00  0.00    -0.074 A 
ATOM      3  C2  UNL d   1      -0.896  -0.139  -1.370  0.00  0.00    -0.005 A 
ATOM      4  C3  UNL d   1      -1.894  -0.094  -0.397  0.00  0.00     0.006 A 
ATOM      5  C4  UNL d   1      -1.558  -0.143   0.957  0.00  0.00    -0.005 A 
ATOM      6  C5  UNL d   1      -0.219  -0.240   1.348  0.00  0.00    -0.074 A 
ATOM      7  C6  UNL d   1       0.158  -0.304   2.798  0.00  0.00     0.077 C 
ATOM      8  C7  UNL d   1       0.778  -0.292   0.364  0.00  0.00    -0.001 A 
ENDROOT
TORSDOF 0
ENDMDL
