MODEL 1
REMARK minimizedAffinity 2.66053724
REMARK minimizedRMSD -1
REMARK  0 active torsions:
REMARK  status: ('A' for Active; 'I' for Inactive)
ROOT
ATOM      1  C   UNL d   1      -1.932  -2.999   3.968  0.00  0.00     0.077 C 
ATOM      2  C1  UNL d   1      -0.774  -2.765   3.044  0.00  0.00    -0.074 A 
ATOM      3  C2  UNL d   1       0.335  -3.616   3.053  0.00  0.00    -0.005 A 
ATOM      4  C3  UNL d   1       1.401  -3.392   2.181  0.00  0.00     0.006 A 
ATOM      5  C4  UNL d   1       1.367  -2.317   1.293  0.00  0.00    -0.005 A 
ATOM      6  C5  UNL d   1       0.266  -1.456   1.269  0.00  0.00    -0.074 A 
ATOM      7  C6  UNL d   1       0.210  -0.301   0.314  0.00  0.00     0.077 C 
ATOM      8  C7  UNL d   1      -0.804  -1.691   2.143  0.00  0.00    -0.001 A 
ENDROOT
TORSDOF 0
ENDMDL
