MODEL 1
REMARK minimizedAffinity -1.31806326
REMARK minimizedRMSD -1
REMARK  0 active torsions:
REMARK  status: ('A' for Active; 'I' for Inactive)
ROOT
ATOM      1  C   UNL d   1      -0.759  -0.059   1.352  0.00  0.00     0.077 C 
ATOM      2  C1  UNL d   1      -0.284  -1.433   1.717  0.00  0.00    -0.074 A 
ATOM      3  C2  UNL d   1       0.874  -1.970   1.143  0.00  0.00    -0.005 A 
ATOM      4  C3  UNL d   1       1.309  -3.246   1.500  0.00  0.00     0.006 A 
ATOM      5  C4  UNL d   1       0.593  -3.998   2.432  0.00  0.00    -0.005 A 
ATOM      6  C5  UNL d   1      -0.566  -3.478   3.017  0.00  0.00    -0.074 A 
ATOM      7  C6  UNL d   1      -1.342  -4.269   4.028  0.00  0.00     0.077 C 
ATOM      8  C7  UNL d   1      -0.993  -2.192   2.659  0.00  0.00    -0.001 A 
ENDROOT
TORSDOF 0
ENDMDL
