MODEL 1
REMARK minimizedAffinity -2.04776669
REMARK minimizedRMSD -1
REMARK  0 active torsions:
REMARK  status: ('A' for Active; 'I' for Inactive)
ROOT
ATOM      1  C   UNL d   1       1.538  -3.754   1.888  0.00  0.00     0.077 C 
ATOM      2  C1  UNL d   1       0.405  -2.781   2.033  0.00  0.00    -0.074 A 
ATOM      3  C2  UNL d   1      -0.521  -2.907   3.073  0.00  0.00    -0.005 A 
ATOM      4  C3  UNL d   1      -1.564  -1.990   3.201  0.00  0.00     0.006 A 
ATOM      5  C4  UNL d   1      -1.691  -0.939   2.292  0.00  0.00    -0.005 A 
ATOM      6  C5  UNL d   1      -0.774  -0.797   1.246  0.00  0.00    -0.074 A 
ATOM      7  C6  UNL d   1      -0.891   0.332   0.265  0.00  0.00     0.077 C 
ATOM      8  C7  UNL d   1       0.275  -1.719   1.128  0.00  0.00    -0.001 A 
ENDROOT
TORSDOF 0
ENDMDL
