MODEL 1
REMARK minimizedAffinity 2.9351306
REMARK minimizedRMSD -1
REMARK  0 active torsions:
REMARK  status: ('A' for Active; 'I' for Inactive)
ROOT
ATOM      1  C   UNL d   1       0.001  -5.642   3.453  0.00  0.00     0.077 C 
ATOM      2  C1  UNL d   1       1.106  -5.107   2.591  0.00  0.00    -0.074 A 
ATOM      3  C2  UNL d   1       0.927  -3.947   1.830  0.00  0.00    -0.005 A 
ATOM      4  C3  UNL d   1       1.967  -3.457   1.040  0.00  0.00     0.006 A 
ATOM      5  C4  UNL d   1       3.194  -4.119   1.004  0.00  0.00    -0.005 A 
ATOM      6  C5  UNL d   1       3.392  -5.280   1.759  0.00  0.00    -0.074 A 
ATOM      7  C6  UNL d   1       4.708  -5.998   1.739  0.00  0.00     0.077 C 
ATOM      8  C7  UNL d   1       2.345  -5.763   2.555  0.00  0.00    -0.001 A 
ENDROOT
TORSDOF 0
ENDMDL
