MODEL 1
REMARK minimizedAffinity -1.55330002
REMARK minimizedRMSD -1
REMARK  0 active torsions:
REMARK  status: ('A' for Active; 'I' for Inactive)
ROOT
ATOM      1  C   UNL d   1       1.680  -4.002   1.518  0.00  0.00     0.077 C 
ATOM      2  C1  UNL d   1       0.796  -2.791   1.562  0.00  0.00    -0.074 A 
ATOM      3  C2  UNL d   1      -0.025  -2.541   2.667  0.00  0.00    -0.005 A 
ATOM      4  C3  UNL d   1      -0.835  -1.406   2.698  0.00  0.00     0.006 A 
ATOM      5  C4  UNL d   1      -0.833  -0.512   1.626  0.00  0.00    -0.005 A 
ATOM      6  C5  UNL d   1      -0.019  -0.745   0.514  0.00  0.00    -0.074 A 
ATOM      7  C6  UNL d   1       0.002   0.211  -0.642  0.00  0.00     0.077 C 
ATOM      8  C7  UNL d   1       0.798  -1.884   0.493  0.00  0.00    -0.001 A 
ENDROOT
TORSDOF 0
ENDMDL
