MODEL 1
REMARK minimizedAffinity -1.56476688
REMARK minimizedRMSD -1
REMARK  0 active torsions:
REMARK  status: ('A' for Active; 'I' for Inactive)
ROOT
ATOM      1  C   UNL d   1       1.643  -3.274   0.677  0.00  0.00     0.077 C 
ATOM      2  C1  UNL d   1       0.708  -2.122   0.894  0.00  0.00    -0.074 A 
ATOM      3  C2  UNL d   1      -0.119  -2.069   2.020  0.00  0.00    -0.005 A 
ATOM      4  C3  UNL d   1      -0.976  -0.985   2.213  0.00  0.00     0.006 A 
ATOM      5  C4  UNL d   1      -1.015   0.054   1.283  0.00  0.00    -0.005 A 
ATOM      6  C5  UNL d   1      -0.195   0.019   0.151  0.00  0.00    -0.074 A 
ATOM      7  C6  UNL d   1      -0.218   1.132  -0.854  0.00  0.00     0.077 C 
ATOM      8  C7  UNL d   1       0.668  -1.070  -0.033  0.00  0.00    -0.001 A 
ENDROOT
TORSDOF 0
ENDMDL
