MODEL 1
REMARK minimizedAffinity 1.7020117
REMARK minimizedRMSD -1
REMARK  0 active torsions:
REMARK  status: ('A' for Active; 'I' for Inactive)
ROOT
ATOM      1  C   UNL d   1      -4.230  -0.024   1.687  0.00  0.00     0.077 C 
ATOM      2  C1  UNL d   1      -2.757  -0.244   1.511  0.00  0.00    -0.074 A 
ATOM      3  C2  UNL d   1      -2.008   0.559   0.644  0.00  0.00    -0.005 A 
ATOM      4  C3  UNL d   1      -0.637   0.349   0.499  0.00  0.00     0.006 A 
ATOM      5  C4  UNL d   1      -0.001  -0.665   1.217  0.00  0.00    -0.005 A 
ATOM      6  C5  UNL d   1      -0.733  -1.477   2.089  0.00  0.00    -0.074 A 
ATOM      7  C6  UNL d   1      -0.064  -2.564   2.876  0.00  0.00     0.077 C 
ATOM      8  C7  UNL d   1      -2.109  -1.255   2.235  0.00  0.00    -0.001 A 
ENDROOT
TORSDOF 0
ENDMDL
