MODEL 1
REMARK minimizedAffinity 5.0097332
REMARK minimizedRMSD -1
REMARK  1 active torsions:
REMARK  status: ('A' for Active; 'I' for Inactive)
REMARK    1  A    between atoms: C1_2  and  C2_3 
ROOT
ATOM      1  C2  UNL d   1      -3.882   2.250  -0.485  0.00  0.00    -0.076 A 
ATOM      2  C3  UNL d   1      -3.447   3.556  -0.770  0.00  0.00     0.004 A 
ATOM      3  C4  UNL d   1      -4.254   4.441  -1.482  0.00  0.00    -0.003 A 
ATOM      4  C5  UNL d   1      -5.510   4.036  -1.919  0.00  0.00     0.000 A 
ATOM      5  C6  UNL d   1      -5.965   2.750  -1.630  0.00  0.00     0.000 A 
ATOM      6  C7  UNL d   1      -5.171   1.850  -0.899  0.00  0.00    -0.073 A 
ATOM      7  C8  UNL d   1      -5.709   0.474  -0.620  0.00  0.00     0.078 C 
ENDROOT
BRANCH   1   8
ATOM      8  C1  UNL d   1      -2.952   1.325   0.268  0.00  0.00     0.053 C 
ATOM      9  C   UNL d   1      -1.493   1.733   0.136  0.00  0.00     0.018 C 
ENDBRANCH   1   8
TORSDOF 1
ENDMDL
