MODEL 1
REMARK minimizedAffinity 12.2309017
REMARK minimizedRMSD -1
REMARK  1 active torsions:
REMARK  status: ('A' for Active; 'I' for Inactive)
REMARK    1  A    between atoms: C1_2  and  C2_3 
ROOT
ATOM      1  C2  UNL d   1       0.882  -3.168   4.306  0.00  0.00    -0.076 A 
ATOM      2  C3  UNL d   1      -0.258  -3.836   3.828  0.00  0.00     0.004 A 
ATOM      3  C4  UNL d   1      -0.699  -5.018   4.420  0.00  0.00    -0.003 A 
ATOM      4  C5  UNL d   1      -0.006  -5.552   5.501  0.00  0.00     0.000 A 
ATOM      5  C6  UNL d   1       1.117  -4.894   6.000  0.00  0.00     0.000 A 
ATOM      6  C7  UNL d   1       1.565  -3.692   5.425  0.00  0.00    -0.073 A 
ATOM      7  C8  UNL d   1       2.786  -3.028   6.000  0.00  0.00     0.078 C 
ENDROOT
BRANCH   1   8
ATOM      8  C1  UNL d   1       1.328  -1.904   3.607  0.00  0.00     0.053 C 
ATOM      9  C   UNL d   1       0.339  -0.762   3.780  0.00  0.00     0.018 C 
ENDBRANCH   1   8
TORSDOF 1
ENDMDL
