MODEL 1
REMARK minimizedAffinity 13.5791731
REMARK minimizedRMSD -1
REMARK  1 active torsions:
REMARK  status: ('A' for Active; 'I' for Inactive)
REMARK    1  A    between atoms: C1_2  and  C2_3 
ROOT
ATOM      1  C2  UNL d   1       0.840   0.288   1.612  0.00  0.00    -0.076 A 
ATOM      2  C3  UNL d   1      -0.084  -0.009   2.629  0.00  0.00     0.004 A 
ATOM      3  C4  UNL d   1       0.063  -1.145   3.423  0.00  0.00    -0.003 A 
ATOM      4  C5  UNL d   1       1.138  -2.002   3.213  0.00  0.00     0.000 A 
ATOM      5  C6  UNL d   1       2.073  -1.714   2.220  0.00  0.00     0.000 A 
ATOM      6  C7  UNL d   1       1.948  -0.565   1.421  0.00  0.00    -0.073 A 
ATOM      7  C8  UNL d   1       2.984  -0.306   0.361  0.00  0.00     0.078 C 
ENDROOT
BRANCH   1   8
ATOM      8  C1  UNL d   1       0.614   1.520   0.764  0.00  0.00     0.053 C 
ATOM      9  C   UNL d   1       0.042   1.188  -0.605  0.00  0.00     0.018 C 
ENDBRANCH   1   8
TORSDOF 1
ENDMDL
