MODEL 1
REMARK minimizedAffinity 5.38769293
REMARK minimizedRMSD -1
REMARK  1 active torsions:
REMARK  status: ('A' for Active; 'I' for Inactive)
REMARK    1  A    between atoms: C1_2  and  C2_3 
ROOT
ATOM      1  C2  UNL d   1       0.603  -4.157  -0.801  0.00  0.00    -0.076 A 
ATOM      2  C3  UNL d   1       0.047  -4.974   0.198  0.00  0.00     0.004 A 
ATOM      3  C4  UNL d   1      -0.962  -5.888  -0.101  0.00  0.00    -0.003 A 
ATOM      4  C5  UNL d   1      -1.431  -6.000  -1.406  0.00  0.00     0.000 A 
ATOM      5  C6  UNL d   1      -0.879  -5.209  -2.413  0.00  0.00     0.000 A 
ATOM      6  C7  UNL d   1       0.150  -4.294  -2.131  0.00  0.00    -0.073 A 
ATOM      7  C8  UNL d   1       0.704  -3.462  -3.254  0.00  0.00     0.078 C 
ENDROOT
BRANCH   1   8
ATOM      8  C1  UNL d   1       1.675  -3.164  -0.412  0.00  0.00     0.053 C 
ATOM      9  C   UNL d   1       1.640  -2.820   1.069  0.00  0.00     0.018 C 
ENDBRANCH   1   8
TORSDOF 1
ENDMDL
