MODEL 1
REMARK minimizedAffinity 7.93135118
REMARK minimizedRMSD -1
REMARK  1 active torsions:
REMARK  status: ('A' for Active; 'I' for Inactive)
REMARK    1  A    between atoms: C1_2  and  C2_3 
ROOT
ATOM      1  C2  UNL d   1       2.179  -2.329  -0.723  0.00  0.00    -0.076 A 
ATOM      2  C3  UNL d   1       2.971  -1.839  -1.776  0.00  0.00     0.004 A 
ATOM      3  C4  UNL d   1       3.756  -0.699  -1.613  0.00  0.00    -0.003 A 
ATOM      4  C5  UNL d   1       3.762  -0.031  -0.394  0.00  0.00     0.000 A 
ATOM      5  C6  UNL d   1       2.996  -0.513   0.667  0.00  0.00     0.000 A 
ATOM      6  C7  UNL d   1       2.211  -1.670   0.524  0.00  0.00    -0.073 A 
ATOM      7  C8  UNL d   1       1.400  -2.142   1.699  0.00  0.00     0.078 C 
ENDROOT
BRANCH   1   8
ATOM      8  C1  UNL d   1       1.327  -3.555  -0.968  0.00  0.00     0.053 C 
ATOM      9  C   UNL d   1       1.100  -3.821  -2.448  0.00  0.00     0.018 C 
ENDBRANCH   1   8
TORSDOF 1
ENDMDL
