MODEL 1
REMARK minimizedAffinity -0.768585801
REMARK minimizedRMSD -1
REMARK  0 active torsions:
REMARK  status: ('A' for Active; 'I' for Inactive)
ROOT
ATOM      1  C   UNL d   1       1.600  -5.613  -4.141  0.00  0.00     0.078 C 
ATOM      2  C1  UNL d   1       0.126  -5.514  -4.399  0.00  0.00    -0.077 A 
ATOM      3  C2  UNL d   1      -0.736  -4.953  -3.448  0.00  0.00    -0.001 A 
ATOM      4  C3  UNL d   1      -2.107  -4.876  -3.697  0.00  0.00     0.003 A 
ATOM      5  C4  UNL d   1      -2.629  -5.358  -4.896  0.00  0.00    -0.005 A 
ATOM      6  C5  UNL d   1      -1.779  -5.920  -5.847  0.00  0.00     0.003 A 
ATOM      7  C6  UNL d   1      -0.408  -5.998  -5.599  0.00  0.00    -0.001 A 
ENDROOT
TORSDOF 0
ENDMDL
