MODEL 1
REMARK minimizedAffinity 6.88610506
REMARK minimizedRMSD -1
REMARK  0 active torsions:
REMARK  status: ('A' for Active; 'I' for Inactive)
ROOT
ATOM      1  C   UNL d   1      -1.250  -3.105  -2.419  0.00  0.00     0.078 C 
ATOM      2  C1  UNL d   1      -1.513  -4.092  -3.516  0.00  0.00    -0.077 A 
ATOM      3  C2  UNL d   1      -0.473  -4.565  -4.326  0.00  0.00    -0.001 A 
ATOM      4  C3  UNL d   1      -0.735  -5.476  -5.351  0.00  0.00     0.003 A 
ATOM      5  C4  UNL d   1      -2.036  -5.922  -5.575  0.00  0.00    -0.005 A 
ATOM      6  C5  UNL d   1      -3.077  -5.456  -4.775  0.00  0.00     0.003 A 
ATOM      7  C6  UNL d   1      -2.818  -4.545  -3.750  0.00  0.00    -0.001 A 
ENDROOT
TORSDOF 0
ENDMDL
