MODEL 1
REMARK minimizedAffinity 7.68562078
REMARK minimizedRMSD -1
REMARK  0 active torsions:
REMARK  status: ('A' for Active; 'I' for Inactive)
ROOT
ATOM      1  C   UNL d   1       5.998   4.441  -4.503  0.00  0.00     0.078 C 
ATOM      2  C1  UNL d   1       4.711   3.864  -3.994  0.00  0.00    -0.077 A 
ATOM      3  C2  UNL d   1       3.991   2.931  -4.750  0.00  0.00    -0.001 A 
ATOM      4  C3  UNL d   1       2.789   2.409  -4.268  0.00  0.00     0.003 A 
ATOM      5  C4  UNL d   1       2.297   2.815  -3.029  0.00  0.00    -0.005 A 
ATOM      6  C5  UNL d   1       3.006   3.745  -2.271  0.00  0.00     0.003 A 
ATOM      7  C6  UNL d   1       4.208   4.268  -2.751  0.00  0.00    -0.001 A 
ENDROOT
TORSDOF 0
ENDMDL
