MODEL 1
REMARK minimizedAffinity 9.72519016
REMARK minimizedRMSD -1
REMARK  0 active torsions:
REMARK  status: ('A' for Active; 'I' for Inactive)
ROOT
ATOM      1  C   UNL d   1       2.610   1.626   0.003  0.00  0.00     0.078 C 
ATOM      2  C1  UNL d   1       3.793   2.490   0.329  0.00  0.00    -0.077 A 
ATOM      3  C2  UNL d   1       3.996   2.975   1.626  0.00  0.00    -0.001 A 
ATOM      4  C3  UNL d   1       5.095   3.786   1.913  0.00  0.00     0.003 A 
ATOM      5  C4  UNL d   1       6.000   4.119   0.906  0.00  0.00    -0.005 A 
ATOM      6  C5  UNL d   1       5.804   3.643  -0.388  0.00  0.00     0.003 A 
ATOM      7  C6  UNL d   1       4.706   2.832  -0.677  0.00  0.00    -0.001 A 
ENDROOT
TORSDOF 0
ENDMDL
