MODEL 1
REMARK minimizedAffinity 10.6037312
REMARK minimizedRMSD -1
REMARK  0 active torsions:
REMARK  status: ('A' for Active; 'I' for Inactive)
ROOT
ATOM      1  C   UNL d   1      -4.633   0.418   0.769  0.00  0.00     0.078 C 
ATOM      2  C1  UNL d   1      -3.350   0.053   1.454  0.00  0.00    -0.077 A 
ATOM      3  C2  UNL d   1      -2.908   0.757   2.581  0.00  0.00    -0.001 A 
ATOM      4  C3  UNL d   1      -1.707   0.412   3.202  0.00  0.00     0.003 A 
ATOM      5  C4  UNL d   1      -0.936  -0.635   2.703  0.00  0.00    -0.005 A 
ATOM      6  C5  UNL d   1      -1.366  -1.340   1.580  0.00  0.00     0.003 A 
ATOM      7  C6  UNL d   1      -2.567  -0.997   0.957  0.00  0.00    -0.001 A 
ENDROOT
TORSDOF 0
ENDMDL
