MODEL 1
REMARK minimizedAffinity 6.94994259
REMARK minimizedRMSD -1
REMARK  0 active torsions:
REMARK  status: ('A' for Active; 'I' for Inactive)
ROOT
ATOM      1  C   UNL d   1       5.999   4.137   1.064  0.00  0.00     0.078 C 
ATOM      2  C1  UNL d   1       5.068   2.962   1.072  0.00  0.00    -0.077 A 
ATOM      3  C2  UNL d   1       5.260   1.896   1.960  0.00  0.00    -0.001 A 
ATOM      4  C3  UNL d   1       4.390   0.804   1.950  0.00  0.00     0.003 A 
ATOM      5  C4  UNL d   1       3.324   0.767   1.054  0.00  0.00    -0.005 A 
ATOM      6  C5  UNL d   1       3.126   1.822   0.166  0.00  0.00     0.003 A 
ATOM      7  C6  UNL d   1       3.994   2.915   0.174  0.00  0.00    -0.001 A 
ENDROOT
TORSDOF 0
ENDMDL
