MODEL 1
REMARK minimizedAffinity -0.331805289
REMARK minimizedRMSD -1
REMARK  0 active torsions:
REMARK  status: ('A' for Active; 'I' for Inactive)
ROOT
ATOM      1  C   UNL d   1      -4.796  -0.341   0.302  0.00  0.00     0.078 C 
ATOM      2  C1  UNL d   1      -3.809  -0.137   1.412  0.00  0.00    -0.077 A 
ATOM      3  C2  UNL d   1      -3.918   0.955   2.282  0.00  0.00    -0.001 A 
ATOM      4  C3  UNL d   1      -2.986   1.138   3.305  0.00  0.00     0.003 A 
ATOM      5  C4  UNL d   1      -1.937   0.234   3.466  0.00  0.00    -0.005 A 
ATOM      6  C5  UNL d   1      -1.819  -0.853   2.604  0.00  0.00     0.003 A 
ATOM      7  C6  UNL d   1      -2.750  -1.038   1.580  0.00  0.00    -0.001 A 
ENDROOT
TORSDOF 0
ENDMDL
