MODEL 1
REMARK minimizedAffinity 5.89530611
REMARK minimizedRMSD -1
REMARK  0 active torsions:
REMARK  status: ('A' for Active; 'I' for Inactive)
ROOT
ATOM      1  C   UNL d   1       4.079   3.151  -5.999  0.00  0.00     0.078 C 
ATOM      2  C1  UNL d   1       3.949   3.799  -4.654  0.00  0.00    -0.077 A 
ATOM      3  C2  UNL d   1       2.758   3.714  -3.923  0.00  0.00    -0.001 A 
ATOM      4  C3  UNL d   1       2.649   4.331  -2.676  0.00  0.00     0.003 A 
ATOM      5  C4  UNL d   1       3.727   5.039  -2.149  0.00  0.00    -0.005 A 
ATOM      6  C5  UNL d   1       4.916   5.132  -2.870  0.00  0.00     0.003 A 
ATOM      7  C6  UNL d   1       5.027   4.516  -4.117  0.00  0.00    -0.001 A 
ENDROOT
TORSDOF 0
ENDMDL
