MODEL 1
REMARK minimizedAffinity 14.7341709
REMARK minimizedRMSD -1
REMARK  0 active torsions:
REMARK  status: ('A' for Active; 'I' for Inactive)
ROOT
ATOM      1  C   UNL d   1       5.767   5.957  -1.815  0.00  0.00     0.078 C 
ATOM      2  C1  UNL d   1       5.190   5.098  -2.900  0.00  0.00    -0.077 A 
ATOM      3  C2  UNL d   1       5.911   4.833  -4.071  0.00  0.00    -0.001 A 
ATOM      4  C3  UNL d   1       5.357   4.040  -5.077  0.00  0.00     0.003 A 
ATOM      5  C4  UNL d   1       4.079   3.506  -4.923  0.00  0.00    -0.005 A 
ATOM      6  C5  UNL d   1       3.353   3.766  -3.762  0.00  0.00     0.003 A 
ATOM      7  C6  UNL d   1       3.905   4.559  -2.755  0.00  0.00    -0.001 A 
ENDROOT
TORSDOF 0
ENDMDL
