MODEL 1
REMARK minimizedAffinity 11.5830555
REMARK minimizedRMSD -1
REMARK  0 active torsions:
REMARK  status: ('A' for Active; 'I' for Inactive)
ROOT
ATOM      1  C   UNL d   1       5.497   5.042  -1.499  0.00  0.00     0.078 C 
ATOM      2  C1  UNL d   1       4.731   4.331  -2.574  0.00  0.00    -0.077 A 
ATOM      3  C2  UNL d   1       3.447   3.828  -2.333  0.00  0.00    -0.001 A 
ATOM      4  C3  UNL d   1       2.750   3.160  -3.341  0.00  0.00     0.003 A 
ATOM      5  C4  UNL d   1       3.329   2.988  -4.597  0.00  0.00    -0.005 A 
ATOM      6  C5  UNL d   1       4.607   3.484  -4.846  0.00  0.00     0.003 A 
ATOM      7  C6  UNL d   1       5.306   4.152  -3.839  0.00  0.00    -0.001 A 
ENDROOT
TORSDOF 0
ENDMDL
