MODEL 1
REMARK minimizedAffinity 10.600481
REMARK minimizedRMSD -1
REMARK  0 active torsions:
REMARK  status: ('A' for Active; 'I' for Inactive)
ROOT
ATOM      1  C   UNL d   1       2.023   3.034  -3.134  0.00  0.00     0.078 C 
ATOM      2  C1  UNL d   1       3.319   3.416  -3.784  0.00  0.00    -0.077 A 
ATOM      3  C2  UNL d   1       3.633   2.980  -5.077  0.00  0.00    -0.001 A 
ATOM      4  C3  UNL d   1       4.847   3.335  -5.666  0.00  0.00     0.003 A 
ATOM      5  C4  UNL d   1       5.758   4.127  -4.969  0.00  0.00    -0.005 A 
ATOM      6  C5  UNL d   1       5.455   4.564  -3.681  0.00  0.00     0.003 A 
ATOM      7  C6  UNL d   1       4.241   4.210  -3.091  0.00  0.00    -0.001 A 
ENDROOT
TORSDOF 0
ENDMDL
