MODEL 1
REMARK minimizedAffinity 5.72722054
REMARK minimizedRMSD -1
REMARK  0 active torsions:
REMARK  status: ('A' for Active; 'I' for Inactive)
ROOT
ATOM      1  C   UNL d   1       4.737   5.020  -2.162  0.00  0.00     0.078 C 
ATOM      2  C1  UNL d   1       3.317   4.567  -2.323  0.00  0.00    -0.077 A 
ATOM      3  C2  UNL d   1       2.252   5.463  -2.171  0.00  0.00    -0.001 A 
ATOM      4  C3  UNL d   1       0.934   5.025  -2.315  0.00  0.00     0.003 A 
ATOM      5  C4  UNL d   1       0.670   3.689  -2.611  0.00  0.00    -0.005 A 
ATOM      6  C5  UNL d   1       1.723   2.789  -2.762  0.00  0.00     0.003 A 
ATOM      7  C6  UNL d   1       3.041   3.226  -2.618  0.00  0.00    -0.001 A 
ENDROOT
TORSDOF 0
ENDMDL
