MODEL 1
REMARK minimizedAffinity 8.91509056
REMARK minimizedRMSD -1
REMARK  0 active torsions:
REMARK  status: ('A' for Active; 'I' for Inactive)
ROOT
ATOM      1  C   UNL d   1       5.298   3.641   2.323  0.00  0.00     0.078 C 
ATOM      2  C1  UNL d   1       4.659   2.714   1.332  0.00  0.00    -0.077 A 
ATOM      3  C2  UNL d   1       5.310   2.374   0.139  0.00  0.00    -0.001 A 
ATOM      4  C3  UNL d   1       4.699   1.518  -0.778  0.00  0.00     0.003 A 
ATOM      5  C4  UNL d   1       3.434   0.996  -0.513  0.00  0.00    -0.005 A 
ATOM      6  C5  UNL d   1       2.779   1.330   0.669  0.00  0.00     0.003 A 
ATOM      7  C6  UNL d   1       3.388   2.186   1.588  0.00  0.00    -0.001 A 
ENDROOT
TORSDOF 0
ENDMDL
