MODEL 1
REMARK minimizedAffinity 15.0876389
REMARK minimizedRMSD -1
REMARK  0 active torsions:
REMARK  status: ('A' for Active; 'I' for Inactive)
ROOT
ATOM      1  C   UNL d   1       1.453  -2.322   3.790  0.00  0.00     0.078 C 
ATOM      2  C1  UNL d   1       0.206  -1.707   3.227  0.00  0.00    -0.077 A 
ATOM      3  C2  UNL d   1      -0.346  -2.169   2.026  0.00  0.00    -0.001 A 
ATOM      4  C3  UNL d   1      -1.502  -1.582   1.508  0.00  0.00     0.003 A 
ATOM      5  C4  UNL d   1      -2.114  -0.528   2.184  0.00  0.00    -0.005 A 
ATOM      6  C5  UNL d   1      -1.570  -0.060   3.379  0.00  0.00     0.003 A 
ATOM      7  C6  UNL d   1      -0.415  -0.646   3.898  0.00  0.00    -0.001 A 
ENDROOT
TORSDOF 0
ENDMDL
