MODEL 1
REMARK minimizedAffinity 9.45477295
REMARK minimizedRMSD -1
REMARK  0 active torsions:
REMARK  status: ('A' for Active; 'I' for Inactive)
ROOT
ATOM      1  C   UNL d   1       1.775  -4.173  -0.378  0.00  0.00     0.078 C 
ATOM      2  C1  UNL d   1       3.249  -4.437  -0.297  0.00  0.00    -0.077 A 
ATOM      3  C2  UNL d   1       4.176  -3.397  -0.438  0.00  0.00    -0.001 A 
ATOM      4  C3  UNL d   1       5.545  -3.658  -0.370  0.00  0.00     0.003 A 
ATOM      5  C4  UNL d   1       6.000  -4.958  -0.162  0.00  0.00    -0.005 A 
ATOM      6  C5  UNL d   1       5.085  -6.000  -0.022  0.00  0.00     0.003 A 
ATOM      7  C6  UNL d   1       3.715  -5.741  -0.090  0.00  0.00    -0.001 A 
ENDROOT
TORSDOF 0
ENDMDL
