MODEL 1
REMARK minimizedAffinity 14.7856169
REMARK minimizedRMSD -1
REMARK  0 active torsions:
REMARK  status: ('A' for Active; 'I' for Inactive)
ROOT
ATOM      1  C   UNL d   1       0.000   5.999  -1.590  0.00  0.00     0.078 C 
ATOM      2  C1  UNL d   1       0.911   5.005  -2.248  0.00  0.00    -0.077 A 
ATOM      3  C2  UNL d   1       0.396   3.962  -3.028  0.00  0.00    -0.001 A 
ATOM      4  C3  UNL d   1       1.255   3.039  -3.627  0.00  0.00     0.003 A 
ATOM      5  C4  UNL d   1       2.633   3.148  -3.451  0.00  0.00    -0.005 A 
ATOM      6  C5  UNL d   1       3.154   4.182  -2.675  0.00  0.00     0.003 A 
ATOM      7  C6  UNL d   1       2.297   5.106  -2.076  0.00  0.00    -0.001 A 
ENDROOT
TORSDOF 0
ENDMDL
