MODEL 1
REMARK minimizedAffinity 16.2284355
REMARK minimizedRMSD -1
REMARK  0 active torsions:
REMARK  status: ('A' for Active; 'I' for Inactive)
ROOT
ATOM      1  C   UNL d   1      -4.402  -0.001   0.668  0.00  0.00     0.078 C 
ATOM      2  C1  UNL d   1      -3.144  -0.356   1.403  0.00  0.00    -0.077 A 
ATOM      3  C2  UNL d   1      -2.665   0.450   2.443  0.00  0.00    -0.001 A 
ATOM      4  C3  UNL d   1      -1.487   0.113   3.112  0.00  0.00     0.003 A 
ATOM      5  C4  UNL d   1      -0.778  -1.030   2.749  0.00  0.00    -0.005 A 
ATOM      6  C5  UNL d   1      -1.246  -1.837   1.713  0.00  0.00     0.003 A 
ATOM      7  C6  UNL d   1      -2.423  -1.502   1.043  0.00  0.00    -0.001 A 
ENDROOT
TORSDOF 0
ENDMDL
