MODEL 1
REMARK minimizedAffinity -2.32446504
REMARK minimizedRMSD -1
REMARK  0 active torsions:
REMARK  status: ('A' for Active; 'I' for Inactive)
ROOT
ATOM      1  O1  BZF d   1       1.096  -0.718   0.255  0.00  0.00    -0.204 OA
ATOM      2  C2  BZF d   1      -0.251  -1.004   0.143  0.00  0.00     0.174 A 
ATOM      3  C3  BZF d   1      -0.996   0.079   0.442  0.00  0.00    -0.012 A 
ATOM      4  C3A BZF d   1      -0.055   1.132   0.671  0.00  0.00    -0.107 A 
ATOM      5  C4  BZF d   1      -0.184   2.453   0.992  0.00  0.00     0.055 A 
ATOM      6  C5  BZF d   1       0.935   3.190   1.217  0.00  0.00    -0.016 A 
ATOM      7  C6  BZF d   1       2.197   2.638   1.136  0.00  0.00     0.022 A 
ATOM      8  C7  BZF d   1       2.375   1.334   0.816  0.00  0.00     0.029 A 
ATOM      9  C7A BZF d   1       1.247   0.594   0.556  0.00  0.00     0.058 A 
ENDROOT
TORSDOF 0
ENDMDL
