MODEL 1
REMARK minimizedAffinity -3.34355378
REMARK minimizedRMSD -1
REMARK  0 active torsions:
REMARK  status: ('A' for Active; 'I' for Inactive)
ROOT
ATOM      1  O1  BZF d   1       1.125   1.308   0.397  0.00  0.00    -0.204 OA
ATOM      2  C2  BZF d   1       0.462   2.490   0.663  0.00  0.00     0.174 A 
ATOM      3  C3  BZF d   1      -0.872   2.324   0.556  0.00  0.00    -0.012 A 
ATOM      4  C3A BZF d   1      -1.058   0.930   0.292  0.00  0.00    -0.107 A 
ATOM      5  C4  BZF d   1      -2.163   0.150   0.102  0.00  0.00     0.055 A 
ATOM      6  C5  BZF d   1      -1.998  -1.163  -0.207  0.00  0.00    -0.016 A 
ATOM      7  C6  BZF d   1      -0.746  -1.727  -0.340  0.00  0.00     0.022 A 
ATOM      8  C7  BZF d   1       0.379  -0.994  -0.156  0.00  0.00     0.029 A 
ATOM      9  C7A BZF d   1       0.216   0.326   0.189  0.00  0.00     0.058 A 
ENDROOT
TORSDOF 0
ENDMDL
