MODEL 1
REMARK minimizedAffinity 1.01314974
REMARK minimizedRMSD -1
REMARK  0 active torsions:
REMARK  status: ('A' for Active; 'I' for Inactive)
ROOT
ATOM      1  O1  BZF d   1       2.421   0.881   0.817  0.00  0.00    -0.204 OA
ATOM      2  C2  BZF d   1       2.808   2.130   1.263  0.00  0.00     0.174 A 
ATOM      3  C3  BZF d   1       1.751   2.965   1.325  0.00  0.00    -0.012 A 
ATOM      4  C3A BZF d   1       0.618   2.164   0.979  0.00  0.00    -0.107 A 
ATOM      5  C4  BZF d   1      -0.720   2.422   0.879  0.00  0.00     0.055 A 
ATOM      6  C5  BZF d   1      -1.552   1.438   0.447  0.00  0.00    -0.016 A 
ATOM      7  C6  BZF d   1      -1.081   0.188   0.102  0.00  0.00     0.022 A 
ATOM      8  C7  BZF d   1       0.237  -0.117   0.189  0.00  0.00     0.029 A 
ATOM      9  C7A BZF d   1       1.076   0.865   0.657  0.00  0.00     0.058 A 
ENDROOT
TORSDOF 0
ENDMDL
