MODEL 1
REMARK minimizedAffinity -4.80979586
REMARK minimizedRMSD -1
REMARK  0 active torsions:
REMARK  status: ('A' for Active; 'I' for Inactive)
ROOT
ATOM      1  O1  BZF d   1       0.914  -0.643   0.326  0.00  0.00    -0.204 OA
ATOM      2  C2  BZF d   1      -0.447  -0.829   0.174  0.00  0.00     0.174 A 
ATOM      3  C3  BZF d   1      -1.112   0.326   0.377  0.00  0.00    -0.012 A 
ATOM      4  C3A BZF d   1      -0.098   1.314   0.583  0.00  0.00    -0.107 A 
ATOM      5  C4  BZF d   1      -0.131   2.659   0.820  0.00  0.00     0.055 A 
ATOM      6  C5  BZF d   1       1.035   3.318   1.048  0.00  0.00    -0.016 A 
ATOM      7  C6  BZF d   1       2.249   2.665   1.053  0.00  0.00     0.022 A 
ATOM      8  C7  BZF d   1       2.333   1.332   0.819  0.00  0.00     0.029 A 
ATOM      9  C7A BZF d   1       1.160   0.669   0.555  0.00  0.00     0.058 A 
ENDROOT
TORSDOF 0
ENDMDL
