MODEL 1
REMARK minimizedAffinity -3.39312387
REMARK minimizedRMSD -1
REMARK  0 active torsions:
REMARK  status: ('A' for Active; 'I' for Inactive)
ROOT
ATOM      1  O1  BZF d   1      -1.529  -0.599   0.213  0.00  0.00    -0.204 OA
ATOM      2  C2  BZF d   1      -0.518  -1.499  -0.063  0.00  0.00     0.174 A 
ATOM      3  C3  BZF d   1       0.661  -0.861  -0.216  0.00  0.00    -0.012 A 
ATOM      4  C3A BZF d   1       0.385   0.514   0.069  0.00  0.00    -0.107 A 
ATOM      5  C4  BZF d   1       1.157   1.640   0.099  0.00  0.00     0.055 A 
ATOM      6  C5  BZF d   1       0.566   2.839   0.341  0.00  0.00    -0.016 A 
ATOM      7  C6  BZF d   1      -0.793   2.950   0.551  0.00  0.00     0.022 A 
ATOM      8  C7  BZF d   1      -1.599   1.861   0.535  0.00  0.00     0.029 A 
ATOM      9  C7A BZF d   1      -1.000   0.643   0.324  0.00  0.00     0.058 A 
ENDROOT
TORSDOF 0
ENDMDL
