MODEL 1
REMARK minimizedAffinity -3.86060977
REMARK minimizedRMSD -1
REMARK  0 active torsions:
REMARK  status: ('A' for Active; 'I' for Inactive)
ROOT
ATOM      1  O1  BZF d   1       1.927  -0.403   0.693  0.00  0.00    -0.204 OA
ATOM      2  C2  BZF d   1       1.200  -1.501   0.276  0.00  0.00     0.174 A 
ATOM      3  C3  BZF d   1      -0.063  -1.147  -0.040  0.00  0.00    -0.012 A 
ATOM      4  C3A BZF d   1      -0.102   0.276   0.107  0.00  0.00    -0.107 A 
ATOM      5  C4  BZF d   1      -1.078   1.212  -0.079  0.00  0.00     0.055 A 
ATOM      6  C5  BZF d   1      -0.814   2.511   0.222  0.00  0.00    -0.016 A 
ATOM      7  C6  BZF d   1       0.412   2.907   0.715  0.00  0.00     0.022 A 
ATOM      8  C7  BZF d   1       1.413   2.015   0.912  0.00  0.00     0.029 A 
ATOM      9  C7A BZF d   1       1.160   0.707   0.577  0.00  0.00     0.058 A 
ENDROOT
TORSDOF 0
ENDMDL
