MODEL 1
REMARK minimizedAffinity -0.130514205
REMARK minimizedRMSD -1
REMARK  0 active torsions:
REMARK  status: ('A' for Active; 'I' for Inactive)
ROOT
ATOM      1  O1  BZF d   1       0.921   2.133   0.206  0.00  0.00    -0.204 OA
ATOM      2  C2  BZF d   1      -0.066   3.014   0.606  0.00  0.00     0.174 A 
ATOM      3  C3  BZF d   1      -1.205   2.355   0.900  0.00  0.00    -0.012 A 
ATOM      4  C3A BZF d   1      -0.884   0.968   0.759  0.00  0.00    -0.107 A 
ATOM      5  C4  BZF d   1      -1.598  -0.184   0.931  0.00  0.00     0.055 A 
ATOM      6  C5  BZF d   1      -1.012  -1.374   0.640  0.00  0.00    -0.016 A 
ATOM      7  C6  BZF d   1       0.283  -1.451   0.170  0.00  0.00     0.022 A 
ATOM      8  C7  BZF d   1       1.032  -0.336  -0.013  0.00  0.00     0.029 A 
ATOM      9  C7A BZF d   1       0.454   0.866   0.312  0.00  0.00     0.058 A 
ENDROOT
TORSDOF 0
ENDMDL
