MODEL 1
REMARK minimizedAffinity -4.32546425
REMARK minimizedRMSD -1
REMARK  0 active torsions:
REMARK  status: ('A' for Active; 'I' for Inactive)
ROOT
ATOM      1  O1  BZF d   1       2.528   0.689   0.447  0.00  0.00    -0.204 OA
ATOM      2  C2  BZF d   1       2.949   1.925   0.897  0.00  0.00     0.174 A 
ATOM      3  C3  BZF d   1       1.896   2.740   1.113  0.00  0.00    -0.012 A 
ATOM      4  C3A BZF d   1       0.740   1.934   0.865  0.00  0.00    -0.107 A 
ATOM      5  C4  BZF d   1      -0.603   2.175   0.927  0.00  0.00     0.055 A 
ATOM      6  C5  BZF d   1      -1.467   1.197   0.551  0.00  0.00    -0.016 A 
ATOM      7  C6  BZF d   1      -1.025  -0.031   0.103  0.00  0.00     0.022 A 
ATOM      8  C7  BZF d   1       0.298  -0.318   0.028  0.00  0.00     0.029 A 
ATOM      9  C7A BZF d   1       1.173   0.658   0.439  0.00  0.00     0.058 A 
ENDROOT
TORSDOF 0
ENDMDL
