MODEL 1
REMARK minimizedAffinity -2.93433332
REMARK minimizedRMSD -1
REMARK  0 active torsions:
REMARK  status: ('A' for Active; 'I' for Inactive)
ROOT
ATOM      1  O1  BZF d   1       0.909  -1.027   0.099  0.00  0.00    -0.204 OA
ATOM      2  C2  BZF d   1      -0.463  -1.061  -0.060  0.00  0.00     0.174 A 
ATOM      3  C3  BZF d   1      -1.016   0.115   0.299  0.00  0.00    -0.012 A 
ATOM      4  C3A BZF d   1       0.087   0.967   0.621  0.00  0.00    -0.107 A 
ATOM      5  C4  BZF d   1       0.182   2.266   1.031  0.00  0.00     0.055 A 
ATOM      6  C5  BZF d   1       1.405   2.777   1.331  0.00  0.00    -0.016 A 
ATOM      7  C6  BZF d   1       2.553   2.016   1.236  0.00  0.00     0.022 A 
ATOM      8  C7  BZF d   1       2.509   0.724   0.829  0.00  0.00     0.029 A 
ATOM      9  C7A BZF d   1       1.278   0.215   0.494  0.00  0.00     0.058 A 
ENDROOT
TORSDOF 0
ENDMDL
