MODEL 1
REMARK minimizedAffinity 1.89264905
REMARK minimizedRMSD -1
REMARK  0 active torsions:
REMARK  status: ('A' for Active; 'I' for Inactive)
ROOT
ATOM      1  O1  BZF d   1       2.461   0.882   1.098  0.00  0.00    -0.204 OA
ATOM      2  C2  BZF d   1       2.740   2.115   1.654  0.00  0.00     0.174 A 
ATOM      3  C3  BZF d   1       1.628   2.877   1.711  0.00  0.00    -0.012 A 
ATOM      4  C3A BZF d   1       0.571   2.035   1.241  0.00  0.00    -0.107 A 
ATOM      5  C4  BZF d   1      -0.772   2.217   1.078  0.00  0.00     0.055 A 
ATOM      6  C5  BZF d   1      -1.512   1.219   0.527  0.00  0.00    -0.016 A 
ATOM      7  C6  BZF d   1      -0.942   0.030   0.123  0.00  0.00     0.022 A 
ATOM      8  C7  BZF d   1       0.386  -0.199   0.269  0.00  0.00     0.029 A 
ATOM      9  C7A BZF d   1       1.131   0.795   0.855  0.00  0.00     0.058 A 
ENDROOT
TORSDOF 0
ENDMDL
