MODEL 1
REMARK minimizedAffinity -1.85665405
REMARK minimizedRMSD -1
REMARK  0 active torsions:
REMARK  status: ('A' for Active; 'I' for Inactive)
ROOT
ATOM      1  O1  BZF d   1       2.738  -0.076   0.131  0.00  0.00    -0.204 OA
ATOM      2  C2  BZF d   1       1.846  -1.004  -0.369  0.00  0.00     0.174 A 
ATOM      3  C3  BZF d   1       0.584  -0.529  -0.322  0.00  0.00    -0.012 A 
ATOM      4  C3A BZF d   1       0.706   0.814   0.156  0.00  0.00    -0.107 A 
ATOM      5  C4  BZF d   1      -0.198   1.808   0.402  0.00  0.00     0.055 A 
ATOM      6  C5  BZF d   1       0.238   2.980   0.935  0.00  0.00    -0.016 A 
ATOM      7  C6  BZF d   1       1.567   3.189   1.240  0.00  0.00     0.022 A 
ATOM      8  C7  BZF d   1       2.501   2.234   1.010  0.00  0.00     0.029 A 
ATOM      9  C7A BZF d   1       2.069   1.061   0.440  0.00  0.00     0.058 A 
ENDROOT
TORSDOF 0
ENDMDL
