MODEL 1
REMARK minimizedAffinity -5.94577694
REMARK minimizedRMSD -1
REMARK  0 active torsions:
REMARK  status: ('A' for Active; 'I' for Inactive)
ROOT
ATOM      1  O1  BZF d   1       1.145  -0.872   0.002  0.00  0.00    -0.204 OA
ATOM      2  C2  BZF d   1      -0.205  -0.977  -0.272  0.00  0.00     0.174 A 
ATOM      3  C3  BZF d   1      -0.815   0.218  -0.135  0.00  0.00    -0.012 A 
ATOM      4  C3A BZF d   1       0.234   1.145   0.160  0.00  0.00    -0.107 A 
ATOM      5  C4  BZF d   1       0.260   2.491   0.388  0.00  0.00     0.055 A 
ATOM      6  C5  BZF d   1       1.439   3.082   0.720  0.00  0.00    -0.016 A 
ATOM      7  C6  BZF d   1       2.606   2.357   0.838  0.00  0.00     0.022 A 
ATOM      8  C7  BZF d   1       2.630   1.020   0.616  0.00  0.00     0.029 A 
ATOM      9  C7A BZF d   1       1.448   0.426   0.248  0.00  0.00     0.058 A 
ENDROOT
TORSDOF 0
ENDMDL
