MODEL 1
REMARK minimizedAffinity -4.10352516
REMARK minimizedRMSD -1
REMARK  0 active torsions:
REMARK  status: ('A' for Active; 'I' for Inactive)
ROOT
ATOM      1  O1  BZF d   1       0.967  -0.623   0.521  0.00  0.00    -0.204 OA
ATOM      2  C2  BZF d   1      -0.351  -0.937   0.248  0.00  0.00     0.174 A 
ATOM      3  C3  BZF d   1      -1.129   0.162   0.318  0.00  0.00    -0.012 A 
ATOM      4  C3A BZF d   1      -0.228   1.246   0.565  0.00  0.00    -0.107 A 
ATOM      5  C4  BZF d   1      -0.399   2.592   0.720  0.00  0.00     0.055 A 
ATOM      6  C5  BZF d   1       0.678   3.363   1.024  0.00  0.00    -0.016 A 
ATOM      7  C6  BZF d   1       1.936   2.823   1.185  0.00  0.00     0.022 A 
ATOM      8  C7  BZF d   1       2.156   1.493   1.037  0.00  0.00     0.029 A 
ATOM      9  C7A BZF d   1       1.076   0.716   0.697  0.00  0.00     0.058 A 
ENDROOT
TORSDOF 0
ENDMDL
