MODEL 1
REMARK minimizedAffinity -2.12852263
REMARK minimizedRMSD -1
REMARK  0 active torsions:
REMARK  status: ('A' for Active; 'I' for Inactive)
ROOT
ATOM      1  O1  BZF d   1       0.837  -0.648   0.341  0.00  0.00    -0.204 OA
ATOM      2  C2  BZF d   1      -0.339  -1.148  -0.185  0.00  0.00     0.174 A 
ATOM      3  C3  BZF d   1      -1.280  -0.185  -0.254  0.00  0.00    -0.012 A 
ATOM      4  C3A BZF d   1      -0.625   1.013   0.175  0.00  0.00    -0.107 A 
ATOM      5  C4  BZF d   1      -1.033   2.309   0.309  0.00  0.00     0.055 A 
ATOM      6  C5  BZF d   1      -0.168   3.224   0.823  0.00  0.00    -0.016 A 
ATOM      7  C6  BZF d   1       1.107   2.875   1.218  0.00  0.00     0.022 A 
ATOM      8  C7  BZF d   1       1.558   1.603   1.100  0.00  0.00     0.029 A 
ATOM      9  C7A BZF d   1       0.698   0.684   0.550  0.00  0.00     0.058 A 
ENDROOT
TORSDOF 0
ENDMDL
