MODEL 1
REMARK minimizedAffinity 1.80826533
REMARK minimizedRMSD -1
REMARK  0 active torsions:
REMARK  status: ('A' for Active; 'I' for Inactive)
ROOT
ATOM      1  O1  BZF d   1       1.463  -0.133   0.302  0.00  0.00    -0.204 OA
ATOM      2  C2  BZF d   1       0.944  -1.283  -0.261  0.00  0.00     0.174 A 
ATOM      3  C3  BZF d   1      -0.386  -1.165  -0.451  0.00  0.00    -0.012 A 
ATOM      4  C3A BZF d   1      -0.704   0.176  -0.063  0.00  0.00    -0.107 A 
ATOM      5  C4  BZF d   1      -1.863   0.897  -0.041  0.00  0.00     0.055 A 
ATOM      6  C5  BZF d   1      -1.847   2.158   0.464  0.00  0.00    -0.016 A 
ATOM      7  C6  BZF d   1      -0.691   2.728   0.958  0.00  0.00     0.022 A 
ATOM      8  C7  BZF d   1       0.484   2.053   0.953  0.00  0.00     0.029 A 
ATOM      9  C7A BZF d   1       0.477   0.790   0.413  0.00  0.00     0.058 A 
ENDROOT
TORSDOF 0
ENDMDL
