MODEL 1
REMARK minimizedAffinity -4.45877457
REMARK minimizedRMSD -1
REMARK  0 active torsions:
REMARK  status: ('A' for Active; 'I' for Inactive)
ROOT
ATOM      1  O1  BZF d   1      -1.057   0.876  -0.752  0.00  0.00    -0.204 OA
ATOM      2  C2  BZF d   1      -1.542   0.911   0.541  0.00  0.00     0.174 A 
ATOM      3  C3  BZF d   1      -1.571  -0.326   1.076  0.00  0.00    -0.012 A 
ATOM      4  C3A BZF d   1      -0.985  -1.177   0.086  0.00  0.00    -0.107 A 
ATOM      5  C4  BZF d   1      -0.720  -2.516   0.036  0.00  0.00     0.055 A 
ATOM      6  C5  BZF d   1      -0.210  -3.047  -1.106  0.00  0.00    -0.016 A 
ATOM      7  C6  BZF d   1       0.043  -2.270  -2.218  0.00  0.00     0.022 A 
ATOM      8  C7  BZF d   1      -0.199  -0.937  -2.215  0.00  0.00     0.029 A 
ATOM      9  C7A BZF d   1      -0.684  -0.392  -1.051  0.00  0.00     0.058 A 
ENDROOT
TORSDOF 0
ENDMDL
