MODEL 1
REMARK minimizedAffinity -2.28328514
REMARK minimizedRMSD -1
REMARK  0 active torsions:
REMARK  status: ('A' for Active; 'I' for Inactive)
ROOT
ATOM      1  O1  BZF d   1       0.783  -1.151   0.816  0.00  0.00    -0.204 OA
ATOM      2  C2  BZF d   1      -0.077  -0.074   0.921  0.00  0.00     0.174 A 
ATOM      3  C3  BZF d   1      -1.114  -0.206   0.069  0.00  0.00    -0.012 A 
ATOM      4  C3A BZF d   1      -0.937  -1.486  -0.545  0.00  0.00    -0.107 A 
ATOM      5  C4  BZF d   1      -1.653  -2.191  -1.470  0.00  0.00     0.055 A 
ATOM      6  C5  BZF d   1      -1.169  -3.382  -1.912  0.00  0.00    -0.016 A 
ATOM      7  C6  BZF d   1       0.027  -3.894  -1.455  0.00  0.00     0.022 A 
ATOM      8  C7  BZF d   1       0.770  -3.234  -0.533  0.00  0.00     0.029 A 
ATOM      9  C7A BZF d   1       0.268  -2.046  -0.060  0.00  0.00     0.058 A 
ENDROOT
TORSDOF 0
ENDMDL
