MODEL 1
REMARK minimizedAffinity -2.94643545
REMARK minimizedRMSD -1
REMARK  2 active torsions:
REMARK  status: ('A' for Active; 'I' for Inactive)
REMARK    1  A    between atoms: C2'_3  and  C1'_4 
REMARK    2  A    between atoms: C1'_4  and  C1_5 
ROOT
ATOM      1  C1  I4B d   1       4.540  -2.799  -4.424  0.00  0.00    -0.075 A 
ATOM      2  C2  I4B d   1       4.225  -1.997  -3.355  0.00  0.00     0.003 A 
ATOM      3  C3  I4B d   1       4.790  -0.704  -3.242  0.00  0.00     0.002 A 
ATOM      4  C4  I4B d   1       5.699  -0.275  -4.188  0.00  0.00    -0.004 A 
ATOM      5  C5  I4B d   1       6.000  -1.080  -5.283  0.00  0.00     0.002 A 
ATOM      6  C6  I4B d   1       5.407  -2.345  -5.409  0.00  0.00     0.003 A 
ENDROOT
BRANCH   1   7
ATOM      7  C1' I4B d   1       3.950  -4.171  -4.495  0.00  0.00     0.060 C 
BRANCH   7   8
ATOM      8  C2' I4B d   1       5.062  -5.140  -4.843  0.00  0.00    -0.013 C 
ATOM      9  C4' I4B d   1       5.426  -6.000  -3.661  0.00  0.00     0.013 C 
ATOM     10  C3' I4B d   1       4.602  -5.976  -6.000  0.00  0.00     0.013 C 
ENDBRANCH   7   8
ENDBRANCH   1   7
TORSDOF 2
ENDMDL
