MODEL 1
REMARK minimizedAffinity 13.1247854
REMARK minimizedRMSD -1
REMARK  2 active torsions:
REMARK  status: ('A' for Active; 'I' for Inactive)
REMARK    1  A    between atoms: C2'_3  and  C1'_4 
REMARK    2  A    between atoms: C1'_4  and  C1_5 
ROOT
ATOM      1  C1  I4B d   1      -0.562  -0.980  -2.938  0.00  0.00    -0.075 A 
ATOM      2  C2  I4B d   1      -1.002  -1.405  -1.709  0.00  0.00     0.003 A 
ATOM      3  C3  I4B d   1      -0.560  -2.643  -1.183  0.00  0.00     0.002 A 
ATOM      4  C4  I4B d   1       0.276  -3.442  -1.936  0.00  0.00    -0.004 A 
ATOM      5  C5  I4B d   1       0.739  -2.999  -3.172  0.00  0.00     0.002 A 
ATOM      6  C6  I4B d   1       0.327  -1.755  -3.671  0.00  0.00     0.003 A 
ENDROOT
BRANCH   1   7
ATOM      7  C1' I4B d   1      -1.075   0.317  -3.478  0.00  0.00     0.060 C 
BRANCH   7   8
ATOM      8  C2' I4B d   1      -1.431   1.204  -2.302  0.00  0.00    -0.013 C 
ATOM      9  C4' I4B d   1      -0.249   2.025  -1.860  0.00  0.00     0.013 C 
ATOM     10  C3' I4B d   1      -2.577   2.080  -2.713  0.00  0.00     0.013 C 
ENDBRANCH   7   8
ENDBRANCH   1   7
TORSDOF 2
ENDMDL
