MODEL 1
REMARK minimizedAffinity -0.431688637
REMARK minimizedRMSD -1
REMARK  2 active torsions:
REMARK  status: ('A' for Active; 'I' for Inactive)
REMARK    1  A    between atoms: C2'_3  and  C1'_4 
REMARK    2  A    between atoms: C1'_4  and  C1_5 
ROOT
ATOM      1  C1  I4B d   1      -3.634   3.117  -3.390  0.00  0.00    -0.075 A 
ATOM      2  C2  I4B d   1      -3.935   4.402  -3.766  0.00  0.00     0.003 A 
ATOM      3  C3  I4B d   1      -5.122   5.021  -3.303  0.00  0.00     0.002 A 
ATOM      4  C4  I4B d   1      -5.998   4.305  -2.513  0.00  0.00    -0.004 A 
ATOM      5  C5  I4B d   1      -5.680   3.010  -2.114  0.00  0.00     0.002 A 
ATOM      6  C6  I4B d   1      -4.485   2.416  -2.545  0.00  0.00     0.003 A 
ENDROOT
BRANCH   1   7
ATOM      7  C1' I4B d   1      -2.389   2.483  -3.924  0.00  0.00     0.060 C 
BRANCH   7   8
ATOM      8  C2' I4B d   1      -2.453   1.000  -3.620  0.00  0.00    -0.013 C 
ATOM      9  C4' I4B d   1      -3.497   0.316  -4.463  0.00  0.00     0.013 C 
ATOM     10  C3' I4B d   1      -1.093   0.418  -3.865  0.00  0.00     0.013 C 
ENDBRANCH   7   8
ENDBRANCH   1   7
TORSDOF 2
ENDMDL
