MODEL 1
REMARK minimizedAffinity -3.48355436
REMARK minimizedRMSD -1
REMARK  2 active torsions:
REMARK  status: ('A' for Active; 'I' for Inactive)
REMARK    1  A    between atoms: C2'_3  and  C1'_4 
REMARK    2  A    between atoms: C1'_4  and  C1_5 
ROOT
ATOM      1  C1  I4B d   1       3.800  -3.510  -5.947  0.00  0.00    -0.075 A 
ATOM      2  C2  I4B d   1       5.166  -3.370  -5.942  0.00  0.00     0.003 A 
ATOM      3  C3  I4B d   1       6.000  -4.514  -5.980  0.00  0.00     0.002 A 
ATOM      4  C4  I4B d   1       5.430  -5.771  -5.970  0.00  0.00    -0.004 A 
ATOM      5  C5  I4B d   1       4.046  -5.910  -5.998  0.00  0.00     0.002 A 
ATOM      6  C6  I4B d   1       3.225  -4.773  -5.999  0.00  0.00     0.003 A 
ENDROOT
BRANCH   1   7
ATOM      7  C1' I4B d   1       2.949  -2.282  -5.873  0.00  0.00     0.060 C 
BRANCH   7   8
ATOM      8  C2' I4B d   1       1.673  -2.642  -5.140  0.00  0.00    -0.013 C 
ATOM      9  C4' I4B d   1       1.964  -3.452  -3.905  0.00  0.00     0.013 C 
ATOM     10  C3' I4B d   1       0.962  -1.367  -4.797  0.00  0.00     0.013 C 
ENDBRANCH   7   8
ENDBRANCH   1   7
TORSDOF 2
ENDMDL
