MODEL 1
REMARK minimizedAffinity 4.48530102
REMARK minimizedRMSD -1
REMARK  2 active torsions:
REMARK  status: ('A' for Active; 'I' for Inactive)
REMARK    1  A    between atoms: C2'_3  and  C1'_4 
REMARK    2  A    between atoms: C1'_4  and  C1_5 
ROOT
ATOM      1  C1  I4B d   1       2.740  -2.788  -5.825  0.00  0.00    -0.075 A 
ATOM      2  C2  I4B d   1       2.720  -4.156  -5.931  0.00  0.00     0.003 A 
ATOM      3  C3  I4B d   1       3.933  -4.884  -5.991  0.00  0.00     0.002 A 
ATOM      4  C4  I4B d   1       5.134  -4.205  -5.995  0.00  0.00    -0.004 A 
ATOM      5  C5  I4B d   1       5.153  -2.819  -5.865  0.00  0.00     0.002 A 
ATOM      6  C6  I4B d   1       3.949  -2.106  -5.767  0.00  0.00     0.003 A 
ENDROOT
BRANCH   1   7
ATOM      7  C1' I4B d   1       1.440  -2.048  -5.797  0.00  0.00     0.060 C 
BRANCH   7   8
ATOM      8  C2' I4B d   1       1.310  -1.385  -4.440  0.00  0.00    -0.013 C 
ATOM      9  C4' I4B d   1       0.369  -0.211  -4.496  0.00  0.00     0.013 C 
ATOM     10  C3' I4B d   1       0.831  -2.418  -3.464  0.00  0.00     0.013 C 
ENDBRANCH   7   8
ENDBRANCH   1   7
TORSDOF 2
ENDMDL
