MODEL 1
REMARK minimizedAffinity 10.9167471
REMARK minimizedRMSD -1
REMARK  2 active torsions:
REMARK  status: ('A' for Active; 'I' for Inactive)
REMARK    1  A    between atoms: C2'_3  and  C1'_4 
REMARK    2  A    between atoms: C1'_4  and  C1_5 
ROOT
ATOM      1  C1  I4B d   1      -3.047   1.557  -2.930  0.00  0.00    -0.075 A 
ATOM      2  C2  I4B d   1      -2.143   2.368  -2.291  0.00  0.00     0.003 A 
ATOM      3  C3  I4B d   1      -0.834   1.901  -2.018  0.00  0.00     0.002 A 
ATOM      4  C4  I4B d   1      -0.490   0.607  -2.355  0.00  0.00    -0.004 A 
ATOM      5  C5  I4B d   1      -1.401  -0.206  -3.024  0.00  0.00     0.002 A 
ATOM      6  C6  I4B d   1      -2.683   0.276  -3.325  0.00  0.00     0.003 A 
ENDROOT
BRANCH   1   7
ATOM      7  C1' I4B d   1      -4.430   2.071  -3.173  0.00  0.00     0.060 C 
BRANCH   7   8
ATOM      8  C2' I4B d   1      -4.396   3.581  -3.049  0.00  0.00    -0.013 C 
ATOM      9  C4' I4B d   1      -3.759   4.212  -4.259  0.00  0.00     0.013 C 
ATOM     10  C3' I4B d   1      -5.804   4.062  -2.865  0.00  0.00     0.013 C 
ENDBRANCH   7   8
ENDBRANCH   1   7
TORSDOF 2
ENDMDL
