MODEL 1
REMARK minimizedAffinity 2.1598568
REMARK minimizedRMSD -1
REMARK  2 active torsions:
REMARK  status: ('A' for Active; 'I' for Inactive)
REMARK    1  A    between atoms: C2'_3  and  C1'_4 
REMARK    2  A    between atoms: C1'_4  and  C1_5 
ROOT
ATOM      1  C1  I4B d   1      -4.030   2.009  -3.366  0.00  0.00    -0.075 A 
ATOM      2  C2  I4B d   1      -3.911   3.272  -3.890  0.00  0.00     0.003 A 
ATOM      3  C3  I4B d   1      -4.836   4.282  -3.532  0.00  0.00     0.002 A 
ATOM      4  C4  I4B d   1      -5.887   3.974  -2.692  0.00  0.00    -0.004 A 
ATOM      5  C5  I4B d   1      -5.993   2.700  -2.144  0.00  0.00     0.002 A 
ATOM      6  C6  I4B d   1      -5.051   1.714  -2.473  0.00  0.00     0.003 A 
ENDROOT
BRANCH   1   7
ATOM      7  C1' I4B d   1      -3.054   0.958  -3.792  0.00  0.00     0.060 C 
BRANCH   7   8
ATOM      8  C2' I4B d   1      -1.694   1.331  -3.238  0.00  0.00    -0.013 C 
ATOM      9  C4' I4B d   1      -1.732   1.454  -1.737  0.00  0.00     0.013 C 
ATOM     10  C3' I4B d   1      -0.714   0.282  -3.671  0.00  0.00     0.013 C 
ENDBRANCH   7   8
ENDBRANCH   1   7
TORSDOF 2
ENDMDL
