MODEL 1
REMARK minimizedAffinity 0.598591447
REMARK minimizedRMSD -1
REMARK  2 active torsions:
REMARK  status: ('A' for Active; 'I' for Inactive)
REMARK    1  A    between atoms: C2'_3  and  C1'_4 
REMARK    2  A    between atoms: C1'_4  and  C1_5 
ROOT
ATOM      1  C1  I4B d   1       4.772  -2.590  -5.166  0.00  0.00    -0.075 A 
ATOM      2  C2  I4B d   1       3.512  -2.105  -4.918  0.00  0.00     0.003 A 
ATOM      3  C3  I4B d   1       3.336  -0.958  -4.107  0.00  0.00     0.002 A 
ATOM      4  C4  I4B d   1       4.437  -0.360  -3.528  0.00  0.00    -0.004 A 
ATOM      5  C5  I4B d   1       5.716  -0.839  -3.800  0.00  0.00     0.002 A 
ATOM      6  C6  I4B d   1       5.885  -1.953  -4.634  0.00  0.00     0.003 A 
ENDROOT
BRANCH   1   7
ATOM      7  C1' I4B d   1       4.918  -3.823  -6.000  0.00  0.00     0.060 C 
BRANCH   7   8
ATOM      8  C2' I4B d   1       5.149  -4.993  -5.065  0.00  0.00    -0.013 C 
ATOM      9  C4' I4B d   1       3.845  -5.602  -4.621  0.00  0.00     0.013 C 
ATOM     10  C3' I4B d   1       5.999  -5.998  -5.784  0.00  0.00     0.013 C 
ENDBRANCH   7   8
ENDBRANCH   1   7
TORSDOF 2
ENDMDL
