MODEL 1
REMARK minimizedAffinity 6.93154478
REMARK minimizedRMSD -1
REMARK  2 active torsions:
REMARK  status: ('A' for Active; 'I' for Inactive)
REMARK    1  A    between atoms: C2'_3  and  C1'_4 
REMARK    2  A    between atoms: C1'_4  and  C1_5 
ROOT
ATOM      1  C1  I4B d   1       4.363  -2.711  -4.259  0.00  0.00    -0.075 A 
ATOM      2  C2  I4B d   1       5.243  -2.211  -5.187  0.00  0.00     0.003 A 
ATOM      3  C3  I4B d   1       6.000  -3.091  -5.998  0.00  0.00     0.002 A 
ATOM      4  C4  I4B d   1       5.884  -4.453  -5.815  0.00  0.00    -0.004 A 
ATOM      5  C5  I4B d   1       4.974  -4.959  -4.890  0.00  0.00     0.002 A 
ATOM      6  C6  I4B d   1       4.200  -4.083  -4.116  0.00  0.00     0.003 A 
ENDROOT
BRANCH   1   7
ATOM      7  C1' I4B d   1       3.604  -1.754  -3.396  0.00  0.00     0.060 C 
BRANCH   7   8
ATOM      8  C2' I4B d   1       2.164  -1.742  -3.867  0.00  0.00    -0.013 C 
ATOM      9  C4' I4B d   1       1.301  -2.621  -3.001  0.00  0.00     0.013 C 
ATOM     10  C3' I4B d   1       1.682  -0.322  -3.848  0.00  0.00     0.013 C 
ENDBRANCH   7   8
ENDBRANCH   1   7
TORSDOF 2
ENDMDL
