MODEL 1
REMARK minimizedAffinity 15.9462385
REMARK minimizedRMSD -1
REMARK  2 active torsions:
REMARK  status: ('A' for Active; 'I' for Inactive)
REMARK    1  A    between atoms: C2'_3  and  C1'_4 
REMARK    2  A    between atoms: C1'_4  and  C1_5 
ROOT
ATOM      1  C1  I4B d   1      -3.044   1.792  -2.352  0.00  0.00    -0.075 A 
ATOM      2  C2  I4B d   1      -2.641   2.478  -1.233  0.00  0.00     0.003 A 
ATOM      3  C3  I4B d   1      -1.624   1.951  -0.401  0.00  0.00     0.002 A 
ATOM      4  C4  I4B d   1      -1.077   0.718  -0.694  0.00  0.00    -0.004 A 
ATOM      5  C5  I4B d   1      -1.470   0.035  -1.841  0.00  0.00     0.002 A 
ATOM      6  C6  I4B d   1      -2.451   0.580  -2.682  0.00  0.00     0.003 A 
ENDROOT
BRANCH   1   7
ATOM      7  C1' I4B d   1      -4.143   2.362  -3.190  0.00  0.00     0.060 C 
BRANCH   7   8
ATOM      8  C2' I4B d   1      -3.913   3.855  -3.309  0.00  0.00    -0.013 C 
ATOM      9  C4' I4B d   1      -3.484   4.232  -4.703  0.00  0.00     0.013 C 
ATOM     10  C3' I4B d   1      -5.185   4.552  -2.928  0.00  0.00     0.013 C 
ENDBRANCH   7   8
ENDBRANCH   1   7
TORSDOF 2
ENDMDL
