MODEL 1
REMARK minimizedAffinity -4.99547672
REMARK minimizedRMSD -1
REMARK  1 active torsions:
REMARK  status: ('A' for Active; 'I' for Inactive)
REMARK    1  A    between atoms: C1_2  and  C2_3 
ROOT
ATOM      1  C2  UNL d   1       0.102  -0.116   0.424  0.00  0.00    -0.073 A 
ATOM      2  C3  UNL d   1       0.726  -0.054   1.675  0.00  0.00    -0.002 A 
ATOM      3  C4  UNL d   1      -0.029  -0.152   2.845  0.00  0.00     0.004 A 
ATOM      4  C5  UNL d   1      -1.412  -0.319   2.775  0.00  0.00    -0.004 A 
ATOM      5  C6  UNL d   1      -2.052  -0.395   1.534  0.00  0.00    -0.075 A 
ATOM      6  C7  UNL d   1      -3.540  -0.572   1.442  0.00  0.00     0.076 C 
ATOM      7  C8  UNL d   1      -1.287  -0.293   0.364  0.00  0.00     0.001 A 
ENDROOT
BRANCH   1   8
ATOM      8  C1  UNL d   1       0.914  -0.017  -0.841  0.00  0.00     0.053 C 
ATOM      9  C   UNL d   1       0.038  -0.031  -2.084  0.00  0.00     0.018 C 
ENDBRANCH   1   8
TORSDOF 1
ENDMDL
