MODEL 1
REMARK minimizedAffinity -5.94788933
REMARK minimizedRMSD -1
REMARK  1 active torsions:
REMARK  status: ('A' for Active; 'I' for Inactive)
REMARK    1  A    between atoms: C1_2  and  C2_3 
ROOT
ATOM      1  C2  UNL d   1       0.258   0.089   0.113  0.00  0.00    -0.073 A 
ATOM      2  C3  UNL d   1       1.205  -0.065   1.132  0.00  0.00    -0.002 A 
ATOM      3  C4  UNL d   1       0.798  -0.164   2.463  0.00  0.00     0.004 A 
ATOM      4  C5  UNL d   1      -0.558  -0.118   2.788  0.00  0.00    -0.004 A 
ATOM      5  C6  UNL d   1      -1.520   0.024   1.782  0.00  0.00    -0.075 A 
ATOM      6  C7  UNL d   1      -2.982   0.077   2.115  0.00  0.00     0.076 C 
ATOM      7  C8  UNL d   1      -1.103   0.126   0.448  0.00  0.00     0.001 A 
ENDROOT
BRANCH   1   8
ATOM      8  C1  UNL d   1       0.693   0.191  -1.327  0.00  0.00     0.053 C 
ATOM      9  C   UNL d   1      -0.301   0.975  -2.168  0.00  0.00     0.018 C 
ENDBRANCH   1   8
TORSDOF 1
ENDMDL
