MODEL 1
REMARK minimizedAffinity -5.36574984
REMARK minimizedRMSD -1
REMARK  1 active torsions:
REMARK  status: ('A' for Active; 'I' for Inactive)
REMARK    1  A    between atoms: C1_2  and  C2_3 
ROOT
ATOM      1  C2  UNL d   1       0.503   0.009  -0.108  0.00  0.00    -0.073 A 
ATOM      2  C3  UNL d   1       1.333  -0.015   1.018  0.00  0.00    -0.002 A 
ATOM      3  C4  UNL d   1       0.782  -0.016   2.300  0.00  0.00     0.004 A 
ATOM      4  C5  UNL d   1      -0.603   0.001   2.469  0.00  0.00    -0.004 A 
ATOM      5  C6  UNL d   1      -1.449   0.014   1.355  0.00  0.00    -0.075 A 
ATOM      6  C7  UNL d   1      -2.940   0.035   1.519  0.00  0.00     0.076 C 
ATOM      7  C8  UNL d   1      -0.887   0.017   0.071  0.00  0.00     0.001 A 
ENDROOT
BRANCH   1   8
ATOM      8  C1  UNL d   1       1.094   0.004  -1.495  0.00  0.00     0.053 C 
ATOM      9  C   UNL d   1       0.716  -1.248  -2.270  0.00  0.00     0.018 C 
ENDBRANCH   1   8
TORSDOF 1
ENDMDL
