MODEL 1
REMARK minimizedAffinity -0.433686137
REMARK minimizedRMSD -1
REMARK  1 active torsions:
REMARK  status: ('A' for Active; 'I' for Inactive)
REMARK    1  A    between atoms: C1_2  and  C2_3 
ROOT
ATOM      1  C2  UNL d   1       0.509  -0.024  -1.366  0.00  0.00    -0.073 A 
ATOM      2  C3  UNL d   1      -0.879   0.148  -1.321  0.00  0.00    -0.002 A 
ATOM      3  C4  UNL d   1      -1.534   0.274  -0.095  0.00  0.00     0.004 A 
ATOM      4  C5  UNL d   1      -0.809   0.237   1.096  0.00  0.00    -0.004 A 
ATOM      5  C6  UNL d   1       0.580   0.077   1.071  0.00  0.00    -0.075 A 
ATOM      6  C7  UNL d   1       1.375   0.033   2.343  0.00  0.00     0.076 C 
ATOM      7  C8  UNL d   1       1.230  -0.052  -0.164  0.00  0.00     0.001 A 
ENDROOT
BRANCH   1   8
ATOM      8  C1  UNL d   1       1.221  -0.155  -2.687  0.00  0.00     0.053 C 
ATOM      9  C   UNL d   1       0.685  -1.314  -3.512  0.00  0.00     0.018 C 
ENDBRANCH   1   8
TORSDOF 1
ENDMDL
