MODEL 1
REMARK minimizedAffinity -1.8886739
REMARK minimizedRMSD -1
REMARK  1 active torsions:
REMARK  status: ('A' for Active; 'I' for Inactive)
REMARK    1  A    between atoms: C1_2  and  C2_3 
ROOT
ATOM      1  C2  UNL d   1       0.691  -1.060  -1.204  0.00  0.00    -0.073 A 
ATOM      2  C3  UNL d   1       0.401   0.222  -1.686  0.00  0.00    -0.002 A 
ATOM      3  C4  UNL d   1       0.367   1.312  -0.816  0.00  0.00     0.004 A 
ATOM      4  C5  UNL d   1       0.630   1.134   0.542  0.00  0.00    -0.004 A 
ATOM      5  C6  UNL d   1       0.934  -0.136   1.042  0.00  0.00    -0.075 A 
ATOM      6  C7  UNL d   1       1.217  -0.345   2.500  0.00  0.00     0.076 C 
ATOM      7  C8  UNL d   1       0.963  -1.227   0.162  0.00  0.00     0.001 A 
ENDROOT
BRANCH   1   8
ATOM      8  C1  UNL d   1       0.735  -2.239  -2.141  0.00  0.00     0.053 C 
ATOM      9  C   UNL d   1       0.850  -1.808  -3.594  0.00  0.00     0.018 C 
ENDBRANCH   1   8
TORSDOF 1
ENDMDL
