MODEL 1
REMARK minimizedAffinity -5.93883896
REMARK minimizedRMSD -1
REMARK  1 active torsions:
REMARK  status: ('A' for Active; 'I' for Inactive)
REMARK    1  A    between atoms: C1_2  and  C2_3 
ROOT
ATOM      1  C2  UNL d   1       0.121  -0.789   1.038  0.00  0.00    -0.073 A 
ATOM      2  C3  UNL d   1       0.634   0.510   0.959  0.00  0.00    -0.002 A 
ATOM      3  C4  UNL d   1       0.897   1.090  -0.283  0.00  0.00     0.004 A 
ATOM      4  C5  UNL d   1       0.644   0.381  -1.457  0.00  0.00    -0.004 A 
ATOM      5  C6  UNL d   1       0.120  -0.915  -1.399  0.00  0.00    -0.075 A 
ATOM      6  C7  UNL d   1      -0.155  -1.693  -2.652  0.00  0.00     0.076 C 
ATOM      7  C8  UNL d   1      -0.139  -1.491  -0.148  0.00  0.00     0.001 A 
ENDROOT
BRANCH   1   8
ATOM      8  C1  UNL d   1      -0.171  -1.417   2.376  0.00  0.00     0.053 C 
ATOM      9  C   UNL d   1      -1.102  -0.559   3.218  0.00  0.00     0.018 C 
ENDBRANCH   1   8
TORSDOF 1
ENDMDL
