MODEL 1
REMARK minimizedAffinity -5.0437355
REMARK minimizedRMSD -1
REMARK  1 active torsions:
REMARK  status: ('A' for Active; 'I' for Inactive)
REMARK    1  A    between atoms: C1_2  and  C2_3 
ROOT
ATOM      1  C2  UNL d   1      -0.169   0.057   1.528  0.00  0.00    -0.073 A 
ATOM      2  C3  UNL d   1      -0.034  -0.286   2.878  0.00  0.00    -0.002 A 
ATOM      3  C4  UNL d   1      -1.164  -0.451   3.681  0.00  0.00     0.004 A 
ATOM      4  C5  UNL d   1      -2.439  -0.281   3.141  0.00  0.00    -0.004 A 
ATOM      5  C6  UNL d   1      -2.595   0.050   1.791  0.00  0.00    -0.075 A 
ATOM      6  C7  UNL d   1      -3.959   0.239   1.196  0.00  0.00     0.076 C 
ATOM      7  C8  UNL d   1      -1.455   0.216   0.993  0.00  0.00     0.001 A 
ENDROOT
BRANCH   1   8
ATOM      8  C1  UNL d   1       1.047   0.229   0.656  0.00  0.00     0.053 C 
ATOM      9  C   UNL d   1       0.701   0.176  -0.823  0.00  0.00     0.018 C 
ENDBRANCH   1   8
TORSDOF 1
ENDMDL
