MODEL 1
REMARK minimizedAffinity -5.44251871
REMARK minimizedRMSD -1
REMARK  1 active torsions:
REMARK  status: ('A' for Active; 'I' for Inactive)
REMARK    1  A    between atoms: C1_2  and  C2_3 
ROOT
ATOM      1  C2  UNL d   1      -0.096  -0.282   0.464  0.00  0.00    -0.073 A 
ATOM      2  C3  UNL d   1       0.501  -0.331   1.729  0.00  0.00    -0.002 A 
ATOM      3  C4  UNL d   1      -0.280  -0.235   2.881  0.00  0.00     0.004 A 
ATOM      4  C5  UNL d   1      -1.664  -0.095   2.782  0.00  0.00    -0.004 A 
ATOM      5  C6  UNL d   1      -2.281  -0.056   1.527  0.00  0.00    -0.075 A 
ATOM      6  C7  UNL d   1      -3.768   0.096   1.402  0.00  0.00     0.076 C 
ATOM      7  C8  UNL d   1      -1.489  -0.151   0.374  0.00  0.00     0.001 A 
ENDROOT
BRANCH   1   8
ATOM      8  C1  UNL d   1       0.743  -0.392  -0.783  0.00  0.00     0.053 C 
ATOM      9  C   UNL d   1       0.170   0.426  -1.929  0.00  0.00     0.018 C 
ENDBRANCH   1   8
TORSDOF 1
ENDMDL
