MODEL 1
REMARK minimizedAffinity -5.51816607
REMARK minimizedRMSD -1
REMARK  1 active torsions:
REMARK  status: ('A' for Active; 'I' for Inactive)
REMARK    1  A    between atoms: C1_2  and  C2_3 
ROOT
ATOM      1  C2  UNL d   1       0.192   0.229  -0.099  0.00  0.00    -0.073 A 
ATOM      2  C3  UNL d   1       1.124  -0.012   0.917  0.00  0.00    -0.002 A 
ATOM      3  C4  UNL d   1       0.695  -0.263   2.221  0.00  0.00     0.004 A 
ATOM      4  C5  UNL d   1      -0.667  -0.282   2.521  0.00  0.00    -0.004 A 
ATOM      5  C6  UNL d   1      -1.614  -0.055   1.516  0.00  0.00    -0.075 A 
ATOM      6  C7  UNL d   1      -3.083  -0.070   1.822  0.00  0.00     0.076 C 
ATOM      7  C8  UNL d   1      -1.175   0.199   0.210  0.00  0.00     0.001 A 
ENDROOT
BRANCH   1   8
ATOM      8  C1  UNL d   1       0.651   0.494  -1.510  0.00  0.00     0.053 C 
ATOM      9  C   UNL d   1       0.735  -0.783  -2.331  0.00  0.00     0.018 C 
ENDBRANCH   1   8
TORSDOF 1
ENDMDL
