MODEL 1
REMARK minimizedAffinity -2.3302381
REMARK minimizedRMSD -1
REMARK  0 active torsions:
REMARK  status: ('A' for Active; 'I' for Inactive)
ROOT
ATOM      1  C2' OXE d   1      -2.256  -1.101   2.821  0.00  0.00     0.078 C 
ATOM      2  C1' OXE d   1      -0.742   1.260   2.939  0.00  0.00     0.078 C 
ATOM      3  C1  OXE d   1      -0.712   0.469   1.655  0.00  0.00    -0.078 A 
ATOM      4  C2  OXE d   1      -1.418  -0.710   1.622  0.00  0.00    -0.078 A 
ATOM      5  C3  OXE d   1      -1.468  -1.450   0.445  0.00  0.00     0.003 A 
ATOM      6  C4  OXE d   1      -0.683  -1.087  -0.655  0.00  0.00    -0.002 A 
ATOM      7  C5  OXE d   1       0.076   0.088  -0.629  0.00  0.00    -0.002 A 
ATOM      8  C6  OXE d   1       0.039   0.898   0.501  0.00  0.00     0.003 A 
ENDROOT
TORSDOF 0
ENDMDL
