MODEL 1
REMARK minimizedAffinity -3.30331182
REMARK minimizedRMSD -1
REMARK  0 active torsions:
REMARK  status: ('A' for Active; 'I' for Inactive)
ROOT
ATOM      1  C2' OXE d   1      -2.657   0.223  -0.737  0.00  0.00     0.078 C 
ATOM      2  C1' OXE d   1       0.038  -0.137  -1.434  0.00  0.00     0.078 C 
ATOM      3  C1  OXE d   1      -0.294   0.029   0.027  0.00  0.00    -0.078 A 
ATOM      4  C2  OXE d   1      -1.610   0.252   0.355  0.00  0.00    -0.078 A 
ATOM      5  C3  OXE d   1      -1.978   0.357   1.693  0.00  0.00     0.003 A 
ATOM      6  C4  OXE d   1      -1.002   0.393   2.697  0.00  0.00    -0.002 A 
ATOM      7  C5  OXE d   1       0.348   0.208   2.381  0.00  0.00    -0.002 A 
ATOM      8  C6  OXE d   1       0.713  -0.017   1.058  0.00  0.00     0.003 A 
ENDROOT
TORSDOF 0
ENDMDL
