MODEL 1
REMARK minimizedAffinity -3.80900073
REMARK minimizedRMSD -1
REMARK  0 active torsions:
REMARK  status: ('A' for Active; 'I' for Inactive)
ROOT
ATOM      1  C2' OXE d   1       0.250  -0.524  -1.093  0.00  0.00     0.078 C 
ATOM      2  C1' OXE d   1       2.050  -0.782   1.046  0.00  0.00     0.078 C 
ATOM      3  C1  OXE d   1       0.658  -0.293   1.354  0.00  0.00    -0.078 A 
ATOM      4  C2  OXE d   1      -0.202  -0.125   0.295  0.00  0.00    -0.078 A 
ATOM      5  C3  OXE d   1      -1.516   0.272   0.530  0.00  0.00     0.003 A 
ATOM      6  C4  OXE d   1      -1.923   0.648   1.816  0.00  0.00    -0.002 A 
ATOM      7  C5  OXE d   1      -1.051   0.523   2.902  0.00  0.00    -0.002 A 
ATOM      8  C6  OXE d   1       0.226   0.014   2.695  0.00  0.00     0.003 A 
ENDROOT
TORSDOF 0
ENDMDL
