MODEL 1
REMARK minimizedAffinity -1.47899592
REMARK minimizedRMSD -1
REMARK  0 active torsions:
REMARK  status: ('A' for Active; 'I' for Inactive)
ROOT
ATOM      1  C2' OXE d   1       1.274  -0.005  -0.256  0.00  0.00     0.078 C 
ATOM      2  C1' OXE d   1      -1.313   0.748   0.531  0.00  0.00     0.078 C 
ATOM      3  C1  OXE d   1      -0.357   0.288   1.603  0.00  0.00    -0.078 A 
ATOM      4  C2  OXE d   1       0.892  -0.123   1.203  0.00  0.00    -0.078 A 
ATOM      5  C3  OXE d   1       1.831  -0.505   2.157  0.00  0.00     0.003 A 
ATOM      6  C4  OXE d   1       1.465  -0.621   3.504  0.00  0.00    -0.002 A 
ATOM      7  C5  OXE d   1       0.186  -0.245   3.928  0.00  0.00    -0.002 A 
ATOM      8  C6  OXE d   1      -0.721   0.251   2.998  0.00  0.00     0.003 A 
ENDROOT
TORSDOF 0
ENDMDL
