MODEL 1
REMARK minimizedAffinity -3.01903415
REMARK minimizedRMSD -1
REMARK  0 active torsions:
REMARK  status: ('A' for Active; 'I' for Inactive)
ROOT
ATOM      1  C2' OXE d   1       1.356  -2.161  -1.300  0.00  0.00     0.078 C 
ATOM      2  C1' OXE d   1      -0.548  -0.263  -0.490  0.00  0.00     0.078 C 
ATOM      3  C1  OXE d   1       0.158  -0.035  -1.803  0.00  0.00    -0.078 A 
ATOM      4  C2  OXE d   1       1.121  -0.944  -2.169  0.00  0.00    -0.078 A 
ATOM      5  C3  OXE d   1       1.764  -0.811  -3.397  0.00  0.00     0.003 A 
ATOM      6  C4  OXE d   1       1.549   0.323  -4.190  0.00  0.00    -0.002 A 
ATOM      7  C5  OXE d   1       0.601   1.281  -3.817  0.00  0.00    -0.002 A 
ATOM      8  C6  OXE d   1      -0.132   1.096  -2.650  0.00  0.00     0.003 A 
ENDROOT
TORSDOF 0
ENDMDL
