MODEL 1
REMARK minimizedAffinity -2.74951696
REMARK minimizedRMSD -1
REMARK  0 active torsions:
REMARK  status: ('A' for Active; 'I' for Inactive)
ROOT
ATOM      1  C2' OXE d   1       1.243  -0.343  -0.287  0.00  0.00     0.078 C 
ATOM      2  C1' OXE d   1       2.891   1.286  -1.870  0.00  0.00     0.078 C 
ATOM      3  C1  OXE d   1       1.787   0.523  -2.558  0.00  0.00    -0.078 A 
ATOM      4  C2  OXE d   1       1.015  -0.308  -1.782  0.00  0.00    -0.078 A 
ATOM      5  C3  OXE d   1      -0.052  -0.993  -2.357  0.00  0.00     0.003 A 
ATOM      6  C4  OXE d   1      -0.250  -0.963  -3.743  0.00  0.00    -0.002 A 
ATOM      7  C5  OXE d   1       0.550  -0.154  -4.557  0.00  0.00    -0.002 A 
ATOM      8  C6  OXE d   1       1.544   0.626  -3.976  0.00  0.00     0.003 A 
ENDROOT
TORSDOF 0
ENDMDL
