MODEL 1
REMARK minimizedAffinity -1.4299624
REMARK minimizedRMSD -1
REMARK  0 active torsions:
REMARK  status: ('A' for Active; 'I' for Inactive)
ROOT
ATOM      1  C2' OXE d   1      -0.047  -1.854  -3.243  0.00  0.00     0.078 C 
ATOM      2  C1' OXE d   1       1.475   0.503  -3.163  0.00  0.00     0.078 C 
ATOM      3  C1  OXE d   1       0.566   0.213  -1.995  0.00  0.00    -0.078 A 
ATOM      4  C2  OXE d   1      -0.210  -0.919  -2.064  0.00  0.00    -0.078 A 
ATOM      5  C3  OXE d   1      -1.026  -1.262  -0.989  0.00  0.00     0.003 A 
ATOM      6  C4  OXE d   1      -1.178  -0.386   0.093  0.00  0.00    -0.002 A 
ATOM      7  C5  OXE d   1      -0.427   0.792   0.164  0.00  0.00    -0.002 A 
ATOM      8  C6  OXE d   1       0.480   1.084  -0.849  0.00  0.00     0.003 A 
ENDROOT
TORSDOF 0
ENDMDL
