MODEL 1
REMARK minimizedAffinity -2.11081529
REMARK minimizedRMSD -1
REMARK  0 active torsions:
REMARK  status: ('A' for Active; 'I' for Inactive)
ROOT
ATOM      1  C2' OXE d   1       0.421  -0.125  -1.273  0.00  0.00     0.078 C 
ATOM      2  C1' OXE d   1       2.139  -0.621   0.891  0.00  0.00     0.078 C 
ATOM      3  C1  OXE d   1       0.739  -0.152   1.198  0.00  0.00    -0.078 A 
ATOM      4  C2  OXE d   1      -0.080   0.133   0.132  0.00  0.00    -0.078 A 
ATOM      5  C3  OXE d   1      -1.399   0.516   0.359  0.00  0.00     0.003 A 
ATOM      6  C4  OXE d   1      -1.851   0.763   1.661  0.00  0.00    -0.002 A 
ATOM      7  C5  OXE d   1      -1.020   0.517   2.759  0.00  0.00    -0.002 A 
ATOM      8  C6  OXE d   1       0.261   0.020   2.547  0.00  0.00     0.003 A 
ENDROOT
TORSDOF 0
ENDMDL
