MODEL 1
REMARK minimizedAffinity -3.23795724
REMARK minimizedRMSD -1
REMARK  0 active torsions:
REMARK  status: ('A' for Active; 'I' for Inactive)
ROOT
ATOM      1  C2' OXE d   1       0.308  -0.059  -0.586  0.00  0.00     0.078 C 
ATOM      2  C1' OXE d   1       2.489  -0.630   1.087  0.00  0.00     0.078 C 
ATOM      3  C1  OXE d   1       1.156  -0.354   1.737  0.00  0.00    -0.078 A 
ATOM      4  C2  OXE d   1       0.105  -0.030   0.913  0.00  0.00    -0.078 A 
ATOM      5  C3  OXE d   1      -1.158   0.180   1.457  0.00  0.00     0.003 A 
ATOM      6  C4  OXE d   1      -1.335   0.215   2.846  0.00  0.00    -0.002 A 
ATOM      7  C5  OXE d   1      -0.269  -0.073   3.705  0.00  0.00    -0.002 A 
ATOM      8  C6  OXE d   1       0.970  -0.400   3.167  0.00  0.00     0.003 A 
ENDROOT
TORSDOF 0
ENDMDL
