MODEL 1
REMARK minimizedAffinity -4.01787043
REMARK minimizedRMSD -1
REMARK  0 active torsions:
REMARK  status: ('A' for Active; 'I' for Inactive)
ROOT
ATOM      1  C2' OXE d   1       0.420   0.006  -1.636  0.00  0.00     0.078 C 
ATOM      2  C1' OXE d   1       1.366  -0.673   0.918  0.00  0.00     0.078 C 
ATOM      3  C1  OXE d   1       0.006  -0.031   0.820  0.00  0.00    -0.078 A 
ATOM      4  C2  OXE d   1      -0.430   0.341  -0.429  0.00  0.00    -0.078 A 
ATOM      5  C3  OXE d   1      -1.701   0.888  -0.582  0.00  0.00     0.003 A 
ATOM      6  C4  OXE d   1      -2.476   1.204   0.541  0.00  0.00    -0.002 A 
ATOM      7  C5  OXE d   1      -2.034   0.870   1.825  0.00  0.00    -0.002 A 
ATOM      8  C6  OXE d   1      -0.817   0.216   1.979  0.00  0.00     0.003 A 
ENDROOT
TORSDOF 0
ENDMDL
