MODEL 1
REMARK minimizedAffinity 8.985919
REMARK minimizedRMSD -1
REMARK  0 active torsions:
REMARK  status: ('A' for Active; 'I' for Inactive)
ROOT
ATOM      1  C   UNL d   1       3.724  -3.547  -0.379  0.00  0.00     0.020 A 
ATOM      2  C1  UNL d   1       3.134  -3.979   0.808  0.00  0.00     0.020 A 
ATOM      3  C2  UNL d   1       2.150  -3.201   1.422  0.00  0.00     0.034 A 
ATOM      4  C3  UNL d   1       1.753  -1.987   0.849  0.00  0.00     0.017 A 
ATOM      5  C4  UNL d   1       2.346  -1.554  -0.342  0.00  0.00     0.017 A 
ATOM      6  C5  UNL d   1       3.331  -2.337  -0.953  0.00  0.00     0.034 A 
ATOM      7 Cl   UNL d   1       1.909  -0.068  -1.109  0.00  0.00    -0.070 Cl
ATOM      8 Cl1  UNL d   1       0.531  -1.076   1.663  0.00  0.00    -0.070 Cl
ENDROOT
TORSDOF 0
ENDMDL
