MODEL 1
REMARK minimizedAffinity 0.086287044
REMARK minimizedRMSD -1
REMARK  0 active torsions:
REMARK  status: ('A' for Active; 'I' for Inactive)
ROOT
ATOM      1  C   UNL d   1       3.691   0.831  -1.378  0.00  0.00     0.020 A 
ATOM      2  C1  UNL d   1       2.418   0.267  -1.308  0.00  0.00     0.020 A 
ATOM      3  C2  UNL d   1       2.234  -0.965  -0.676  0.00  0.00     0.034 A 
ATOM      4  C3  UNL d   1       3.325  -1.637  -0.112  0.00  0.00     0.017 A 
ATOM      5  C4  UNL d   1       4.602  -1.069  -0.183  0.00  0.00     0.017 A 
ATOM      6  C5  UNL d   1       4.781   0.164  -0.816  0.00  0.00     0.034 A 
ATOM      7 Cl   UNL d   1       5.997  -1.838   0.490  0.00  0.00    -0.070 Cl
ATOM      8 Cl1  UNL d   1       3.024  -3.156   0.654  0.00  0.00    -0.070 Cl
ENDROOT
TORSDOF 0
ENDMDL
