MODEL 1
REMARK minimizedAffinity 7.39932775
REMARK minimizedRMSD -1
REMARK  0 active torsions:
REMARK  status: ('A' for Active; 'I' for Inactive)
ROOT
ATOM      1  C   UNL d   1      -5.242   1.649  -5.566  0.00  0.00     0.020 A 
ATOM      2  C1  UNL d   1      -6.000   2.740  -5.989  0.00  0.00     0.020 A 
ATOM      3  C2  UNL d   1      -5.653   4.030  -5.583  0.00  0.00     0.034 A 
ATOM      4  C3  UNL d   1      -4.546   4.233  -4.751  0.00  0.00     0.017 A 
ATOM      5  C4  UNL d   1      -3.786   3.137  -4.327  0.00  0.00     0.017 A 
ATOM      6  C5  UNL d   1      -4.137   1.847  -4.737  0.00  0.00     0.034 A 
ATOM      7 Cl   UNL d   1      -2.406   3.308  -3.300  0.00  0.00    -0.070 Cl
ATOM      8 Cl1  UNL d   1      -4.175   5.855  -4.287  0.00  0.00    -0.070 Cl
ENDROOT
TORSDOF 0
ENDMDL
