MODEL 1
REMARK minimizedAffinity 7.02345133
REMARK minimizedRMSD -1
REMARK  0 active torsions:
REMARK  status: ('A' for Active; 'I' for Inactive)
ROOT
ATOM      1  C   UNL d   1       2.000  -1.348  -0.032  0.00  0.00     0.020 A 
ATOM      2  C1  UNL d   1       1.386  -1.951   1.065  0.00  0.00     0.020 A 
ATOM      3  C2  UNL d   1       2.125  -2.782   1.910  0.00  0.00     0.034 A 
ATOM      4  C3  UNL d   1       3.483  -3.012   1.659  0.00  0.00     0.017 A 
ATOM      5  C4  UNL d   1       4.098  -2.407   0.557  0.00  0.00     0.017 A 
ATOM      6  C5  UNL d   1       3.353  -1.575  -0.285  0.00  0.00     0.034 A 
ATOM      7 Cl   UNL d   1       5.769  -2.643   0.183  0.00  0.00    -0.070 Cl
ATOM      8 Cl1  UNL d   1       4.336  -4.051   2.744  0.00  0.00    -0.070 Cl
ENDROOT
TORSDOF 0
ENDMDL
