MODEL 1
REMARK minimizedAffinity 5.24007893
REMARK minimizedRMSD -1
REMARK  0 active torsions:
REMARK  status: ('A' for Active; 'I' for Inactive)
ROOT
ATOM      1  C   UNL d   1       3.056   1.126  -1.115  0.00  0.00     0.020 A 
ATOM      2  C1  UNL d   1       1.934   0.299  -1.134  0.00  0.00     0.020 A 
ATOM      3  C2  UNL d   1       2.056  -1.051  -0.798  0.00  0.00     0.034 A 
ATOM      4  C3  UNL d   1       3.303  -1.577  -0.440  0.00  0.00     0.017 A 
ATOM      5  C4  UNL d   1       4.429  -0.746  -0.420  0.00  0.00     0.017 A 
ATOM      6  C5  UNL d   1       4.301   0.605  -0.758  0.00  0.00     0.034 A 
ATOM      7 Cl   UNL d   1       6.000  -1.323   0.011  0.00  0.00    -0.070 Cl
ATOM      8 Cl1  UNL d   1       3.380  -3.255  -0.035  0.00  0.00    -0.070 Cl
ENDROOT
TORSDOF 0
ENDMDL
