MODEL 1
REMARK minimizedAffinity 2.04922652
REMARK minimizedRMSD -1
REMARK  0 active torsions:
REMARK  status: ('A' for Active; 'I' for Inactive)
ROOT
ATOM      1  C   UNL d   1       0.069  -2.874   3.058  0.00  0.00     0.020 A 
ATOM      2  C1  UNL d   1       1.145  -3.415   2.356  0.00  0.00     0.020 A 
ATOM      3  C2  UNL d   1       1.624  -2.776   1.210  0.00  0.00     0.034 A 
ATOM      4  C3  UNL d   1       1.025  -1.593   0.762  0.00  0.00     0.017 A 
ATOM      5  C4  UNL d   1      -0.055  -1.050   1.468  0.00  0.00     0.017 A 
ATOM      6  C5  UNL d   1      -0.530  -1.694   2.615  0.00  0.00     0.034 A 
ATOM      7 Cl   UNL d   1      -0.844   0.407   0.977  0.00  0.00    -0.070 Cl
ATOM      8 Cl1  UNL d   1       1.669  -0.856  -0.662  0.00  0.00    -0.070 Cl
ENDROOT
TORSDOF 0
ENDMDL
