MODEL 1
REMARK minimizedAffinity -0.337189138
REMARK minimizedRMSD -1
REMARK  0 active torsions:
REMARK  status: ('A' for Active; 'I' for Inactive)
ROOT
ATOM      1  C   UNL d   1       0.026  -3.708   3.318  0.00  0.00     0.020 A 
ATOM      2  C1  UNL d   1       0.991  -4.359   2.551  0.00  0.00     0.020 A 
ATOM      3  C2  UNL d   1       1.575  -3.708   1.463  0.00  0.00     0.034 A 
ATOM      4  C3  UNL d   1       1.194  -2.401   1.137  0.00  0.00     0.017 A 
ATOM      5  C4  UNL d   1       0.225  -1.748   1.907  0.00  0.00     0.017 A 
ATOM      6  C5  UNL d   1      -0.356  -2.405   2.996  0.00  0.00     0.034 A 
ATOM      7 Cl   UNL d   1      -0.297  -0.136   1.567  0.00  0.00    -0.070 Cl
ATOM      8 Cl1  UNL d   1       1.957  -1.657  -0.222  0.00  0.00    -0.070 Cl
ENDROOT
TORSDOF 0
ENDMDL
