MODEL 1
REMARK minimizedAffinity 0.0263119247
REMARK minimizedRMSD -1
REMARK  0 active torsions:
REMARK  status: ('A' for Active; 'I' for Inactive)
ROOT
ATOM      1  C   UNL d   1       3.133  -3.402   0.638  0.00  0.00     0.020 A 
ATOM      2  C1  UNL d   1       2.134  -3.734   1.552  0.00  0.00     0.020 A 
ATOM      3  C2  UNL d   1       1.095  -2.837   1.806  0.00  0.00     0.034 A 
ATOM      4  C3  UNL d   1       1.052  -1.604   1.145  0.00  0.00     0.017 A 
ATOM      5  C4  UNL d   1       2.055  -1.272   0.227  0.00  0.00     0.017 A 
ATOM      6  C5  UNL d   1       3.093  -2.174  -0.023  0.00  0.00     0.034 A 
ATOM      7 Cl   UNL d   1       2.069   0.230  -0.628  0.00  0.00    -0.070 Cl
ATOM      8 Cl1  UNL d   1      -0.263  -0.543   1.508  0.00  0.00    -0.070 Cl
ENDROOT
TORSDOF 0
ENDMDL
