MODEL 1
REMARK minimizedAffinity 2.04439688
REMARK minimizedRMSD -1
REMARK  0 active torsions:
REMARK  status: ('A' for Active; 'I' for Inactive)
ROOT
ATOM      1  C   UNL d   1      -1.201  -1.275   2.958  0.00  0.00     0.020 A 
ATOM      2  C1  UNL d   1      -0.925  -2.534   3.490  0.00  0.00     0.020 A 
ATOM      3  C2  UNL d   1       0.029  -3.353   2.884  0.00  0.00     0.034 A 
ATOM      4  C3  UNL d   1       0.711  -2.915   1.742  0.00  0.00     0.017 A 
ATOM      5  C4  UNL d   1       0.433  -1.651   1.209  0.00  0.00     0.017 A 
ATOM      6  C5  UNL d   1      -0.524  -0.835   1.820  0.00  0.00     0.034 A 
ATOM      7 Cl   UNL d   1       1.233  -1.042  -0.196  0.00  0.00    -0.070 Cl
ATOM      8 Cl1  UNL d   1       1.878  -3.981   1.045  0.00  0.00    -0.070 Cl
ENDROOT
TORSDOF 0
ENDMDL
