MODEL 1
REMARK minimizedAffinity -4.36248446
REMARK minimizedRMSD -1
REMARK  0 active torsions:
REMARK  status: ('A' for Active; 'I' for Inactive)
ROOT
ATOM      1  N1  IND d   1       0.184   2.562   2.224  0.00  0.00    -0.196 N 
ATOM      2  C2  IND d   1      -0.773   3.306   1.592  0.00  0.00     0.054 A 
ATOM      3  C3  IND d   1      -1.276   2.628   0.537  0.00  0.00    -0.031 A 
ATOM      4  C4  IND d   1      -0.750   0.242  -0.275  0.00  0.00     0.051 A 
ATOM      5  C5  IND d   1       0.082  -0.817  -0.041  0.00  0.00    -0.031 A 
ATOM      6  C6  IND d   1       1.007  -0.804   0.983  0.00  0.00     0.015 A 
ATOM      7  C7  IND d   1       1.128   0.268   1.821  0.00  0.00    -0.016 A 
ATOM      8  C8  IND d   1       0.289   1.348   1.582  0.00  0.00    -0.047 A 
ATOM      9  C9  IND d   1      -0.622   1.358   0.518  0.00  0.00    -0.096 A 
ATOM     10  HN1 IND d   1       0.643   2.810   2.907  0.00  0.00     0.298 HD
ENDROOT
TORSDOF 0
ENDMDL
