MODEL 1
REMARK minimizedAffinity -5.53408623
REMARK minimizedRMSD -1
REMARK  0 active torsions:
REMARK  status: ('A' for Active; 'I' for Inactive)
ROOT
ATOM      1  N1  IND d   1       0.635  -1.136  -0.362  0.00  0.00    -0.196 N 
ATOM      2  C2  IND d   1       0.453  -0.950  -1.704  0.00  0.00     0.054 A 
ATOM      3  C3  IND d   1      -0.248   0.184  -1.931  0.00  0.00    -0.031 A 
ATOM      4  C4  IND d   1      -1.107   1.939  -0.255  0.00  0.00     0.051 A 
ATOM      5  C5  IND d   1      -1.215   2.187   1.085  0.00  0.00    -0.031 A 
ATOM      6  C6  IND d   1      -0.698   1.324   2.029  0.00  0.00     0.015 A 
ATOM      7  C7  IND d   1      -0.042   0.181   1.668  0.00  0.00    -0.016 A 
ATOM      8  C8  IND d   1       0.063  -0.077   0.309  0.00  0.00    -0.047 A 
ATOM      9  C9  IND d   1      -0.497   0.773  -0.654  0.00  0.00    -0.096 A 
ATOM     10  HN1 IND d   1       1.039  -1.802   0.002  0.00  0.00     0.298 HD
ENDROOT
TORSDOF 0
ENDMDL
