MODEL 1
REMARK minimizedAffinity -1.69967437
REMARK minimizedRMSD -1
REMARK  0 active torsions:
REMARK  status: ('A' for Active; 'I' for Inactive)
ROOT
ATOM      1  N1  IND d   1       1.126  -0.197   0.480  0.00  0.00    -0.196 N 
ATOM      2  C2  IND d   1       0.154   0.016   1.418  0.00  0.00     0.054 A 
ATOM      3  C3  IND d   1      -0.930  -0.747   1.154  0.00  0.00    -0.031 A 
ATOM      4  C4  IND d   1      -1.288  -2.492  -0.705  0.00  0.00     0.051 A 
ATOM      5  C5  IND d   1      -0.699  -3.011  -1.824  0.00  0.00    -0.031 A 
ATOM      6  C6  IND d   1       0.556  -2.612  -2.238  0.00  0.00     0.015 A 
ATOM      7  C7  IND d   1       1.275  -1.684  -1.540  0.00  0.00    -0.016 A 
ATOM      8  C8  IND d   1       0.677  -1.150  -0.408  0.00  0.00    -0.047 A 
ATOM      9  C9  IND d   1      -0.613  -1.519  -0.006  0.00  0.00    -0.096 A 
ATOM     10  HN1 IND d   1       1.889   0.198   0.450  0.00  0.00     0.298 HD
ENDROOT
TORSDOF 0
ENDMDL
