MODEL 1
REMARK minimizedAffinity -0.360520899
REMARK minimizedRMSD -1
REMARK  0 active torsions:
REMARK  status: ('A' for Active; 'I' for Inactive)
ROOT
ATOM      1  N1  IND d   1       0.579   0.248  -0.874  0.00  0.00    -0.196 N 
ATOM      2  C2  IND d   1       0.592  -1.118  -0.833  0.00  0.00     0.054 A 
ATOM      3  C3  IND d   1       0.438  -1.552   0.438  0.00  0.00    -0.031 A 
ATOM      4  C4  IND d   1       0.045  -0.198   2.592  0.00  0.00     0.051 A 
ATOM      5  C5  IND d   1      -0.009   1.084   3.064  0.00  0.00    -0.031 A 
ATOM      6  C6  IND d   1       0.130   2.174   2.230  0.00  0.00     0.015 A 
ATOM      7  C7  IND d   1       0.318   2.023   0.885  0.00  0.00    -0.016 A 
ATOM      8  C8  IND d   1       0.381   0.723   0.403  0.00  0.00    -0.047 A 
ATOM      9  C9  IND d   1       0.283  -0.388   1.251  0.00  0.00    -0.096 A 
ATOM     10  HN1 IND d   1       0.679   0.730  -1.580  0.00  0.00     0.298 HD
ENDROOT
TORSDOF 0
ENDMDL
