MODEL 1
REMARK minimizedAffinity -3.23877048
REMARK minimizedRMSD -1
REMARK  0 active torsions:
REMARK  status: ('A' for Active; 'I' for Inactive)
ROOT
ATOM      1  N1  IND d   1      -0.436  -0.011  -0.683  0.00  0.00    -0.196 N 
ATOM      2  C2  IND d   1       0.548  -0.951  -0.810  0.00  0.00     0.054 A 
ATOM      3  C3  IND d   1       1.353  -0.940   0.276  0.00  0.00    -0.031 A 
ATOM      4  C4  IND d   1       1.180   0.468   2.425  0.00  0.00     0.051 A 
ATOM      5  C5  IND d   1       0.469   1.490   2.989  0.00  0.00    -0.031 A 
ATOM      6  C6  IND d   1      -0.603   2.074   2.346  0.00  0.00     0.015 A 
ATOM      7  C7  IND d   1      -1.014   1.648   1.114  0.00  0.00    -0.016 A 
ATOM      8  C8  IND d   1      -0.290   0.615   0.536  0.00  0.00    -0.047 A 
ATOM      9  C9  IND d   1       0.826   0.047   1.165  0.00  0.00    -0.096 A 
ATOM     10  HN1 IND d   1      -1.044   0.161  -1.266  0.00  0.00     0.298 HD
ENDROOT
TORSDOF 0
ENDMDL
