MODEL 1
REMARK minimizedAffinity -2.07256722
REMARK minimizedRMSD -1
REMARK  0 active torsions:
REMARK  status: ('A' for Active; 'I' for Inactive)
ROOT
ATOM      1  N1  IND d   1      -0.764  -0.265  -1.149  0.00  0.00    -0.196 N 
ATOM      2  C2  IND d   1       0.028  -1.377  -1.228  0.00  0.00     0.054 A 
ATOM      3  C3  IND d   1       0.813  -1.473  -0.131  0.00  0.00    -0.031 A 
ATOM      4  C4  IND d   1       0.890   0.024   1.961  0.00  0.00     0.051 A 
ATOM      5  C5  IND d   1       0.378   1.181   2.478  0.00  0.00    -0.031 A 
ATOM      6  C6  IND d   1      -0.561   1.929   1.799  0.00  0.00     0.015 A 
ATOM      7  C7  IND d   1      -1.035   1.540   0.578  0.00  0.00    -0.016 A 
ATOM      8  C8  IND d   1      -0.512   0.369   0.047  0.00  0.00    -0.047 A 
ATOM      9  C9  IND d   1       0.473  -0.372   0.713  0.00  0.00    -0.096 A 
ATOM     10  HN1 IND d   1      -1.326  -0.006  -1.747  0.00  0.00     0.298 HD
ENDROOT
TORSDOF 0
ENDMDL
