MODEL 1
REMARK minimizedAffinity 6.84928131
REMARK minimizedRMSD -1
REMARK  0 active torsions:
REMARK  status: ('A' for Active; 'I' for Inactive)
ROOT
ATOM      1  N1  IND d   1      -5.268   3.192  -3.796  0.00  0.00    -0.196 N 
ATOM      2  C2  IND d   1      -4.782   4.469  -3.820  0.00  0.00     0.054 A 
ATOM      3  C3  IND d   1      -3.822   4.626  -2.882  0.00  0.00    -0.031 A 
ATOM      4  C4  IND d   1      -2.816   2.892  -1.266  0.00  0.00     0.051 A 
ATOM      5  C5  IND d   1      -2.961   1.600  -0.847  0.00  0.00    -0.031 A 
ATOM      6  C6  IND d   1      -3.899   0.754  -1.402  0.00  0.00     0.015 A 
ATOM      7  C7  IND d   1      -4.724   1.167  -2.410  0.00  0.00    -0.016 A 
ATOM      8  C8  IND d   1      -4.584   2.482  -2.833  0.00  0.00    -0.047 A 
ATOM      9  C9  IND d   1      -3.663   3.357  -2.245  0.00  0.00    -0.096 A 
ATOM     10  HN1 IND d   1      -5.895   2.883  -4.297  0.00  0.00     0.298 HD
ENDROOT
TORSDOF 0
ENDMDL
