MODEL 1
REMARK minimizedAffinity 6.75901508
REMARK minimizedRMSD -1
REMARK  0 active torsions:
REMARK  status: ('A' for Active; 'I' for Inactive)
ROOT
ATOM      1  N1  IND d   1       5.492  -1.166  -1.798  0.00  0.00    -0.196 N 
ATOM      2  C2  IND d   1       5.989  -2.374  -2.203  0.00  0.00     0.054 A 
ATOM      3  C3  IND d   1       5.083  -3.353  -1.984  0.00  0.00    -0.031 A 
ATOM      4  C4  IND d   1       2.683  -3.186  -1.067  0.00  0.00     0.051 A 
ATOM      5  C5  IND d   1       1.796  -2.297  -0.528  0.00  0.00    -0.031 A 
ATOM      6  C6  IND d   1       2.100  -0.959  -0.383  0.00  0.00     0.015 A 
ATOM      7  C7  IND d   1       3.304  -0.455  -0.786  0.00  0.00    -0.016 A 
ATOM      8  C8  IND d   1       4.211  -1.355  -1.328  0.00  0.00    -0.047 A 
ATOM      9  C9  IND d   1       3.924  -2.722  -1.438  0.00  0.00    -0.096 A 
ATOM     10  HN1 IND d   1       5.909  -0.415  -1.831  0.00  0.00     0.298 HD
ENDROOT
TORSDOF 0
ENDMDL
