MODEL 1
REMARK minimizedAffinity 20.5796356
REMARK minimizedRMSD -1
REMARK  0 active torsions:
REMARK  status: ('A' for Active; 'I' for Inactive)
ROOT
ATOM      1  C   UNL d   1      -2.182   5.764  -1.487  0.00  0.00     0.124 A 
ATOM      2  C1  UNL d   1      -0.799   5.669  -1.433  0.00  0.00     0.062 A 
ATOM      3  C2  UNL d   1      -0.050   5.677  -2.607  0.00  0.00     0.162 A 
ATOM      4  C3  UNL d   1      -0.684   5.783  -3.845  0.00  0.00    -0.034 A 
ATOM      5  C4  UNL d   1      -2.076   5.878  -3.891  0.00  0.00     0.162 A 
ATOM      6  C5  UNL d   1      -2.819   5.869  -2.715  0.00  0.00     0.062 A 
ATOM      7  F   UNL d   1      -4.156   5.962  -2.770  0.00  0.00    -0.097 F 
ATOM      8  F1  UNL d   1      -2.717   5.981  -5.065  0.00  0.00    -0.096 F 
ATOM      9  I   UNL d   1       0.432   5.796  -5.602  0.00  0.00    -0.060 I 
ATOM     10  F2  UNL d   1       1.285   5.583  -2.525  0.00  0.00    -0.096 F 
ATOM     11  F3  UNL d   1      -0.181   5.567  -0.248  0.00  0.00    -0.097 F 
ATOM     12  F4  UNL d   1      -2.900   5.755  -0.357  0.00  0.00    -0.092 F 
ENDROOT
TORSDOF 0
ENDMDL
