MODEL 1
REMARK minimizedAffinity 1.63537574
REMARK minimizedRMSD -1
REMARK  0 active torsions:
REMARK  status: ('A' for Active; 'I' for Inactive)
ROOT
ATOM      1  C   UNL d   1      -1.898   5.761  -2.370  0.00  0.00     0.124 A 
ATOM      2  C1  UNL d   1      -0.543   5.650  -2.090  0.00  0.00     0.062 A 
ATOM      3  C2  UNL d   1       0.389   5.656  -3.124  0.00  0.00     0.162 A 
ATOM      4  C3  UNL d   1      -0.031   5.774  -4.449  0.00  0.00    -0.034 A 
ATOM      5  C4  UNL d   1      -1.396   5.883  -4.723  0.00  0.00     0.162 A 
ATOM      6  C5  UNL d   1      -2.323   5.877  -3.686  0.00  0.00     0.062 A 
ATOM      7  F   UNL d   1      -3.631   5.983  -3.959  0.00  0.00    -0.097 F 
ATOM      8  F1  UNL d   1      -1.834   5.998  -5.986  0.00  0.00    -0.096 F 
ATOM      9  I   UNL d   1       1.359   5.783  -5.998  0.00  0.00    -0.060 I 
ATOM     10  F2  UNL d   1       1.692   5.548  -2.824  0.00  0.00    -0.096 F 
ATOM     11  F3  UNL d   1      -0.129   5.537  -0.820  0.00  0.00    -0.097 F 
ATOM     12  F4  UNL d   1      -2.792   5.754  -1.374  0.00  0.00    -0.092 F 
ENDROOT
TORSDOF 0
ENDMDL
