MODEL 1
REMARK minimizedAffinity 11.0116186
REMARK minimizedRMSD -1
REMARK  0 active torsions:
REMARK  status: ('A' for Active; 'I' for Inactive)
ROOT
ATOM      1  C   UNL d   1       1.524   1.577  -1.370  0.00  0.00     0.124 A 
ATOM      2  C1  UNL d   1       1.139   0.292  -1.011  0.00  0.00     0.062 A 
ATOM      3  C2  UNL d   1       0.627   0.044   0.259  0.00  0.00     0.162 A 
ATOM      4  C3  UNL d   1       0.496   1.082   1.180  0.00  0.00    -0.034 A 
ATOM      5  C4  UNL d   1       0.886   2.371   0.813  0.00  0.00     0.162 A 
ATOM      6  C5  UNL d   1       1.397   2.615  -0.457  0.00  0.00     0.062 A 
ATOM      7  F   UNL d   1       1.768   3.857  -0.802  0.00  0.00    -0.097 F 
ATOM      8  F1  UNL d   1       0.773   3.393   1.675  0.00  0.00    -0.096 F 
ATOM      9  I   UNL d   1      -0.269   0.715   3.081  0.00  0.00    -0.060 I 
ATOM     10  F2  UNL d   1       0.263  -1.207   0.578  0.00  0.00    -0.096 F 
ATOM     11  F3  UNL d   1       1.262  -0.712  -1.891  0.00  0.00    -0.097 F 
ATOM     12  F4  UNL d   1       2.017   1.813  -2.592  0.00  0.00    -0.092 F 
ENDROOT
TORSDOF 0
ENDMDL
