MODEL 1
REMARK minimizedAffinity 6.52679157
REMARK minimizedRMSD -1
REMARK  0 active torsions:
REMARK  status: ('A' for Active; 'I' for Inactive)
ROOT
ATOM      1  C   UNL d   1      -0.017   5.980  -3.175  0.00  0.00     0.124 A 
ATOM      2  C1  UNL d   1      -0.545   5.987  -4.458  0.00  0.00     0.062 A 
ATOM      3  C2  UNL d   1      -1.924   5.992  -4.648  0.00  0.00     0.162 A 
ATOM      4  C3  UNL d   1      -2.785   5.991  -3.551  0.00  0.00    -0.034 A 
ATOM      5  C4  UNL d   1      -2.247   5.983  -2.263  0.00  0.00     0.162 A 
ATOM      6  C5  UNL d   1      -0.868   5.978  -2.079  0.00  0.00     0.062 A 
ATOM      7  F   UNL d   1      -0.360   5.971  -0.838  0.00  0.00    -0.097 F 
ATOM      8  F1  UNL d   1      -3.046   5.982  -1.186  0.00  0.00    -0.096 F 
ATOM      9  I   UNL d   1      -4.848   5.999  -3.830  0.00  0.00    -0.060 I 
ATOM     10  F2  UNL d   1      -2.407   5.999  -5.900  0.00  0.00    -0.096 F 
ATOM     11  F3  UNL d   1       0.275   5.988  -5.519  0.00  0.00    -0.097 F 
ATOM     12  F4  UNL d   1       1.310   5.974  -2.995  0.00  0.00    -0.092 F 
ENDROOT
TORSDOF 0
ENDMDL
