MODEL 1
REMARK minimizedAffinity 6.188519
REMARK minimizedRMSD -1
REMARK  0 active torsions:
REMARK  status: ('A' for Active; 'I' for Inactive)
ROOT
ATOM      1  C   UNL d   1      -1.888   5.972  -2.206  0.00  0.00     0.124 A 
ATOM      2  C1  UNL d   1      -0.519   5.974  -1.974  0.00  0.00     0.062 A 
ATOM      3  C2  UNL d   1       0.372   5.982  -3.043  0.00  0.00     0.162 A 
ATOM      4  C3  UNL d   1      -0.102   5.988  -4.355  0.00  0.00    -0.034 A 
ATOM      5  C4  UNL d   1      -1.480   5.985  -4.581  0.00  0.00     0.162 A 
ATOM      6  C5  UNL d   1      -2.367   5.978  -3.509  0.00  0.00     0.062 A 
ATOM      7  F   UNL d   1      -3.688   5.975  -3.735  0.00  0.00    -0.097 F 
ATOM      8  F1  UNL d   1      -1.970   5.991  -5.829  0.00  0.00    -0.096 F 
ATOM      9  I   UNL d   1       1.227   5.999  -5.956  0.00  0.00    -0.060 I 
ATOM     10  F2  UNL d   1       1.689   5.984  -2.789  0.00  0.00    -0.096 F 
ATOM     11  F3  UNL d   1      -0.054   5.968  -0.717  0.00  0.00    -0.097 F 
ATOM     12  F4  UNL d   1      -2.743   5.964  -1.176  0.00  0.00    -0.092 F 
ENDROOT
TORSDOF 0
ENDMDL
