MODEL 1
REMARK minimizedAffinity 11.8101521
REMARK minimizedRMSD -1
REMARK  0 active torsions:
REMARK  status: ('A' for Active; 'I' for Inactive)
ROOT
ATOM      1  C   UNL d   1      -0.339   5.972  -3.422  0.00  0.00     0.124 A 
ATOM      2  C1  UNL d   1      -1.055   5.981  -4.611  0.00  0.00     0.062 A 
ATOM      3  C2  UNL d   1      -2.447   5.984  -4.589  0.00  0.00     0.162 A 
ATOM      4  C3  UNL d   1      -3.132   5.979  -3.374  0.00  0.00    -0.034 A 
ATOM      5  C4  UNL d   1      -2.405   5.969  -2.183  0.00  0.00     0.162 A 
ATOM      6  C5  UNL d   1      -1.014   5.966  -2.209  0.00  0.00     0.062 A 
ATOM      7  F   UNL d   1      -0.323   5.958  -1.060  0.00  0.00    -0.097 F 
ATOM      8  F1  UNL d   1      -3.031   5.964  -0.997  0.00  0.00    -0.096 F 
ATOM      9  I   UNL d   1      -5.213   5.984  -3.337  0.00  0.00    -0.060 I 
ATOM     10  F2  UNL d   1      -3.114   5.993  -5.753  0.00  0.00    -0.096 F 
ATOM     11  F3  UNL d   1      -0.406   5.986  -5.783  0.00  0.00    -0.097 F 
ATOM     12  F4  UNL d   1       1.000   5.969  -3.446  0.00  0.00    -0.092 F 
ENDROOT
TORSDOF 0
ENDMDL
