MODEL 1
REMARK minimizedAffinity 6.20457458
REMARK minimizedRMSD -1
REMARK  0 active torsions:
REMARK  status: ('A' for Active; 'I' for Inactive)
ROOT
ATOM      1  C   UNL d   1      -1.298   5.900  -2.376  0.00  0.00     0.124 A 
ATOM      2  C1  UNL d   1       0.060   5.936  -2.088  0.00  0.00     0.062 A 
ATOM      3  C2  UNL d   1       0.994   5.963  -3.120  0.00  0.00     0.162 A 
ATOM      4  C3  UNL d   1       0.573   5.954  -4.450  0.00  0.00    -0.034 A 
ATOM      5  C4  UNL d   1      -0.794   5.916  -4.731  0.00  0.00     0.162 A 
ATOM      6  C5  UNL d   1      -1.723   5.890  -3.697  0.00  0.00     0.062 A 
ATOM      7  F   UNL d   1      -3.034   5.854  -3.977  0.00  0.00    -0.097 F 
ATOM      8  F1  UNL d   1      -1.232   5.907  -5.999  0.00  0.00    -0.096 F 
ATOM      9  I   UNL d   1       1.966   5.994  -5.995  0.00  0.00    -0.060 I 
ATOM     10  F2  UNL d   1       2.299   5.998  -2.812  0.00  0.00    -0.096 F 
ATOM     11  F3  UNL d   1       0.473   5.945  -0.813  0.00  0.00    -0.097 F 
ATOM     12  F4  UNL d   1      -2.194   5.873  -1.381  0.00  0.00    -0.092 F 
ENDROOT
TORSDOF 0
ENDMDL
