MODEL 1
REMARK minimizedAffinity 8.24003029
REMARK minimizedRMSD -1
REMARK  0 active torsions:
REMARK  status: ('A' for Active; 'I' for Inactive)
ROOT
ATOM      1  C   UNL d   1       0.989   1.170   1.385  0.00  0.00     0.124 A 
ATOM      2  C1  UNL d   1       0.103   0.122   1.175  0.00  0.00     0.062 A 
ATOM      3  C2  UNL d   1      -0.197  -0.292  -0.119  0.00  0.00     0.162 A 
ATOM      4  C3  UNL d   1       0.391   0.340  -1.215  0.00  0.00    -0.034 A 
ATOM      5  C4  UNL d   1       1.281   1.394  -0.995  0.00  0.00     0.162 A 
ATOM      6  C5  UNL d   1       1.577   1.804   0.300  0.00  0.00     0.062 A 
ATOM      7  F   UNL d   1       2.434   2.816   0.501  0.00  0.00    -0.097 F 
ATOM      8  F1  UNL d   1       1.864   2.024  -2.026  0.00  0.00    -0.096 F 
ATOM      9  I   UNL d   1      -0.054  -0.277  -3.152  0.00  0.00    -0.060 I 
ATOM     10  F2  UNL d   1      -1.057  -1.307  -0.293  0.00  0.00    -0.096 F 
ATOM     11  F3  UNL d   1      -0.467  -0.492   2.222  0.00  0.00    -0.097 F 
ATOM     12  F4  UNL d   1       1.275   1.567   2.632  0.00  0.00    -0.092 F 
ENDROOT
TORSDOF 0
ENDMDL
