MODEL 1
REMARK minimizedAffinity 1.80592573
REMARK minimizedRMSD -1
REMARK  0 active torsions:
REMARK  status: ('A' for Active; 'I' for Inactive)
ROOT
ATOM      1  C   UNL d   1      -4.117   5.990  -2.126  0.00  0.00     0.124 A 
ATOM      2  C1  UNL d   1      -2.915   5.985  -1.433  0.00  0.00     0.062 A 
ATOM      3  C2  UNL d   1      -1.707   5.985  -2.126  0.00  0.00     0.162 A 
ATOM      4  C3  UNL d   1      -1.696   5.990  -3.521  0.00  0.00    -0.034 A 
ATOM      5  C4  UNL d   1      -2.910   5.994  -4.211  0.00  0.00     0.162 A 
ATOM      6  C5  UNL d   1      -4.114   5.995  -3.514  0.00  0.00     0.062 A 
ATOM      7  F   UNL d   1      -5.274   6.000  -4.185  0.00  0.00    -0.097 F 
ATOM      8  F1  UNL d   1      -2.936   6.000  -5.552  0.00  0.00    -0.096 F 
ATOM      9  I   UNL d   1       0.107   5.989  -4.560  0.00  0.00    -0.060 I 
ATOM     10  F2  UNL d   1      -0.561   5.980  -1.430  0.00  0.00    -0.096 F 
ATOM     11  F3  UNL d   1      -2.915   5.980  -0.092  0.00  0.00    -0.097 F 
ATOM     12  F4  UNL d   1      -5.277   5.990  -1.457  0.00  0.00    -0.092 F 
ENDROOT
TORSDOF 0
ENDMDL
