MODEL 1
REMARK minimizedAffinity 11.6868973
REMARK minimizedRMSD -1
REMARK  0 active torsions:
REMARK  status: ('A' for Active; 'I' for Inactive)
ROOT
ATOM      1  C   UNL d   1       0.760   2.414   1.070  0.00  0.00     0.124 A 
ATOM      2  C1  UNL d   1       0.556   1.074   1.367  0.00  0.00     0.062 A 
ATOM      3  C2  UNL d   1       0.814   0.097   0.410  0.00  0.00     0.162 A 
ATOM      4  C3  UNL d   1       1.281   0.458  -0.855  0.00  0.00    -0.034 A 
ATOM      5  C4  UNL d   1       1.484   1.808  -1.146  0.00  0.00     0.162 A 
ATOM      6  C5  UNL d   1       1.224   2.780  -0.185  0.00  0.00     0.062 A 
ATOM      7  F   UNL d   1       1.422   4.074  -0.474  0.00  0.00    -0.097 F 
ATOM      8  F1  UNL d   1       1.932   2.189  -2.351  0.00  0.00    -0.096 F 
ATOM      9  I   UNL d   1       1.669  -0.999  -2.289  0.00  0.00    -0.060 I 
ATOM     10  F2  UNL d   1       0.608  -1.190   0.724  0.00  0.00    -0.096 F 
ATOM     11  F3  UNL d   1       0.107   0.718   2.580  0.00  0.00    -0.097 F 
ATOM     12  F4  UNL d   1       0.510   3.351   1.994  0.00  0.00    -0.092 F 
ENDROOT
TORSDOF 0
ENDMDL
