MODEL 1
REMARK minimizedAffinity 1.71714687
REMARK minimizedRMSD -1
REMARK  0 active torsions:
REMARK  status: ('A' for Active; 'I' for Inactive)
ROOT
ATOM      1  C   UNL d   1      -2.402   5.991  -2.240  0.00  0.00     0.124 A 
ATOM      2  C1  UNL d   1      -1.041   5.988  -1.970  0.00  0.00     0.062 A 
ATOM      3  C2  UNL d   1      -0.120   5.989  -3.014  0.00  0.00     0.162 A 
ATOM      4  C3  UNL d   1      -0.558   5.994  -4.338  0.00  0.00    -0.034 A 
ATOM      5  C4  UNL d   1      -1.929   5.995  -4.602  0.00  0.00     0.162 A 
ATOM      6  C5  UNL d   1      -2.845   5.995  -3.555  0.00  0.00     0.062 A 
ATOM      7  F   UNL d   1      -4.160   5.997  -3.818  0.00  0.00    -0.097 F 
ATOM      8  F1  UNL d   1      -2.384   6.000  -5.864  0.00  0.00    -0.096 F 
ATOM      9  I   UNL d   1       0.816   5.995  -5.902  0.00  0.00    -0.060 I 
ATOM     10  F2  UNL d   1       1.190   5.986  -2.724  0.00  0.00    -0.096 F 
ATOM     11  F3  UNL d   1      -0.610   5.984  -0.700  0.00  0.00    -0.097 F 
ATOM     12  F4  UNL d   1      -3.286   5.989  -1.234  0.00  0.00    -0.092 F 
ENDROOT
TORSDOF 0
ENDMDL
