MODEL 1
REMARK minimizedAffinity 11.2770472
REMARK minimizedRMSD -1
REMARK  0 active torsions:
REMARK  status: ('A' for Active; 'I' for Inactive)
ROOT
ATOM      1  C   UNL d   1       1.304   1.731  -0.812  0.00  0.00     0.124 A 
ATOM      2  C1  UNL d   1       0.902   0.431  -0.539  0.00  0.00     0.062 A 
ATOM      3  C2  UNL d   1       0.414   0.099   0.721  0.00  0.00     0.162 A 
ATOM      4  C3  UNL d   1       0.324   1.069   1.719  0.00  0.00    -0.034 A 
ATOM      5  C4  UNL d   1       0.731   2.374   1.438  0.00  0.00     0.162 A 
ATOM      6  C5  UNL d   1       1.218   2.701   0.177  0.00  0.00     0.062 A 
ATOM      7  F   UNL d   1       1.607   3.958  -0.084  0.00  0.00    -0.097 F 
ATOM      8  F1  UNL d   1       0.658   3.332   2.375  0.00  0.00    -0.096 F 
ATOM      9  I   UNL d   1      -0.405   0.576   3.605  0.00  0.00    -0.060 I 
ATOM     10  F2  UNL d   1       0.033  -1.166   0.956  0.00  0.00    -0.096 F 
ATOM     11  F3  UNL d   1       0.985  -0.508  -1.493  0.00  0.00    -0.097 F 
ATOM     12  F4  UNL d   1       1.774   2.048  -2.025  0.00  0.00    -0.092 F 
ENDROOT
TORSDOF 0
ENDMDL
