MODEL 1
REMARK minimizedAffinity 6.0389533
REMARK minimizedRMSD -1
REMARK  0 active torsions:
REMARK  status: ('A' for Active; 'I' for Inactive)
ROOT
ATOM      1  C   UNL d   1       1.114   1.661  -0.538  0.00  0.00     0.124 A 
ATOM      2  C1  UNL d   1       1.008   2.667   0.412  0.00  0.00     0.062 A 
ATOM      3  C2  UNL d   1       0.519   2.381   1.683  0.00  0.00     0.162 A 
ATOM      4  C3  UNL d   1       0.133   1.082   2.012  0.00  0.00    -0.034 A 
ATOM      5  C4  UNL d   1       0.241   0.075   1.051  0.00  0.00     0.162 A 
ATOM      6  C5  UNL d   1       0.731   0.367  -0.218  0.00  0.00     0.062 A 
ATOM      7  F   UNL d   1       0.833  -0.607  -1.135  0.00  0.00    -0.097 F 
ATOM      8  F1  UNL d   1      -0.121  -1.185   1.334  0.00  0.00    -0.096 F 
ATOM      9  I   UNL d   1      -0.599   0.649   3.912  0.00  0.00    -0.060 I 
ATOM     10  F2  UNL d   1       0.427   3.373   2.582  0.00  0.00    -0.096 F 
ATOM     11  F3  UNL d   1       1.377   3.919   0.105  0.00  0.00    -0.097 F 
ATOM     12  F4  UNL d   1       1.584   1.940  -1.761  0.00  0.00    -0.092 F 
ENDROOT
TORSDOF 0
ENDMDL
