MODEL 1
REMARK minimizedAffinity 1.33622122
REMARK minimizedRMSD -1
REMARK  0 active torsions:
REMARK  status: ('A' for Active; 'I' for Inactive)
ROOT
ATOM      1  C   UNL d   1      -2.450   5.752  -1.713  0.00  0.00     0.124 A 
ATOM      2  C1  UNL d   1      -3.168   5.867  -2.895  0.00  0.00     0.062 A 
ATOM      3  C2  UNL d   1      -2.507   5.844  -4.120  0.00  0.00     0.162 A 
ATOM      4  C3  UNL d   1      -1.120   5.706  -4.169  0.00  0.00    -0.034 A 
ATOM      5  C4  UNL d   1      -0.405   5.592  -2.976  0.00  0.00     0.162 A 
ATOM      6  C5  UNL d   1      -1.070   5.615  -1.754  0.00  0.00     0.062 A 
ATOM      7  F   UNL d   1      -0.374   5.504  -0.613  0.00  0.00    -0.097 F 
ATOM      8  F1  UNL d   1       0.930   5.458  -2.986  0.00  0.00    -0.096 F 
ATOM      9  I   UNL d   1      -0.129   5.673  -5.999  0.00  0.00    -0.060 I 
ATOM     10  F2  UNL d   1      -3.226   5.957  -5.247  0.00  0.00    -0.096 F 
ATOM     11  F3  UNL d   1      -4.501   6.000  -2.858  0.00  0.00    -0.097 F 
ATOM     12  F4  UNL d   1      -3.088   5.774  -0.535  0.00  0.00    -0.092 F 
ENDROOT
TORSDOF 0
ENDMDL
