MODEL 1
REMARK minimizedAffinity 14.1795282
REMARK minimizedRMSD -1
REMARK  0 active torsions:
REMARK  status: ('A' for Active; 'I' for Inactive)
ROOT
ATOM      1  C   UNL d   1      -1.233   5.996  -3.713  0.00  0.00     0.124 A 
ATOM      2  C1  UNL d   1      -1.256   5.997  -2.325  0.00  0.00     0.062 A 
ATOM      3  C2  UNL d   1      -2.470   5.997  -1.645  0.00  0.00     0.162 A 
ATOM      4  C3  UNL d   1      -3.673   5.996  -2.352  0.00  0.00    -0.034 A 
ATOM      5  C4  UNL d   1      -3.641   5.996  -3.748  0.00  0.00     0.162 A 
ATOM      6  C5  UNL d   1      -2.425   5.996  -4.423  0.00  0.00     0.062 A 
ATOM      7  F   UNL d   1      -2.405   5.996  -5.763  0.00  0.00    -0.097 F 
ATOM      8  F1  UNL d   1      -4.779   5.995  -4.459  0.00  0.00    -0.096 F 
ATOM      9  I   UNL d   1      -5.491   5.996  -1.339  0.00  0.00    -0.060 I 
ATOM     10  F2  UNL d   1      -2.463   5.997  -0.304  0.00  0.00    -0.096 F 
ATOM     11  F3  UNL d   1      -0.105   5.998  -1.636  0.00  0.00    -0.097 F 
ATOM     12  F4  UNL d   1      -0.063   5.997  -4.364  0.00  0.00    -0.092 F 
ENDROOT
TORSDOF 0
ENDMDL
