MODEL 1
REMARK minimizedAffinity 12.9144535
REMARK minimizedRMSD -1
REMARK  0 active torsions:
REMARK  status: ('A' for Active; 'I' for Inactive)
ROOT
ATOM      1  C   UNL d   1       1.198   2.445   0.401  0.00  0.00     0.124 A 
ATOM      2  C1  UNL d   1       0.761   2.048   1.657  0.00  0.00     0.062 A 
ATOM      3  C2  UNL d   1       0.195   0.789   1.836  0.00  0.00     0.162 A 
ATOM      4  C3  UNL d   1       0.063  -0.083   0.756  0.00  0.00    -0.034 A 
ATOM      5  C4  UNL d   1       0.503   0.323  -0.505  0.00  0.00     0.162 A 
ATOM      6  C5  UNL d   1       1.069   1.582  -0.679  0.00  0.00     0.062 A 
ATOM      7  F   UNL d   1       1.490   1.964  -1.893  0.00  0.00    -0.097 F 
ATOM      8  F1  UNL d   1       0.392  -0.490  -1.566  0.00  0.00    -0.096 F 
ATOM      9  I   UNL d   1      -0.784  -1.967   1.019  0.00  0.00    -0.060 I 
ATOM     10  F2  UNL d   1      -0.219   0.432   3.061  0.00  0.00    -0.096 F 
ATOM     11  F3  UNL d   1       0.884   2.879   2.702  0.00  0.00    -0.097 F 
ATOM     12  F4  UNL d   1       1.741   3.657   0.232  0.00  0.00    -0.092 F 
ENDROOT
TORSDOF 0
ENDMDL
