MODEL 1
REMARK minimizedAffinity 17.6093845
REMARK minimizedRMSD -1
REMARK  0 active torsions:
REMARK  status: ('A' for Active; 'I' for Inactive)
ROOT
ATOM      1  C   UNL d   1      -2.414  -1.094  -2.586  0.00  0.00     0.124 A 
ATOM      2  C1  UNL d   1      -1.113  -1.015  -3.064  0.00  0.00     0.062 A 
ATOM      3  C2  UNL d   1      -0.147  -0.310  -2.352  0.00  0.00     0.162 A 
ATOM      4  C3  UNL d   1      -0.478   0.322  -1.153  0.00  0.00    -0.034 A 
ATOM      5  C4  UNL d   1      -1.788   0.240  -0.679  0.00  0.00     0.162 A 
ATOM      6  C5  UNL d   1      -2.750  -0.466  -1.395  0.00  0.00     0.062 A 
ATOM      7  F   UNL d   1      -4.006  -0.541  -0.931  0.00  0.00    -0.097 F 
ATOM      8  F1  UNL d   1      -2.140   0.835   0.470  0.00  0.00    -0.096 F 
ATOM      9  I   UNL d   1       0.964   1.378  -0.086  0.00  0.00    -0.060 I 
ATOM     10  F2  UNL d   1       1.102  -0.250  -2.838  0.00  0.00    -0.096 F 
ATOM     11  F3  UNL d   1      -0.786  -1.619  -4.215  0.00  0.00    -0.097 F 
ATOM     12  F4  UNL d   1      -3.341  -1.772  -3.274  0.00  0.00    -0.092 F 
ENDROOT
TORSDOF 0
ENDMDL
