MODEL 1
REMARK minimizedAffinity 14.7194815
REMARK minimizedRMSD -1
REMARK  1 active torsions:
REMARK  status: ('A' for Active; 'I' for Inactive)
REMARK    1  A    between atoms: C1_2  and  C2_3 
ROOT
ATOM      1  C2  UNL d   1       5.120   3.543  -0.807  0.00  0.00    -0.081 A 
ATOM      2  C3  UNL d   1       5.537   2.619  -1.774  0.00  0.00     0.006 A 
ATOM      3  C4  UNL d   1       4.696   1.574  -2.163  0.00  0.00     0.002 A 
ATOM      4  C5  UNL d   1       3.423   1.439  -1.599  0.00  0.00    -0.080 A 
ATOM      5  C6  UNL d   1       2.499   0.339  -2.030  0.00  0.00     0.076 C 
ATOM      6  C7  UNL d   1       3.014   2.351  -0.621  0.00  0.00     0.002 A 
ATOM      7  C8  UNL d   1       3.854   3.396  -0.230  0.00  0.00     0.006 A 
ENDROOT
BRANCH   1   8
ATOM      8  C1  UNL d   1       5.999   4.709  -0.433  0.00  0.00     0.054 C 
ATOM      9  C   UNL d   1       5.171   5.945  -0.110  0.00  0.00     0.018 C 
ENDBRANCH   1   8
TORSDOF 1
ENDMDL
