MODEL 1
REMARK minimizedAffinity 2.11749005
REMARK minimizedRMSD -1
REMARK  1 active torsions:
REMARK  status: ('A' for Active; 'I' for Inactive)
REMARK    1  A    between atoms: C1_2  and  C2_3 
ROOT
ATOM      1  C2  UNL d   1      -1.613  -3.000   2.380  0.00  0.00    -0.081 A 
ATOM      2  C3  UNL d   1      -1.800  -2.148   1.284  0.00  0.00     0.006 A 
ATOM      3  C4  UNL d   1      -1.391  -2.537   0.007  0.00  0.00     0.002 A 
ATOM      4  C5  UNL d   1      -0.796  -3.787  -0.199  0.00  0.00    -0.080 A 
ATOM      5  C6  UNL d   1      -0.380  -4.229  -1.570  0.00  0.00     0.076 C 
ATOM      6  C7  UNL d   1      -0.594  -4.631   0.898  0.00  0.00     0.002 A 
ATOM      7  C8  UNL d   1      -1.002  -4.242   2.176  0.00  0.00     0.006 A 
ENDROOT
BRANCH   1   8
ATOM      8  C1  UNL d   1      -2.112  -2.610   3.748  0.00  0.00     0.054 C 
ATOM      9  C   UNL d   1      -0.983  -2.614   4.769  0.00  0.00     0.018 C 
ENDBRANCH   1   8
TORSDOF 1
ENDMDL
