MODEL 1
REMARK minimizedAffinity 7.03221893
REMARK minimizedRMSD -1
REMARK  1 active torsions:
REMARK  status: ('A' for Active; 'I' for Inactive)
REMARK    1  A    between atoms: C1_2  and  C2_3 
ROOT
ATOM      1  C2  UNL d   1      -3.198   3.046  -4.567  0.00  0.00    -0.081 A 
ATOM      2  C3  UNL d   1      -3.141   4.362  -4.092  0.00  0.00     0.006 A 
ATOM      3  C4  UNL d   1      -4.039   5.323  -4.562  0.00  0.00     0.002 A 
ATOM      4  C5  UNL d   1      -5.011   4.984  -5.509  0.00  0.00    -0.080 A 
ATOM      5  C6  UNL d   1      -6.000   6.000  -5.999  0.00  0.00     0.076 C 
ATOM      6  C7  UNL d   1      -5.056   3.674  -5.997  0.00  0.00     0.002 A 
ATOM      7  C8  UNL d   1      -4.159   2.712  -5.527  0.00  0.00     0.006 A 
ENDROOT
BRANCH   1   8
ATOM      8  C1  UNL d   1      -2.273   1.991  -4.015  0.00  0.00     0.054 C 
ATOM      9  C   UNL d   1      -3.043   0.934  -3.235  0.00  0.00     0.018 C 
ENDBRANCH   1   8
TORSDOF 1
ENDMDL
