MODEL 1
REMARK minimizedAffinity -2.52592731
REMARK minimizedRMSD -1
REMARK  1 active torsions:
REMARK  status: ('A' for Active; 'I' for Inactive)
REMARK    1  A    between atoms: C1_2  and  C2_3 
ROOT
ATOM      1  C2  UNL d   1      -2.938  -0.435   5.892  0.00  0.00    -0.081 A 
ATOM      2  C3  UNL d   1      -4.290  -0.795   5.924  0.00  0.00     0.006 A 
ATOM      3  C4  UNL d   1      -5.284   0.186   5.971  0.00  0.00     0.002 A 
ATOM      4  C5  UNL d   1      -4.942   1.542   5.978  0.00  0.00    -0.080 A 
ATOM      5  C6  UNL d   1      -5.999   2.606   5.998  0.00  0.00     0.076 C 
ATOM      6  C7  UNL d   1      -3.590   1.902   5.964  0.00  0.00     0.002 A 
ATOM      7  C8  UNL d   1      -2.596   0.922   5.917  0.00  0.00     0.006 A 
ENDROOT
BRANCH   1   8
ATOM      8  C1  UNL d   1      -1.866  -1.489   5.776  0.00  0.00     0.054 C 
ATOM      9  C   UNL d   1      -2.313  -2.635   4.880  0.00  0.00     0.018 C 
ENDBRANCH   1   8
TORSDOF 1
ENDMDL
