MODEL 1
REMARK minimizedAffinity 17.3635349
REMARK minimizedRMSD -1
REMARK  1 active torsions:
REMARK  status: ('A' for Active; 'I' for Inactive)
REMARK    1  A    between atoms: C1_2  and  C2_3 
ROOT
ATOM      1  C2  UNL d   1      -4.075   4.665  -5.099  0.00  0.00    -0.081 A 
ATOM      2  C3  UNL d   1      -3.266   4.593  -3.958  0.00  0.00     0.006 A 
ATOM      3  C4  UNL d   1      -2.807   3.358  -3.492  0.00  0.00     0.002 A 
ATOM      4  C5  UNL d   1      -3.142   2.177  -4.163  0.00  0.00    -0.080 A 
ATOM      5  C6  UNL d   1      -2.631   0.849  -3.691  0.00  0.00     0.076 C 
ATOM      6  C7  UNL d   1      -3.964   2.248  -5.293  0.00  0.00     0.002 A 
ATOM      7  C8  UNL d   1      -4.424   3.481  -5.759  0.00  0.00     0.006 A 
ENDROOT
BRANCH   1   8
ATOM      8  C1  UNL d   1      -4.518   6.000  -5.641  0.00  0.00     0.054 C 
ATOM      9  C   UNL d   1      -5.998   5.990  -5.994  0.00  0.00     0.018 C 
ENDBRANCH   1   8
TORSDOF 1
ENDMDL
