MODEL 1
REMARK minimizedAffinity 13.3983727
REMARK minimizedRMSD -1
REMARK  1 active torsions:
REMARK  status: ('A' for Active; 'I' for Inactive)
REMARK    1  A    between atoms: C1_2  and  C2_3 
ROOT
ATOM      1  C2  UNL d   1       3.710   2.708  -0.664  0.00  0.00    -0.081 A 
ATOM      2  C3  UNL d   1       2.792   1.782  -0.154  0.00  0.00     0.006 A 
ATOM      3  C4  UNL d   1       2.303   0.752  -0.961  0.00  0.00     0.002 A 
ATOM      4  C5  UNL d   1       2.729   0.626  -2.288  0.00  0.00    -0.080 A 
ATOM      5  C6  UNL d   1       2.235  -0.493  -3.155  0.00  0.00     0.076 C 
ATOM      6  C7  UNL d   1       3.633   1.562  -2.803  0.00  0.00     0.002 A 
ATOM      7  C8  UNL d   1       4.122   2.592  -1.997  0.00  0.00     0.006 A 
ENDROOT
BRANCH   1   8
ATOM      8  C1  UNL d   1       4.289   3.782   0.222  0.00  0.00     0.054 C 
ATOM      9  C   UNL d   1       5.300   4.635  -0.531  0.00  0.00     0.018 C 
ENDBRANCH   1   8
TORSDOF 1
ENDMDL
