MODEL 1
REMARK minimizedAffinity 16.8247375
REMARK minimizedRMSD -1
REMARK  1 active torsions:
REMARK  status: ('A' for Active; 'I' for Inactive)
REMARK    1  A    between atoms: C1_2  and  C2_3 
ROOT
ATOM      1  C2  UNL d   1       3.585   1.998   2.142  0.00  0.00    -0.081 A 
ATOM      2  C3  UNL d   1       2.426   1.349   1.698  0.00  0.00     0.006 A 
ATOM      3  C4  UNL d   1       2.047   1.417   0.355  0.00  0.00     0.002 A 
ATOM      4  C5  UNL d   1       2.825   2.127  -0.567  0.00  0.00    -0.080 A 
ATOM      5  C6  UNL d   1       2.446   2.182  -2.017  0.00  0.00     0.076 C 
ATOM      6  C7  UNL d   1       3.973   2.789  -0.120  0.00  0.00     0.002 A 
ATOM      7  C8  UNL d   1       4.351   2.723   1.223  0.00  0.00     0.006 A 
ENDROOT
BRANCH   1   8
ATOM      8  C1  UNL d   1       4.030   1.873   3.577  0.00  0.00     0.054 C 
ATOM      9  C   UNL d   1       3.118   2.656   4.510  0.00  0.00     0.018 C 
ENDBRANCH   1   8
TORSDOF 1
ENDMDL
