MODEL 1
REMARK minimizedAffinity 22.0495529
REMARK minimizedRMSD -1
REMARK  1 active torsions:
REMARK  status: ('A' for Active; 'I' for Inactive)
REMARK    1  A    between atoms: C1_2  and  C2_3 
ROOT
ATOM      1  C2  UNL d   1       5.017   3.679   3.643  0.00  0.00    -0.081 A 
ATOM      2  C3  UNL d   1       5.851   2.897   2.835  0.00  0.00     0.006 A 
ATOM      3  C4  UNL d   1       5.451   2.533   1.547  0.00  0.00     0.002 A 
ATOM      4  C5  UNL d   1       4.215   2.952   1.043  0.00  0.00    -0.080 A 
ATOM      5  C6  UNL d   1       3.786   2.593  -0.349  0.00  0.00     0.076 C 
ATOM      6  C7  UNL d   1       3.374   3.719   1.857  0.00  0.00     0.002 A 
ATOM      7  C8  UNL d   1       3.773   4.082   3.145  0.00  0.00     0.006 A 
ENDROOT
BRANCH   1   8
ATOM      8  C1  UNL d   1       5.473   4.127   5.008  0.00  0.00     0.054 C 
ATOM      9  C   UNL d   1       4.318   4.145   5.999  0.00  0.00     0.018 C 
ENDBRANCH   1   8
TORSDOF 1
ENDMDL
