MODEL 1
REMARK minimizedAffinity 15.683918
REMARK minimizedRMSD -1
REMARK  1 active torsions:
REMARK  status: ('A' for Active; 'I' for Inactive)
REMARK    1  A    between atoms: C1_2  and  C2_3 
ROOT
ATOM      1  C2  UNL d   1      -5.104   4.865   2.148  0.00  0.00    -0.081 A 
ATOM      2  C3  UNL d   1      -5.992   5.631   1.383  0.00  0.00     0.006 A 
ATOM      3  C4  UNL d   1      -5.668   5.995   0.074  0.00  0.00     0.002 A 
ATOM      4  C5  UNL d   1      -4.454   5.593  -0.494  0.00  0.00    -0.080 A 
ATOM      5  C6  UNL d   1      -4.107   5.951  -1.909  0.00  0.00     0.076 C 
ATOM      6  C7  UNL d   1      -3.559   4.843   0.276  0.00  0.00     0.002 A 
ATOM      7  C8  UNL d   1      -3.882   4.479   1.585  0.00  0.00     0.006 A 
ENDROOT
BRANCH   1   8
ATOM      8  C1  UNL d   1      -5.479   4.416   3.537  0.00  0.00     0.054 C 
ATOM      9  C   UNL d   1      -6.000   5.578   4.372  0.00  0.00     0.018 C 
ENDBRANCH   1   8
TORSDOF 1
ENDMDL
