MODEL 1
REMARK minimizedAffinity -0.215266883
REMARK minimizedRMSD -1
REMARK  0 active torsions:
REMARK  status: ('A' for Active; 'I' for Inactive)
ROOT
ATOM      1  C   UNL d   1       5.765   0.312  -5.842  0.00  0.00     0.078 C 
ATOM      2  C1  UNL d   1       5.186   1.693  -5.760  0.00  0.00    -0.077 A 
ATOM      3  C2  UNL d   1       3.833   1.890  -5.460  0.00  0.00    -0.001 A 
ATOM      4  C3  UNL d   1       3.305   3.181  -5.397  0.00  0.00     0.003 A 
ATOM      5  C4  UNL d   1       4.123   4.284  -5.633  0.00  0.00    -0.005 A 
ATOM      6  C5  UNL d   1       5.470   4.097  -5.935  0.00  0.00     0.003 A 
ATOM      7  C6  UNL d   1       6.000   2.807  -5.999  0.00  0.00    -0.001 A 
ENDROOT
TORSDOF 0
ENDMDL
