MODEL 1
REMARK minimizedAffinity 1.73103988
REMARK minimizedRMSD -1
REMARK  0 active torsions:
REMARK  status: ('A' for Active; 'I' for Inactive)
ROOT
ATOM      1  C   UNL d   1      -3.990   2.028   0.633  0.00  0.00     0.078 C 
ATOM      2  C1  UNL d   1      -2.624   2.644   0.680  0.00  0.00    -0.077 A 
ATOM      3  C2  UNL d   1      -1.635   2.140   1.533  0.00  0.00    -0.001 A 
ATOM      4  C3  UNL d   1      -0.370   2.729   1.574  0.00  0.00     0.003 A 
ATOM      5  C4  UNL d   1      -0.083   3.826   0.764  0.00  0.00    -0.005 A 
ATOM      6  C5  UNL d   1      -1.061   4.336  -0.087  0.00  0.00     0.003 A 
ATOM      7  C6  UNL d   1      -2.327   3.748  -0.129  0.00  0.00    -0.001 A 
ENDROOT
TORSDOF 0
ENDMDL
