MODEL 1
REMARK minimizedAffinity -4.39849949
REMARK minimizedRMSD -1
REMARK  0 active torsions:
REMARK  status: ('A' for Active; 'I' for Inactive)
ROOT
ATOM      1  C   UNL d   1       6.000  -0.950  -3.254  0.00  0.00     0.078 C 
ATOM      2  C1  UNL d   1       5.804   0.421  -3.830  0.00  0.00    -0.077 A 
ATOM      3  C2  UNL d   1       5.853   1.559  -3.016  0.00  0.00    -0.001 A 
ATOM      4  C3  UNL d   1       5.660   2.828  -3.564  0.00  0.00     0.003 A 
ATOM      5  C4  UNL d   1       5.415   2.971  -4.929  0.00  0.00    -0.005 A 
ATOM      6  C5  UNL d   1       5.363   1.844  -5.746  0.00  0.00     0.003 A 
ATOM      7  C6  UNL d   1       5.556   0.574  -5.200  0.00  0.00    -0.001 A 
ENDROOT
TORSDOF 0
ENDMDL
