MODEL 1
REMARK minimizedAffinity 7.53648996
REMARK minimizedRMSD -1
REMARK  0 active torsions:
REMARK  status: ('A' for Active; 'I' for Inactive)
ROOT
ATOM      1  C   UNL d   1       5.131   1.167  -5.956  0.00  0.00     0.078 C 
ATOM      2  C1  UNL d   1       5.133   1.047  -4.461  0.00  0.00    -0.077 A 
ATOM      3  C2  UNL d   1       5.743  -0.041  -3.826  0.00  0.00    -0.001 A 
ATOM      4  C3  UNL d   1       5.729  -0.144  -2.434  0.00  0.00     0.003 A 
ATOM      5  C4  UNL d   1       5.105   0.837  -1.666  0.00  0.00    -0.005 A 
ATOM      6  C5  UNL d   1       4.493   1.922  -2.289  0.00  0.00     0.003 A 
ATOM      7  C6  UNL d   1       4.506   2.027  -3.681  0.00  0.00    -0.001 A 
ENDROOT
TORSDOF 0
ENDMDL
