MODEL 1
REMARK minimizedAffinity -2.62674093
REMARK minimizedRMSD -1
REMARK  0 active torsions:
REMARK  status: ('A' for Active; 'I' for Inactive)
ROOT
ATOM      1  C   UNL d   1       5.970   0.388  -4.676  0.00  0.00     0.078 C 
ATOM      2  C1  UNL d   1       5.324   1.687  -5.056  0.00  0.00    -0.077 A 
ATOM      3  C2  UNL d   1       4.052   1.716  -5.642  0.00  0.00    -0.001 A 
ATOM      4  C3  UNL d   1       3.467   2.931  -5.999  0.00  0.00     0.003 A 
ATOM      5  C4  UNL d   1       4.146   4.127  -5.776  0.00  0.00    -0.005 A 
ATOM      6  C5  UNL d   1       5.413   4.109  -5.196  0.00  0.00     0.003 A 
ATOM      7  C6  UNL d   1       6.000   2.894  -4.838  0.00  0.00    -0.001 A 
ENDROOT
TORSDOF 0
ENDMDL
