MODEL 1
REMARK minimizedAffinity 5.81623173
REMARK minimizedRMSD -1
REMARK  0 active torsions:
REMARK  status: ('A' for Active; 'I' for Inactive)
ROOT
ATOM      1  C   UNL d   1      -1.686  -4.777  -1.912  0.00  0.00     0.078 C 
ATOM      2  C1  UNL d   1      -1.244  -3.559  -1.157  0.00  0.00    -0.077 A 
ATOM      3  C2  UNL d   1      -1.419  -3.467   0.229  0.00  0.00    -0.001 A 
ATOM      4  C3  UNL d   1      -1.012  -2.323   0.918  0.00  0.00     0.003 A 
ATOM      5  C4  UNL d   1      -0.429  -1.262   0.229  0.00  0.00    -0.005 A 
ATOM      6  C5  UNL d   1      -0.254  -1.343  -1.151  0.00  0.00     0.003 A 
ATOM      7  C6  UNL d   1      -0.660  -2.486  -1.842  0.00  0.00    -0.001 A 
ENDROOT
TORSDOF 0
ENDMDL
