MODEL 1
REMARK minimizedAffinity 1.27399528
REMARK minimizedRMSD -1
REMARK  0 active torsions:
REMARK  status: ('A' for Active; 'I' for Inactive)
ROOT
ATOM      1  C   UNL d   1       0.023  -4.878  -2.761  0.00  0.00     0.078 C 
ATOM      2  C1  UNL d   1       1.069  -5.182  -3.791  0.00  0.00    -0.077 A 
ATOM      3  C2  UNL d   1       2.423  -4.923  -3.543  0.00  0.00    -0.001 A 
ATOM      4  C3  UNL d   1       3.385  -5.202  -4.514  0.00  0.00     0.003 A 
ATOM      5  C4  UNL d   1       3.004  -5.741  -5.742  0.00  0.00    -0.005 A 
ATOM      6  C5  UNL d   1       1.659  -6.000  -5.999  0.00  0.00     0.003 A 
ATOM      7  C6  UNL d   1       0.696  -5.721  -5.029  0.00  0.00    -0.001 A 
ENDROOT
TORSDOF 0
ENDMDL
