MODEL 1
REMARK minimizedAffinity 3.78237605
REMARK minimizedRMSD -1
REMARK  0 active torsions:
REMARK  status: ('A' for Active; 'I' for Inactive)
ROOT
ATOM      1  C   UNL d   1       1.917  -4.325  -4.493  0.00  0.00     0.078 C 
ATOM      2  C1  UNL d   1       1.120  -4.083  -3.246  0.00  0.00    -0.077 A 
ATOM      3  C2  UNL d   1       1.648  -4.380  -1.984  0.00  0.00    -0.001 A 
ATOM      4  C3  UNL d   1       0.891  -4.158  -0.832  0.00  0.00     0.003 A 
ATOM      5  C4  UNL d   1      -0.399  -3.640  -0.932  0.00  0.00    -0.005 A 
ATOM      6  C5  UNL d   1      -0.933  -3.343  -2.184  0.00  0.00     0.003 A 
ATOM      7  C6  UNL d   1      -0.178  -3.564  -3.336  0.00  0.00    -0.001 A 
ENDROOT
TORSDOF 0
ENDMDL
