MODEL 1
REMARK minimizedAffinity 7.55429029
REMARK minimizedRMSD -1
REMARK  0 active torsions:
REMARK  status: ('A' for Active; 'I' for Inactive)
ROOT
ATOM      1  C   UNL d   1      -1.942  -2.238   2.297  0.00  0.00     0.078 C 
ATOM      2  C1  UNL d   1      -1.451  -2.482   0.901  0.00  0.00    -0.077 A 
ATOM      3  C2  UNL d   1      -0.401  -1.728   0.364  0.00  0.00    -0.001 A 
ATOM      4  C3  UNL d   1       0.039  -1.960  -0.941  0.00  0.00     0.003 A 
ATOM      5  C4  UNL d   1      -0.567  -2.944  -1.719  0.00  0.00    -0.005 A 
ATOM      6  C5  UNL d   1      -1.614  -3.698  -1.193  0.00  0.00     0.003 A 
ATOM      7  C6  UNL d   1      -2.055  -3.468   0.111  0.00  0.00    -0.001 A 
ENDROOT
TORSDOF 0
ENDMDL
