MODEL 1
REMARK minimizedAffinity 0.22988449
REMARK minimizedRMSD -1
REMARK  0 active torsions:
REMARK  status: ('A' for Active; 'I' for Inactive)
ROOT
ATOM      1  C   UNL d   1      -2.243   3.386  -4.077  0.00  0.00     0.078 C 
ATOM      2  C1  UNL d   1      -3.557   3.909  -4.576  0.00  0.00    -0.077 A 
ATOM      3  C2  UNL d   1      -4.767   3.370  -4.122  0.00  0.00    -0.001 A 
ATOM      4  C3  UNL d   1      -5.982   3.861  -4.602  0.00  0.00     0.003 A 
ATOM      5  C4  UNL d   1      -6.000   4.891  -5.540  0.00  0.00    -0.005 A 
ATOM      6  C5  UNL d   1      -4.801   5.432  -5.999  0.00  0.00     0.003 A 
ATOM      7  C6  UNL d   1      -3.584   4.943  -5.520  0.00  0.00    -0.001 A 
ENDROOT
TORSDOF 0
ENDMDL
