MODEL 1
REMARK minimizedAffinity 6.62898684
REMARK minimizedRMSD -1
REMARK  0 active torsions:
REMARK  status: ('A' for Active; 'I' for Inactive)
ROOT
ATOM      1  C   UNL d   1      -0.188  -3.005  -2.323  0.00  0.00     0.078 C 
ATOM      2  C1  UNL d   1      -0.528  -2.504  -0.951  0.00  0.00    -0.077 A 
ATOM      3  C2  UNL d   1       0.230  -1.494  -0.344  0.00  0.00    -0.001 A 
ATOM      4  C3  UNL d   1      -0.093  -1.044   0.937  0.00  0.00     0.003 A 
ATOM      5  C4  UNL d   1      -1.172  -1.598   1.623  0.00  0.00    -0.005 A 
ATOM      6  C5  UNL d   1      -1.930  -2.604   1.027  0.00  0.00     0.003 A 
ATOM      7  C6  UNL d   1      -1.609  -3.056  -0.254  0.00  0.00    -0.001 A 
ENDROOT
TORSDOF 0
ENDMDL
