MODEL 1
REMARK minimizedAffinity 9.97155952
REMARK minimizedRMSD -1
REMARK  0 active torsions:
REMARK  status: ('A' for Active; 'I' for Inactive)
ROOT
ATOM      1  C   UNL d   1       5.593   0.035  -5.933  0.00  0.00     0.078 C 
ATOM      2  C1  UNL d   1       5.029   1.424  -5.947  0.00  0.00    -0.077 A 
ATOM      3  C2  UNL d   1       3.645   1.640  -5.977  0.00  0.00    -0.001 A 
ATOM      4  C3  UNL d   1       3.134   2.938  -5.999  0.00  0.00     0.003 A 
ATOM      5  C4  UNL d   1       3.999   4.031  -5.993  0.00  0.00    -0.005 A 
ATOM      6  C5  UNL d   1       5.377   3.826  -5.965  0.00  0.00     0.003 A 
ATOM      7  C6  UNL d   1       5.890   2.528  -5.943  0.00  0.00    -0.001 A 
ENDROOT
TORSDOF 0
ENDMDL
