MODEL 1
REMARK minimizedAffinity 2.51177454
REMARK minimizedRMSD -1
REMARK  0 active torsions:
REMARK  status: ('A' for Active; 'I' for Inactive)
ROOT
ATOM      1  C   UNL d   1      -2.005   1.576   3.911  0.00  0.00     0.078 C 
ATOM      2  C1  UNL d   1      -1.395   2.087   2.640  0.00  0.00    -0.077 A 
ATOM      3  C2  UNL d   1      -0.145   1.629   2.206  0.00  0.00    -0.001 A 
ATOM      4  C3  UNL d   1       0.416   2.121   1.026  0.00  0.00     0.003 A 
ATOM      5  C4  UNL d   1      -0.265   3.075   0.272  0.00  0.00    -0.005 A 
ATOM      6  C5  UNL d   1      -1.508   3.538   0.698  0.00  0.00     0.003 A 
ATOM      7  C6  UNL d   1      -2.071   3.047   1.877  0.00  0.00    -0.001 A 
ENDROOT
TORSDOF 0
ENDMDL
