MODEL 1
REMARK minimizedAffinity 3.74634957
REMARK minimizedRMSD -1
REMARK  0 active torsions:
REMARK  status: ('A' for Active; 'I' for Inactive)
ROOT
ATOM      1  C   UNL d   1       2.404   1.868   2.150  0.00  0.00     0.078 C 
ATOM      2  C1  UNL d   1       0.994   2.277   1.842  0.00  0.00    -0.077 A 
ATOM      3  C2  UNL d   1      -0.076   1.819   2.621  0.00  0.00    -0.001 A 
ATOM      4  C3  UNL d   1      -1.384   2.200   2.317  0.00  0.00     0.003 A 
ATOM      5  C4  UNL d   1      -1.635   3.038   1.233  0.00  0.00    -0.005 A 
ATOM      6  C5  UNL d   1      -0.577   3.496   0.450  0.00  0.00     0.003 A 
ATOM      7  C6  UNL d   1       0.732   3.117   0.753  0.00  0.00    -0.001 A 
ENDROOT
TORSDOF 0
ENDMDL
