MODEL 1
REMARK minimizedAffinity 7.82727766
REMARK minimizedRMSD -1
REMARK  0 active torsions:
REMARK  status: ('A' for Active; 'I' for Inactive)
ROOT
ATOM      1  C   UNL d   1       0.698  -4.214  -2.941  0.00  0.00     0.078 C 
ATOM      2  C1  UNL d   1       1.649  -4.695  -3.997  0.00  0.00    -0.077 A 
ATOM      3  C2  UNL d   1       2.988  -4.287  -4.001  0.00  0.00    -0.001 A 
ATOM      4  C3  UNL d   1       3.859  -4.735  -4.995  0.00  0.00     0.003 A 
ATOM      5  C4  UNL d   1       3.400  -5.591  -5.994  0.00  0.00    -0.005 A 
ATOM      6  C5  UNL d   1       2.068  -6.000  -6.000  0.00  0.00     0.003 A 
ATOM      7  C6  UNL d   1       1.196  -5.553  -5.006  0.00  0.00    -0.001 A 
ENDROOT
TORSDOF 0
ENDMDL
