MODEL 1
REMARK minimizedAffinity 2.31807303
REMARK minimizedRMSD -1
REMARK  0 active torsions:
REMARK  status: ('A' for Active; 'I' for Inactive)
ROOT
ATOM      1  C   UNL d   1      -1.848   2.793  -3.069  0.00  0.00     0.078 C 
ATOM      2  C1  UNL d   1      -2.355   3.769  -4.089  0.00  0.00    -0.077 A 
ATOM      3  C2  UNL d   1      -3.296   3.383  -5.051  0.00  0.00    -0.001 A 
ATOM      4  C3  UNL d   1      -3.751   4.300  -6.000  0.00  0.00     0.003 A 
ATOM      5  C4  UNL d   1      -3.270   5.608  -5.997  0.00  0.00    -0.005 A 
ATOM      6  C5  UNL d   1      -2.332   6.000  -5.045  0.00  0.00     0.003 A 
ATOM      7  C6  UNL d   1      -1.875   5.085  -4.095  0.00  0.00    -0.001 A 
ENDROOT
TORSDOF 0
ENDMDL
