MODEL 1
REMARK minimizedAffinity -2.60567594
REMARK minimizedRMSD -1
REMARK  0 active torsions:
REMARK  status: ('A' for Active; 'I' for Inactive)
ROOT
ATOM      1  C   UNL d   1       4.911   5.419  -5.772  0.00  0.00     0.078 C 
ATOM      2  C1  UNL d   1       4.852   3.920  -5.754  0.00  0.00    -0.077 A 
ATOM      3  C2  UNL d   1       6.000   3.157  -5.507  0.00  0.00    -0.001 A 
ATOM      4  C3  UNL d   1       5.932   1.763  -5.503  0.00  0.00     0.003 A 
ATOM      5  C4  UNL d   1       4.720   1.120  -5.747  0.00  0.00    -0.005 A 
ATOM      6  C5  UNL d   1       3.573   1.872  -5.995  0.00  0.00     0.003 A 
ATOM      7  C6  UNL d   1       3.639   3.266  -6.000  0.00  0.00    -0.001 A 
ENDROOT
TORSDOF 0
ENDMDL
