MODEL 1
REMARK minimizedAffinity -3.45782447
REMARK minimizedRMSD -1
REMARK  0 active torsions:
REMARK  status: ('A' for Active; 'I' for Inactive)
ROOT
ATOM      1  C   UNL d   1       5.715   0.778  -5.405  0.00  0.00     0.078 C 
ATOM      2  C1  UNL d   1       5.148   2.152  -5.604  0.00  0.00    -0.077 A 
ATOM      3  C2  UNL d   1       3.775   2.344  -5.804  0.00  0.00    -0.001 A 
ATOM      4  C3  UNL d   1       3.263   3.628  -5.997  0.00  0.00     0.003 A 
ATOM      5  C4  UNL d   1       4.116   4.730  -5.993  0.00  0.00    -0.005 A 
ATOM      6  C5  UNL d   1       5.484   4.548  -5.797  0.00  0.00     0.003 A 
ATOM      7  C6  UNL d   1       5.998   3.265  -5.603  0.00  0.00    -0.001 A 
ENDROOT
TORSDOF 0
ENDMDL
