MODEL 1
REMARK minimizedAffinity 2.28694248
REMARK minimizedRMSD -1
REMARK  0 active torsions:
REMARK  status: ('A' for Active; 'I' for Inactive)
ROOT
ATOM      1  C   UNL d   1       5.976   5.507  -5.932  0.00  0.00     0.078 C 
ATOM      2  C1  UNL d   1       5.300   4.178  -5.779  0.00  0.00    -0.077 A 
ATOM      3  C2  UNL d   1       5.997   2.984  -5.998  0.00  0.00    -0.001 A 
ATOM      4  C3  UNL d   1       5.352   1.754  -5.861  0.00  0.00     0.003 A 
ATOM      5  C4  UNL d   1       4.006   1.706  -5.506  0.00  0.00    -0.005 A 
ATOM      6  C5  UNL d   1       3.302   2.889  -5.288  0.00  0.00     0.003 A 
ATOM      7  C6  UNL d   1       3.946   4.120  -5.424  0.00  0.00    -0.001 A 
ENDROOT
TORSDOF 0
ENDMDL
