MODEL 1
REMARK minimizedAffinity 11.5544786
REMARK minimizedRMSD -1
REMARK  0 active torsions:
REMARK  status: ('A' for Active; 'I' for Inactive)
ROOT
ATOM      1  C   UNL d   1       2.121  -2.105   5.037  0.00  0.00     0.020 A 
ATOM      2  C1  UNL d   1       2.122  -2.096   3.642  0.00  0.00     0.020 A 
ATOM      3  C2  UNL d   1       3.330  -2.149   2.944  0.00  0.00     0.034 A 
ATOM      4  C3  UNL d   1       4.543  -2.210   3.640  0.00  0.00     0.017 A 
ATOM      5  C4  UNL d   1       4.541  -2.218   5.040  0.00  0.00     0.017 A 
ATOM      6  C5  UNL d   1       3.328  -2.166   5.734  0.00  0.00     0.034 A 
ATOM      7 Cl   UNL d   1       5.997  -2.292   5.968  0.00  0.00    -0.070 Cl
ATOM      8 Cl1  UNL d   1       5.999  -2.273   2.713  0.00  0.00    -0.070 Cl
ENDROOT
TORSDOF 0
ENDMDL
