MODEL 1
REMARK minimizedAffinity 14.3300514
REMARK minimizedRMSD -1
REMARK  0 active torsions:
REMARK  status: ('A' for Active; 'I' for Inactive)
ROOT
ATOM      1  C   UNL d   1      -0.927  -1.425  -0.644  0.00  0.00     0.020 A 
ATOM      2  C1  UNL d   1      -1.066  -0.838   0.612  0.00  0.00     0.020 A 
ATOM      3  C2  UNL d   1       0.067  -0.535   1.371  0.00  0.00     0.034 A 
ATOM      4  C3  UNL d   1       1.344  -0.820   0.873  0.00  0.00     0.017 A 
ATOM      5  C4  UNL d   1       1.482  -1.410  -0.389  0.00  0.00     0.017 A 
ATOM      6  C5  UNL d   1       0.344  -1.711  -1.144  0.00  0.00     0.034 A 
ATOM      7 Cl   UNL d   1       3.024  -1.791  -1.070  0.00  0.00    -0.070 Cl
ATOM      8 Cl1  UNL d   1       2.701  -0.419   1.864  0.00  0.00    -0.070 Cl
ENDROOT
TORSDOF 0
ENDMDL
