MODEL 1
REMARK minimizedAffinity 18.8456764
REMARK minimizedRMSD -1
REMARK  0 active torsions:
REMARK  status: ('A' for Active; 'I' for Inactive)
ROOT
ATOM      1  C   UNL d   1       5.909   5.912  -4.663  0.00  0.00     0.020 A 
ATOM      2  C1  UNL d   1       4.680   5.752  -5.302  0.00  0.00     0.020 A 
ATOM      3  C2  UNL d   1       3.508   5.661  -4.548  0.00  0.00     0.034 A 
ATOM      4  C3  UNL d   1       3.563   5.729  -3.151  0.00  0.00     0.017 A 
ATOM      5  C4  UNL d   1       4.797   5.889  -2.511  0.00  0.00     0.017 A 
ATOM      6  C5  UNL d   1       5.967   5.980  -3.271  0.00  0.00     0.034 A 
ATOM      7 Cl   UNL d   1       4.944   5.981  -0.791  0.00  0.00    -0.070 Cl
ATOM      8 Cl1  UNL d   1       2.074   5.609  -2.282  0.00  0.00    -0.070 Cl
ENDROOT
TORSDOF 0
ENDMDL
