MODEL 1
REMARK minimizedAffinity 5.60555792
REMARK minimizedRMSD -1
REMARK  0 active torsions:
REMARK  status: ('A' for Active; 'I' for Inactive)
ROOT
ATOM      1  C   UNL d   1       1.532  -1.277   3.378  0.00  0.00     0.020 A 
ATOM      2  C1  UNL d   1       2.421  -0.728   2.454  0.00  0.00     0.020 A 
ATOM      3  C2  UNL d   1       3.796  -0.908   2.616  0.00  0.00     0.034 A 
ATOM      4  C3  UNL d   1       4.287  -1.638   3.704  0.00  0.00     0.017 A 
ATOM      5  C4  UNL d   1       3.395  -2.188   4.632  0.00  0.00     0.017 A 
ATOM      6  C5  UNL d   1       2.019  -2.005   4.465  0.00  0.00     0.034 A 
ATOM      7 Cl   UNL d   1       3.926  -3.101   6.000  0.00  0.00    -0.070 Cl
ATOM      8 Cl1  UNL d   1       6.000  -1.820   3.842  0.00  0.00    -0.070 Cl
ENDROOT
TORSDOF 0
ENDMDL
