MODEL 1
REMARK minimizedAffinity 4.21377993
REMARK minimizedRMSD -1
REMARK  0 active torsions:
REMARK  status: ('A' for Active; 'I' for Inactive)
ROOT
ATOM      1  C   UNL d   1       3.014  -5.979  -1.081  0.00  0.00     0.020 A 
ATOM      2  C1  UNL d   1       3.767  -6.000  -2.254  0.00  0.00     0.020 A 
ATOM      3  C2  UNL d   1       4.012  -4.813  -2.948  0.00  0.00     0.034 A 
ATOM      4  C3  UNL d   1       3.502  -3.600  -2.469  0.00  0.00     0.017 A 
ATOM      5  C4  UNL d   1       2.747  -3.581  -1.291  0.00  0.00     0.017 A 
ATOM      6  C5  UNL d   1       2.505  -4.772  -0.600  0.00  0.00     0.034 A 
ATOM      7 Cl   UNL d   1       2.085  -2.123  -0.639  0.00  0.00    -0.070 Cl
ATOM      8 Cl1  UNL d   1       3.844  -2.171  -3.378  0.00  0.00    -0.070 Cl
ENDROOT
TORSDOF 0
ENDMDL
