MODEL 1
REMARK minimizedAffinity 15.5332642
REMARK minimizedRMSD -1
REMARK  0 active torsions:
REMARK  status: ('A' for Active; 'I' for Inactive)
ROOT
ATOM      1  C   UNL d   1       1.941  -1.731   3.873  0.00  0.00     0.020 A 
ATOM      2  C1  UNL d   1       1.391  -0.682   3.138  0.00  0.00     0.020 A 
ATOM      3  C2  UNL d   1       2.131  -0.080   2.118  0.00  0.00     0.034 A 
ATOM      4  C3  UNL d   1       3.426  -0.527   1.831  0.00  0.00     0.017 A 
ATOM      5  C4  UNL d   1       3.978  -1.580   2.570  0.00  0.00     0.017 A 
ATOM      6  C5  UNL d   1       3.232  -2.179   3.590  0.00  0.00     0.034 A 
ATOM      7 Cl   UNL d   1       5.569  -2.186   2.274  0.00  0.00    -0.070 Cl
ATOM      8 Cl1  UNL d   1       4.285   0.263   0.557  0.00  0.00    -0.070 Cl
ENDROOT
TORSDOF 0
ENDMDL
