MODEL 1
REMARK minimizedAffinity 14.8876104
REMARK minimizedRMSD -1
REMARK  0 active torsions:
REMARK  status: ('A' for Active; 'I' for Inactive)
ROOT
ATOM      1  C   UNL d   1      -0.981  -0.140   1.526  0.00  0.00     0.020 A 
ATOM      2  C1  UNL d   1      -1.079   1.247   1.424  0.00  0.00     0.020 A 
ATOM      3  C2  UNL d   1       0.069   2.037   1.517  0.00  0.00     0.034 A 
ATOM      4  C3  UNL d   1       1.320   1.440   1.711  0.00  0.00     0.017 A 
ATOM      5  C4  UNL d   1       1.418   0.047   1.812  0.00  0.00     0.017 A 
ATOM      6  C5  UNL d   1       0.265  -0.739   1.719  0.00  0.00     0.034 A 
ATOM      7 Cl   UNL d   1       2.926  -0.762   2.052  0.00  0.00    -0.070 Cl
ATOM      8 Cl1  UNL d   1       2.698   2.477   1.815  0.00  0.00    -0.070 Cl
ENDROOT
TORSDOF 0
ENDMDL
