MODEL 1
REMARK minimizedAffinity 5.09535837
REMARK minimizedRMSD -1
REMARK  0 active torsions:
REMARK  status: ('A' for Active; 'I' for Inactive)
ROOT
ATOM      1  C   UNL d   1       1.936  -5.176   5.979  0.00  0.00     0.020 A 
ATOM      2  C1  UNL d   1       0.702  -4.527   5.996  0.00  0.00     0.020 A 
ATOM      3  C2  UNL d   1       0.612  -3.189   5.606  0.00  0.00     0.034 A 
ATOM      4  C3  UNL d   1       1.757  -2.496   5.199  0.00  0.00     0.017 A 
ATOM      5  C4  UNL d   1       2.995  -3.148   5.183  0.00  0.00     0.017 A 
ATOM      6  C5  UNL d   1       3.080  -4.488   5.574  0.00  0.00     0.034 A 
ATOM      7 Cl   UNL d   1       4.453  -2.359   4.693  0.00  0.00    -0.070 Cl
ATOM      8 Cl1  UNL d   1       1.572  -0.843   4.730  0.00  0.00    -0.070 Cl
ENDROOT
TORSDOF 0
ENDMDL
