MODEL 1
REMARK minimizedAffinity 10.4377012
REMARK minimizedRMSD -1
REMARK  0 active torsions:
REMARK  status: ('A' for Active; 'I' for Inactive)
ROOT
ATOM      1  C   UNL d   1       2.921  -4.000   2.871  0.00  0.00     0.020 A 
ATOM      2  C1  UNL d   1       2.921  -2.954   3.793  0.00  0.00     0.020 A 
ATOM      3  C2  UNL d   1       2.584  -1.662   3.383  0.00  0.00     0.034 A 
ATOM      4  C3  UNL d   1       2.247  -1.413   2.048  0.00  0.00     0.017 A 
ATOM      5  C4  UNL d   1       2.247  -2.464   1.123  0.00  0.00     0.017 A 
ATOM      6  C5  UNL d   1       2.584  -3.755   1.539  0.00  0.00     0.034 A 
ATOM      7 Cl   UNL d   1       1.841  -2.234  -0.541  0.00  0.00    -0.070 Cl
ATOM      8 Cl1  UNL d   1       1.841   0.209   1.611  0.00  0.00    -0.070 Cl
ENDROOT
TORSDOF 0
ENDMDL
