MODEL 1
REMARK minimizedAffinity 4.66416597
REMARK minimizedRMSD -1
REMARK  2 active torsions:
REMARK  status: ('A' for Active; 'I' for Inactive)
REMARK    1  A    between atoms: C2'_3  and  C1'_4 
REMARK    2  A    between atoms: C1'_4  and  C1_5 
ROOT
ATOM      1  C1  I4B d   1       1.677   0.502  -0.722  0.00  0.00    -0.075 A 
ATOM      2  C2  I4B d   1       2.365  -0.563  -0.198  0.00  0.00     0.003 A 
ATOM      3  C3  I4B d   1       2.701  -1.668  -1.018  0.00  0.00     0.002 A 
ATOM      4  C4  I4B d   1       2.287  -1.688  -2.334  0.00  0.00    -0.004 A 
ATOM      5  C5  I4B d   1       1.609  -0.597  -2.870  0.00  0.00     0.002 A 
ATOM      6  C6  I4B d   1       1.313   0.511  -2.063  0.00  0.00     0.003 A 
ENDROOT
BRANCH   1   7
ATOM      7  C1' I4B d   1       1.310   1.638   0.180  0.00  0.00     0.060 C 
BRANCH   7   8
ATOM      8  C2' I4B d   1      -0.184   1.861   0.066  0.00  0.00    -0.013 C 
ATOM      9  C4' I4B d   1      -0.948   0.884   0.920  0.00  0.00     0.013 C 
ATOM     10  C3' I4B d   1      -0.473   3.275   0.471  0.00  0.00     0.013 C 
ENDBRANCH   7   8
ENDBRANCH   1   7
TORSDOF 2
ENDMDL
