MODEL 1
REMARK minimizedAffinity 2.27821636
REMARK minimizedRMSD -1
REMARK  2 active torsions:
REMARK  status: ('A' for Active; 'I' for Inactive)
REMARK    1  A    between atoms: C2'_3  and  C1'_4 
REMARK    2  A    between atoms: C1'_4  and  C1_5 
ROOT
ATOM      1  C1  I4B d   1       0.960   1.665  -0.061  0.00  0.00    -0.075 A 
ATOM      2  C2  I4B d   1      -0.120   2.507   0.040  0.00  0.00     0.003 A 
ATOM      3  C3  I4B d   1       0.074   3.895   0.239  0.00  0.00     0.002 A 
ATOM      4  C4  I4B d   1       1.355   4.389   0.381  0.00  0.00    -0.004 A 
ATOM      5  C5  I4B d   1       2.449   3.538   0.256  0.00  0.00     0.002 A 
ATOM      6  C6  I4B d   1       2.251   2.169   0.021  0.00  0.00     0.003 A 
ENDROOT
BRANCH   1   7
ATOM      7  C1' I4B d   1       0.718   0.200  -0.237  0.00  0.00     0.060 C 
BRANCH   7   8
ATOM      8  C2' I4B d   1       1.242  -0.198  -1.602  0.00  0.00    -0.013 C 
ATOM      9  C4' I4B d   1       1.007  -1.661  -1.871  0.00  0.00     0.013 C 
ATOM     10  C3' I4B d   1       0.559   0.657  -2.628  0.00  0.00     0.013 C 
ENDBRANCH   7   8
ENDBRANCH   1   7
TORSDOF 2
ENDMDL
