MODEL 1
REMARK minimizedAffinity 4.85528326
REMARK minimizedRMSD -1
REMARK  2 active torsions:
REMARK  status: ('A' for Active; 'I' for Inactive)
REMARK    1  A    between atoms: C2'_3  and  C1'_4 
REMARK    2  A    between atoms: C1'_4  and  C1_5 
ROOT
ATOM      1  C1  I4B d   1       2.731   1.119  -0.621  0.00  0.00    -0.075 A 
ATOM      2  C2  I4B d   1       1.630   1.004  -1.432  0.00  0.00     0.003 A 
ATOM      3  C3  I4B d   1       1.781   0.639  -2.792  0.00  0.00     0.002 A 
ATOM      4  C4  I4B d   1       3.047   0.448  -3.307  0.00  0.00    -0.004 A 
ATOM      5  C5  I4B d   1       4.160   0.542  -2.477  0.00  0.00     0.002 A 
ATOM      6  C6  I4B d   1       4.001   0.868  -1.123  0.00  0.00     0.003 A 
ENDROOT
BRANCH   1   7
ATOM      7  C1' I4B d   1       2.537   1.539   0.802  0.00  0.00     0.060 C 
BRANCH   7   8
ATOM      8  C2' I4B d   1       1.552   2.690   0.819  0.00  0.00    -0.013 C 
ATOM      9  C4' I4B d   1       0.346   2.363   1.660  0.00  0.00     0.013 C 
ATOM     10  C3' I4B d   1       2.264   3.902   1.342  0.00  0.00     0.013 C 
ENDBRANCH   7   8
ENDBRANCH   1   7
TORSDOF 2
ENDMDL
