MODEL 1
REMARK minimizedAffinity 0.366714984
REMARK minimizedRMSD -1
REMARK  2 active torsions:
REMARK  status: ('A' for Active; 'I' for Inactive)
REMARK    1  A    between atoms: C2'_3  and  C1'_4 
REMARK    2  A    between atoms: C1'_4  and  C1_5 
ROOT
ATOM      1  C1  I4B d   1       1.001   2.106   0.312  0.00  0.00    -0.075 A 
ATOM      2  C2  I4B d   1       1.989   2.971   0.713  0.00  0.00     0.003 A 
ATOM      3  C3  I4B d   1       3.307   2.500   0.923  0.00  0.00     0.002 A 
ATOM      4  C4  I4B d   1       3.581   1.156   0.771  0.00  0.00    -0.004 A 
ATOM      5  C5  I4B d   1       2.584   0.284   0.343  0.00  0.00     0.002 A 
ATOM      6  C6  I4B d   1       1.289   0.764   0.100  0.00  0.00     0.003 A 
ENDROOT
BRANCH   1   7
ATOM      7  C1' I4B d   1      -0.387   2.631   0.131  0.00  0.00     0.060 C 
BRANCH   7   8
ATOM      8  C2' I4B d   1      -1.337   1.701   0.859  0.00  0.00    -0.013 C 
ATOM      9  C4' I4B d   1      -1.369   2.000   2.334  0.00  0.00     0.013 C 
ATOM     10  C3' I4B d   1      -2.697   1.855   0.245  0.00  0.00     0.013 C 
ENDBRANCH   7   8
ENDBRANCH   1   7
TORSDOF 2
ENDMDL
