MODEL 1
REMARK minimizedAffinity 3.24917793
REMARK minimizedRMSD -1
REMARK  2 active torsions:
REMARK  status: ('A' for Active; 'I' for Inactive)
REMARK    1  A    between atoms: C2'_3  and  C1'_4 
REMARK    2  A    between atoms: C1'_4  and  C1_5 
ROOT
ATOM      1  C1  I4B d   1       0.395   2.117   0.082  0.00  0.00    -0.075 A 
ATOM      2  C2  I4B d   1      -0.154   3.008  -0.805  0.00  0.00     0.003 A 
ATOM      3  C3  I4B d   1      -1.547   3.265  -0.788  0.00  0.00     0.002 A 
ATOM      4  C4  I4B d   1      -2.354   2.575   0.093  0.00  0.00    -0.004 A 
ATOM      5  C5  I4B d   1      -1.792   1.689   1.008  0.00  0.00     0.002 A 
ATOM      6  C6  I4B d   1      -0.407   1.467   1.011  0.00  0.00     0.003 A 
ENDROOT
BRANCH   1   7
ATOM      7  C1' I4B d   1       1.865   1.845   0.014  0.00  0.00     0.060 C 
BRANCH   7   8
ATOM      8  C2' I4B d   1       2.564   2.828   0.931  0.00  0.00    -0.013 C 
ATOM      9  C4' I4B d   1       3.750   2.194   1.607  0.00  0.00     0.013 C 
ATOM     10  C3' I4B d   1       2.979   4.012   0.109  0.00  0.00     0.013 C 
ENDBRANCH   7   8
ENDBRANCH   1   7
TORSDOF 2
ENDMDL
