MODEL 1
REMARK minimizedAffinity -0.117395818
REMARK minimizedRMSD -1
REMARK  2 active torsions:
REMARK  status: ('A' for Active; 'I' for Inactive)
REMARK    1  A    between atoms: C2'_3  and  C1'_4 
REMARK    2  A    between atoms: C1'_4  and  C1_5 
ROOT
ATOM      1  C1  I4B d   1       1.767   1.003  -0.303  0.00  0.00    -0.075 A 
ATOM      2  C2  I4B d   1       1.664  -0.346  -0.072  0.00  0.00     0.003 A 
ATOM      3  C3  I4B d   1       1.402  -1.235  -1.143  0.00  0.00     0.002 A 
ATOM      4  C4  I4B d   1       1.203  -0.730  -2.411  0.00  0.00    -0.004 A 
ATOM      5  C5  I4B d   1       1.330   0.636  -2.648  0.00  0.00     0.002 A 
ATOM      6  C6  I4B d   1       1.626   1.507  -1.590  0.00  0.00     0.003 A 
ENDROOT
BRANCH   1   7
ATOM      7  C1' I4B d   1       2.010   1.917   0.856  0.00  0.00     0.060 C 
BRANCH   7   8
ATOM      8  C2' I4B d   1       3.388   2.525   0.689  0.00  0.00    -0.013 C 
ATOM      9  C4' I4B d   1       3.460   3.893   1.315  0.00  0.00     0.013 C 
ATOM     10  C3' I4B d   1       4.384   1.592   1.311  0.00  0.00     0.013 C 
ENDBRANCH   7   8
ENDBRANCH   1   7
TORSDOF 2
ENDMDL
