MODEL 1
REMARK minimizedAffinity 12.2247009
REMARK minimizedRMSD -1
REMARK  2 active torsions:
REMARK  status: ('A' for Active; 'I' for Inactive)
REMARK    1  A    between atoms: C2'_3  and  C1'_4 
REMARK    2  A    between atoms: C1'_4  and  C1_5 
ROOT
ATOM      1  C1  I4B d   1       2.008   1.020  -0.594  0.00  0.00    -0.075 A 
ATOM      2  C2  I4B d   1       2.377  -0.238  -0.186  0.00  0.00     0.003 A 
ATOM      3  C3  I4B d   1       2.391  -1.312  -1.109  0.00  0.00     0.002 A 
ATOM      4  C4  I4B d   1       1.984  -1.095  -2.409  0.00  0.00    -0.004 A 
ATOM      5  C5  I4B d   1       1.633   0.185  -2.828  0.00  0.00     0.002 A 
ATOM      6  C6  I4B d   1       1.657   1.252  -1.918  0.00  0.00     0.003 A 
ENDROOT
BRANCH   1   7
ATOM      7  C1' I4B d   1       1.973   2.124   0.414  0.00  0.00     0.060 C 
BRANCH   7   8
ATOM      8  C2' I4B d   1       0.602   2.124   1.058  0.00  0.00    -0.013 C 
ATOM      9  C4' I4B d   1       0.698   2.327   2.547  0.00  0.00     0.013 C 
ATOM     10  C3' I4B d   1      -0.212   3.208   0.416  0.00  0.00     0.013 C 
ENDBRANCH   7   8
ENDBRANCH   1   7
TORSDOF 2
ENDMDL
