MODEL 1
REMARK minimizedAffinity 8.97054577
REMARK minimizedRMSD -1
REMARK  2 active torsions:
REMARK  status: ('A' for Active; 'I' for Inactive)
REMARK    1  A    between atoms: C2'_3  and  C1'_4 
REMARK    2  A    between atoms: C1'_4  and  C1_5 
ROOT
ATOM      1  C1  I4B d   1       1.146   1.424   0.956  0.00  0.00    -0.075 A 
ATOM      2  C2  I4B d   1       0.140   0.941   1.756  0.00  0.00     0.003 A 
ATOM      3  C3  I4B d   1      -1.160   1.498   1.680  0.00  0.00     0.002 A 
ATOM      4  C4  I4B d   1      -1.395   2.563   0.833  0.00  0.00    -0.004 A 
ATOM      5  C5  I4B d   1      -0.379   3.035   0.007  0.00  0.00     0.002 A 
ATOM      6  C6  I4B d   1       0.896   2.454   0.060  0.00  0.00     0.003 A 
ENDROOT
BRANCH   1   7
ATOM      7  C1' I4B d   1       2.515   0.834   1.086  0.00  0.00     0.060 C 
BRANCH   7   8
ATOM      8  C2' I4B d   1       3.457   1.935   1.529  0.00  0.00    -0.013 C 
ATOM      9  C4' I4B d   1       4.731   1.366   2.097  0.00  0.00     0.013 C 
ATOM     10  C3' I4B d   1       3.736   2.811   0.344  0.00  0.00     0.013 C 
ENDBRANCH   7   8
ENDBRANCH   1   7
TORSDOF 2
ENDMDL
