MODEL 1
REMARK minimizedAffinity 1.88077331
REMARK minimizedRMSD -1
REMARK  2 active torsions:
REMARK  status: ('A' for Active; 'I' for Inactive)
REMARK    1  A    between atoms: C2'_3  and  C1'_4 
REMARK    2  A    between atoms: C1'_4  and  C1_5 
ROOT
ATOM      1  C1  I4B d   1      -1.391  -5.030   0.864  0.00  0.00    -0.075 A 
ATOM      2  C2  I4B d   1      -0.531  -3.968   0.737  0.00  0.00     0.003 A 
ATOM      3  C3  I4B d   1      -0.277  -3.119   1.842  0.00  0.00     0.002 A 
ATOM      4  C4  I4B d   1      -0.939  -3.339   3.033  0.00  0.00    -0.004 A 
ATOM      5  C5  I4B d   1      -1.794  -4.429   3.167  0.00  0.00     0.002 A 
ATOM      6  C6  I4B d   1      -2.012  -5.288   2.079  0.00  0.00     0.003 A 
ENDROOT
BRANCH   1   7
ATOM      7  C1' I4B d   1      -1.661  -5.886  -0.333  0.00  0.00     0.060 C 
BRANCH   7   8
ATOM      8  C2' I4B d   1      -2.535  -5.095  -1.284  0.00  0.00    -0.013 C 
ATOM      9  C4' I4B d   1      -3.459  -6.000  -2.056  0.00  0.00     0.013 C 
ATOM     10  C3' I4B d   1      -3.307  -4.092  -0.479  0.00  0.00     0.013 C 
ENDBRANCH   7   8
ENDBRANCH   1   7
TORSDOF 2
ENDMDL
