MODEL 1
REMARK minimizedAffinity 8.40821171
REMARK minimizedRMSD -1
REMARK  2 active torsions:
REMARK  status: ('A' for Active; 'I' for Inactive)
REMARK    1  A    between atoms: C2'_3  and  C1'_4 
REMARK    2  A    between atoms: C1'_4  and  C1_5 
ROOT
ATOM      1  C1  I4B d   1       1.753   1.036  -0.286  0.00  0.00    -0.075 A 
ATOM      2  C2  I4B d   1       1.934  -0.126   0.421  0.00  0.00     0.003 A 
ATOM      3  C3  I4B d   1       2.008  -1.368  -0.256  0.00  0.00     0.002 A 
ATOM      4  C4  I4B d   1       1.848  -1.405  -1.627  0.00  0.00    -0.004 A 
ATOM      5  C5  I4B d   1       1.688  -0.223  -2.343  0.00  0.00     0.002 A 
ATOM      6  C6  I4B d   1       1.652   1.007  -1.670  0.00  0.00     0.003 A 
ENDROOT
BRANCH   1   7
ATOM      7  C1' I4B d   1       1.645   2.326   0.465  0.00  0.00     0.060 C 
BRANCH   7   8
ATOM      8  C2' I4B d   1       0.222   2.828   0.329  0.00  0.00    -0.013 C 
ATOM      9  C4' I4B d   1      -0.467   2.881   1.667  0.00  0.00     0.013 C 
ATOM     10  C3' I4B d   1       0.268   4.184  -0.310  0.00  0.00     0.013 C 
ENDBRANCH   7   8
ENDBRANCH   1   7
TORSDOF 2
ENDMDL
