MODEL 1
REMARK minimizedAffinity -3.10076308
REMARK minimizedRMSD -1
REMARK  0 active torsions:
REMARK  status: ('A' for Active; 'I' for Inactive)
ROOT
ATOM      1  C   UNL d   1       1.302  -2.236   0.533  0.00  0.00     0.077 C 
ATOM      2  C1  UNL d   1       0.235  -1.183   0.570  0.00  0.00    -0.074 A 
ATOM      3  C2  UNL d   1      -0.643  -1.088   1.654  0.00  0.00    -0.005 A 
ATOM      4  C3  UNL d   1      -1.625  -0.097   1.679  0.00  0.00     0.006 A 
ATOM      5  C4  UNL d   1      -1.738   0.807   0.622  0.00  0.00    -0.005 A 
ATOM      6  C5  UNL d   1      -0.868   0.728  -0.470  0.00  0.00    -0.074 A 
ATOM      7  C6  UNL d   1      -0.969   1.698  -1.609  0.00  0.00     0.077 C 
ATOM      8  C7  UNL d   1       0.121  -0.266  -0.484  0.00  0.00    -0.001 A 
ENDROOT
TORSDOF 0
ENDMDL
