MODEL 1
REMARK minimizedAffinity -2.65116668
REMARK minimizedRMSD -1
REMARK  0 active torsions:
REMARK  status: ('A' for Active; 'I' for Inactive)
ROOT
ATOM      1  C   UNL d   1      -1.257  -1.544   1.899  0.00  0.00     0.077 C 
ATOM      2  C1  UNL d   1      -0.559  -0.613   0.952  0.00  0.00    -0.074 A 
ATOM      3  C2  UNL d   1      -1.115   0.627   0.622  0.00  0.00    -0.005 A 
ATOM      4  C3  UNL d   1      -0.449   1.486  -0.252  0.00  0.00     0.006 A 
ATOM      5  C4  UNL d   1       0.777   1.114  -0.805  0.00  0.00    -0.005 A 
ATOM      6  C5  UNL d   1       1.349  -0.121  -0.486  0.00  0.00    -0.074 A 
ATOM      7  C6  UNL d   1       2.670  -0.532  -1.064  0.00  0.00     0.077 C 
ATOM      8  C7  UNL d   1       0.677  -0.976   0.399  0.00  0.00    -0.001 A 
ENDROOT
TORSDOF 0
ENDMDL
