MODEL 1
REMARK minimizedAffinity -4.89379644
REMARK minimizedRMSD -1
REMARK  0 active torsions:
REMARK  status: ('A' for Active; 'I' for Inactive)
ROOT
ATOM      1  C   UNL d   1       1.853   3.892   0.479  0.00  0.00     0.077 C 
ATOM      2  C1  UNL d   1       0.857   2.979  -0.171  0.00  0.00    -0.074 A 
ATOM      3  C2  UNL d   1       0.136   3.387  -1.298  0.00  0.00    -0.005 A 
ATOM      4  C3  UNL d   1      -0.780   2.523  -1.898  0.00  0.00     0.006 A 
ATOM      5  C4  UNL d   1      -0.985   1.244  -1.378  0.00  0.00    -0.005 A 
ATOM      6  C5  UNL d   1      -0.273   0.818  -0.252  0.00  0.00    -0.074 A 
ATOM      7  C6  UNL d   1      -0.473  -0.556   0.314  0.00  0.00     0.077 C 
ATOM      8  C7  UNL d   1       0.651   1.690   0.341  0.00  0.00    -0.001 A 
ENDROOT
TORSDOF 0
ENDMDL
