MODEL 1
REMARK minimizedAffinity -4.34017134
REMARK minimizedRMSD -1
REMARK  0 active torsions:
REMARK  status: ('A' for Active; 'I' for Inactive)
ROOT
ATOM      1  C   UNL d   1      -1.609   0.412   1.902  0.00  0.00     0.077 C 
ATOM      2  C1  UNL d   1      -0.400  -0.025   1.130  0.00  0.00    -0.074 A 
ATOM      3  C2  UNL d   1       0.228   0.839   0.227  0.00  0.00    -0.005 A 
ATOM      4  C3  UNL d   1       1.357   0.421  -0.477  0.00  0.00     0.006 A 
ATOM      5  C4  UNL d   1       1.870  -0.862  -0.285  0.00  0.00    -0.005 A 
ATOM      6  C5  UNL d   1       1.256  -1.740   0.614  0.00  0.00    -0.074 A 
ATOM      7  C6  UNL d   1       1.800  -3.119   0.839  0.00  0.00     0.077 C 
ATOM      8  C7  UNL d   1       0.126  -1.311   1.323  0.00  0.00    -0.001 A 
ENDROOT
TORSDOF 0
ENDMDL
