MODEL 1
REMARK minimizedAffinity -2.31355667
REMARK minimizedRMSD -1
REMARK  0 active torsions:
REMARK  status: ('A' for Active; 'I' for Inactive)
ROOT
ATOM      1  C   UNL d   1       1.051  -3.308   1.349  0.00  0.00     0.077 C 
ATOM      2  C1  UNL d   1       0.855  -1.909   0.844  0.00  0.00    -0.074 A 
ATOM      3  C2  UNL d   1       1.873  -1.246   0.151  0.00  0.00    -0.005 A 
ATOM      4  C3  UNL d   1       1.674   0.051  -0.321  0.00  0.00     0.006 A 
ATOM      5  C4  UNL d   1       0.456   0.697  -0.106  0.00  0.00    -0.005 A 
ATOM      6  C5  UNL d   1      -0.574   0.050   0.584  0.00  0.00    -0.074 A 
ATOM      7  C6  UNL d   1      -1.892   0.727   0.815  0.00  0.00     0.077 C 
ATOM      8  C7  UNL d   1      -0.368  -1.256   1.049  0.00  0.00    -0.001 A 
ENDROOT
TORSDOF 0
ENDMDL
