MODEL 1
REMARK minimizedAffinity -1.66699779
REMARK minimizedRMSD -1
REMARK  0 active torsions:
REMARK  status: ('A' for Active; 'I' for Inactive)
ROOT
ATOM      1  C   UNL d   1      -2.113  -0.152   1.546  0.00  0.00     0.077 C 
ATOM      2  C1  UNL d   1      -0.809  -0.511   0.898  0.00  0.00    -0.074 A 
ATOM      3  C2  UNL d   1      -0.215   0.339  -0.041  0.00  0.00    -0.005 A 
ATOM      4  C3  UNL d   1       1.004  -0.004  -0.627  0.00  0.00     0.006 A 
ATOM      5  C4  UNL d   1       1.639  -1.197  -0.281  0.00  0.00    -0.005 A 
ATOM      6  C5  UNL d   1       1.061  -2.058   0.657  0.00  0.00    -0.074 A 
ATOM      7  C6  UNL d   1       1.736  -3.340   1.047  0.00  0.00     0.077 C 
ATOM      8  C7  UNL d   1      -0.160  -1.704   1.247  0.00  0.00    -0.001 A 
ENDROOT
TORSDOF 0
ENDMDL
