MODEL 1
REMARK minimizedAffinity -4.43925571
REMARK minimizedRMSD -1
REMARK  0 active torsions:
REMARK  status: ('A' for Active; 'I' for Inactive)
ROOT
ATOM      1  C   UNL d   1       1.590  -3.160   0.764  0.00  0.00     0.077 C 
ATOM      2  C1  UNL d   1       0.590  -2.046   0.858  0.00  0.00    -0.074 A 
ATOM      3  C2  UNL d   1      -0.590  -2.199   1.592  0.00  0.00    -0.005 A 
ATOM      4  C3  UNL d   1      -1.506  -1.151   1.678  0.00  0.00     0.006 A 
ATOM      5  C4  UNL d   1      -1.251   0.060   1.032  0.00  0.00    -0.005 A 
ATOM      6  C5  UNL d   1      -0.076   0.231   0.294  0.00  0.00    -0.074 A 
ATOM      7  C6  UNL d   1       0.218   1.529  -0.399  0.00  0.00     0.077 C 
ATOM      8  C7  UNL d   1       0.842  -0.825   0.218  0.00  0.00    -0.001 A 
ENDROOT
TORSDOF 0
ENDMDL
