MODEL 1
REMARK minimizedAffinity -2.04156184
REMARK minimizedRMSD -1
REMARK  0 active torsions:
REMARK  status: ('A' for Active; 'I' for Inactive)
ROOT
ATOM      1  C   UNL d   1      -2.414   0.138   1.400  0.00  0.00     0.077 C 
ATOM      2  C1  UNL d   1      -1.103  -0.259   0.789  0.00  0.00    -0.074 A 
ATOM      3  C2  UNL d   1      -0.414   0.611  -0.061  0.00  0.00    -0.005 A 
ATOM      4  C3  UNL d   1       0.809   0.232  -0.615  0.00  0.00     0.006 A 
ATOM      5  C4  UNL d   1       1.354  -1.019  -0.323  0.00  0.00    -0.005 A 
ATOM      6  C5  UNL d   1       0.680  -1.902   0.526  0.00  0.00    -0.074 A 
ATOM      7  C6  UNL d   1       1.257  -3.247   0.858  0.00  0.00     0.077 C 
ATOM      8  C7  UNL d   1      -0.545  -1.511   1.084  0.00  0.00    -0.001 A 
ENDROOT
TORSDOF 0
ENDMDL
