MODEL 1
REMARK minimizedAffinity -1.33294046
REMARK minimizedRMSD -1
REMARK  0 active torsions:
REMARK  status: ('A' for Active; 'I' for Inactive)
ROOT
ATOM      1  C   UNL d   1       1.695  -1.532   1.187  0.00  0.00     0.077 C 
ATOM      2  C1  UNL d   1       1.128  -0.217   0.742  0.00  0.00    -0.074 A 
ATOM      3  C2  UNL d   1      -0.220  -0.097   0.390  0.00  0.00    -0.005 A 
ATOM      4  C3  UNL d   1      -0.735   1.135  -0.013  0.00  0.00     0.006 A 
ATOM      5  C4  UNL d   1       0.092   2.258  -0.067  0.00  0.00    -0.005 A 
ATOM      6  C5  UNL d   1       1.442   2.158   0.282  0.00  0.00    -0.074 A 
ATOM      7  C6  UNL d   1       2.342   3.357   0.239  0.00  0.00     0.077 C 
ATOM      8  C7  UNL d   1       1.951   0.918   0.693  0.00  0.00    -0.001 A 
ENDROOT
TORSDOF 0
ENDMDL
