MODEL 1
REMARK minimizedAffinity -3.37719417
REMARK minimizedRMSD -1
REMARK  0 active torsions:
REMARK  status: ('A' for Active; 'I' for Inactive)
ROOT
ATOM      1  C   UNL d   1       1.376  -0.390  -0.283  0.00  0.00     0.077 C 
ATOM      2  C1  UNL d   1       1.468   1.107  -0.272  0.00  0.00    -0.074 A 
ATOM      3  C2  UNL d   1       0.315   1.898  -0.255  0.00  0.00    -0.005 A 
ATOM      4  C3  UNL d   1       0.417   3.289  -0.235  0.00  0.00     0.006 A 
ATOM      5  C4  UNL d   1       1.670   3.902  -0.232  0.00  0.00    -0.005 A 
ATOM      6  C5  UNL d   1       2.834   3.127  -0.248  0.00  0.00    -0.074 A 
ATOM      7  C6  UNL d   1       4.190   3.770  -0.235  0.00  0.00     0.077 C 
ATOM      8  C7  UNL d   1       2.724   1.730  -0.261  0.00  0.00    -0.001 A 
ENDROOT
TORSDOF 0
ENDMDL
