MODEL 1
REMARK minimizedAffinity -2.10589814
REMARK minimizedRMSD -1
REMARK  0 active torsions:
REMARK  status: ('A' for Active; 'I' for Inactive)
ROOT
ATOM      1  C   UNL d   1       1.461  -3.175   1.598  0.00  0.00     0.077 C 
ATOM      2  C1  UNL d   1       0.834  -1.852   1.272  0.00  0.00    -0.074 A 
ATOM      3  C2  UNL d   1      -0.492  -1.578   1.622  0.00  0.00    -0.005 A 
ATOM      4  C3  UNL d   1      -1.058  -0.340   1.320  0.00  0.00     0.006 A 
ATOM      5  C4  UNL d   1      -0.306   0.636   0.665  0.00  0.00    -0.005 A 
ATOM      6  C5  UNL d   1       1.022   0.381   0.308  0.00  0.00    -0.074 A 
ATOM      7  C6  UNL d   1       1.848   1.422  -0.387  0.00  0.00     0.077 C 
ATOM      8  C7  UNL d   1       1.586  -0.863   0.621  0.00  0.00    -0.001 A 
ENDROOT
TORSDOF 0
ENDMDL
