MODEL 1
REMARK minimizedAffinity -1.46006966
REMARK minimizedRMSD -1
REMARK  0 active torsions:
REMARK  status: ('A' for Active; 'I' for Inactive)
ROOT
ATOM      1  C   UNL d   1       2.982   3.615   0.831  0.00  0.00     0.077 C 
ATOM      2  C1  UNL d   1       1.779   3.089   0.105  0.00  0.00    -0.074 A 
ATOM      3  C2  UNL d   1       1.056   3.904  -0.772  0.00  0.00    -0.005 A 
ATOM      4  C3  UNL d   1      -0.055   3.398  -1.448  0.00  0.00     0.006 A 
ATOM      5  C4  UNL d   1      -0.453   2.074  -1.253  0.00  0.00    -0.005 A 
ATOM      6  C5  UNL d   1       0.259   1.245  -0.381  0.00  0.00    -0.074 A 
ATOM      7  C6  UNL d   1      -0.149  -0.183  -0.168  0.00  0.00     0.077 C 
ATOM      8  C7  UNL d   1       1.378   1.758   0.289  0.00  0.00    -0.001 A 
ENDROOT
TORSDOF 0
ENDMDL
