MODEL 1
REMARK minimizedAffinity -3.29484057
REMARK minimizedRMSD -1
REMARK  0 active torsions:
REMARK  status: ('A' for Active; 'I' for Inactive)
ROOT
ATOM      1  C   UNL d   1      -0.690   0.705  -0.495  0.00  0.00     0.077 C 
ATOM      2  C1  UNL d   1       0.124  -0.429   0.052  0.00  0.00    -0.074 A 
ATOM      3  C2  UNL d   1      -0.423  -1.710   0.183  0.00  0.00    -0.005 A 
ATOM      4  C3  UNL d   1       0.349  -2.757   0.684  0.00  0.00     0.006 A 
ATOM      5  C4  UNL d   1       1.674  -2.535   1.061  0.00  0.00    -0.005 A 
ATOM      6  C5  UNL d   1       2.239  -1.262   0.937  0.00  0.00    -0.074 A 
ATOM      7  C6  UNL d   1       3.665  -1.008   1.327  0.00  0.00     0.077 C 
ATOM      8  C7  UNL d   1       1.459  -0.216   0.425  0.00  0.00    -0.001 A 
ENDROOT
TORSDOF 0
ENDMDL
