MODEL 1
REMARK minimizedAffinity -1.89513767
REMARK minimizedRMSD -1
REMARK  0 active torsions:
REMARK  status: ('A' for Active; 'I' for Inactive)
ROOT
ATOM      1  C   UNL d   1      -0.782   0.601   0.008  0.00  0.00     0.077 C 
ATOM      2  C1  UNL d   1       0.046  -0.560   0.475  0.00  0.00    -0.074 A 
ATOM      3  C2  UNL d   1      -0.480  -1.856   0.496  0.00  0.00    -0.005 A 
ATOM      4  C3  UNL d   1       0.304  -2.926   0.923  0.00  0.00     0.006 A 
ATOM      5  C4  UNL d   1       1.621  -2.713   1.333  0.00  0.00    -0.005 A 
ATOM      6  C5  UNL d   1       2.165  -1.425   1.318  0.00  0.00    -0.074 A 
ATOM      7  C6  UNL d   1       3.581  -1.179   1.746  0.00  0.00     0.077 C 
ATOM      8  C7  UNL d   1       1.372  -0.355   0.881  0.00  0.00    -0.001 A 
ENDROOT
TORSDOF 0
ENDMDL
