MODEL 1
REMARK minimizedAffinity -1.36475611
REMARK minimizedRMSD -1
REMARK  0 active torsions:
REMARK  status: ('A' for Active; 'I' for Inactive)
ROOT
ATOM      1  C   UNL d   1      -2.064   0.533   0.680  0.00  0.00     0.077 C 
ATOM      2  C1  UNL d   1      -0.707  -0.025   0.372  0.00  0.00    -0.074 A 
ATOM      3  C2  UNL d   1       0.191   0.676  -0.441  0.00  0.00    -0.005 A 
ATOM      4  C3  UNL d   1       1.453   0.148  -0.711  0.00  0.00     0.006 A 
ATOM      5  C4  UNL d   1       1.831  -1.082  -0.173  0.00  0.00    -0.005 A 
ATOM      6  C5  UNL d   1       0.947  -1.796   0.643  0.00  0.00    -0.074 A 
ATOM      7  C6  UNL d   1       1.341  -3.116   1.238  0.00  0.00     0.077 C 
ATOM      8  C7  UNL d   1      -0.317  -1.257   0.915  0.00  0.00    -0.001 A 
ENDROOT
TORSDOF 0
ENDMDL
