MODEL 1
REMARK minimizedAffinity -5.04862165
REMARK minimizedRMSD -1
REMARK  0 active torsions:
REMARK  status: ('A' for Active; 'I' for Inactive)
ROOT
ATOM      1  C   UNL d   1       3.414   3.239  -0.123  0.00  0.00     0.077 C 
ATOM      2  C1  UNL d   1       2.058   2.622   0.048  0.00  0.00    -0.074 A 
ATOM      3  C2  UNL d   1       0.929   3.417   0.271  0.00  0.00    -0.005 A 
ATOM      4  C3  UNL d   1      -0.327   2.829   0.419  0.00  0.00     0.006 A 
ATOM      5  C4  UNL d   1      -0.467   1.442   0.346  0.00  0.00    -0.005 A 
ATOM      6  C5  UNL d   1       0.650   0.631   0.123  0.00  0.00    -0.074 A 
ATOM      7  C6  UNL d   1       0.516  -0.860   0.032  0.00  0.00     0.077 C 
ATOM      8  C7  UNL d   1       1.908   1.230  -0.032  0.00  0.00    -0.001 A 
ENDROOT
TORSDOF 0
ENDMDL
