MODEL 1
REMARK minimizedAffinity -2.7773447
REMARK minimizedRMSD -1
REMARK  0 active torsions:
REMARK  status: ('A' for Active; 'I' for Inactive)
ROOT
ATOM      1  C   UNL d   1       2.793  -4.482   1.080  0.00  0.00     0.078 C 
ATOM      2  C1  UNL d   1       1.510  -4.044   1.722  0.00  0.00    -0.077 A 
ATOM      3  C2  UNL d   1       0.673  -4.965   2.363  0.00  0.00    -0.001 A 
ATOM      4  C3  UNL d   1      -0.522  -4.545   2.948  0.00  0.00     0.003 A 
ATOM      5  C4  UNL d   1      -0.892  -3.202   2.897  0.00  0.00    -0.005 A 
ATOM      6  C5  UNL d   1      -0.067  -2.279   2.259  0.00  0.00     0.003 A 
ATOM      7  C6  UNL d   1       1.129  -2.697   1.674  0.00  0.00    -0.001 A 
ENDROOT
TORSDOF 0
ENDMDL
