MODEL 1
REMARK minimizedAffinity -3.98386693
REMARK minimizedRMSD -1
REMARK  0 active torsions:
REMARK  status: ('A' for Active; 'I' for Inactive)
ROOT
ATOM      1  C   UNL d   1       3.270  -4.217  -0.072  0.00  0.00     0.078 C 
ATOM      2  C1  UNL d   1       2.327  -3.103   0.273  0.00  0.00    -0.077 A 
ATOM      3  C2  UNL d   1       2.298  -1.923  -0.480  0.00  0.00    -0.001 A 
ATOM      4  C3  UNL d   1       1.422  -0.891  -0.141  0.00  0.00     0.003 A 
ATOM      5  C4  UNL d   1       0.569  -1.027   0.952  0.00  0.00    -0.005 A 
ATOM      6  C5  UNL d   1       0.592  -2.197   1.709  0.00  0.00     0.003 A 
ATOM      7  C6  UNL d   1       1.468  -3.230   1.372  0.00  0.00    -0.001 A 
ENDROOT
TORSDOF 0
ENDMDL
