MODEL 1
REMARK minimizedAffinity -0.148355782
REMARK minimizedRMSD -1
REMARK  0 active torsions:
REMARK  status: ('A' for Active; 'I' for Inactive)
ROOT
ATOM      1  C   UNL d   1       2.082  -4.550   0.778  0.00  0.00     0.078 C 
ATOM      2  C1  UNL d   1       1.486  -3.176   0.835  0.00  0.00    -0.077 A 
ATOM      3  C2  UNL d   1       1.825  -2.203  -0.114  0.00  0.00    -0.001 A 
ATOM      4  C3  UNL d   1       1.270  -0.925  -0.044  0.00  0.00     0.003 A 
ATOM      5  C4  UNL d   1       0.374  -0.606   0.975  0.00  0.00    -0.005 A 
ATOM      6  C5  UNL d   1       0.032  -1.566   1.925  0.00  0.00     0.003 A 
ATOM      7  C6  UNL d   1       0.586  -2.845   1.856  0.00  0.00    -0.001 A 
ENDROOT
TORSDOF 0
ENDMDL
