MODEL 1
REMARK minimizedAffinity -0.146140188
REMARK minimizedRMSD -1
REMARK  0 active torsions:
REMARK  status: ('A' for Active; 'I' for Inactive)
ROOT
ATOM      1  C   UNL d   1      -3.405   5.235   5.945  0.00  0.00     0.078 C 
ATOM      2  C1  UNL d   1      -4.108   3.997   5.473  0.00  0.00    -0.077 A 
ATOM      3  C2  UNL d   1      -5.352   3.630   6.000  0.00  0.00    -0.001 A 
ATOM      4  C3  UNL d   1      -5.991   2.470   5.558  0.00  0.00     0.003 A 
ATOM      5  C4  UNL d   1      -5.392   1.667   4.590  0.00  0.00    -0.005 A 
ATOM      6  C5  UNL d   1      -4.153   2.023   4.062  0.00  0.00     0.003 A 
ATOM      7  C6  UNL d   1      -3.513   3.182   4.502  0.00  0.00    -0.001 A 
ENDROOT
TORSDOF 0
ENDMDL
