MODEL 1
REMARK minimizedAffinity 3.14026546
REMARK minimizedRMSD -1
REMARK  0 active torsions:
REMARK  status: ('A' for Active; 'I' for Inactive)
ROOT
ATOM      1  C   UNL d   1       2.965  -4.269   1.312  0.00  0.00     0.078 C 
ATOM      2  C1  UNL d   1       2.456  -2.873   1.108  0.00  0.00    -0.077 A 
ATOM      3  C2  UNL d   1       3.113  -1.984   0.249  0.00  0.00    -0.001 A 
ATOM      4  C3  UNL d   1       2.633  -0.684   0.077  0.00  0.00     0.003 A 
ATOM      5  C4  UNL d   1       1.494  -0.263   0.760  0.00  0.00    -0.005 A 
ATOM      6  C5  UNL d   1       0.834  -1.140   1.617  0.00  0.00     0.003 A 
ATOM      7  C6  UNL d   1       1.313  -2.440   1.792  0.00  0.00    -0.001 A 
ENDROOT
TORSDOF 0
ENDMDL
