MODEL 1
REMARK minimizedAffinity -4.52098465
REMARK minimizedRMSD -1
REMARK  1 active torsions:
REMARK  status: ('A' for Active; 'I' for Inactive)
REMARK    1  A    between atoms: C1_2  and  C2_3 
ROOT
ATOM      1  C2  UNL d   1       0.250  -0.475   0.923  0.00  0.00    -0.076 A 
ATOM      2  C3  UNL d   1      -1.003   0.162   0.912  0.00  0.00     0.004 A 
ATOM      3  C4  UNL d   1      -1.469   0.807  -0.232  0.00  0.00    -0.003 A 
ATOM      4  C5  UNL d   1      -0.691   0.825  -1.384  0.00  0.00     0.000 A 
ATOM      5  C6  UNL d   1       0.547   0.183  -1.396  0.00  0.00     0.000 A 
ATOM      6  C7  UNL d   1       1.025  -0.486  -0.256  0.00  0.00    -0.073 A 
ATOM      7  C8  UNL d   1       2.370  -1.157  -0.323  0.00  0.00     0.078 C 
ENDROOT
BRANCH   1   8
ATOM      8  C1  UNL d   1       0.715  -1.135   2.202  0.00  0.00     0.053 C 
ATOM      9  C   UNL d   1       1.810  -0.344   2.901  0.00  0.00     0.018 C 
ENDBRANCH   1   8
TORSDOF 1
ENDMDL
