MODEL 1
REMARK minimizedAffinity -5.62568521
REMARK minimizedRMSD -1
REMARK  1 active torsions:
REMARK  status: ('A' for Active; 'I' for Inactive)
REMARK    1  A    between atoms: C1_2  and  C2_3 
ROOT
ATOM      1  C2  UNL d   1       0.507  -0.475   0.170  0.00  0.00    -0.076 A 
ATOM      2  C3  UNL d   1      -0.379   0.092   1.103  0.00  0.00     0.004 A 
ATOM      3  C4  UNL d   1      -0.278  -0.205   2.461  0.00  0.00    -0.003 A 
ATOM      4  C5  UNL d   1       0.711  -1.074   2.908  0.00  0.00     0.000 A 
ATOM      5  C6  UNL d   1       1.609  -1.633   1.999  0.00  0.00     0.000 A 
ATOM      6  C7  UNL d   1       1.531  -1.331   0.629  0.00  0.00    -0.073 A 
ATOM      7  C8  UNL d   1       2.522  -1.966  -0.308  0.00  0.00     0.078 C 
ENDROOT
BRANCH   1   8
ATOM      8  C1  UNL d   1       0.332  -0.137  -1.293  0.00  0.00     0.053 C 
ATOM      9  C   UNL d   1       0.052   1.341  -1.520  0.00  0.00     0.018 C 
ENDBRANCH   1   8
TORSDOF 1
ENDMDL
