MODEL 1
REMARK minimizedAffinity -0.302836746
REMARK minimizedRMSD -1
REMARK  1 active torsions:
REMARK  status: ('A' for Active; 'I' for Inactive)
REMARK    1  A    between atoms: C1_2  and  C2_3 
ROOT
ATOM      1  C2  UNL d   1      -2.435   1.892  -2.980  0.00  0.00    -0.076 A 
ATOM      2  C3  UNL d   1      -1.059   2.161  -3.083  0.00  0.00     0.004 A 
ATOM      3  C4  UNL d   1      -0.580   3.469  -3.060  0.00  0.00    -0.003 A 
ATOM      4  C5  UNL d   1      -1.469   4.531  -2.932  0.00  0.00     0.000 A 
ATOM      5  C6  UNL d   1      -2.836   4.282  -2.811  0.00  0.00     0.000 A 
ATOM      6  C7  UNL d   1      -3.334   2.968  -2.816  0.00  0.00    -0.073 A 
ATOM      7  C8  UNL d   1      -4.818   2.758  -2.687  0.00  0.00     0.078 C 
ENDROOT
BRANCH   1   8
ATOM      8  C1  UNL d   1      -2.899   0.454  -3.038  0.00  0.00     0.053 C 
ATOM      9  C   UNL d   1      -1.945  -0.495  -2.328  0.00  0.00     0.018 C 
ENDBRANCH   1   8
TORSDOF 1
ENDMDL
