MODEL 1
REMARK minimizedAffinity -2.89217138
REMARK minimizedRMSD -1
REMARK  1 active torsions:
REMARK  status: ('A' for Active; 'I' for Inactive)
REMARK    1  A    between atoms: C1_2  and  C2_3 
ROOT
ATOM      1  C2  UNL d   1       1.298  -0.603   0.710  0.00  0.00    -0.076 A 
ATOM      2  C3  UNL d   1       0.092   0.071   0.971  0.00  0.00     0.004 A 
ATOM      3  C4  UNL d   1      -0.709   0.536  -0.070  0.00  0.00    -0.003 A 
ATOM      4  C5  UNL d   1      -0.319   0.334  -1.389  0.00  0.00     0.000 A 
ATOM      5  C6  UNL d   1       0.866  -0.348  -1.667  0.00  0.00     0.000 A 
ATOM      6  C7  UNL d   1       1.677  -0.838  -0.629  0.00  0.00    -0.073 A 
ATOM      7  C8  UNL d   1       2.947  -1.561  -0.985  0.00  0.00     0.078 C 
ENDROOT
BRANCH   1   8
ATOM      8  C1  UNL d   1       2.139  -1.061   1.880  0.00  0.00     0.053 C 
ATOM      9  C   UNL d   1       1.369  -1.958   2.837  0.00  0.00     0.018 C 
ENDBRANCH   1   8
TORSDOF 1
ENDMDL
