MODEL 1
REMARK minimizedAffinity 9.7036953
REMARK minimizedRMSD -1
REMARK  1 active torsions:
REMARK  status: ('A' for Active; 'I' for Inactive)
REMARK    1  A    between atoms: C1_2  and  C2_3 
ROOT
ATOM      1  C2  UNL d   1       0.603   0.237   3.655  0.00  0.00    -0.081 A 
ATOM      2  C3  UNL d   1      -0.681   0.745   3.422  0.00  0.00     0.006 A 
ATOM      3  C4  UNL d   1      -0.898   1.684   2.411  0.00  0.00     0.002 A 
ATOM      4  C5  UNL d   1       0.162   2.125   1.611  0.00  0.00    -0.080 A 
ATOM      5  C6  UNL d   1      -0.063   3.109   0.503  0.00  0.00     0.076 C 
ATOM      6  C7  UNL d   1       1.448   1.630   1.855  0.00  0.00     0.002 A 
ATOM      7  C8  UNL d   1       1.666   0.692   2.866  0.00  0.00     0.006 A 
ENDROOT
BRANCH   1   8
ATOM      8  C1  UNL d   1       0.829  -0.824   4.702  0.00  0.00     0.054 C 
ATOM      9  C   UNL d   1       1.917  -1.799   4.275  0.00  0.00     0.018 C 
ENDBRANCH   1   8
TORSDOF 1
ENDMDL
