MODEL 1
REMARK minimizedAffinity 11.4037638
REMARK minimizedRMSD -1
REMARK  1 active torsions:
REMARK  status: ('A' for Active; 'I' for Inactive)
REMARK    1  A    between atoms: C1_2  and  C2_3 
ROOT
ATOM      1  C2  UNL d   1      -2.711   1.100  -3.939  0.00  0.00    -0.081 A 
ATOM      2  C3  UNL d   1      -2.917   1.218  -2.559  0.00  0.00     0.006 A 
ATOM      3  C4  UNL d   1      -2.274   0.353  -1.670  0.00  0.00     0.002 A 
ATOM      4  C5  UNL d   1      -1.410  -0.639  -2.146  0.00  0.00    -0.080 A 
ATOM      5  C6  UNL d   1      -0.690  -1.554  -1.201  0.00  0.00     0.076 C 
ATOM      6  C7  UNL d   1      -1.218  -0.768  -3.525  0.00  0.00     0.002 A 
ATOM      7  C8  UNL d   1      -1.860   0.096  -4.414  0.00  0.00     0.006 A 
ENDROOT
BRANCH   1   8
ATOM      8  C1  UNL d   1      -3.352   2.073  -4.896  0.00  0.00     0.054 C 
ATOM      9  C   UNL d   1      -4.113   1.347  -5.996  0.00  0.00     0.018 C 
ENDBRANCH   1   8
TORSDOF 1
ENDMDL
