MODEL 1
REMARK minimizedAffinity 12.1300812
REMARK minimizedRMSD -1
REMARK  1 active torsions:
REMARK  status: ('A' for Active; 'I' for Inactive)
REMARK    1  A    between atoms: C1_2  and  C2_3 
ROOT
ATOM      1  C2  UNL d   1      -0.488   1.436  -0.039  0.00  0.00    -0.081 A 
ATOM      2  C3  UNL d   1      -1.728   0.841  -0.301  0.00  0.00     0.006 A 
ATOM      3  C4  UNL d   1      -1.811  -0.298  -1.106  0.00  0.00     0.002 A 
ATOM      4  C5  UNL d   1      -0.656  -0.866  -1.654  0.00  0.00    -0.080 A 
ATOM      5  C6  UNL d   1      -0.728  -2.106  -2.494  0.00  0.00     0.076 C 
ATOM      6  C7  UNL d   1       0.581  -0.262  -1.406  0.00  0.00     0.002 A 
ATOM      7  C8  UNL d   1       0.664   0.878  -0.603  0.00  0.00     0.006 A 
ENDROOT
BRANCH   1   8
ATOM      8  C1  UNL d   1      -0.388   2.626   0.881  0.00  0.00     0.054 C 
ATOM      9  C   UNL d   1       0.698   3.589   0.423  0.00  0.00     0.018 C 
ENDBRANCH   1   8
TORSDOF 1
ENDMDL
