MODEL 1
REMARK minimizedAffinity 11.9181757
REMARK minimizedRMSD -1
REMARK  1 active torsions:
REMARK  status: ('A' for Active; 'I' for Inactive)
REMARK    1  A    between atoms: C1_2  and  C2_3 
ROOT
ATOM      1  C2  UNL d   1      -0.038   2.051   0.081  0.00  0.00    -0.081 A 
ATOM      2  C3  UNL d   1       1.032   1.238  -0.314  0.00  0.00     0.006 A 
ATOM      3  C4  UNL d   1       0.799   0.037  -0.988  0.00  0.00     0.002 A 
ATOM      4  C5  UNL d   1      -0.507  -0.368  -1.285  0.00  0.00    -0.080 A 
ATOM      5  C6  UNL d   1      -0.770  -1.640  -2.034  0.00  0.00     0.076 C 
ATOM      6  C7  UNL d   1      -1.577   0.435  -0.875  0.00  0.00     0.002 A 
ATOM      7  C8  UNL d   1      -1.344   1.636  -0.201  0.00  0.00     0.006 A 
ENDROOT
BRANCH   1   8
ATOM      8  C1  UNL d   1       0.214   3.378   0.750  0.00  0.00     0.054 C 
ATOM      9  C   UNL d   1       0.412   4.486  -0.275  0.00  0.00     0.018 C 
ENDBRANCH   1   8
TORSDOF 1
ENDMDL
