MODEL 1
REMARK minimizedAffinity -4.94127512
REMARK minimizedRMSD -1
REMARK  0 active torsions:
REMARK  status: ('A' for Active; 'I' for Inactive)
ROOT
ATOM      1  C4' PXY d   1      -2.879  -0.528  -0.871  0.00  0.00     0.077 C 
ATOM      2  C1' PXY d   1       2.315   1.576   0.547  0.00  0.00     0.077 C 
ATOM      3  C1  PXY d   1       0.954   1.016   0.185  0.00  0.00    -0.082 A 
ATOM      4  C2  PXY d   1       0.487   1.173  -1.043  0.00  0.00     0.003 A 
ATOM      5  C3  PXY d   1      -0.755   0.700  -1.379  0.00  0.00     0.003 A 
ATOM      6  C4  PXY d   1      -1.506   0.013  -0.463  0.00  0.00    -0.082 A 
ATOM      7  C5  PXY d   1      -1.033  -0.160   0.789  0.00  0.00     0.003 A 
ATOM      8  C6  PXY d   1       0.213   0.363   1.122  0.00  0.00     0.003 A 
ENDROOT
TORSDOF 0
ENDMDL
