MODEL 1
REMARK minimizedAffinity -1.39100921
REMARK minimizedRMSD -1
REMARK  0 active torsions:
REMARK  status: ('A' for Active; 'I' for Inactive)
ROOT
ATOM      1  C4' PXY d   1       1.972   1.447   0.787  0.00  0.00     0.077 C 
ATOM      2  C1' PXY d   1      -2.512  -1.410  -1.483  0.00  0.00     0.077 C 
ATOM      3  C1  PXY d   1      -1.340  -0.663  -0.876  0.00  0.00    -0.082 A 
ATOM      4  C2  PXY d   1      -0.711   0.257  -1.589  0.00  0.00     0.003 A 
ATOM      5  C3  PXY d   1       0.370   0.919  -1.067  0.00  0.00     0.003 A 
ATOM      6  C4  PXY d   1       0.778   0.675   0.218  0.00  0.00    -0.082 A 
ATOM      7  C5  PXY d   1       0.134  -0.254   0.955  0.00  0.00     0.003 A 
ATOM      8  C6  PXY d   1      -0.935  -0.945   0.392  0.00  0.00     0.003 A 
ENDROOT
TORSDOF 0
ENDMDL
