MODEL 1
REMARK minimizedAffinity -1.16447651
REMARK minimizedRMSD -1
REMARK  0 active torsions:
REMARK  status: ('A' for Active; 'I' for Inactive)
ROOT
ATOM      1  C4' PXY d   1       2.033   1.153   0.980  0.00  0.00     0.077 C 
ATOM      2  C1' PXY d   1      -2.950  -1.250  -0.694  0.00  0.00     0.077 C 
ATOM      3  C1  PXY d   1      -1.646  -0.624  -0.243  0.00  0.00    -0.082 A 
ATOM      4  C2  PXY d   1      -1.094   0.333  -0.971  0.00  0.00     0.003 A 
ATOM      5  C3  PXY d   1       0.102   0.889  -0.594  0.00  0.00     0.003 A 
ATOM      6  C4  PXY d   1       0.712   0.498   0.568  0.00  0.00    -0.082 A 
ATOM      7  C5  PXY d   1       0.149  -0.470   1.322  0.00  0.00     0.003 A 
ATOM      8  C6  PXY d   1      -1.044  -1.050   0.900  0.00  0.00     0.003 A 
ENDROOT
TORSDOF 0
ENDMDL
