MODEL 1
REMARK minimizedAffinity -2.26480913
REMARK minimizedRMSD -1
REMARK  0 active torsions:
REMARK  status: ('A' for Active; 'I' for Inactive)
ROOT
ATOM      1  C4' PXY d   1       1.941   1.491   0.728  0.00  0.00     0.077 C 
ATOM      2  C1' PXY d   1      -3.038  -0.999  -0.831  0.00  0.00     0.077 C 
ATOM      3  C1  PXY d   1      -1.732  -0.353  -0.411  0.00  0.00    -0.082 A 
ATOM      4  C2  PXY d   1      -1.431   0.859  -0.848  0.00  0.00     0.003 A 
ATOM      5  C3  PXY d   1      -0.240   1.444  -0.505  0.00  0.00     0.003 A 
ATOM      6  C4  PXY d   1       0.629   0.804   0.338  0.00  0.00    -0.082 A 
ATOM      7  C5  PXY d   1       0.325  -0.428   0.796  0.00  0.00     0.003 A 
ATOM      8  C6  PXY d   1      -0.871  -1.022   0.403  0.00  0.00     0.003 A 
ENDROOT
TORSDOF 0
ENDMDL
