MODEL 1
REMARK minimizedAffinity 1.08068824
REMARK minimizedRMSD -1
REMARK  0 active torsions:
REMARK  status: ('A' for Active; 'I' for Inactive)
ROOT
ATOM      1  C4' PXY d   1      -1.454  -1.600  -1.510  0.00  0.00     0.077 C 
ATOM      2  C1' PXY d   1       1.939   2.146   1.295  0.00  0.00     0.077 C 
ATOM      3  C1  PXY d   1       1.045   1.159   0.571  0.00  0.00    -0.082 A 
ATOM      4  C2  PXY d   1       1.311   0.835  -0.684  0.00  0.00     0.003 A 
ATOM      5  C3  PXY d   1       0.495  -0.032  -1.364  0.00  0.00     0.003 A 
ATOM      6  C4  PXY d   1      -0.574  -0.614  -0.737  0.00  0.00    -0.082 A 
ATOM      7  C5  PXY d   1      -0.845  -0.297   0.547  0.00  0.00     0.003 A 
ATOM      8  C6  PXY d   1      -0.028   0.616   1.207  0.00  0.00     0.003 A 
ENDROOT
TORSDOF 0
ENDMDL
