MODEL 1
REMARK minimizedAffinity -3.58989978
REMARK minimizedRMSD -1
REMARK  0 active torsions:
REMARK  status: ('A' for Active; 'I' for Inactive)
ROOT
ATOM      1  C4' PXY d   1      -2.402  -1.053  -1.560  0.00  0.00     0.077 C 
ATOM      2  C1' PXY d   1       1.965   1.630   1.113  0.00  0.00     0.077 C 
ATOM      3  C1  PXY d   1       0.816   0.921   0.423  0.00  0.00    -0.082 A 
ATOM      4  C2  PXY d   1       0.889   0.664  -0.873  0.00  0.00     0.003 A 
ATOM      5  C3  PXY d   1      -0.154   0.052  -1.519  0.00  0.00     0.003 A 
ATOM      6  C4  PXY d   1      -1.262  -0.348  -0.821  0.00  0.00    -0.082 A 
ATOM      7  C5  PXY d   1      -1.339  -0.099   0.504  0.00  0.00     0.003 A 
ATOM      8  C6  PXY d   1      -0.287   0.560   1.133  0.00  0.00     0.003 A 
ENDROOT
TORSDOF 0
ENDMDL
