MODEL 1
REMARK minimizedAffinity -4.43669033
REMARK minimizedRMSD -1
REMARK  0 active torsions:
REMARK  status: ('A' for Active; 'I' for Inactive)
ROOT
ATOM      1  C4' PXY d   1       2.417   0.024  -0.001  0.00  0.00     0.077 C 
ATOM      2  C1' PXY d   1      -3.341  -0.479  -0.043  0.00  0.00     0.077 C 
ATOM      3  C1  PXY d   1      -1.831  -0.347  -0.019  0.00  0.00    -0.082 A 
ATOM      4  C2  PXY d   1      -1.204   0.181  -1.058  0.00  0.00     0.003 A 
ATOM      5  C3  PXY d   1       0.164   0.279  -1.066  0.00  0.00     0.003 A 
ATOM      6  C4  PXY d   1       0.893  -0.120   0.022  0.00  0.00    -0.082 A 
ATOM      7  C5  PXY d   1       0.260  -0.650   1.090  0.00  0.00     0.003 A 
ATOM      8  C6  PXY d   1      -1.126  -0.778   1.062  0.00  0.00     0.003 A 
ENDROOT
TORSDOF 0
ENDMDL
