MODEL 1
REMARK minimizedAffinity -4.356915
REMARK minimizedRMSD -1
REMARK  0 active torsions:
REMARK  status: ('A' for Active; 'I' for Inactive)
ROOT
ATOM      1  C4' PXY d   1      -3.344  -0.774  -0.380  0.00  0.00     0.077 C 
ATOM      2  C1' PXY d   1       2.271   0.431   0.281  0.00  0.00     0.077 C 
ATOM      3  C1  PXY d   1       0.797   0.124   0.099  0.00  0.00    -0.082 A 
ATOM      4  C2  PXY d   1       0.133  -0.491   1.063  0.00  0.00     0.003 A 
ATOM      5  C3  PXY d   1      -1.192  -0.804   0.902  0.00  0.00     0.003 A 
ATOM      6  C4  PXY d   1      -1.858  -0.436  -0.236  0.00  0.00    -0.082 A 
ATOM      7  C5  PXY d   1      -1.190   0.202  -1.221  0.00  0.00     0.003 A 
ATOM      8  C6  PXY d   1       0.165   0.474  -1.055  0.00  0.00     0.003 A 
ENDROOT
TORSDOF 0
ENDMDL
