MODEL 1
REMARK minimizedAffinity -4.63298035
REMARK minimizedRMSD -1
REMARK  0 active torsions:
REMARK  status: ('A' for Active; 'I' for Inactive)
ROOT
ATOM      1  C4' PXY d   1       0.891   0.689   0.052  0.00  0.00     0.077 C 
ATOM      2  C1' PXY d   1      -4.282  -1.890   0.135  0.00  0.00     0.077 C 
ATOM      3  C1  PXY d   1      -2.923  -1.218   0.101  0.00  0.00    -0.082 A 
ATOM      4  C2  PXY d   1      -2.295  -0.955   1.235  0.00  0.00     0.003 A 
ATOM      5  C3  PXY d   1      -1.081  -0.319   1.224  0.00  0.00     0.003 A 
ATOM      6  C4  PXY d   1      -0.478   0.003   0.038  0.00  0.00    -0.082 A 
ATOM      7  C5  PXY d   1      -1.107  -0.272  -1.124  0.00  0.00     0.003 A 
ATOM      8  C6  PXY d   1      -2.358  -0.881  -1.090  0.00  0.00     0.003 A 
ENDROOT
TORSDOF 0
ENDMDL
