MODEL 1
REMARK minimizedAffinity -3.41201329
REMARK minimizedRMSD -1
REMARK  0 active torsions:
REMARK  status: ('A' for Active; 'I' for Inactive)
ROOT
ATOM      1  C4' PXY d   1       1.939   0.616   0.049  0.00  0.00     0.077 C 
ATOM      2  C1' PXY d   1      -3.463  -1.439  -0.071  0.00  0.00     0.077 C 
ATOM      3  C1  PXY d   1      -2.045  -0.903  -0.027  0.00  0.00    -0.082 A 
ATOM      4  C2  PXY d   1      -1.650  -0.023  -0.933  0.00  0.00     0.003 A 
ATOM      5  C3  PXY d   1      -0.362   0.448  -0.927  0.00  0.00     0.003 A 
ATOM      6  C4  PXY d   1       0.515   0.055   0.049  0.00  0.00    -0.082 A 
ATOM      7  C5  PXY d   1       0.116  -0.834   0.983  0.00  0.00     0.003 A 
ATOM      8  C6  PXY d   1      -1.184  -1.331   0.935  0.00  0.00     0.003 A 
ENDROOT
TORSDOF 0
ENDMDL
