MODEL 1
REMARK minimizedAffinity -3.09717202
REMARK minimizedRMSD -1
REMARK  0 active torsions:
REMARK  status: ('A' for Active; 'I' for Inactive)
ROOT
ATOM      1  C4' PXY d   1       2.224   0.545   0.582  0.00  0.00     0.077 C 
ATOM      2  C1' PXY d   1      -3.158  -1.417  -0.191  0.00  0.00     0.077 C 
ATOM      3  C1  PXY d   1      -1.747  -0.907   0.024  0.00  0.00    -0.082 A 
ATOM      4  C2  PXY d   1      -1.271   0.048  -0.759  0.00  0.00     0.003 A 
ATOM      5  C3  PXY d   1       0.014   0.499  -0.599  0.00  0.00     0.003 A 
ATOM      6  C4  PXY d   1       0.802   0.005   0.407  0.00  0.00    -0.082 A 
ATOM      7  C5  PXY d   1       0.319  -0.961   1.217  0.00  0.00     0.003 A 
ATOM      8  C6  PXY d   1      -0.974  -1.434   1.011  0.00  0.00     0.003 A 
ENDROOT
TORSDOF 0
ENDMDL
