MODEL 1
REMARK minimizedAffinity -1.61465573
REMARK minimizedRMSD -1
REMARK  0 active torsions:
REMARK  status: ('A' for Active; 'I' for Inactive)
ROOT
ATOM      1  C4' PXY d   1       2.243   1.232   1.279  0.00  0.00     0.077 C 
ATOM      2  C1' PXY d   1      -2.592  -1.223  -0.723  0.00  0.00     0.077 C 
ATOM      3  C1  PXY d   1      -1.324  -0.588  -0.189  0.00  0.00    -0.082 A 
ATOM      4  C2  PXY d   1      -1.066   0.682  -0.455  0.00  0.00     0.003 A 
ATOM      5  C3  PXY d   1       0.092   1.264  -0.006  0.00  0.00     0.003 A 
ATOM      6  C4  PXY d   1       0.970   0.552   0.768  0.00  0.00    -0.082 A 
ATOM      7  C5  PXY d   1       0.708  -0.741   1.053  0.00  0.00     0.003 A 
ATOM      8  C6  PXY d   1      -0.453  -1.324   0.553  0.00  0.00     0.003 A 
ENDROOT
TORSDOF 0
ENDMDL
