MODEL 1
REMARK minimizedAffinity -1.05939472
REMARK minimizedRMSD -1
REMARK  0 active torsions:
REMARK  status: ('A' for Active; 'I' for Inactive)
ROOT
ATOM      1  C4' PXY d   1       2.603   1.122   0.356  0.00  0.00     0.077 C 
ATOM      2  C1' PXY d   1      -2.438  -1.629   1.017  0.00  0.00     0.077 C 
ATOM      3  C1  PXY d   1      -1.113  -0.912   0.855  0.00  0.00    -0.082 A 
ATOM      4  C2  PXY d   1      -1.031   0.142   0.059  0.00  0.00     0.003 A 
ATOM      5  C3  PXY d   1       0.167   0.782  -0.124  0.00  0.00     0.003 A 
ATOM      6  C4  PXY d   1       1.282   0.373   0.557  0.00  0.00    -0.082 A 
ATOM      7  C5  PXY d   1       1.205  -0.694   1.380  0.00  0.00     0.003 A 
ATOM      8  C6  PXY d   1      -0.011  -1.356   1.519  0.00  0.00     0.003 A 
ENDROOT
TORSDOF 0
ENDMDL
