MODEL 1
REMARK minimizedAffinity -4.94364452
REMARK minimizedRMSD -1
REMARK  0 active torsions:
REMARK  status: ('A' for Active; 'I' for Inactive)
ROOT
ATOM      1  C4' PXY d   1       1.414   0.546   0.193  0.00  0.00     0.077 C 
ATOM      2  C1' PXY d   1      -3.789  -1.960   0.435  0.00  0.00     0.077 C 
ATOM      3  C1  PXY d   1      -2.427  -1.299   0.359  0.00  0.00    -0.082 A 
ATOM      4  C2  PXY d   1      -1.468  -1.680   1.188  0.00  0.00     0.003 A 
ATOM      5  C3  PXY d   1      -0.240  -1.071   1.154  0.00  0.00     0.003 A 
ATOM      6  C4  PXY d   1       0.026  -0.099   0.228  0.00  0.00    -0.082 A 
ATOM      7  C5  PXY d   1      -0.943   0.287  -0.628  0.00  0.00     0.003 A 
ATOM      8  C6  PXY d   1      -2.196  -0.314  -0.551  0.00  0.00     0.003 A 
ENDROOT
TORSDOF 0
ENDMDL
