MODEL 1
REMARK minimizedAffinity -5.60228252
REMARK minimizedRMSD -1
REMARK  0 active torsions:
REMARK  status: ('A' for Active; 'I' for Inactive)
ROOT
ATOM      1  C4' PXY d   1       1.858   0.479   0.110  0.00  0.00     0.077 C 
ATOM      2  C1' PXY d   1      -3.523  -1.561  -0.438  0.00  0.00     0.077 C 
ATOM      3  C1  PXY d   1      -2.113  -1.027  -0.281  0.00  0.00    -0.082 A 
ATOM      4  C2  PXY d   1      -1.582  -0.290  -1.243  0.00  0.00     0.003 A 
ATOM      5  C3  PXY d   1      -0.297   0.175  -1.132  0.00  0.00     0.003 A 
ATOM      6  C4  PXY d   1       0.434  -0.074  -0.001  0.00  0.00    -0.082 A 
ATOM      7  C5  PXY d   1      -0.104  -0.816   0.990  0.00  0.00     0.003 A 
ATOM      8  C6  PXY d   1      -1.396  -1.313   0.839  0.00  0.00     0.003 A 
ENDROOT
TORSDOF 0
ENDMDL
