MODEL 1
REMARK minimizedAffinity -0.999366164
REMARK minimizedRMSD -1
REMARK  0 active torsions:
REMARK  status: ('A' for Active; 'I' for Inactive)
ROOT
ATOM      1  C4' PXY d   1       0.347   0.745  -2.268  0.00  0.00     0.077 C 
ATOM      2  C1' PXY d   1      -1.026  -1.927   2.671  0.00  0.00     0.077 C 
ATOM      3  C1  PXY d   1      -0.656  -1.221   1.382  0.00  0.00    -0.082 A 
ATOM      4  C2  PXY d   1      -1.587  -0.993   0.470  0.00  0.00     0.003 A 
ATOM      5  C3  PXY d   1      -1.263  -0.384  -0.715  0.00  0.00     0.003 A 
ATOM      6  C4  PXY d   1       0.017   0.043  -0.947  0.00  0.00    -0.082 A 
ATOM      7  C5  PXY d   1       0.970  -0.176  -0.018  0.00  0.00     0.003 A 
ATOM      8  C6  PXY d   1       0.630  -0.833   1.161  0.00  0.00     0.003 A 
ENDROOT
TORSDOF 0
ENDMDL
