MODEL 1
REMARK minimizedAffinity -2.41596007
REMARK minimizedRMSD -1
REMARK  0 active torsions:
REMARK  status: ('A' for Active; 'I' for Inactive)
ROOT
ATOM      1  C4' PXY d   1       2.309   0.408   0.006  0.00  0.00     0.077 C 
ATOM      2  C1' PXY d   1      -3.353  -0.753  -0.034  0.00  0.00     0.077 C 
ATOM      3  C1  PXY d   1      -1.867  -0.454  -0.036  0.00  0.00    -0.082 A 
ATOM      4  C2  PXY d   1      -1.217  -0.362   1.113  0.00  0.00     0.003 A 
ATOM      5  C3  PXY d   1       0.120  -0.060   1.131  0.00  0.00     0.003 A 
ATOM      6  C4  PXY d   1       0.811   0.097  -0.040  0.00  0.00    -0.082 A 
ATOM      7  C5  PXY d   1       0.157  -0.005  -1.217  0.00  0.00     0.003 A 
ATOM      8  C6  PXY d   1      -1.209  -0.271  -1.213  0.00  0.00     0.003 A 
ENDROOT
TORSDOF 0
ENDMDL
