MODEL 1
REMARK minimizedAffinity 3.36958003
REMARK minimizedRMSD -1
REMARK  0 active torsions:
REMARK  status: ('A' for Active; 'I' for Inactive)
ROOT
ATOM      1  C4' PXY d   1      -1.344  -2.449   2.900  0.00  0.00     0.077 C 
ATOM      2  C1' PXY d   1       0.923   0.840  -1.279  0.00  0.00     0.077 C 
ATOM      3  C1  PXY d   1       0.319  -0.014  -0.181  0.00  0.00    -0.082 A 
ATOM      4  C2  PXY d   1       1.081  -0.878   0.469  0.00  0.00     0.003 A 
ATOM      5  C3  PXY d   1       0.544  -1.680   1.443  0.00  0.00     0.003 A 
ATOM      6  C4  PXY d   1      -0.775  -1.560   1.791  0.00  0.00    -0.082 A 
ATOM      7  C5  PXY d   1      -1.556  -0.673   1.139  0.00  0.00     0.003 A 
ATOM      8  C6  PXY d   1      -1.001   0.103   0.125  0.00  0.00     0.003 A 
ENDROOT
TORSDOF 0
ENDMDL
