MODEL 1
REMARK minimizedAffinity -1.22527087
REMARK minimizedRMSD -1
REMARK  0 active torsions:
REMARK  status: ('A' for Active; 'I' for Inactive)
ROOT
ATOM      1  C4' PXY d   1       1.616   0.478  -0.145  0.00  0.00     0.077 C 
ATOM      2  C1' PXY d   1      -3.828  -1.457   0.046  0.00  0.00     0.077 C 
ATOM      3  C1  PXY d   1      -2.398  -0.956  -0.016  0.00  0.00    -0.082 A 
ATOM      4  C2  PXY d   1      -1.773  -0.624   1.102  0.00  0.00     0.003 A 
ATOM      5  C3  PXY d   1      -0.491  -0.139   1.062  0.00  0.00     0.003 A 
ATOM      6  C4  PXY d   1       0.176  -0.042  -0.130  0.00  0.00    -0.082 A 
ATOM      7  C5  PXY d   1      -0.452  -0.388  -1.274  0.00  0.00     0.003 A 
ATOM      8  C6  PXY d   1      -1.767  -0.839  -1.216  0.00  0.00     0.003 A 
ENDROOT
TORSDOF 0
ENDMDL
