MODEL 1
REMARK minimizedAffinity -4.83433342
REMARK minimizedRMSD -1
REMARK  0 active torsions:
REMARK  status: ('A' for Active; 'I' for Inactive)
ROOT
ATOM      1  C   UNL d   1       1.402   3.066   1.183  0.00  0.00     0.077 C 
ATOM      2  C1  UNL d   1       1.502   1.790   0.401  0.00  0.00    -0.074 A 
ATOM      3  C2  UNL d   1       2.674   1.458  -0.287  0.00  0.00    -0.005 A 
ATOM      4  C3  UNL d   1       2.754   0.263  -1.002  0.00  0.00     0.006 A 
ATOM      5  C4  UNL d   1       1.666  -0.610  -1.037  0.00  0.00    -0.005 A 
ATOM      6  C5  UNL d   1       0.487  -0.295  -0.355  0.00  0.00    -0.074 A 
ATOM      7  C6  UNL d   1      -0.689  -1.226  -0.375  0.00  0.00     0.077 C 
ATOM      8  C7  UNL d   1       0.416   0.904   0.367  0.00  0.00    -0.001 A 
ENDROOT
TORSDOF 0
ENDMDL
