MODEL 1
REMARK minimizedAffinity 7.34832191
REMARK minimizedRMSD -1
REMARK  0 active torsions:
REMARK  status: ('A' for Active; 'I' for Inactive)
ROOT
ATOM      1  C   UNL d   1       5.913   1.480  -3.384  0.00  0.00     0.077 C 
ATOM      2  C1  UNL d   1       5.448   2.896  -3.559  0.00  0.00    -0.074 A 
ATOM      3  C2  UNL d   1       4.571   3.483  -2.642  0.00  0.00    -0.005 A 
ATOM      4  C3  UNL d   1       4.155   4.803  -2.813  0.00  0.00     0.006 A 
ATOM      5  C4  UNL d   1       4.612   5.549  -3.900  0.00  0.00    -0.005 A 
ATOM      6  C5  UNL d   1       5.490   4.979  -4.827  0.00  0.00    -0.074 A 
ATOM      7  C6  UNL d   1       5.998   5.769  -5.997  0.00  0.00     0.077 C 
ATOM      8  C7  UNL d   1       5.909   3.653  -4.645  0.00  0.00    -0.001 A 
ENDROOT
TORSDOF 0
ENDMDL
