MODEL 1
REMARK minimizedAffinity 6.51169443
REMARK minimizedRMSD -1
REMARK  0 active torsions:
REMARK  status: ('A' for Active; 'I' for Inactive)
ROOT
ATOM      1  C   UNL d   1      -2.498   2.133   2.741  0.00  0.00     0.077 C 
ATOM      2  C1  UNL d   1      -1.049   1.861   2.465  0.00  0.00    -0.074 A 
ATOM      3  C2  UNL d   1      -0.469   0.635   2.808  0.00  0.00    -0.005 A 
ATOM      4  C3  UNL d   1       0.877   0.393   2.537  0.00  0.00     0.006 A 
ATOM      5  C4  UNL d   1       1.657   1.372   1.921  0.00  0.00    -0.005 A 
ATOM      6  C5  UNL d   1       1.095   2.604   1.569  0.00  0.00    -0.074 A 
ATOM      7  C6  UNL d   1       1.916   3.664   0.898  0.00  0.00     0.077 C 
ATOM      8  C7  UNL d   1      -0.261   2.837   1.839  0.00  0.00    -0.001 A 
ENDROOT
TORSDOF 0
ENDMDL
