MODEL 1
REMARK minimizedAffinity 4.14858103
REMARK minimizedRMSD -1
REMARK  0 active torsions:
REMARK  status: ('A' for Active; 'I' for Inactive)
ROOT
ATOM      1  C   UNL d   1       2.241   0.550  -0.019  0.00  0.00     0.077 C 
ATOM      2  C1  UNL d   1       1.423   1.382   0.923  0.00  0.00    -0.074 A 
ATOM      3  C2  UNL d   1       1.962   2.520   1.532  0.00  0.00    -0.005 A 
ATOM      4  C3  UNL d   1       1.186   3.289   2.398  0.00  0.00     0.006 A 
ATOM      5  C4  UNL d   1      -0.136   2.929   2.665  0.00  0.00    -0.005 A 
ATOM      6  C5  UNL d   1      -0.693   1.796   2.064  0.00  0.00    -0.074 A 
ATOM      7  C6  UNL d   1      -2.115   1.401   2.332  0.00  0.00     0.077 C 
ATOM      8  C7  UNL d   1       0.092   1.032   1.189  0.00  0.00    -0.001 A 
ENDROOT
TORSDOF 0
ENDMDL
