MODEL 1
REMARK minimizedAffinity 4.50782299
REMARK minimizedRMSD -1
REMARK  0 active torsions:
REMARK  status: ('A' for Active; 'I' for Inactive)
ROOT
ATOM      1  C   UNL d   1      -0.055   2.481   2.275  0.00  0.00     0.077 C 
ATOM      2  C1  UNL d   1       1.139   2.091   1.456  0.00  0.00    -0.074 A 
ATOM      3  C2  UNL d   1       2.304   2.865   1.469  0.00  0.00    -0.005 A 
ATOM      4  C3  UNL d   1       3.410   2.484   0.709  0.00  0.00     0.006 A 
ATOM      5  C4  UNL d   1       3.363   1.327  -0.069  0.00  0.00    -0.005 A 
ATOM      6  C5  UNL d   1       2.207   0.539  -0.093  0.00  0.00    -0.074 A 
ATOM      7  C6  UNL d   1       2.144  -0.713  -0.917  0.00  0.00     0.077 C 
ATOM      8  C7  UNL d   1       1.102   0.925   0.678  0.00  0.00    -0.001 A 
ENDROOT
TORSDOF 0
ENDMDL
