MODEL 1
REMARK minimizedAffinity 9.14063454
REMARK minimizedRMSD -1
REMARK  0 active torsions:
REMARK  status: ('A' for Active; 'I' for Inactive)
ROOT
ATOM      1  C   UNL d   1      -0.041   2.870  -2.873  0.00  0.00     0.077 C 
ATOM      2  C1  UNL d   1       0.714   1.636  -2.479  0.00  0.00    -0.074 A 
ATOM      3  C2  UNL d   1       1.376   1.560  -1.249  0.00  0.00    -0.005 A 
ATOM      4  C3  UNL d   1       2.067   0.402  -0.892  0.00  0.00     0.006 A 
ATOM      5  C4  UNL d   1       2.104  -0.690  -1.761  0.00  0.00    -0.005 A 
ATOM      6  C5  UNL d   1       1.448  -0.632  -2.995  0.00  0.00    -0.074 A 
ATOM      7  C6  UNL d   1       1.469  -1.800  -3.935  0.00  0.00     0.077 C 
ATOM      8  C7  UNL d   1       0.750   0.532  -3.343  0.00  0.00    -0.001 A 
ENDROOT
TORSDOF 0
ENDMDL
