MODEL 1
REMARK minimizedAffinity 6.01839399
REMARK minimizedRMSD -1
REMARK  0 active torsions:
REMARK  status: ('A' for Active; 'I' for Inactive)
ROOT
ATOM      1  C   UNL d   1       3.511   1.843   0.042  0.00  0.00     0.077 C 
ATOM      2  C1  UNL d   1       2.242   2.098   0.800  0.00  0.00    -0.074 A 
ATOM      3  C2  UNL d   1       1.661   3.370   0.821  0.00  0.00    -0.005 A 
ATOM      4  C3  UNL d   1       0.475   3.589   1.522  0.00  0.00     0.006 A 
ATOM      5  C4  UNL d   1      -0.140   2.541   2.208  0.00  0.00    -0.005 A 
ATOM      6  C5  UNL d   1       0.426   1.262   2.197  0.00  0.00    -0.074 A 
ATOM      7  C6  UNL d   1      -0.227   0.122   2.921  0.00  0.00     0.077 C 
ATOM      8  C7  UNL d   1       1.614   1.048   1.484  0.00  0.00    -0.001 A 
ENDROOT
TORSDOF 0
ENDMDL
