MODEL 1
REMARK minimizedAffinity 6.24073744
REMARK minimizedRMSD -1
REMARK  0 active torsions:
REMARK  status: ('A' for Active; 'I' for Inactive)
ROOT
ATOM      1  C   UNL d   1      -0.623  -2.259  -2.774  0.00  0.00     0.077 C 
ATOM      2  C1  UNL d   1      -0.080  -0.947  -2.290  0.00  0.00    -0.074 A 
ATOM      3  C2  UNL d   1      -0.289   0.230  -3.016  0.00  0.00    -0.005 A 
ATOM      4  C3  UNL d   1       0.214   1.444  -2.548  0.00  0.00     0.006 A 
ATOM      5  C4  UNL d   1       0.931   1.493  -1.352  0.00  0.00    -0.005 A 
ATOM      6  C5  UNL d   1       1.150   0.326  -0.612  0.00  0.00    -0.074 A 
ATOM      7  C6  UNL d   1       1.910   0.363   0.680  0.00  0.00     0.077 C 
ATOM      8  C7  UNL d   1       0.635  -0.888  -1.085  0.00  0.00    -0.001 A 
ENDROOT
TORSDOF 0
ENDMDL
