MODEL 1
REMARK minimizedAffinity 1.67606068
REMARK minimizedRMSD -1
REMARK  0 active torsions:
REMARK  status: ('A' for Active; 'I' for Inactive)
ROOT
ATOM      1  C   UNL d   1       1.117   1.857   2.163  0.00  0.00     0.077 C 
ATOM      2  C1  UNL d   1       1.758   0.946   1.159  0.00  0.00    -0.074 A 
ATOM      3  C2  UNL d   1       1.254  -0.338   0.927  0.00  0.00    -0.005 A 
ATOM      4  C3  UNL d   1       1.855  -1.170  -0.017  0.00  0.00     0.006 A 
ATOM      5  C4  UNL d   1       2.965  -0.728  -0.738  0.00  0.00    -0.005 A 
ATOM      6  C5  UNL d   1       3.483   0.553  -0.520  0.00  0.00    -0.074 A 
ATOM      7  C6  UNL d   1       4.670   1.047  -1.292  0.00  0.00     0.077 C 
ATOM      8  C7  UNL d   1       2.869   1.386   0.426  0.00  0.00    -0.001 A 
ENDROOT
TORSDOF 0
ENDMDL
