MODEL 1
REMARK minimizedAffinity 12.3747196
REMARK minimizedRMSD -1
REMARK  0 active torsions:
REMARK  status: ('A' for Active; 'I' for Inactive)
ROOT
ATOM      1  C   UNL d   1       1.565  -1.518  -4.040  0.00  0.00     0.077 C 
ATOM      2  C1  UNL d   1       1.417  -0.483  -2.966  0.00  0.00    -0.074 A 
ATOM      3  C2  UNL d   1       2.100  -0.604  -1.751  0.00  0.00    -0.005 A 
ATOM      4  C3  UNL d   1       1.960   0.372  -0.765  0.00  0.00     0.006 A 
ATOM      5  C4  UNL d   1       1.137   1.478  -0.982  0.00  0.00    -0.005 A 
ATOM      6  C5  UNL d   1       0.447   1.617  -2.190  0.00  0.00    -0.074 A 
ATOM      7  C6  UNL d   1      -0.434   2.804  -2.444  0.00  0.00     0.077 C 
ATOM      8  C7  UNL d   1       0.598   0.635  -3.179  0.00  0.00    -0.001 A 
ENDROOT
TORSDOF 0
ENDMDL
