MODEL 1
REMARK minimizedAffinity 7.44479275
REMARK minimizedRMSD -1
REMARK  0 active torsions:
REMARK  status: ('A' for Active; 'I' for Inactive)
ROOT
ATOM      1  C   UNL d   1       3.741   0.536   0.306  0.00  0.00     0.077 C 
ATOM      2  C1  UNL d   1       2.790   1.588   0.797  0.00  0.00    -0.074 A 
ATOM      3  C2  UNL d   1       2.958   2.930   0.441  0.00  0.00    -0.005 A 
ATOM      4  C3  UNL d   1       2.061   3.896   0.897  0.00  0.00     0.006 A 
ATOM      5  C4  UNL d   1       0.988   3.530   1.712  0.00  0.00    -0.005 A 
ATOM      6  C5  UNL d   1       0.804   2.192   2.077  0.00  0.00    -0.074 A 
ATOM      7  C6  UNL d   1      -0.348   1.780   2.943  0.00  0.00     0.077 C 
ATOM      8  C7  UNL d   1       1.706   1.227   1.609  0.00  0.00    -0.001 A 
ENDROOT
TORSDOF 0
ENDMDL
