MODEL 1
REMARK minimizedAffinity 6.70245409
REMARK minimizedRMSD -1
REMARK  0 active torsions:
REMARK  status: ('A' for Active; 'I' for Inactive)
ROOT
ATOM      1  C   UNL d   1       1.689  -0.511  -1.136  0.00  0.00     0.077 C 
ATOM      2  C1  UNL d   1       1.949   0.588  -0.148  0.00  0.00    -0.074 A 
ATOM      3  C2  UNL d   1       3.189   1.234  -0.102  0.00  0.00    -0.005 A 
ATOM      4  C3  UNL d   1       3.412   2.261   0.816  0.00  0.00     0.006 A 
ATOM      5  C4  UNL d   1       2.401   2.650   1.695  0.00  0.00    -0.005 A 
ATOM      6  C5  UNL d   1       1.155   2.016   1.663  0.00  0.00    -0.074 A 
ATOM      7  C6  UNL d   1       0.054   2.429   2.594  0.00  0.00     0.077 C 
ATOM      8  C7  UNL d   1       0.936   0.990   0.733  0.00  0.00    -0.001 A 
ENDROOT
TORSDOF 0
ENDMDL
