MODEL 1
REMARK minimizedAffinity 12.6627779
REMARK minimizedRMSD -1
REMARK  0 active torsions:
REMARK  status: ('A' for Active; 'I' for Inactive)
ROOT
ATOM      1  C   UNL d   1       6.000   5.635  -5.927  0.00  0.00     0.077 C 
ATOM      2  C1  UNL d   1       5.865   4.685  -4.774  0.00  0.00    -0.074 A 
ATOM      3  C2  UNL d   1       5.597   5.153  -3.484  0.00  0.00    -0.005 A 
ATOM      4  C3  UNL d   1       5.464   4.256  -2.424  0.00  0.00     0.006 A 
ATOM      5  C4  UNL d   1       5.597   2.884  -2.643  0.00  0.00    -0.005 A 
ATOM      6  C5  UNL d   1       5.864   2.398  -3.927  0.00  0.00    -0.074 A 
ATOM      7  C6  UNL d   1       6.000   0.926  -4.182  0.00  0.00     0.077 C 
ATOM      8  C7  UNL d   1       5.989   3.305  -4.988  0.00  0.00    -0.001 A 
ENDROOT
TORSDOF 0
ENDMDL
