MODEL 1
REMARK minimizedAffinity 3.44804478
REMARK minimizedRMSD -1
REMARK  0 active torsions:
REMARK  status: ('A' for Active; 'I' for Inactive)
ROOT
ATOM      1  C   UNL d   1      -5.998  -5.639  -4.122  0.00  0.00     0.077 C 
ATOM      2  C1  UNL d   1      -4.941  -4.890  -3.367  0.00  0.00    -0.074 A 
ATOM      3  C2  UNL d   1      -4.919  -3.492  -3.357  0.00  0.00    -0.005 A 
ATOM      4  C3  UNL d   1      -3.935  -2.809  -2.641  0.00  0.00     0.006 A 
ATOM      5  C4  UNL d   1      -2.965  -3.516  -1.930  0.00  0.00    -0.005 A 
ATOM      6  C5  UNL d   1      -2.971  -4.914  -1.928  0.00  0.00    -0.074 A 
ATOM      7  C6  UNL d   1      -1.942  -5.690  -1.161  0.00  0.00     0.077 C 
ATOM      8  C7  UNL d   1      -3.967  -5.593  -2.643  0.00  0.00    -0.001 A 
ENDROOT
TORSDOF 0
ENDMDL
