MODEL 1
REMARK minimizedAffinity 8.03427601
REMARK minimizedRMSD -1
REMARK  0 active torsions:
REMARK  status: ('A' for Active; 'I' for Inactive)
ROOT
ATOM      1  C   UNL d   1      -3.081   0.627   3.060  0.00  0.00     0.077 C 
ATOM      2  C1  UNL d   1      -1.681   1.116   2.838  0.00  0.00    -0.074 A 
ATOM      3  C2  UNL d   1      -0.580   0.327   3.185  0.00  0.00    -0.005 A 
ATOM      4  C3  UNL d   1       0.716   0.792   2.963  0.00  0.00     0.006 A 
ATOM      5  C4  UNL d   1       0.924   2.048   2.393  0.00  0.00    -0.005 A 
ATOM      6  C5  UNL d   1      -0.165   2.851   2.038  0.00  0.00    -0.074 A 
ATOM      7  C6  UNL d   1       0.041   4.200   1.416  0.00  0.00     0.077 C 
ATOM      8  C7  UNL d   1      -1.464   2.374   2.258  0.00  0.00    -0.001 A 
ENDROOT
TORSDOF 0
ENDMDL
