MODEL 1
REMARK minimizedAffinity -1.46072221
REMARK minimizedRMSD -1
REMARK  0 active torsions:
REMARK  status: ('A' for Active; 'I' for Inactive)
ROOT
ATOM      1  C   UNL d   1       0.955  -0.882  -1.361  0.00  0.00     0.020 A 
ATOM      2  C1  UNL d   1      -0.268  -0.225  -1.231  0.00  0.00     0.020 A 
ATOM      3  C2  UNL d   1      -0.584   0.432  -0.040  0.00  0.00     0.034 A 
ATOM      4  C3  UNL d   1       0.324   0.433   1.026  0.00  0.00     0.017 A 
ATOM      5  C4  UNL d   1       1.551  -0.228   0.894  0.00  0.00     0.017 A 
ATOM      6  C5  UNL d   1       1.862  -0.884  -0.301  0.00  0.00     0.034 A 
ATOM      7 Cl   UNL d   1       2.721  -0.271   2.165  0.00  0.00    -0.070 Cl
ATOM      8 Cl1  UNL d   1      -0.133   1.265   2.469  0.00  0.00    -0.070 Cl
ENDROOT
TORSDOF 0
ENDMDL
