MODEL 1
REMARK minimizedAffinity -3.9058373
REMARK minimizedRMSD -1
REMARK  0 active torsions:
REMARK  status: ('A' for Active; 'I' for Inactive)
ROOT
ATOM      1  C   UNL d   1       0.640   1.290   2.268  0.00  0.00     0.020 A 
ATOM      2  C1  UNL d   1      -0.727   1.403   2.515  0.00  0.00     0.020 A 
ATOM      3  C2  UNL d   1      -1.648   0.922   1.582  0.00  0.00     0.034 A 
ATOM      4  C3  UNL d   1      -1.202   0.326   0.396  0.00  0.00     0.017 A 
ATOM      5  C4  UNL d   1       0.171   0.213   0.149  0.00  0.00     0.017 A 
ATOM      6  C5  UNL d   1       1.088   0.696   1.088  0.00  0.00     0.034 A 
ATOM      7 Cl   UNL d   1       0.798  -0.511  -1.290  0.00  0.00    -0.070 Cl
ATOM      8 Cl1  UNL d   1      -2.395  -0.247  -0.713  0.00  0.00    -0.070 Cl
ENDROOT
TORSDOF 0
ENDMDL
