MODEL 1
REMARK minimizedAffinity -1.75795972
REMARK minimizedRMSD -1
REMARK  0 active torsions:
REMARK  status: ('A' for Active; 'I' for Inactive)
ROOT
ATOM      1  C   UNL d   1       0.447  -0.760  -1.095  0.00  0.00     0.020 A 
ATOM      2  C1  UNL d   1      -0.779  -0.150  -0.834  0.00  0.00     0.020 A 
ATOM      3  C2  UNL d   1      -0.980   0.527   0.371  0.00  0.00     0.034 A 
ATOM      4  C3  UNL d   1       0.047   0.596   1.319  0.00  0.00     0.017 A 
ATOM      5  C4  UNL d   1       1.278  -0.016   1.056  0.00  0.00     0.017 A 
ATOM      6  C5  UNL d   1       1.474  -0.692  -0.152  0.00  0.00     0.034 A 
ATOM      7 Cl   UNL d   1       2.593   0.028   2.177  0.00  0.00    -0.070 Cl
ATOM      8 Cl1  UNL d   1      -0.270   1.450   2.787  0.00  0.00    -0.070 Cl
ENDROOT
TORSDOF 0
ENDMDL
