MODEL 1
REMARK minimizedAffinity -2.31547546
REMARK minimizedRMSD -1
REMARK  0 active torsions:
REMARK  status: ('A' for Active; 'I' for Inactive)
ROOT
ATOM      1  C   UNL d   1       1.282  -0.393   0.131  0.00  0.00     0.020 A 
ATOM      2  C1  UNL d   1       0.372  -1.004  -0.732  0.00  0.00     0.020 A 
ATOM      3  C2  UNL d   1      -0.976  -0.643  -0.694  0.00  0.00     0.034 A 
ATOM      4  C3  UNL d   1      -1.419   0.331   0.209  0.00  0.00     0.017 A 
ATOM      5  C4  UNL d   1      -0.506   0.943   1.075  0.00  0.00     0.017 A 
ATOM      6  C5  UNL d   1       0.844   0.578   1.032  0.00  0.00     0.034 A 
ATOM      7 Cl   UNL d   1      -0.977   2.152   2.216  0.00  0.00    -0.070 Cl
ATOM      8 Cl1  UNL d   1      -3.101   0.728   0.201  0.00  0.00    -0.070 Cl
ENDROOT
TORSDOF 0
ENDMDL
