MODEL 1
REMARK minimizedAffinity -4.0385952
REMARK minimizedRMSD -1
REMARK  0 active torsions:
REMARK  status: ('A' for Active; 'I' for Inactive)
ROOT
ATOM      1  C   UNL d   1      -2.665   0.749   0.806  0.00  0.00     0.020 A 
ATOM      2  C1  UNL d   1      -2.077   0.623   2.064  0.00  0.00     0.020 A 
ATOM      3  C2  UNL d   1      -0.744   0.221   2.174  0.00  0.00     0.034 A 
ATOM      4  C3  UNL d   1       0.005  -0.057   1.025  0.00  0.00     0.017 A 
ATOM      5  C4  UNL d   1      -0.586   0.070  -0.237  0.00  0.00     0.017 A 
ATOM      6  C5  UNL d   1      -1.921   0.473  -0.342  0.00  0.00     0.034 A 
ATOM      7 Cl   UNL d   1       0.274  -0.256  -1.701  0.00  0.00    -0.070 Cl
ATOM      8 Cl1  UNL d   1       1.647  -0.550   1.236  0.00  0.00    -0.070 Cl
ENDROOT
TORSDOF 0
ENDMDL
