MODEL 1
REMARK minimizedAffinity -4.68250513
REMARK minimizedRMSD -1
REMARK  0 active torsions:
REMARK  status: ('A' for Active; 'I' for Inactive)
ROOT
ATOM      1  C   UNL d   1       0.057   1.547   2.018  0.00  0.00     0.020 A 
ATOM      2  C1  UNL d   1      -1.218   1.166   2.435  0.00  0.00     0.020 A 
ATOM      3  C2  UNL d   1      -1.976   0.292   1.653  0.00  0.00     0.034 A 
ATOM      4  C3  UNL d   1      -1.460  -0.204   0.450  0.00  0.00     0.017 A 
ATOM      5  C4  UNL d   1      -0.180   0.179   0.033  0.00  0.00     0.017 A 
ATOM      6  C5  UNL d   1       0.574   1.055   0.820  0.00  0.00     0.034 A 
ATOM      7 Cl   UNL d   1       0.524  -0.391  -1.439  0.00  0.00    -0.070 Cl
ATOM      8 Cl1  UNL d   1      -2.453  -1.281  -0.466  0.00  0.00    -0.070 Cl
ENDROOT
TORSDOF 0
ENDMDL
