MODEL 1
REMARK minimizedAffinity 0.307869911
REMARK minimizedRMSD -1
REMARK  0 active torsions:
REMARK  status: ('A' for Active; 'I' for Inactive)
ROOT
ATOM      1  C   UNL d   1      -2.402  -3.695  -1.271  0.00  0.00     0.020 A 
ATOM      2  C1  UNL d   1      -1.141  -4.160  -1.639  0.00  0.00     0.020 A 
ATOM      3  C2  UNL d   1       0.005  -3.567  -1.105  0.00  0.00     0.034 A 
ATOM      4  C3  UNL d   1      -0.108  -2.505  -0.200  0.00  0.00     0.017 A 
ATOM      5  C4  UNL d   1      -1.375  -2.039   0.169  0.00  0.00     0.017 A 
ATOM      6  C5  UNL d   1      -2.519  -2.637  -0.368  0.00  0.00     0.034 A 
ATOM      7 Cl   UNL d   1      -1.595  -0.734   1.281  0.00  0.00    -0.070 Cl
ATOM      8 Cl1  UNL d   1       1.351  -1.820   0.421  0.00  0.00    -0.070 Cl
ENDROOT
TORSDOF 0
ENDMDL
