MODEL 1
REMARK minimizedAffinity 10.7519569
REMARK minimizedRMSD -1
REMARK  0 active torsions:
REMARK  status: ('A' for Active; 'I' for Inactive)
ROOT
ATOM      1  C   UNL d   1      -3.289  -2.283  -1.223  0.00  0.00     0.020 A 
ATOM      2  C1  UNL d   1      -2.812  -1.373  -0.281  0.00  0.00     0.020 A 
ATOM      3  C2  UNL d   1      -1.625  -1.637   0.407  0.00  0.00     0.034 A 
ATOM      4  C3  UNL d   1      -0.912  -2.814   0.155  0.00  0.00     0.017 A 
ATOM      5  C4  UNL d   1      -1.392  -3.728  -0.791  0.00  0.00     0.017 A 
ATOM      6  C5  UNL d   1      -2.580  -3.458  -1.477  0.00  0.00     0.034 A 
ATOM      7 Cl   UNL d   1      -0.567  -5.202  -1.157  0.00  0.00    -0.070 Cl
ATOM      8 Cl1  UNL d   1       0.547  -3.076   1.042  0.00  0.00    -0.070 Cl
ENDROOT
TORSDOF 0
ENDMDL
