MODEL 1
REMARK minimizedAffinity 0.071392715
REMARK minimizedRMSD -1
REMARK  0 active torsions:
REMARK  status: ('A' for Active; 'I' for Inactive)
ROOT
ATOM      1  C   UNL d   1      -2.782  -4.101  -1.140  0.00  0.00     0.020 A 
ATOM      2  C1  UNL d   1      -2.730  -5.429  -1.564  0.00  0.00     0.020 A 
ATOM      3  C2  UNL d   1      -1.512  -5.990  -1.953  0.00  0.00     0.034 A 
ATOM      4  C3  UNL d   1      -0.341  -5.223  -1.921  0.00  0.00     0.017 A 
ATOM      5  C4  UNL d   1      -0.395  -3.890  -1.496  0.00  0.00     0.017 A 
ATOM      6  C5  UNL d   1      -1.617  -3.334  -1.107  0.00  0.00     0.034 A 
ATOM      7 Cl   UNL d   1       1.007  -2.882  -1.429  0.00  0.00    -0.070 Cl
ATOM      8 Cl1  UNL d   1       1.130  -5.981  -2.417  0.00  0.00    -0.070 Cl
ENDROOT
TORSDOF 0
ENDMDL
