MODEL 1
REMARK minimizedAffinity 4.1086731
REMARK minimizedRMSD -1
REMARK  0 active torsions:
REMARK  status: ('A' for Active; 'I' for Inactive)
ROOT
ATOM      1  C   UNL d   1       3.236   1.702   1.702  0.00  0.00     0.020 A 
ATOM      2  C1  UNL d   1       4.560   2.135   1.760  0.00  0.00     0.020 A 
ATOM      3  C2  UNL d   1       4.880   3.312   2.440  0.00  0.00     0.034 A 
ATOM      4  C3  UNL d   1       3.875   4.059   3.065  0.00  0.00     0.017 A 
ATOM      5  C4  UNL d   1       2.546   3.623   3.006  0.00  0.00     0.017 A 
ATOM      6  C5  UNL d   1       2.231   2.444   2.324  0.00  0.00     0.034 A 
ATOM      7 Cl   UNL d   1       1.252   4.491   3.753  0.00  0.00    -0.070 Cl
ATOM      8 Cl1  UNL d   1       4.342   5.504   3.889  0.00  0.00    -0.070 Cl
ENDROOT
TORSDOF 0
ENDMDL
