MODEL 1
REMARK minimizedAffinity 10.7743874
REMARK minimizedRMSD -1
REMARK  0 active torsions:
REMARK  status: ('A' for Active; 'I' for Inactive)
ROOT
ATOM      1  C   UNL d   1       2.471   1.497   1.480  0.00  0.00     0.020 A 
ATOM      2  C1  UNL d   1       1.817   2.727   1.528  0.00  0.00     0.020 A 
ATOM      3  C2  UNL d   1       2.453   3.834   2.095  0.00  0.00     0.034 A 
ATOM      4  C3  UNL d   1       3.747   3.712   2.616  0.00  0.00     0.017 A 
ATOM      5  C4  UNL d   1       4.402   2.477   2.567  0.00  0.00     0.017 A 
ATOM      6  C5  UNL d   1       3.761   1.372   1.998  0.00  0.00     0.034 A 
ATOM      7 Cl   UNL d   1       5.998   2.249   3.189  0.00  0.00    -0.070 Cl
ATOM      8 Cl1  UNL d   1       4.472   5.122   3.302  0.00  0.00    -0.070 Cl
ENDROOT
TORSDOF 0
ENDMDL
