MODEL 1
REMARK minimizedAffinity 3.52355266
REMARK minimizedRMSD -1
REMARK  0 active torsions:
REMARK  status: ('A' for Active; 'I' for Inactive)
ROOT
ATOM      1  C   UNL d   1      -1.068  -2.007   0.459  0.00  0.00     0.020 A 
ATOM      2  C1  UNL d   1      -0.842  -3.162  -0.289  0.00  0.00     0.020 A 
ATOM      3  C2  UNL d   1      -1.817  -4.160  -0.343  0.00  0.00     0.034 A 
ATOM      4  C3  UNL d   1      -3.022  -4.005   0.352  0.00  0.00     0.017 A 
ATOM      5  C4  UNL d   1      -3.248  -2.845   1.102  0.00  0.00     0.017 A 
ATOM      6  C5  UNL d   1      -2.268  -1.849   1.153  0.00  0.00     0.034 A 
ATOM      7 Cl   UNL d   1      -4.710  -2.583   1.985  0.00  0.00    -0.070 Cl
ATOM      8 Cl1  UNL d   1      -4.184  -5.280   0.240  0.00  0.00    -0.070 Cl
ENDROOT
TORSDOF 0
ENDMDL
