MODEL 1
REMARK minimizedAffinity 7.06013966
REMARK minimizedRMSD -1
REMARK  0 active torsions:
REMARK  status: ('A' for Active; 'I' for Inactive)
ROOT
ATOM      1  C   UNL d   1       1.939  -0.139   0.338  0.00  0.00     0.020 A 
ATOM      2  C1  UNL d   1       2.620  -1.103  -0.404  0.00  0.00     0.020 A 
ATOM      3  C2  UNL d   1       2.004  -2.322  -0.697  0.00  0.00     0.034 A 
ATOM      4  C3  UNL d   1       0.703  -2.578  -0.249  0.00  0.00     0.017 A 
ATOM      5  C4  UNL d   1       0.020  -1.609   0.495  0.00  0.00     0.017 A 
ATOM      6  C5  UNL d   1       0.642  -0.391   0.786  0.00  0.00     0.034 A 
ATOM      7 Cl   UNL d   1      -1.587  -1.854   1.082  0.00  0.00    -0.070 Cl
ATOM      8 Cl1  UNL d   1       0.002  -4.106  -0.649  0.00  0.00    -0.070 Cl
ENDROOT
TORSDOF 0
ENDMDL
