MODEL 1
REMARK minimizedAffinity 13.6959095
REMARK minimizedRMSD -1
REMARK  0 active torsions:
REMARK  status: ('A' for Active; 'I' for Inactive)
ROOT
ATOM      1  C   UNL d   1      -5.451   1.405  -1.522  0.00  0.00     0.020 A 
ATOM      2  C1  UNL d   1      -5.139   2.627  -0.928  0.00  0.00     0.020 A 
ATOM      3  C2  UNL d   1      -4.229   2.677   0.131  0.00  0.00     0.034 A 
ATOM      4  C3  UNL d   1      -3.629   1.502   0.598  0.00  0.00     0.017 A 
ATOM      5  C4  UNL d   1      -3.943   0.276   0.001  0.00  0.00     0.017 A 
ATOM      6  C5  UNL d   1      -4.855   0.232  -1.058  0.00  0.00     0.034 A 
ATOM      7 Cl   UNL d   1      -3.243  -1.216   0.523  0.00  0.00    -0.070 Cl
ATOM      8 Cl1  UNL d   1      -2.512   1.637   1.910  0.00  0.00    -0.070 Cl
ENDROOT
TORSDOF 0
ENDMDL
