MODEL 1
REMARK minimizedAffinity 9.93944454
REMARK minimizedRMSD -1
REMARK  0 active torsions:
REMARK  status: ('A' for Active; 'I' for Inactive)
ROOT
ATOM      1  C   UNL d   1      -1.089  -5.972  -2.535  0.00  0.00     0.020 A 
ATOM      2  C1  UNL d   1       0.169  -5.999  -1.936  0.00  0.00     0.020 A 
ATOM      3  C2  UNL d   1       0.549  -4.979  -1.061  0.00  0.00     0.034 A 
ATOM      4  C3  UNL d   1      -0.331  -3.927  -0.783  0.00  0.00     0.017 A 
ATOM      5  C4  UNL d   1      -1.595  -3.900  -1.385  0.00  0.00     0.017 A 
ATOM      6  C5  UNL d   1      -1.969  -4.924  -2.260  0.00  0.00     0.034 A 
ATOM      7 Cl   UNL d   1      -2.735  -2.635  -1.092  0.00  0.00    -0.070 Cl
ATOM      8 Cl1  UNL d   1       0.203  -2.699   0.308  0.00  0.00    -0.070 Cl
ENDROOT
TORSDOF 0
ENDMDL
