MODEL 1
REMARK minimizedAffinity 11.3385735
REMARK minimizedRMSD -1
REMARK  0 active torsions:
REMARK  status: ('A' for Active; 'I' for Inactive)
ROOT
ATOM      1  C   UNL d   1      -1.484  -5.947  -1.055  0.00  0.00     0.020 A 
ATOM      2  C1  UNL d   1      -2.853  -5.709  -0.944  0.00  0.00     0.020 A 
ATOM      3  C2  UNL d   1      -3.314  -4.452  -0.544  0.00  0.00     0.034 A 
ATOM      4  C3  UNL d   1      -2.404  -3.429  -0.255  0.00  0.00     0.017 A 
ATOM      5  C4  UNL d   1      -1.029  -3.669  -0.367  0.00  0.00     0.017 A 
ATOM      6  C5  UNL d   1      -0.574  -4.929  -0.767  0.00  0.00     0.034 A 
ATOM      7 Cl   UNL d   1       0.154  -2.456  -0.026  0.00  0.00    -0.070 Cl
ATOM      8 Cl1  UNL d   1      -3.043  -1.900   0.233  0.00  0.00    -0.070 Cl
ENDROOT
TORSDOF 0
ENDMDL
