MODEL 1
REMARK minimizedAffinity 9.82544327
REMARK minimizedRMSD -1
REMARK  0 active torsions:
REMARK  status: ('A' for Active; 'I' for Inactive)
ROOT
ATOM      1  C   UNL d   1      -3.682  -0.769   1.495  0.00  0.00     0.020 A 
ATOM      2  C1  UNL d   1      -2.513  -0.775   2.255  0.00  0.00     0.020 A 
ATOM      3  C2  UNL d   1      -2.406  -1.614   3.366  0.00  0.00     0.034 A 
ATOM      4  C3  UNL d   1      -3.471  -2.450   3.721  0.00  0.00     0.017 A 
ATOM      5  C4  UNL d   1      -4.644  -2.443   2.958  0.00  0.00     0.017 A 
ATOM      6  C5  UNL d   1      -4.745  -1.601   1.846  0.00  0.00     0.034 A 
ATOM      7 Cl   UNL d   1      -6.000  -3.447   3.333  0.00  0.00    -0.070 Cl
ATOM      8 Cl1  UNL d   1      -3.270  -3.462   5.107  0.00  0.00    -0.070 Cl
ENDROOT
TORSDOF 0
ENDMDL
