MODEL 1
REMARK minimizedAffinity 9.75142956
REMARK minimizedRMSD -1
REMARK  0 active torsions:
REMARK  status: ('A' for Active; 'I' for Inactive)
ROOT
ATOM      1  C   UNL d   1       3.069   1.945   2.035  0.00  0.00     0.020 A 
ATOM      2  C1  UNL d   1       4.414   2.312   1.986  0.00  0.00     0.020 A 
ATOM      3  C2  UNL d   1       4.833   3.510   2.567  0.00  0.00     0.034 A 
ATOM      4  C3  UNL d   1       3.907   4.346   3.201  0.00  0.00     0.017 A 
ATOM      5  C4  UNL d   1       2.557   3.978   3.251  0.00  0.00     0.017 A 
ATOM      6  C5  UNL d   1       2.143   2.777   2.667  0.00  0.00     0.034 A 
ATOM      7 Cl   UNL d   1       1.356   4.957   4.015  0.00  0.00    -0.070 Cl
ATOM      8 Cl1  UNL d   1       4.495   5.813   3.900  0.00  0.00    -0.070 Cl
ENDROOT
TORSDOF 0
ENDMDL
