MODEL 1
REMARK minimizedAffinity 12.3662643
REMARK minimizedRMSD -1
REMARK  0 active torsions:
REMARK  status: ('A' for Active; 'I' for Inactive)
ROOT
ATOM      1  C   UNL d   1      -5.266   3.004  -3.229  0.00  0.00     0.020 A 
ATOM      2  C1  UNL d   1      -5.806   1.738  -3.457  0.00  0.00     0.020 A 
ATOM      3  C2  UNL d   1      -5.997   0.858  -2.390  0.00  0.00     0.034 A 
ATOM      4  C3  UNL d   1      -5.649   1.242  -1.090  0.00  0.00     0.017 A 
ATOM      5  C4  UNL d   1      -5.108   2.513  -0.862  0.00  0.00     0.017 A 
ATOM      6  C5  UNL d   1      -4.918   3.390  -1.934  0.00  0.00     0.034 A 
ATOM      7 Cl   UNL d   1      -4.654   3.057   0.715  0.00  0.00    -0.070 Cl
ATOM      8 Cl1  UNL d   1      -5.914   0.103   0.182  0.00  0.00    -0.070 Cl
ENDROOT
TORSDOF 0
ENDMDL
