MODEL 1
REMARK minimizedAffinity 3.74179864
REMARK minimizedRMSD -1
REMARK  0 active torsions:
REMARK  status: ('A' for Active; 'I' for Inactive)
ROOT
ATOM      1  C   UNL d   1       0.246   2.252  -6.000  0.00  0.00     0.020 A 
ATOM      2  C1  UNL d   1      -0.005   1.141  -5.195  0.00  0.00     0.020 A 
ATOM      3  C2  UNL d   1       0.956   0.714  -4.275  0.00  0.00     0.034 A 
ATOM      4  C3  UNL d   1       2.171   1.398  -4.158  0.00  0.00     0.017 A 
ATOM      5  C4  UNL d   1       2.422   2.513  -4.966  0.00  0.00     0.017 A 
ATOM      6  C5  UNL d   1       1.457   2.936  -5.885  0.00  0.00     0.034 A 
ATOM      7 Cl   UNL d   1       3.898   3.408  -4.879  0.00  0.00    -0.070 Cl
ATOM      8 Cl1  UNL d   1       3.313   0.815  -3.000  0.00  0.00    -0.070 Cl
ENDROOT
TORSDOF 0
ENDMDL
