MODEL 1
REMARK minimizedAffinity 10.0205183
REMARK minimizedRMSD -1
REMARK  0 active torsions:
REMARK  status: ('A' for Active; 'I' for Inactive)
ROOT
ATOM      1  C   UNL d   1      -0.509   0.403  -5.096  0.00  0.00     0.020 A 
ATOM      2  C1  UNL d   1      -0.436   1.511  -5.940  0.00  0.00     0.020 A 
ATOM      3  C2  UNL d   1       0.736   2.268  -5.999  0.00  0.00     0.034 A 
ATOM      4  C3  UNL d   1       1.840   1.920  -5.213  0.00  0.00     0.017 A 
ATOM      5  C4  UNL d   1       1.766   0.808  -4.366  0.00  0.00     0.017 A 
ATOM      6  C5  UNL d   1       0.590   0.053  -4.311  0.00  0.00     0.034 A 
ATOM      7 Cl   UNL d   1       3.087   0.315  -3.366  0.00  0.00    -0.070 Cl
ATOM      8 Cl1  UNL d   1       3.256   2.901  -5.336  0.00  0.00    -0.070 Cl
ENDROOT
TORSDOF 0
ENDMDL
