MODEL 1
REMARK minimizedAffinity 3.62435961
REMARK minimizedRMSD -1
REMARK  0 active torsions:
REMARK  status: ('A' for Active; 'I' for Inactive)
ROOT
ATOM      1  C   UNL d   1       1.017  -3.325  -0.355  0.00  0.00     0.020 A 
ATOM      2  C1  UNL d   1       0.865  -2.184   0.432  0.00  0.00     0.020 A 
ATOM      3  C2  UNL d   1      -0.407  -1.651   0.651  0.00  0.00     0.034 A 
ATOM      4  C3  UNL d   1      -1.532  -2.258   0.083  0.00  0.00     0.017 A 
ATOM      5  C4  UNL d   1      -1.379  -3.403  -0.707  0.00  0.00     0.017 A 
ATOM      6  C5  UNL d   1      -0.103  -3.933  -0.923  0.00  0.00     0.034 A 
ATOM      7 Cl   UNL d   1      -2.720  -4.209  -1.441  0.00  0.00    -0.070 Cl
ATOM      8 Cl1  UNL d   1      -3.074  -1.545   0.396  0.00  0.00    -0.070 Cl
ENDROOT
TORSDOF 0
ENDMDL
