MODEL 1
REMARK minimizedAffinity 10.3878803
REMARK minimizedRMSD -1
REMARK  0 active torsions:
REMARK  status: ('A' for Active; 'I' for Inactive)
ROOT
ATOM      1  C   UNL d   1       1.693   3.469   2.795  0.00  0.00     0.020 A 
ATOM      2  C1  UNL d   1       2.742   4.294   3.198  0.00  0.00     0.020 A 
ATOM      3  C2  UNL d   1       4.063   3.915   2.949  0.00  0.00     0.034 A 
ATOM      4  C3  UNL d   1       4.338   2.708   2.296  0.00  0.00     0.017 A 
ATOM      5  C4  UNL d   1       3.284   1.881   1.892  0.00  0.00     0.017 A 
ATOM      6  C5  UNL d   1       1.963   2.265   2.143  0.00  0.00     0.034 A 
ATOM      7 Cl   UNL d   1       3.544   0.377   1.081  0.00  0.00    -0.070 Cl
ATOM      8 Cl1  UNL d   1       5.995   2.302   2.021  0.00  0.00    -0.070 Cl
ENDROOT
TORSDOF 0
ENDMDL
