MODEL 1
REMARK minimizedAffinity 7.99794197
REMARK minimizedRMSD -1
REMARK  0 active torsions:
REMARK  status: ('A' for Active; 'I' for Inactive)
ROOT
ATOM      1  C   UNL d   1      -1.007  -5.744  -1.605  0.00  0.00     0.020 A 
ATOM      2  C1  UNL d   1      -0.001  -5.398  -0.704  0.00  0.00     0.020 A 
ATOM      3  C2  UNL d   1      -0.091  -4.207   0.019  0.00  0.00     0.034 A 
ATOM      4  C3  UNL d   1      -1.189  -3.357  -0.158  0.00  0.00     0.017 A 
ATOM      5  C4  UNL d   1      -2.198  -3.705  -1.062  0.00  0.00     0.017 A 
ATOM      6  C5  UNL d   1      -2.104  -4.900  -1.783  0.00  0.00     0.034 A 
ATOM      7 Cl   UNL d   1      -3.584  -2.708  -1.334  0.00  0.00    -0.070 Cl
ATOM      8 Cl1  UNL d   1      -1.235  -1.900   0.769  0.00  0.00    -0.070 Cl
ENDROOT
TORSDOF 0
ENDMDL
