MODEL 1
REMARK minimizedAffinity 0.921841145
REMARK minimizedRMSD -1
REMARK  0 active torsions:
REMARK  status: ('A' for Active; 'I' for Inactive)
ROOT
ATOM      1  C   UNL d   1      -2.618  -5.573  -1.339  0.00  0.00     0.020 A 
ATOM      2  C1  UNL d   1      -2.623  -4.260  -1.808  0.00  0.00     0.020 A 
ATOM      3  C2  UNL d   1      -1.690  -3.341  -1.322  0.00  0.00     0.034 A 
ATOM      4  C3  UNL d   1      -0.749  -3.734  -0.363  0.00  0.00     0.017 A 
ATOM      5  C4  UNL d   1      -0.746  -5.052   0.108  0.00  0.00     0.017 A 
ATOM      6  C5  UNL d   1      -1.681  -5.968  -0.383  0.00  0.00     0.034 A 
ATOM      7 Cl   UNL d   1       0.385  -5.611   1.290  0.00  0.00    -0.070 Cl
ATOM      8 Cl1  UNL d   1       0.375  -2.545   0.194  0.00  0.00    -0.070 Cl
ENDROOT
TORSDOF 0
ENDMDL
