MODEL 1
REMARK minimizedAffinity 8.10232449
REMARK minimizedRMSD -1
REMARK  0 active torsions:
REMARK  status: ('A' for Active; 'I' for Inactive)
ROOT
ATOM      1  C   UNL d   1      -3.042  -3.392  -5.998  0.00  0.00     0.023 A 
ATOM      2  C1  UNL d   1      -1.987  -2.507  -5.778  0.00  0.00     0.003 A 
ATOM      3  C2  UNL d   1      -1.708  -2.060  -4.484  0.00  0.00     0.048 A 
ATOM      4  C3  UNL d   1      -2.487  -2.503  -3.416  0.00  0.00     0.023 A 
ATOM      5  C4  UNL d   1      -3.544  -3.390  -3.632  0.00  0.00     0.048 A 
ATOM      6  C5  UNL d   1      -3.820  -3.833  -4.927  0.00  0.00     0.003 A 
ATOM      7  I   UNL d   1      -2.074  -1.840  -1.491  0.00  0.00    -0.146 I 
ENDROOT
TORSDOF 0
ENDMDL
