MODEL 1
REMARK minimizedAffinity 10.0104656
REMARK minimizedRMSD -1
REMARK  0 active torsions:
REMARK  status: ('A' for Active; 'I' for Inactive)
ROOT
ATOM      1  C   UNL d   1       0.923   1.769   2.085  0.00  0.00     0.023 A 
ATOM      2  C1  UNL d   1       0.927   2.959   1.356  0.00  0.00     0.003 A 
ATOM      3  C2  UNL d   1       1.307   2.954   0.012  0.00  0.00     0.048 A 
ATOM      4  C3  UNL d   1       1.680   1.756  -0.596  0.00  0.00     0.023 A 
ATOM      5  C4  UNL d   1       1.676   0.564   0.129  0.00  0.00     0.048 A 
ATOM      6  C5  UNL d   1       1.297   0.573   1.473  0.00  0.00     0.003 A 
ATOM      7  I   UNL d   1       2.245   1.746  -2.596  0.00  0.00    -0.146 I 
ENDROOT
TORSDOF 0
ENDMDL
