MODEL 1
REMARK minimizedAffinity 4.41306162
REMARK minimizedRMSD -1
REMARK  0 active torsions:
REMARK  status: ('A' for Active; 'I' for Inactive)
ROOT
ATOM      1  C   UNL d   1       4.105   0.632  -2.426  0.00  0.00     0.023 A 
ATOM      2  C1  UNL d   1       4.164  -0.095  -1.237  0.00  0.00     0.003 A 
ATOM      3  C2  UNL d   1       3.330   0.242  -0.168  0.00  0.00     0.048 A 
ATOM      4  C3  UNL d   1       2.439   1.306  -0.296  0.00  0.00     0.023 A 
ATOM      5  C4  UNL d   1       2.376   2.036  -1.484  0.00  0.00     0.048 A 
ATOM      6  C5  UNL d   1       3.212   1.696  -2.549  0.00  0.00     0.003 A 
ATOM      7  I   UNL d   1       1.197   1.810   1.293  0.00  0.00    -0.146 I 
ENDROOT
TORSDOF 0
ENDMDL
