MODEL 1
REMARK minimizedAffinity 7.76602983
REMARK minimizedRMSD -1
REMARK  0 active torsions:
REMARK  status: ('A' for Active; 'I' for Inactive)
ROOT
ATOM      1  C   UNL d   1      -2.732  -3.989  -5.965  0.00  0.00     0.023 A 
ATOM      2  C1  UNL d   1      -1.963  -2.826  -5.989  0.00  0.00     0.003 A 
ATOM      3  C2  UNL d   1      -2.586  -1.576  -5.999  0.00  0.00     0.048 A 
ATOM      4  C3  UNL d   1      -3.978  -1.497  -5.985  0.00  0.00     0.023 A 
ATOM      5  C4  UNL d   1      -4.752  -2.659  -5.960  0.00  0.00     0.048 A 
ATOM      6  C5  UNL d   1      -4.124  -3.906  -5.951  0.00  0.00     0.003 A 
ATOM      7  I   UNL d   1      -4.908   0.362  -6.000  0.00  0.00    -0.146 I 
ENDROOT
TORSDOF 0
ENDMDL
