MODEL 1
REMARK minimizedAffinity 15.3166552
REMARK minimizedRMSD -1
REMARK  0 active torsions:
REMARK  status: ('A' for Active; 'I' for Inactive)
ROOT
ATOM      1  C   UNL d   1      -1.217  -0.163   5.095  0.00  0.00     0.023 A 
ATOM      2  C1  UNL d   1      -0.375   0.949   5.114  0.00  0.00     0.003 A 
ATOM      3  C2  UNL d   1       0.535   1.155   4.076  0.00  0.00     0.048 A 
ATOM      4  C3  UNL d   1       0.598   0.246   3.021  0.00  0.00     0.023 A 
ATOM      5  C4  UNL d   1      -0.243  -0.868   2.997  0.00  0.00     0.048 A 
ATOM      6  C5  UNL d   1      -1.151  -1.070   4.038  0.00  0.00     0.003 A 
ATOM      7  I   UNL d   1       1.952   0.551   1.474  0.00  0.00    -0.146 I 
ENDROOT
TORSDOF 0
ENDMDL
