MODEL 1
REMARK minimizedAffinity 23.5336685
REMARK minimizedRMSD -1
REMARK  0 active torsions:
REMARK  status: ('A' for Active; 'I' for Inactive)
ROOT
ATOM      1  C   UNL d   1       6.000   3.955  -4.535  0.00  0.00     0.023 A 
ATOM      2  C1  UNL d   1       5.999   2.606  -4.889  0.00  0.00     0.003 A 
ATOM      3  C2  UNL d   1       5.264   1.686  -4.139  0.00  0.00     0.048 A 
ATOM      4  C3  UNL d   1       4.530   2.122  -3.036  0.00  0.00     0.023 A 
ATOM      5  C4  UNL d   1       4.527   3.471  -2.679  0.00  0.00     0.048 A 
ATOM      6  C5  UNL d   1       5.265   4.387  -3.431  0.00  0.00     0.003 A 
ATOM      7  I   UNL d   1       3.435   0.755  -1.918  0.00  0.00    -0.146 I 
ENDROOT
TORSDOF 0
ENDMDL
