MODEL 1
REMARK minimizedAffinity 18.7231846
REMARK minimizedRMSD -1
REMARK  0 active torsions:
REMARK  status: ('A' for Active; 'I' for Inactive)
ROOT
ATOM      1  C   UNL d   1       3.564   1.037  -0.164  0.00  0.00     0.023 A 
ATOM      2  C1  UNL d   1       2.364   1.727   0.009  0.00  0.00     0.003 A 
ATOM      3  C2  UNL d   1       1.458   1.319   0.990  0.00  0.00     0.048 A 
ATOM      4  C3  UNL d   1       1.758   0.221   1.795  0.00  0.00     0.023 A 
ATOM      5  C4  UNL d   1       2.957  -0.473   1.626  0.00  0.00     0.048 A 
ATOM      6  C5  UNL d   1       3.860  -0.062   0.643  0.00  0.00     0.003 A 
ATOM      7  I   UNL d   1       0.410  -0.388   3.255  0.00  0.00    -0.146 I 
ENDROOT
TORSDOF 0
ENDMDL
