MODEL 1
REMARK minimizedAffinity 11.7391586
REMARK minimizedRMSD -1
REMARK  0 active torsions:
REMARK  status: ('A' for Active; 'I' for Inactive)
ROOT
ATOM      1  C   UNL d   1       2.853  -2.793  -5.997  0.00  0.00     0.023 A 
ATOM      2  C1  UNL d   1       2.441  -1.460  -5.996  0.00  0.00     0.003 A 
ATOM      3  C2  UNL d   1       3.342  -0.449  -5.658  0.00  0.00     0.048 A 
ATOM      4  C3  UNL d   1       4.655  -0.777  -5.323  0.00  0.00     0.023 A 
ATOM      5  C4  UNL d   1       5.073  -2.109  -5.324  0.00  0.00     0.048 A 
ATOM      6  C5  UNL d   1       4.168  -3.117  -5.661  0.00  0.00     0.003 A 
ATOM      7  I   UNL d   1       5.999   0.727  -4.819  0.00  0.00    -0.146 I 
ENDROOT
TORSDOF 0
ENDMDL
