MODEL 1
REMARK minimizedAffinity 17.7214565
REMARK minimizedRMSD -1
REMARK  0 active torsions:
REMARK  status: ('A' for Active; 'I' for Inactive)
ROOT
ATOM      1  C   UNL d   1      -0.781  -3.494  -5.977  0.00  0.00     0.023 A 
ATOM      2  C1  UNL d   1      -1.887  -4.344  -5.964  0.00  0.00     0.003 A 
ATOM      3  C2  UNL d   1      -3.178  -3.812  -5.968  0.00  0.00     0.048 A 
ATOM      4  C3  UNL d   1      -3.356  -2.429  -5.986  0.00  0.00     0.023 A 
ATOM      5  C4  UNL d   1      -2.252  -1.575  -6.000  0.00  0.00     0.048 A 
ATOM      6  C5  UNL d   1      -0.963  -2.111  -5.995  0.00  0.00     0.003 A 
ATOM      7  I   UNL d   1      -5.277  -1.636  -5.992  0.00  0.00    -0.146 I 
ENDROOT
TORSDOF 0
ENDMDL
