MODEL 1
REMARK minimizedAffinity 15.8047905
REMARK minimizedRMSD -1
REMARK  0 active torsions:
REMARK  status: ('A' for Active; 'I' for Inactive)
ROOT
ATOM      1  C   UNL d   1      -4.017  -3.692  -5.988  0.00  0.00     0.023 A 
ATOM      2  C1  UNL d   1      -3.514  -2.391  -5.993  0.00  0.00     0.003 A 
ATOM      3  C2  UNL d   1      -2.134  -2.174  -5.995  0.00  0.00     0.048 A 
ATOM      4  C3  UNL d   1      -1.263  -3.263  -5.993  0.00  0.00     0.023 A 
ATOM      5  C4  UNL d   1      -1.762  -4.567  -5.988  0.00  0.00     0.048 A 
ATOM      6  C5  UNL d   1      -3.142  -4.779  -5.986  0.00  0.00     0.003 A 
ATOM      7  I   UNL d   1       0.790  -2.943  -5.995  0.00  0.00    -0.146 I 
ENDROOT
TORSDOF 0
ENDMDL
