MODEL 1
REMARK minimizedAffinity -1.02750862
REMARK minimizedRMSD -1
REMARK  0 active torsions:
REMARK  status: ('A' for Active; 'I' for Inactive)
ROOT
ATOM      1  C   UNL d   1       4.904  -0.097  -5.245  0.00  0.00     0.023 A 
ATOM      2  C1  UNL d   1       5.996   0.749  -5.438  0.00  0.00     0.003 A 
ATOM      3  C2  UNL d   1       5.794   2.114  -5.655  0.00  0.00     0.048 A 
ATOM      4  C3  UNL d   1       4.497   2.625  -5.677  0.00  0.00     0.023 A 
ATOM      5  C4  UNL d   1       3.402   1.783  -5.483  0.00  0.00     0.048 A 
ATOM      6  C5  UNL d   1       3.609   0.419  -5.267  0.00  0.00     0.003 A 
ATOM      7  I   UNL d   1       4.194   4.656  -6.000  0.00  0.00    -0.146 I 
ENDROOT
TORSDOF 0
ENDMDL
