MODEL 1
REMARK minimizedAffinity 2.6476953
REMARK minimizedRMSD -1
REMARK  0 active torsions:
REMARK  status: ('A' for Active; 'I' for Inactive)
ROOT
ATOM      1  C   UNL d   1      -0.932  -1.838   2.801  0.00  0.00     0.023 A 
ATOM      2  C1  UNL d   1      -2.039  -1.645   3.628  0.00  0.00     0.003 A 
ATOM      3  C2  UNL d   1      -2.591  -2.725   4.321  0.00  0.00     0.048 A 
ATOM      4  C3  UNL d   1      -2.030  -3.994   4.183  0.00  0.00     0.023 A 
ATOM      5  C4  UNL d   1      -0.922  -4.191   3.358  0.00  0.00     0.048 A 
ATOM      6  C5  UNL d   1      -0.374  -3.109   2.666  0.00  0.00     0.003 A 
ATOM      7  I   UNL d   1      -2.849  -5.602   5.214  0.00  0.00    -0.146 I 
ENDROOT
TORSDOF 0
ENDMDL
