MODEL 1
REMARK minimizedAffinity 9.94391251
REMARK minimizedRMSD -1
REMARK  0 active torsions:
REMARK  status: ('A' for Active; 'I' for Inactive)
ROOT
ATOM      1  C   UNL d   1      -0.182   3.578   1.136  0.00  0.00     0.023 A 
ATOM      2  C1  UNL d   1       1.205   3.654   1.005  0.00  0.00     0.003 A 
ATOM      3  C2  UNL d   1       2.020   2.720   1.647  0.00  0.00     0.048 A 
ATOM      4  C3  UNL d   1       1.442   1.713   2.419  0.00  0.00     0.023 A 
ATOM      5  C4  UNL d   1       0.055   1.633   2.553  0.00  0.00     0.048 A 
ATOM      6  C5  UNL d   1      -0.756   2.569   1.909  0.00  0.00     0.003 A 
ATOM      7  I   UNL d   1       2.654   0.321   3.377  0.00  0.00    -0.146 I 
ENDROOT
TORSDOF 0
ENDMDL
