MODEL 1
REMARK minimizedAffinity 9.96487427
REMARK minimizedRMSD -1
REMARK  0 active torsions:
REMARK  status: ('A' for Active; 'I' for Inactive)
ROOT
ATOM      1  C   UNL d   1      -3.711  -5.999   5.939  0.00  0.00     0.023 A 
ATOM      2  C1  UNL d   1      -2.317  -5.998   5.999  0.00  0.00     0.003 A 
ATOM      3  C2  UNL d   1      -1.578  -5.241   5.088  0.00  0.00     0.048 A 
ATOM      4  C3  UNL d   1      -2.239  -4.486   4.120  0.00  0.00     0.023 A 
ATOM      5  C4  UNL d   1      -3.633  -4.484   4.056  0.00  0.00     0.048 A 
ATOM      6  C5  UNL d   1      -4.368  -5.243   4.968  0.00  0.00     0.003 A 
ATOM      7  I   UNL d   1      -1.140  -3.358   2.762  0.00  0.00    -0.146 I 
ENDROOT
TORSDOF 0
ENDMDL
