MODEL 1
REMARK minimizedAffinity 11.8420897
REMARK minimizedRMSD -1
REMARK  0 active torsions:
REMARK  status: ('A' for Active; 'I' for Inactive)
ROOT
ATOM      1  C   UNL d   1       1.792   0.626   3.018  0.00  0.00     0.023 A 
ATOM      2  C1  UNL d   1       1.811   0.681   1.624  0.00  0.00     0.003 A 
ATOM      3  C2  UNL d   1       2.955   0.290   0.925  0.00  0.00     0.048 A 
ATOM      4  C3  UNL d   1       4.075  -0.156   1.625  0.00  0.00     0.023 A 
ATOM      5  C4  UNL d   1       4.060  -0.213   3.020  0.00  0.00     0.048 A 
ATOM      6  C5  UNL d   1       2.914   0.179   3.715  0.00  0.00     0.003 A 
ATOM      7  I   UNL d   1       5.779  -0.738   0.587  0.00  0.00    -0.146 I 
ENDROOT
TORSDOF 0
ENDMDL
