MODEL 1
REMARK minimizedAffinity 11.6128864
REMARK minimizedRMSD -1
REMARK  0 active torsions:
REMARK  status: ('A' for Active; 'I' for Inactive)
ROOT
ATOM      1  C   UNL d   1       5.655  -0.379  -5.169  0.00  0.00     0.023 A 
ATOM      2  C1  UNL d   1       6.000   0.479  -4.124  0.00  0.00     0.003 A 
ATOM      3  C2  UNL d   1       5.002   1.126  -3.393  0.00  0.00     0.048 A 
ATOM      4  C3  UNL d   1       3.662   0.910  -3.711  0.00  0.00     0.023 A 
ATOM      5  C4  UNL d   1       3.312   0.052  -4.755  0.00  0.00     0.048 A 
ATOM      6  C5  UNL d   1       4.313  -0.592  -5.484  0.00  0.00     0.003 A 
ATOM      7  I   UNL d   1       2.175   1.873  -2.624  0.00  0.00    -0.146 I 
ENDROOT
TORSDOF 0
ENDMDL
