MODEL 1
REMARK minimizedAffinity 12.0543423
REMARK minimizedRMSD -1
REMARK  0 active torsions:
REMARK  status: ('A' for Active; 'I' for Inactive)
ROOT
ATOM      1  C   UNL d   1      -0.504   3.679   1.223  0.00  0.00     0.023 A 
ATOM      2  C1  UNL d   1       0.787   3.503   0.725  0.00  0.00     0.003 A 
ATOM      3  C2  UNL d   1       1.643   2.570   1.314  0.00  0.00     0.048 A 
ATOM      4  C3  UNL d   1       1.202   1.816   2.400  0.00  0.00     0.023 A 
ATOM      5  C4  UNL d   1      -0.090   1.988   2.902  0.00  0.00     0.048 A 
ATOM      6  C5  UNL d   1      -0.941   2.923   2.311  0.00  0.00     0.003 A 
ATOM      7  I   UNL d   1       2.474   0.427   3.279  0.00  0.00    -0.146 I 
ENDROOT
TORSDOF 0
ENDMDL
