MODEL 1
REMARK minimizedAffinity -5.48527527
REMARK minimizedRMSD -1
REMARK  2 active torsions:
REMARK  status: ('A' for Active; 'I' for Inactive)
REMARK    1  A    between atoms: C1_2  and  C2_3 
REMARK    2  A    between atoms: C2_3  and  C3_4 
ROOT
ATOM      1  C3  UNL d   1       0.066   0.221   0.814  0.00  0.00    -0.075 A 
ATOM      2  C4  UNL d   1      -0.762   0.663   1.857  0.00  0.00     0.002 A 
ATOM      3  C5  UNL d   1      -0.349   0.549   3.184  0.00  0.00     0.002 A 
ATOM      4  C6  UNL d   1       0.888  -0.015   3.487  0.00  0.00    -0.004 A 
ATOM      5  C7  UNL d   1       1.711  -0.472   2.460  0.00  0.00     0.002 A 
ATOM      6  C8  UNL d   1       1.303  -0.356   1.130  0.00  0.00     0.002 A 
ENDROOT
BRANCH   1   7
ATOM      7  C2  UNL d   1      -0.362   0.368  -0.627  0.00  0.00     0.056 C 
BRANCH   7   8
ATOM      8  C1  UNL d   1       0.447  -0.488  -1.608  0.00  0.00     0.007 C 
ATOM      9  C   UNL d   1       0.838   0.261  -2.875  0.00  0.00     0.009 C 
ENDBRANCH   7   8
ENDBRANCH   1   7
TORSDOF 2
ENDMDL
