MODEL 1
REMARK minimizedAffinity 0.627037108
REMARK minimizedRMSD -1
REMARK  2 active torsions:
REMARK  status: ('A' for Active; 'I' for Inactive)
REMARK    1  A    between atoms: C1_2  and  C2_3 
REMARK    2  A    between atoms: C2_3  and  C3_4 
ROOT
ATOM      1  C3  UNL d   1       0.280   0.055   0.354  0.00  0.00    -0.075 A 
ATOM      2  C4  UNL d   1      -1.035   0.411   0.686  0.00  0.00     0.002 A 
ATOM      3  C5  UNL d   1      -1.443   0.450   2.020  0.00  0.00     0.002 A 
ATOM      4  C6  UNL d   1      -0.546   0.125   3.036  0.00  0.00    -0.004 A 
ATOM      5  C7  UNL d   1       0.758  -0.245   2.716  0.00  0.00     0.002 A 
ATOM      6  C8  UNL d   1       1.170  -0.281   1.383  0.00  0.00     0.002 A 
ENDROOT
BRANCH   1   7
ATOM      7  C2  UNL d   1       0.736   0.040  -1.086  0.00  0.00     0.056 C 
BRANCH   7   8
ATOM      8  C1  UNL d   1      -0.340  -0.418  -2.076  0.00  0.00     0.007 C 
ATOM      9  C   UNL d   1       0.007  -0.109  -3.526  0.00  0.00     0.009 C 
ENDBRANCH   7   8
ENDBRANCH   1   7
TORSDOF 2
ENDMDL
