MODEL 1
REMARK minimizedAffinity -5.98890972
REMARK minimizedRMSD -1
REMARK  2 active torsions:
REMARK  status: ('A' for Active; 'I' for Inactive)
REMARK    1  A    between atoms: C1_2  and  C2_3 
REMARK    2  A    between atoms: C2_3  and  C3_4 
ROOT
ATOM      1  C3  UNL d   1       0.615  -0.001   0.764  0.00  0.00    -0.075 A 
ATOM      2  C4  UNL d   1       1.419  -0.021   1.913  0.00  0.00     0.002 A 
ATOM      3  C5  UNL d   1       0.952   0.514   3.114  0.00  0.00     0.002 A 
ATOM      4  C6  UNL d   1      -0.318   1.084   3.178  0.00  0.00    -0.004 A 
ATOM      5  C7  UNL d   1      -1.118   1.124   2.039  0.00  0.00     0.002 A 
ATOM      6  C8  UNL d   1      -0.655   0.586   0.837  0.00  0.00     0.002 A 
ENDROOT
BRANCH   1   7
ATOM      7  C2  UNL d   1       1.104  -0.605  -0.531  0.00  0.00     0.056 C 
BRANCH   7   8
ATOM      8  C1  UNL d   1       0.271  -0.212  -1.756  0.00  0.00     0.007 C 
ATOM      9  C   UNL d   1       1.118   0.218  -2.946  0.00  0.00     0.009 C 
ENDBRANCH   7   8
ENDBRANCH   1   7
TORSDOF 2
ENDMDL
