MODEL 1
REMARK minimizedAffinity -2.95503449
REMARK minimizedRMSD -1
REMARK  2 active torsions:
REMARK  status: ('A' for Active; 'I' for Inactive)
REMARK    1  A    between atoms: C1_2  and  C2_3 
REMARK    2  A    between atoms: C2_3  and  C3_4 
ROOT
ATOM      1  C3  UNL d   1       0.481  -0.625  -1.625  0.00  0.00    -0.075 A 
ATOM      2  C4  UNL d   1       1.607   0.188  -1.820  0.00  0.00     0.002 A 
ATOM      3  C5  UNL d   1       2.004   0.551  -3.107  0.00  0.00     0.002 A 
ATOM      4  C6  UNL d   1       1.289   0.099  -4.214  0.00  0.00    -0.004 A 
ATOM      5  C7  UNL d   1       0.178  -0.723  -4.032  0.00  0.00     0.002 A 
ATOM      6  C8  UNL d   1      -0.224  -1.084  -2.745  0.00  0.00     0.002 A 
ENDROOT
BRANCH   1   7
ATOM      7  C2  UNL d   1       0.029  -0.997  -0.233  0.00  0.00     0.056 C 
BRANCH   7   8
ATOM      8  C1  UNL d   1      -0.990  -0.026   0.373  0.00  0.00     0.007 C 
ATOM      9  C   UNL d   1      -0.579   0.499   1.741  0.00  0.00     0.009 C 
ENDBRANCH   7   8
ENDBRANCH   1   7
TORSDOF 2
ENDMDL
