MODEL 1
REMARK minimizedAffinity -4.44815969
REMARK minimizedRMSD -1
REMARK  2 active torsions:
REMARK  status: ('A' for Active; 'I' for Inactive)
REMARK    1  A    between atoms: C1_2  and  C2_3 
REMARK    2  A    between atoms: C2_3  and  C3_4 
ROOT
ATOM      1  C3  UNL d   1      -0.231   0.236   0.616  0.00  0.00    -0.075 A 
ATOM      2  C4  UNL d   1       0.980  -0.289   1.088  0.00  0.00     0.002 A 
ATOM      3  C5  UNL d   1       1.257  -0.314   2.455  0.00  0.00     0.002 A 
ATOM      4  C6  UNL d   1       0.333   0.193   3.365  0.00  0.00    -0.004 A 
ATOM      5  C7  UNL d   1      -0.867   0.732   2.907  0.00  0.00     0.002 A 
ATOM      6  C8  UNL d   1      -1.149   0.755   1.539  0.00  0.00     0.002 A 
ENDROOT
BRANCH   1   7
ATOM      7  C2  UNL d   1      -0.549   0.240  -0.860  0.00  0.00     0.056 C 
BRANCH   7   8
ATOM      8  C1  UNL d   1       0.470  -0.515  -1.720  0.00  0.00     0.007 C 
ATOM      9  C   UNL d   1       0.812   0.206  -3.017  0.00  0.00     0.009 C 
ENDBRANCH   7   8
ENDBRANCH   1   7
TORSDOF 2
ENDMDL
