MODEL 1
REMARK minimizedAffinity -1.94283199
REMARK minimizedRMSD -1
REMARK  0 active torsions:
REMARK  status: ('A' for Active; 'I' for Inactive)
ROOT
ATOM      1  N1  IND d   1       2.362   2.694  -5.499  0.00  0.00    -0.196 N 
ATOM      2  C2  IND d   1       1.508   3.750  -5.658  0.00  0.00     0.054 A 
ATOM      3  C3  IND d   1       2.205   4.896  -5.835  0.00  0.00    -0.031 A 
ATOM      4  C4  IND d   1       4.749   5.254  -5.999  0.00  0.00     0.051 A 
ATOM      5  C5  IND d   1       5.940   4.594  -5.879  0.00  0.00    -0.031 A 
ATOM      6  C6  IND d   1       6.000   3.240  -5.623  0.00  0.00     0.015 A 
ATOM      7  C7  IND d   1       4.866   2.489  -5.489  0.00  0.00    -0.016 A 
ATOM      8  C8  IND d   1       3.656   3.157  -5.604  0.00  0.00    -0.047 A 
ATOM      9  C9  IND d   1       3.588   4.539  -5.821  0.00  0.00    -0.096 A 
ATOM     10  HN1 IND d   1       2.130   1.879  -5.357  0.00  0.00     0.298 HD
ENDROOT
TORSDOF 0
ENDMDL
