MODEL 1
REMARK minimizedAffinity -2.05765128
REMARK minimizedRMSD -1
REMARK  0 active torsions:
REMARK  status: ('A' for Active; 'I' for Inactive)
ROOT
ATOM      1  N1  IND d   1       2.363   2.696  -5.629  0.00  0.00    -0.196 N 
ATOM      2  C2  IND d   1       1.508   3.751  -5.786  0.00  0.00     0.054 A 
ATOM      3  C3  IND d   1       2.202   4.904  -5.914  0.00  0.00    -0.031 A 
ATOM      4  C4  IND d   1       4.748   5.279  -5.998  0.00  0.00     0.051 A 
ATOM      5  C5  IND d   1       5.939   4.623  -5.861  0.00  0.00    -0.031 A 
ATOM      6  C6  IND d   1       6.000   3.262  -5.637  0.00  0.00     0.015 A 
ATOM      7  C7  IND d   1       4.867   2.503  -5.554  0.00  0.00    -0.016 A 
ATOM      8  C8  IND d   1       3.656   3.167  -5.686  0.00  0.00    -0.047 A 
ATOM      9  C9  IND d   1       3.587   4.554  -5.870  0.00  0.00    -0.096 A 
ATOM     10  HN1 IND d   1       2.132   1.875  -5.515  0.00  0.00     0.298 HD
ENDROOT
TORSDOF 0
ENDMDL
