MODEL 1
REMARK minimizedAffinity 3.38091373
REMARK minimizedRMSD -1
REMARK  0 active torsions:
REMARK  status: ('A' for Active; 'I' for Inactive)
ROOT
ATOM      1  N1  IND d   1       4.289  -0.401   1.666  0.00  0.00    -0.196 N 
ATOM      2  C2  IND d   1       5.600  -0.232   2.013  0.00  0.00     0.054 A 
ATOM      3  C3  IND d   1       5.998   1.032   1.745  0.00  0.00    -0.031 A 
ATOM      4  C4  IND d   1       4.637   3.017   0.832  0.00  0.00     0.051 A 
ATOM      5  C5  IND d   1       3.406   3.340   0.333  0.00  0.00    -0.031 A 
ATOM      6  C6  IND d   1       2.385   2.415   0.254  0.00  0.00     0.015 A 
ATOM      7  C7  IND d   1       2.555   1.129   0.684  0.00  0.00    -0.016 A 
ATOM      8  C8  IND d   1       3.805   0.795   1.184  0.00  0.00    -0.047 A 
ATOM      9  C9  IND d   1       4.858   1.718   1.227  0.00  0.00    -0.096 A 
ATOM     10  HN1 IND d   1       3.842  -1.132   1.736  0.00  0.00     0.298 HD
ENDROOT
TORSDOF 0
ENDMDL
