MODEL 1
REMARK minimizedAffinity 0.49415803
REMARK minimizedRMSD -1
REMARK  0 active torsions:
REMARK  status: ('A' for Active; 'I' for Inactive)
ROOT
ATOM      1  N1  IND d   1       2.373   5.803  -5.059  0.00  0.00    -0.196 N 
ATOM      2  C2  IND d   1       1.248   5.048  -4.882  0.00  0.00     0.054 A 
ATOM      3  C3  IND d   1       1.516   3.743  -5.112  0.00  0.00    -0.031 A 
ATOM      4  C4  IND d   1       3.754   2.611  -5.693  0.00  0.00     0.051 A 
ATOM      5  C5  IND d   1       5.057   2.892  -5.996  0.00  0.00    -0.031 A 
ATOM      6  C6  IND d   1       5.542   4.184  -6.000  0.00  0.00     0.015 A 
ATOM      7  C7  IND d   1       4.741   5.247  -5.688  0.00  0.00    -0.016 A 
ATOM      8  C8  IND d   1       3.416   4.965  -5.387  0.00  0.00    -0.047 A 
ATOM      9  C9  IND d   1       2.908   3.661  -5.422  0.00  0.00    -0.096 A 
ATOM     10  HN1 IND d   1       2.421   6.658  -4.980  0.00  0.00     0.298 HD
ENDROOT
TORSDOF 0
ENDMDL
