MODEL 1
REMARK minimizedAffinity 2.74398184
REMARK minimizedRMSD -1
REMARK  0 active torsions:
REMARK  status: ('A' for Active; 'I' for Inactive)
ROOT
ATOM      1  N1  IND d   1       1.229   2.994  -5.238  0.00  0.00    -0.196 N 
ATOM      2  C2  IND d   1       0.710   4.184  -5.667  0.00  0.00     0.054 A 
ATOM      3  C3  IND d   1       1.704   5.040  -5.993  0.00  0.00    -0.031 A 
ATOM      4  C4  IND d   1       4.251   4.663  -6.000  0.00  0.00     0.051 A 
ATOM      5  C5  IND d   1       5.205   3.747  -5.654  0.00  0.00    -0.031 A 
ATOM      6  C6  IND d   1       4.876   2.508  -5.145  0.00  0.00     0.015 A 
ATOM      7  C7  IND d   1       3.574   2.132  -4.972  0.00  0.00    -0.016 A 
ATOM      8  C8  IND d   1       2.602   3.061  -5.315  0.00  0.00    -0.047 A 
ATOM      9  C9  IND d   1       2.931   4.336  -5.792  0.00  0.00    -0.096 A 
ATOM     10  HN1 IND d   1       0.773   2.317  -4.967  0.00  0.00     0.298 HD
ENDROOT
TORSDOF 0
ENDMDL
