MODEL 1
REMARK minimizedAffinity -4.72120476
REMARK minimizedRMSD -1
REMARK  0 active torsions:
REMARK  status: ('A' for Active; 'I' for Inactive)
ROOT
ATOM      1  N1  IND d   1       0.671   3.868  -5.998  0.00  0.00    -0.196 N 
ATOM      2  C2  IND d   1       0.401   5.208  -5.996  0.00  0.00     0.054 A 
ATOM      3  C3  IND d   1       1.502   5.910  -5.645  0.00  0.00    -0.031 A 
ATOM      4  C4  IND d   1       3.881   5.071  -5.133  0.00  0.00     0.051 A 
ATOM      5  C5  IND d   1       4.608   3.924  -4.974  0.00  0.00    -0.031 A 
ATOM      6  C6  IND d   1       4.049   2.676  -5.154  0.00  0.00     0.015 A 
ATOM      7  C7  IND d   1       2.739   2.526  -5.513  0.00  0.00    -0.016 A 
ATOM      8  C8  IND d   1       1.997   3.688  -5.669  0.00  0.00    -0.047 A 
ATOM      9  C9  IND d   1       2.547   4.957  -5.446  0.00  0.00    -0.096 A 
ATOM     10  HN1 IND d   1       0.108   3.243  -6.176  0.00  0.00     0.298 HD
ENDROOT
TORSDOF 0
ENDMDL
