MODEL 1
REMARK minimizedAffinity -2.21251607
REMARK minimizedRMSD -1
REMARK  0 active torsions:
REMARK  status: ('A' for Active; 'I' for Inactive)
ROOT
ATOM      1  N1  IND d   1       1.469   3.662  -5.965  0.00  0.00    -0.196 N 
ATOM      2  C2  IND d   1       0.902   4.905  -5.932  0.00  0.00     0.054 A 
ATOM      3  C3  IND d   1       1.860   5.858  -5.901  0.00  0.00    -0.031 A 
ATOM      4  C4  IND d   1       4.420   5.609  -6.000  0.00  0.00     0.051 A 
ATOM      5  C5  IND d   1       5.411   4.668  -6.000  0.00  0.00    -0.031 A 
ATOM      6  C6  IND d   1       5.134   3.316  -5.991  0.00  0.00     0.015 A 
ATOM      7  C7  IND d   1       3.849   2.853  -5.993  0.00  0.00    -0.016 A 
ATOM      8  C8  IND d   1       2.839   3.805  -5.986  0.00  0.00    -0.047 A 
ATOM      9  C9  IND d   1       3.115   5.178  -5.952  0.00  0.00    -0.096 A 
ATOM     10  HN1 IND d   1       1.043   2.915  -5.971  0.00  0.00     0.298 HD
ENDROOT
TORSDOF 0
ENDMDL
