MODEL 1
REMARK minimizedAffinity -1.51495433
REMARK minimizedRMSD -1
REMARK  0 active torsions:
REMARK  status: ('A' for Active; 'I' for Inactive)
ROOT
ATOM      1  N1  IND d   1       3.925   2.599  -5.923  0.00  0.00    -0.196 N 
ATOM      2  C2  IND d   1       5.155   3.195  -5.941  0.00  0.00     0.054 A 
ATOM      3  C3  IND d   1       5.026   4.539  -6.000  0.00  0.00    -0.031 A 
ATOM      4  C4  IND d   1       2.894   5.981  -5.973  0.00  0.00     0.051 A 
ATOM      5  C5  IND d   1       1.530   5.888  -6.000  0.00  0.00    -0.031 A 
ATOM      6  C6  IND d   1       0.882   4.670  -6.000  0.00  0.00     0.015 A 
ATOM      7  C7  IND d   1       1.577   3.494  -5.961  0.00  0.00    -0.016 A 
ATOM      8  C8  IND d   1       2.961   3.584  -5.941  0.00  0.00    -0.047 A 
ATOM      9  C9  IND d   1       3.625   4.817  -5.984  0.00  0.00    -0.096 A 
ATOM     10  HN1 IND d   1       3.777   1.753  -5.904  0.00  0.00     0.298 HD
ENDROOT
TORSDOF 0
ENDMDL
