MODEL 1
REMARK minimizedAffinity -1.7295754
REMARK minimizedRMSD -1
REMARK  0 active torsions:
REMARK  status: ('A' for Active; 'I' for Inactive)
ROOT
ATOM      1  N1  IND d   1       2.253   6.000  -6.000  0.00  0.00    -0.196 N 
ATOM      2  C2  IND d   1       1.010   5.493  -5.741  0.00  0.00     0.054 A 
ATOM      3  C3  IND d   1       1.091   4.179  -5.436  0.00  0.00    -0.031 A 
ATOM      4  C4  IND d   1       3.172   2.681  -5.202  0.00  0.00     0.051 A 
ATOM      5  C5  IND d   1       4.527   2.685  -5.377  0.00  0.00    -0.031 A 
ATOM      6  C6  IND d   1       5.208   3.818  -5.773  0.00  0.00     0.015 A 
ATOM      7  C7  IND d   1       4.557   4.997  -6.000  0.00  0.00    -0.016 A 
ATOM      8  C8  IND d   1       3.179   4.995  -5.831  0.00  0.00    -0.047 A 
ATOM      9  C9  IND d   1       2.478   3.837  -5.470  0.00  0.00    -0.096 A 
ATOM     10  HN1 IND d   1       2.426   6.810  -6.230  0.00  0.00     0.298 HD
ENDROOT
TORSDOF 0
ENDMDL
