MODEL 1
REMARK minimizedAffinity -3.30897737
REMARK minimizedRMSD -1
REMARK  0 active torsions:
REMARK  status: ('A' for Active; 'I' for Inactive)
ROOT
ATOM      1  N1  IND d   1       4.934   3.904  -5.983  0.00  0.00    -0.196 N 
ATOM      2  C2  IND d   1       4.824   2.545  -5.878  0.00  0.00     0.054 A 
ATOM      3  C3  IND d   1       3.527   2.186  -5.751  0.00  0.00    -0.031 A 
ATOM      4  C4  IND d   1       1.413   3.654  -5.793  0.00  0.00     0.051 A 
ATOM      5  C5  IND d   1       1.008   4.959  -5.831  0.00  0.00    -0.031 A 
ATOM      6  C6  IND d   1       1.909   6.000  -5.927  0.00  0.00     0.015 A 
ATOM      7  C7  IND d   1       3.254   5.772  -6.000  0.00  0.00    -0.016 A 
ATOM      8  C8  IND d   1       3.669   4.449  -5.954  0.00  0.00    -0.047 A 
ATOM      9  C9  IND d   1       2.762   3.391  -5.814  0.00  0.00    -0.096 A 
ATOM     10  HN1 IND d   1       5.669   4.343  -6.055  0.00  0.00     0.298 HD
ENDROOT
TORSDOF 0
ENDMDL
