MODEL 1
REMARK minimizedAffinity 6.6316309
REMARK minimizedRMSD -1
REMARK  0 active torsions:
REMARK  status: ('A' for Active; 'I' for Inactive)
ROOT
ATOM      1  N1  IND d   1       4.305  -0.575   2.357  0.00  0.00    -0.196 N 
ATOM      2  C2  IND d   1       5.655  -0.428   2.201  0.00  0.00     0.054 A 
ATOM      3  C3  IND d   1       5.925   0.655   1.438  0.00  0.00    -0.031 A 
ATOM      4  C4  IND d   1       4.310   2.387   0.427  0.00  0.00     0.051 A 
ATOM      5  C5  IND d   1       2.979   2.654   0.268  0.00  0.00    -0.031 A 
ATOM      6  C6  IND d   1       2.003   1.845   0.811  0.00  0.00     0.015 A 
ATOM      7  C7  IND d   1       2.322   0.738   1.545  0.00  0.00    -0.016 A 
ATOM      8  C8  IND d   1       3.672   0.459   1.703  0.00  0.00    -0.047 A 
ATOM      9  C9  IND d   1       4.667   1.254   1.119  0.00  0.00    -0.096 A 
ATOM     10  HN1 IND d   1       3.916  -1.207   2.792  0.00  0.00     0.298 HD
ENDROOT
TORSDOF 0
ENDMDL
