MODEL 1
REMARK minimizedAffinity 0.998949945
REMARK minimizedRMSD -1
REMARK  0 active torsions:
REMARK  status: ('A' for Active; 'I' for Inactive)
ROOT
ATOM      1  N1  IND d   1       1.376   5.145  -3.886  0.00  0.00    -0.196 N 
ATOM      2  C2  IND d   1       0.607   5.345  -4.999  0.00  0.00     0.054 A 
ATOM      3  C3  IND d   1       1.008   4.529  -6.000  0.00  0.00    -0.031 A 
ATOM      4  C4  IND d   1       2.836   2.716  -6.000  0.00  0.00     0.051 A 
ATOM      5  C5  IND d   1       3.830   2.190  -5.225  0.00  0.00    -0.031 A 
ATOM      6  C6  IND d   1       4.061   2.628  -3.937  0.00  0.00     0.015 A 
ATOM      7  C7  IND d   1       3.294   3.606  -3.369  0.00  0.00    -0.016 A 
ATOM      8  C8  IND d   1       2.287   4.148  -4.156  0.00  0.00    -0.047 A 
ATOM      9  C9  IND d   1       2.076   3.737  -5.478  0.00  0.00    -0.096 A 
ATOM     10  HN1 IND d   1       1.302   5.570  -3.143  0.00  0.00     0.298 HD
ENDROOT
TORSDOF 0
ENDMDL
