MODEL 1
REMARK minimizedAffinity -0.497107118
REMARK minimizedRMSD -1
REMARK  0 active torsions:
REMARK  status: ('A' for Active; 'I' for Inactive)
ROOT
ATOM      1  N1  IND d   1       5.445   3.438  -5.689  0.00  0.00    -0.196 N 
ATOM      2  C2  IND d   1       5.999   4.681  -5.823  0.00  0.00     0.054 A 
ATOM      3  C3  IND d   1       5.032   5.610  -5.997  0.00  0.00    -0.031 A 
ATOM      4  C4  IND d   1       2.473   5.329  -5.993  0.00  0.00     0.051 A 
ATOM      5  C5  IND d   1       1.494   4.377  -5.942  0.00  0.00    -0.031 A 
ATOM      6  C6  IND d   1       1.788   3.036  -5.798  0.00  0.00     0.015 A 
ATOM      7  C7  IND d   1       3.077   2.597  -5.688  0.00  0.00    -0.016 A 
ATOM      8  C8  IND d   1       4.074   3.561  -5.747  0.00  0.00    -0.047 A 
ATOM      9  C9  IND d   1       3.784   4.918  -5.935  0.00  0.00    -0.096 A 
ATOM     10  HN1 IND d   1       5.880   2.704  -5.585  0.00  0.00     0.298 HD
ENDROOT
TORSDOF 0
ENDMDL
