MODEL 1
REMARK minimizedAffinity -2.59314275
REMARK minimizedRMSD -1
REMARK  0 active torsions:
REMARK  status: ('A' for Active; 'I' for Inactive)
ROOT
ATOM      1  N1  IND d   1       5.265   3.657  -5.999  0.00  0.00    -0.196 N 
ATOM      2  C2  IND d   1       5.887   4.874  -5.997  0.00  0.00     0.054 A 
ATOM      3  C3  IND d   1       4.972   5.870  -6.000  0.00  0.00    -0.031 A 
ATOM      4  C4  IND d   1       2.403   5.730  -5.904  0.00  0.00     0.051 A 
ATOM      5  C5  IND d   1       1.371   4.834  -5.929  0.00  0.00    -0.031 A 
ATOM      6  C6  IND d   1       1.589   3.473  -5.976  0.00  0.00     0.015 A 
ATOM      7  C7  IND d   1       2.853   2.953  -5.990  0.00  0.00    -0.016 A 
ATOM      8  C8  IND d   1       3.903   3.860  -5.972  0.00  0.00    -0.047 A 
ATOM      9  C9  IND d   1       3.688   5.245  -5.966  0.00  0.00    -0.096 A 
ATOM     10  HN1 IND d   1       5.659   2.893  -6.014  0.00  0.00     0.298 HD
ENDROOT
TORSDOF 0
ENDMDL
