MODEL 1
REMARK minimizedAffinity -1.84051538
REMARK minimizedRMSD -1
REMARK  0 active torsions:
REMARK  status: ('A' for Active; 'I' for Inactive)
ROOT
ATOM      1  N1  IND d   1       4.812   5.667  -6.000  0.00  0.00    -0.196 N 
ATOM      2  C2  IND d   1       5.999   4.990  -5.997  0.00  0.00     0.054 A 
ATOM      3  C3  IND d   1       5.782   3.661  -5.873  0.00  0.00    -0.031 A 
ATOM      4  C4  IND d   1       3.558   2.370  -5.763  0.00  0.00     0.051 A 
ATOM      5  C5  IND d   1       2.206   2.557  -5.695  0.00  0.00    -0.031 A 
ATOM      6  C6  IND d   1       1.642   3.816  -5.728  0.00  0.00     0.015 A 
ATOM      7  C7  IND d   1       2.412   4.939  -5.843  0.00  0.00    -0.016 A 
ATOM      8  C8  IND d   1       3.785   4.753  -5.905  0.00  0.00    -0.047 A 
ATOM      9  C9  IND d   1       4.366   3.480  -5.829  0.00  0.00    -0.096 A 
ATOM     10  HN1 IND d   1       4.721   6.521  -6.052  0.00  0.00     0.298 HD
ENDROOT
TORSDOF 0
ENDMDL
