MODEL 1
REMARK minimizedAffinity -2.34827566
REMARK minimizedRMSD -1
REMARK  0 active torsions:
REMARK  status: ('A' for Active; 'I' for Inactive)
ROOT
ATOM      1  N1  IND d   1       3.094   5.280  -5.999  0.00  0.00    -0.196 N 
ATOM      2  C2  IND d   1       1.832   4.806  -5.770  0.00  0.00     0.054 A 
ATOM      3  C3  IND d   1       1.869   3.481  -5.501  0.00  0.00    -0.031 A 
ATOM      4  C4  IND d   1       3.898   1.912  -5.285  0.00  0.00     0.051 A 
ATOM      5  C5  IND d   1       5.255   1.878  -5.443  0.00  0.00    -0.031 A 
ATOM      6  C6  IND d   1       5.976   2.999  -5.799  0.00  0.00     0.015 A 
ATOM      7  C7  IND d   1       5.365   4.205  -6.000  0.00  0.00    -0.016 A 
ATOM      8  C8  IND d   1       3.986   4.241  -5.847  0.00  0.00    -0.047 A 
ATOM      9  C9  IND d   1       3.245   3.097  -5.528  0.00  0.00    -0.096 A 
ATOM     10  HN1 IND d   1       3.296   6.090  -6.204  0.00  0.00     0.298 HD
ENDROOT
TORSDOF 0
ENDMDL
