MODEL 1
REMARK minimizedAffinity -1.06400084
REMARK minimizedRMSD -1
REMARK  0 active torsions:
REMARK  status: ('A' for Active; 'I' for Inactive)
ROOT
ATOM      1  N1  IND d   1       1.352   3.370  -5.247  0.00  0.00    -0.196 N 
ATOM      2  C2  IND d   1       0.751   4.522  -5.674  0.00  0.00     0.054 A 
ATOM      3  C3  IND d   1       1.683   5.446  -5.998  0.00  0.00    -0.031 A 
ATOM      4  C4  IND d   1       4.250   5.250  -6.000  0.00  0.00     0.051 A 
ATOM      5  C5  IND d   1       5.266   4.404  -5.655  0.00  0.00    -0.031 A 
ATOM      6  C6  IND d   1       5.024   3.143  -5.148  0.00  0.00     0.015 A 
ATOM      7  C7  IND d   1       3.752   2.676  -4.978  0.00  0.00    -0.016 A 
ATOM      8  C8  IND d   1       2.718   3.535  -5.321  0.00  0.00    -0.047 A 
ATOM      9  C9  IND d   1       2.956   4.831  -5.795  0.00  0.00    -0.096 A 
ATOM     10  HN1 IND d   1       0.945   2.662  -4.978  0.00  0.00     0.298 HD
ENDROOT
TORSDOF 0
ENDMDL
