MODEL 1
REMARK minimizedAffinity 7.97438145
REMARK minimizedRMSD -1
REMARK  0 active torsions:
REMARK  status: ('A' for Active; 'I' for Inactive)
ROOT
ATOM      1  C2' OXE d   1      -4.646  -0.309  -5.903  0.00  0.00     0.078 C 
ATOM      2  C1' OXE d   1      -1.893   0.240  -5.893  0.00  0.00     0.078 C 
ATOM      3  C1  OXE d   1      -2.322  -1.205  -5.935  0.00  0.00    -0.078 A 
ATOM      4  C2  OXE d   1      -3.670  -1.466  -5.892  0.00  0.00    -0.078 A 
ATOM      5  C3  OXE d   1      -4.121  -2.779  -5.983  0.00  0.00     0.003 A 
ATOM      6  C4  OXE d   1      -3.213  -3.844  -5.963  0.00  0.00    -0.002 A 
ATOM      7  C5  OXE d   1      -1.835  -3.602  -5.966  0.00  0.00    -0.002 A 
ATOM      8  C6  OXE d   1      -1.374  -2.290  -5.995  0.00  0.00     0.003 A 
ENDROOT
TORSDOF 0
ENDMDL
