MODEL 1
REMARK minimizedAffinity 0.884768069
REMARK minimizedRMSD -1
REMARK  0 active torsions:
REMARK  status: ('A' for Active; 'I' for Inactive)
ROOT
ATOM      1  C2' OXE d   1       5.916  -5.098   1.989  0.00  0.00     0.078 C 
ATOM      2  C1' OXE d   1       5.204  -5.979   4.558  0.00  0.00     0.078 C 
ATOM      3  C1  OXE d   1       4.097  -5.754   3.559  0.00  0.00    -0.078 A 
ATOM      4  C2  OXE d   1       4.450  -5.278   2.319  0.00  0.00    -0.078 A 
ATOM      5  C3  OXE d   1       3.473  -5.105   1.343  0.00  0.00     0.003 A 
ATOM      6  C4  OXE d   1       2.118  -5.264   1.660  0.00  0.00    -0.002 A 
ATOM      7  C5  OXE d   1       1.734  -5.710   2.929  0.00  0.00    -0.002 A 
ATOM      8  C6  OXE d   1       2.711  -6.000   3.875  0.00  0.00     0.003 A 
ENDROOT
TORSDOF 0
ENDMDL
