MODEL 1
REMARK minimizedAffinity 6.82095861
REMARK minimizedRMSD -1
REMARK  0 active torsions:
REMARK  status: ('A' for Active; 'I' for Inactive)
ROOT
ATOM      1  C2' OXE d   1      -0.083   0.937   2.626  0.00  0.00     0.078 C 
ATOM      2  C1' OXE d   1      -1.894   3.060   2.935  0.00  0.00     0.078 C 
ATOM      3  C1  OXE d   1      -2.340   1.868   2.127  0.00  0.00    -0.078 A 
ATOM      4  C2  OXE d   1      -1.431   0.854   1.941  0.00  0.00    -0.078 A 
ATOM      5  C3  OXE d   1      -1.809  -0.293   1.250  0.00  0.00     0.003 A 
ATOM      6  C4  OXE d   1      -3.054  -0.358   0.611  0.00  0.00    -0.002 A 
ATOM      7  C5  OXE d   1      -3.980   0.680   0.754  0.00  0.00    -0.002 A 
ATOM      8  C6  OXE d   1      -3.655   1.779   1.542  0.00  0.00     0.003 A 
ENDROOT
TORSDOF 0
ENDMDL
