MODEL 1
REMARK minimizedAffinity 13.1429138
REMARK minimizedRMSD -1
REMARK  0 active torsions:
REMARK  status: ('A' for Active; 'I' for Inactive)
ROOT
ATOM      1  C2' OXE d   1      -2.259   0.090  -0.241  0.00  0.00     0.078 C 
ATOM      2  C1' OXE d   1      -1.853  -2.573   0.548  0.00  0.00     0.078 C 
ATOM      3  C1  OXE d   1      -1.324  -1.485   1.448  0.00  0.00    -0.078 A 
ATOM      4  C2  OXE d   1      -1.486  -0.185   1.031  0.00  0.00    -0.078 A 
ATOM      5  C3  OXE d   1      -1.064   0.859   1.849  0.00  0.00     0.003 A 
ATOM      6  C4  OXE d   1      -0.341   0.595   3.019  0.00  0.00    -0.002 A 
ATOM      7  C5  OXE d   1      -0.131  -0.721   3.442  0.00  0.00    -0.002 A 
ATOM      8  C6  OXE d   1      -0.652  -1.770   2.691  0.00  0.00     0.003 A 
ENDROOT
TORSDOF 0
ENDMDL
