MODEL 1
REMARK minimizedAffinity 7.91509914
REMARK minimizedRMSD -1
REMARK  0 active torsions:
REMARK  status: ('A' for Active; 'I' for Inactive)
ROOT
ATOM      1  C2' OXE d   1      -4.067  -0.454   5.499  0.00  0.00     0.078 C 
ATOM      2  C1' OXE d   1      -5.525   1.676   4.395  0.00  0.00     0.078 C 
ATOM      3  C1  OXE d   1      -4.347   1.150   3.613  0.00  0.00    -0.078 A 
ATOM      4  C2  OXE d   1      -3.611   0.138   4.183  0.00  0.00    -0.078 A 
ATOM      5  C3  OXE d   1      -2.547  -0.420   3.480  0.00  0.00     0.003 A 
ATOM      6  C4  OXE d   1      -2.126   0.140   2.268  0.00  0.00    -0.002 A 
ATOM      7  C5  OXE d   1      -2.837   1.196   1.689  0.00  0.00    -0.002 A 
ATOM      8  C6  OXE d   1      -3.973   1.683   2.327  0.00  0.00     0.003 A 
ENDROOT
TORSDOF 0
ENDMDL
