MODEL 1
REMARK minimizedAffinity 6.29051542
REMARK minimizedRMSD -1
REMARK  0 active torsions:
REMARK  status: ('A' for Active; 'I' for Inactive)
ROOT
ATOM      1  C2' OXE d   1      -2.242  -0.164  -5.915  0.00  0.00     0.078 C 
ATOM      2  C1' OXE d   1      -0.843  -2.598  -5.894  0.00  0.00     0.078 C 
ATOM      3  C1  OXE d   1      -2.350  -2.653  -5.940  0.00  0.00    -0.078 A 
ATOM      4  C2  OXE d   1      -3.027  -1.458  -5.903  0.00  0.00    -0.078 A 
ATOM      5  C3  OXE d   1      -4.416  -1.450  -5.998  0.00  0.00     0.003 A 
ATOM      6  C4  OXE d   1      -5.135  -2.652  -5.977  0.00  0.00    -0.002 A 
ATOM      7  C5  OXE d   1      -4.465  -3.880  -5.974  0.00  0.00    -0.002 A 
ATOM      8  C6  OXE d   1      -3.075  -3.898  -5.999  0.00  0.00     0.003 A 
ENDROOT
TORSDOF 0
ENDMDL
