MODEL 1
REMARK minimizedAffinity 9.56112385
REMARK minimizedRMSD -1
REMARK  0 active torsions:
REMARK  status: ('A' for Active; 'I' for Inactive)
ROOT
ATOM      1  C2' OXE d   1      -3.983  -3.853  -5.999  0.00  0.00     0.078 C 
ATOM      2  C1' OXE d   1      -5.219  -1.333  -6.000  0.00  0.00     0.078 C 
ATOM      3  C1  OXE d   1      -3.712  -1.376  -5.979  0.00  0.00    -0.078 A 
ATOM      4  C2  OXE d   1      -3.116  -2.614  -5.932  0.00  0.00    -0.078 A 
ATOM      5  C3  OXE d   1      -1.728  -2.712  -5.967  0.00  0.00     0.003 A 
ATOM      6  C4  OXE d   1      -0.934  -1.561  -5.894  0.00  0.00    -0.002 A 
ATOM      7  C5  OXE d   1      -1.521  -0.292  -5.901  0.00  0.00    -0.002 A 
ATOM      8  C6  OXE d   1      -2.905  -0.181  -5.986  0.00  0.00     0.003 A 
ENDROOT
TORSDOF 0
ENDMDL
