MODEL 1
REMARK minimizedAffinity -1.21853089
REMARK minimizedRMSD -1
REMARK  0 active torsions:
REMARK  status: ('A' for Active; 'I' for Inactive)
ROOT
ATOM      1  C2' OXE d   1      -5.999   0.776   4.868  0.00  0.00     0.078 C 
ATOM      2  C1' OXE d   1      -4.408  -0.496   2.936  0.00  0.00     0.078 C 
ATOM      3  C1  OXE d   1      -4.819   0.932   2.679  0.00  0.00    -0.078 A 
ATOM      4  C2  OXE d   1      -5.636   1.531   3.607  0.00  0.00    -0.078 A 
ATOM      5  C3  OXE d   1      -6.000   2.865   3.446  0.00  0.00     0.003 A 
ATOM      6  C4  OXE d   1      -5.668   3.554   2.273  0.00  0.00    -0.002 A 
ATOM      7  C5  OXE d   1      -4.870   2.949   1.297  0.00  0.00    -0.002 A 
ATOM      8  C6  OXE d   1      -4.402   1.656   1.504  0.00  0.00     0.003 A 
ENDROOT
TORSDOF 0
ENDMDL
