MODEL 1
REMARK minimizedAffinity 9.62753963
REMARK minimizedRMSD -1
REMARK  0 active torsions:
REMARK  status: ('A' for Active; 'I' for Inactive)
ROOT
ATOM      1  C2' OXE d   1      -4.115   1.199   2.304  0.00  0.00     0.078 C 
ATOM      2  C1' OXE d   1      -1.687  -0.170   2.644  0.00  0.00     0.078 C 
ATOM      3  C1  OXE d   1      -2.707  -0.260   3.752  0.00  0.00    -0.078 A 
ATOM      4  C2  OXE d   1      -3.873   0.451   3.597  0.00  0.00    -0.078 A 
ATOM      5  C3  OXE d   1      -4.870   0.359   4.564  0.00  0.00     0.003 A 
ATOM      6  C4  OXE d   1      -4.635  -0.327   5.761  0.00  0.00    -0.002 A 
ATOM      7  C5  OXE d   1      -3.439  -1.025   5.956  0.00  0.00    -0.002 A 
ATOM      8  C6  OXE d   1      -2.484  -1.037   4.946  0.00  0.00     0.003 A 
ENDROOT
TORSDOF 0
ENDMDL
