MODEL 1
REMARK minimizedAffinity 0.407960087
REMARK minimizedRMSD -1
REMARK  0 active torsions:
REMARK  status: ('A' for Active; 'I' for Inactive)
ROOT
ATOM      1  C2' OXE d   1      -5.060  -1.542  -5.949  0.00  0.00     0.078 C 
ATOM      2  C1' OXE d   1      -3.974  -4.130  -5.999  0.00  0.00     0.078 C 
ATOM      3  C1  OXE d   1      -3.016  -2.966  -5.977  0.00  0.00    -0.078 A 
ATOM      4  C2  OXE d   1      -3.556  -1.702  -6.000  0.00  0.00    -0.078 A 
ATOM      5  C3  OXE d   1      -2.718  -0.593  -5.925  0.00  0.00     0.003 A 
ATOM      6  C4  OXE d   1      -1.328  -0.750  -5.982  0.00  0.00    -0.002 A 
ATOM      7  C5  OXE d   1      -0.757  -2.028  -5.999  0.00  0.00    -0.002 A 
ATOM      8  C6  OXE d   1      -1.585  -3.144  -5.954  0.00  0.00     0.003 A 
ENDROOT
TORSDOF 0
ENDMDL
