MODEL 1
REMARK minimizedAffinity 1.22238505
REMARK minimizedRMSD -1
REMARK  0 active torsions:
REMARK  status: ('A' for Active; 'I' for Inactive)
ROOT
ATOM      1  C2' OXE d   1      -2.572  -0.094  -5.999  0.00  0.00     0.078 C 
ATOM      2  C1' OXE d   1      -1.821  -2.799  -5.999  0.00  0.00     0.078 C 
ATOM      3  C1  OXE d   1      -3.295  -2.478  -5.984  0.00  0.00    -0.078 A 
ATOM      4  C2  OXE d   1      -3.653  -1.152  -5.937  0.00  0.00    -0.078 A 
ATOM      5  C3  OXE d   1      -4.999  -0.799  -5.977  0.00  0.00     0.003 A 
ATOM      6  C4  OXE d   1      -5.992  -1.784  -5.909  0.00  0.00    -0.002 A 
ATOM      7  C5  OXE d   1      -5.648  -3.140  -5.916  0.00  0.00    -0.002 A 
ATOM      8  C6  OXE d   1      -4.308  -3.503  -5.996  0.00  0.00     0.003 A 
ENDROOT
TORSDOF 0
ENDMDL
