MODEL 1
REMARK minimizedAffinity 4.8352499
REMARK minimizedRMSD -1
REMARK  0 active torsions:
REMARK  status: ('A' for Active; 'I' for Inactive)
ROOT
ATOM      1  C2' OXE d   1      -2.061   0.025   1.062  0.00  0.00     0.078 C 
ATOM      2  C1' OXE d   1      -4.314  -1.424   0.222  0.00  0.00     0.078 C 
ATOM      3  C1  OXE d   1      -4.541  -0.204   1.080  0.00  0.00    -0.078 A 
ATOM      4  C2  OXE d   1      -3.431   0.472   1.525  0.00  0.00    -0.078 A 
ATOM      5  C3  OXE d   1      -3.585   1.635   2.274  0.00  0.00     0.003 A 
ATOM      6  C4  OXE d   1      -4.855   2.036   2.707  0.00  0.00    -0.002 A 
ATOM      7  C5  OXE d   1      -5.997   1.339   2.297  0.00  0.00    -0.002 A 
ATOM      8  C6  OXE d   1      -5.861   0.244   1.451  0.00  0.00     0.003 A 
ENDROOT
TORSDOF 0
ENDMDL
