MODEL 1
REMARK minimizedAffinity 7.2610755
REMARK minimizedRMSD -1
REMARK  0 active torsions:
REMARK  status: ('A' for Active; 'I' for Inactive)
ROOT
ATOM      1  C2' OXE d   1       2.585   1.344  -1.964  0.00  0.00     0.078 C 
ATOM      2  C1' OXE d   1       2.452  -0.403  -4.157  0.00  0.00     0.078 C 
ATOM      3  C1  OXE d   1       3.106   0.940  -4.366  0.00  0.00    -0.078 A 
ATOM      4  C2  OXE d   1       3.125   1.806  -3.299  0.00  0.00    -0.078 A 
ATOM      5  C3  OXE d   1       3.765   3.036  -3.422  0.00  0.00     0.003 A 
ATOM      6  C4  OXE d   1       4.254   3.460  -4.664  0.00  0.00    -0.002 A 
ATOM      7  C5  OXE d   1       4.209   2.608  -5.773  0.00  0.00    -0.002 A 
ATOM      8  C6  OXE d   1       3.678   1.331  -5.630  0.00  0.00     0.003 A 
ENDROOT
TORSDOF 0
ENDMDL
