MODEL 1
REMARK minimizedAffinity 7.53927612
REMARK minimizedRMSD -1
REMARK  0 active torsions:
REMARK  status: ('A' for Active; 'I' for Inactive)
ROOT
ATOM      1  C2' OXE d   1      -4.927  -1.651  -5.972  0.00  0.00     0.078 C 
ATOM      2  C1' OXE d   1      -2.485  -0.266  -5.950  0.00  0.00     0.078 C 
ATOM      3  C1  OXE d   1      -2.439  -1.774  -5.953  0.00  0.00    -0.078 A 
ATOM      4  C2  OXE d   1      -3.639  -2.443  -5.916  0.00  0.00    -0.078 A 
ATOM      5  C3  OXE d   1      -3.654  -3.834  -5.972  0.00  0.00     0.003 A 
ATOM      6  C4  OXE d   1      -2.458  -4.559  -5.910  0.00  0.00    -0.002 A 
ATOM      7  C5  OXE d   1      -1.226  -3.897  -5.906  0.00  0.00    -0.002 A 
ATOM      8  C6  OXE d   1      -1.198  -2.508  -5.971  0.00  0.00     0.003 A 
ENDROOT
TORSDOF 0
ENDMDL
