MODEL 1
REMARK minimizedAffinity 3.23901653
REMARK minimizedRMSD -1
REMARK  0 active torsions:
REMARK  status: ('A' for Active; 'I' for Inactive)
ROOT
ATOM      1  C2' OXE d   1      -3.173  -0.024  -5.945  0.00  0.00     0.078 C 
ATOM      2  C1' OXE d   1      -5.587  -1.456  -5.997  0.00  0.00     0.078 C 
ATOM      3  C1  OXE d   1      -4.301  -2.244  -5.975  0.00  0.00    -0.078 A 
ATOM      4  C2  OXE d   1      -3.124  -1.535  -5.997  0.00  0.00    -0.078 A 
ATOM      5  C3  OXE d   1      -1.910  -2.212  -5.923  0.00  0.00     0.003 A 
ATOM      6  C4  OXE d   1      -1.873  -3.611  -5.981  0.00  0.00    -0.002 A 
ATOM      7  C5  OXE d   1      -3.060  -4.352  -6.000  0.00  0.00    -0.002 A 
ATOM      8  C6  OXE d   1      -4.280  -3.686  -5.954  0.00  0.00     0.003 A 
ENDROOT
TORSDOF 0
ENDMDL
