MODEL 1
REMARK minimizedAffinity -1.29799283
REMARK minimizedRMSD -1
REMARK  0 active torsions:
REMARK  status: ('A' for Active; 'I' for Inactive)
ROOT
ATOM      1  C2' OXE d   1      -1.638  -2.970  -5.951  0.00  0.00     0.078 C 
ATOM      2  C1' OXE d   1      -2.814  -0.421  -5.961  0.00  0.00     0.078 C 
ATOM      3  C1  OXE d   1      -3.731  -1.619  -5.956  0.00  0.00    -0.078 A 
ATOM      4  C2  OXE d   1      -3.147  -2.862  -5.998  0.00  0.00    -0.078 A 
ATOM      5  C3  OXE d   1      -3.946  -4.001  -5.940  0.00  0.00     0.003 A 
ATOM      6  C4  OXE d   1      -5.340  -3.892  -5.994  0.00  0.00    -0.002 A 
ATOM      7  C5  OXE d   1      -5.955  -2.636  -5.991  0.00  0.00    -0.002 A 
ATOM      8  C6  OXE d   1      -5.167  -1.492  -5.930  0.00  0.00     0.003 A 
ENDROOT
TORSDOF 0
ENDMDL
