MODEL 1
REMARK minimizedAffinity 12.1259356
REMARK minimizedRMSD -1
REMARK  0 active torsions:
REMARK  status: ('A' for Active; 'I' for Inactive)
ROOT
ATOM      1  C2' OXE d   1       5.972  -4.795   3.023  0.00  0.00     0.078 C 
ATOM      2  C1' OXE d   1       4.644  -2.345   2.688  0.00  0.00     0.078 C 
ATOM      3  C1  OXE d   1       3.832  -3.609   2.556  0.00  0.00    -0.078 A 
ATOM      4  C2  OXE d   1       4.499  -4.804   2.675  0.00  0.00    -0.078 A 
ATOM      5  C3  OXE d   1       3.788  -5.999   2.616  0.00  0.00     0.003 A 
ATOM      6  C4  OXE d   1       2.428  -5.999   2.285  0.00  0.00    -0.002 A 
ATOM      7  C5  OXE d   1       1.738  -4.794   2.120  0.00  0.00    -0.002 A 
ATOM      8  C6  OXE d   1       2.414  -3.592   2.294  0.00  0.00     0.003 A 
ENDROOT
TORSDOF 0
ENDMDL
