MODEL 1
REMARK minimizedAffinity 1.22997713
REMARK minimizedRMSD -1
REMARK  0 active torsions:
REMARK  status: ('A' for Active; 'I' for Inactive)
ROOT
ATOM      1  C2' OXE d   1      -2.983  -0.739  -5.951  0.00  0.00     0.078 C 
ATOM      2  C1' OXE d   1      -5.759  -1.155  -5.970  0.00  0.00     0.078 C 
ATOM      3  C1  OXE d   1      -4.865  -2.370  -5.962  0.00  0.00    -0.078 A 
ATOM      4  C2  OXE d   1      -3.508  -2.157  -5.999  0.00  0.00    -0.078 A 
ATOM      5  C3  OXE d   1      -2.638  -3.242  -5.938  0.00  0.00     0.003 A 
ATOM      6  C4  OXE d   1      -3.132  -4.551  -5.993  0.00  0.00    -0.002 A 
ATOM      7  C5  OXE d   1      -4.510  -4.790  -5.995  0.00  0.00    -0.002 A 
ATOM      8  C6  OXE d   1      -5.389  -3.713  -5.937  0.00  0.00     0.003 A 
ENDROOT
TORSDOF 0
ENDMDL
