MODEL 1
REMARK minimizedAffinity 1.36518526
REMARK minimizedRMSD -1
REMARK  0 active torsions:
REMARK  status: ('A' for Active; 'I' for Inactive)
ROOT
ATOM      1  C2' OXE d   1      -5.933  -2.900  -5.955  0.00  0.00     0.078 C 
ATOM      2  C1' OXE d   1      -4.140  -5.059  -6.000  0.00  0.00     0.078 C 
ATOM      3  C1  OXE d   1      -3.563  -3.666  -5.974  0.00  0.00    -0.078 A 
ATOM      4  C2  OXE d   1      -4.447  -2.615  -5.999  0.00  0.00    -0.078 A 
ATOM      5  C3  OXE d   1      -3.969  -1.310  -5.921  0.00  0.00     0.003 A 
ATOM      6  C4  OXE d   1      -2.593  -1.055  -5.973  0.00  0.00    -0.002 A 
ATOM      7  C5  OXE d   1      -1.676  -2.111  -5.987  0.00  0.00    -0.002 A 
ATOM      8  C6  OXE d   1      -2.142  -3.420  -5.945  0.00  0.00     0.003 A 
ENDROOT
TORSDOF 0
ENDMDL
