MODEL 1
REMARK minimizedAffinity -2.74462366
REMARK minimizedRMSD -1
REMARK  1 active torsions:
REMARK  status: ('A' for Active; 'I' for Inactive)
REMARK    1  A    between atoms: C1_2  and  C2_3 
ROOT
ATOM      1  C2  UNL d   1       0.308   0.648   1.294  0.00  0.00    -0.076 A 
ATOM      2  C3  UNL d   1       0.333   0.087   0.005  0.00  0.00     0.004 A 
ATOM      3  C4  UNL d   1      -0.847  -0.275  -0.643  0.00  0.00    -0.003 A 
ATOM      4  C5  UNL d   1      -2.071  -0.081  -0.013  0.00  0.00     0.000 A 
ATOM      5  C6  UNL d   1      -2.116   0.491   1.259  0.00  0.00     0.000 A 
ATOM      6  C7  UNL d   1      -0.936   0.876   1.919  0.00  0.00    -0.073 A 
ATOM      7  C8  UNL d   1      -1.042   1.483   3.291  0.00  0.00     0.078 C 
ENDROOT
BRANCH   1   8
ATOM      8  C1  UNL d   1       1.622   0.995   1.957  0.00  0.00     0.053 C 
ATOM      9  C   UNL d   1       2.606  -0.164   1.944  0.00  0.00     0.018 C 
ENDBRANCH   1   8
TORSDOF 1
ENDMDL
