MODEL 1
REMARK minimizedAffinity -5.15309143
REMARK minimizedRMSD -1
REMARK  1 active torsions:
REMARK  status: ('A' for Active; 'I' for Inactive)
REMARK    1  A    between atoms: C1_2  and  C2_3 
ROOT
ATOM      1  C2  UNL d   1      -0.022  -0.124   0.461  0.00  0.00    -0.076 A 
ATOM      2  C3  UNL d   1      -1.391  -0.027   0.160  0.00  0.00     0.004 A 
ATOM      3  C4  UNL d   1      -2.316   0.343   1.135  0.00  0.00    -0.003 A 
ATOM      4  C5  UNL d   1      -1.886   0.622   2.428  0.00  0.00     0.000 A 
ATOM      5  C6  UNL d   1      -0.529   0.548   2.740  0.00  0.00     0.000 A 
ATOM      6  C7  UNL d   1       0.418   0.192   1.765  0.00  0.00    -0.073 A 
ATOM      7  C8  UNL d   1       1.868   0.122   2.158  0.00  0.00     0.078 C 
ENDROOT
BRANCH   1   8
ATOM      8  C1  UNL d   1       0.931  -0.556  -0.630  0.00  0.00     0.053 C 
ATOM      9  C   UNL d   1       0.280  -0.560  -2.004  0.00  0.00     0.018 C 
ENDBRANCH   1   8
TORSDOF 1
ENDMDL
