MODEL 1
REMARK minimizedAffinity -4.81290627
REMARK minimizedRMSD -1
REMARK  1 active torsions:
REMARK  status: ('A' for Active; 'I' for Inactive)
REMARK    1  A    between atoms: C1_2  and  C2_3 
ROOT
ATOM      1  C2  UNL d   1      -0.275  -0.043   0.086  0.00  0.00    -0.076 A 
ATOM      2  C3  UNL d   1      -1.608   0.404   0.082  0.00  0.00     0.004 A 
ATOM      3  C4  UNL d   1      -2.135   1.098   1.170  0.00  0.00    -0.003 A 
ATOM      4  C5  UNL d   1      -1.338   1.357   2.279  0.00  0.00     0.000 A 
ATOM      5  C6  UNL d   1      -0.008   0.937   2.293  0.00  0.00     0.000 A 
ATOM      6  C7  UNL d   1       0.543   0.250   1.198  0.00  0.00    -0.073 A 
ATOM      7  C8  UNL d   1       1.981  -0.186   1.269  0.00  0.00     0.078 C 
ENDROOT
BRANCH   1   8
ATOM      8  C1  UNL d   1       0.233  -0.815  -1.110  0.00  0.00     0.053 C 
ATOM      9  C   UNL d   1       0.608   0.092  -2.272  0.00  0.00     0.018 C 
ENDBRANCH   1   8
TORSDOF 1
ENDMDL
