MODEL 1
REMARK minimizedAffinity -1.89863884
REMARK minimizedRMSD -1
REMARK  1 active torsions:
REMARK  status: ('A' for Active; 'I' for Inactive)
REMARK    1  A    between atoms: C1_2  and  C2_3 
ROOT
ATOM      1  C2  UNL d   1      -0.938  -0.069   0.108  0.00  0.00    -0.076 A 
ATOM      2  C3  UNL d   1       0.030   0.409   1.009  0.00  0.00     0.004 A 
ATOM      3  C4  UNL d   1      -0.343   1.041   2.194  0.00  0.00    -0.003 A 
ATOM      4  C5  UNL d   1      -1.689   1.205   2.498  0.00  0.00     0.000 A 
ATOM      5  C6  UNL d   1      -2.663   0.721   1.625  0.00  0.00     0.000 A 
ATOM      6  C7  UNL d   1      -2.305   0.067   0.434  0.00  0.00    -0.073 A 
ATOM      7  C8  UNL d   1      -3.396  -0.430  -0.473  0.00  0.00     0.078 C 
ENDROOT
BRANCH   1   8
ATOM      8  C1  UNL d   1      -0.475  -0.722  -1.174  0.00  0.00     0.053 C 
ATOM      9  C   UNL d   1       1.024  -0.979  -1.189  0.00  0.00     0.018 C 
ENDBRANCH   1   8
TORSDOF 1
ENDMDL
