MODEL 1
REMARK minimizedAffinity -5.00334072
REMARK minimizedRMSD -1
REMARK  1 active torsions:
REMARK  status: ('A' for Active; 'I' for Inactive)
REMARK    1  A    between atoms: C1_2  and  C2_3 
ROOT
ATOM      1  C2  UNL d   1       0.275  -0.135  -1.343  0.00  0.00    -0.076 A 
ATOM      2  C3  UNL d   1      -0.331   0.773  -2.229  0.00  0.00     0.004 A 
ATOM      3  C4  UNL d   1       0.116   0.900  -3.543  0.00  0.00    -0.003 A 
ATOM      4  C5  UNL d   1       1.176   0.120  -3.993  0.00  0.00     0.000 A 
ATOM      5  C6  UNL d   1       1.777  -0.799  -3.132  0.00  0.00     0.000 A 
ATOM      6  C7  UNL d   1       1.328  -0.950  -1.809  0.00  0.00    -0.073 A 
ATOM      7  C8  UNL d   1       2.016  -1.952  -0.923  0.00  0.00     0.078 C 
ENDROOT
BRANCH   1   8
ATOM      8  C1  UNL d   1      -0.235  -0.209   0.079  0.00  0.00     0.053 C 
ATOM      9  C   UNL d   1      -1.495   0.617   0.290  0.00  0.00     0.018 C 
ENDBRANCH   1   8
TORSDOF 1
ENDMDL
