MODEL 1
REMARK minimizedAffinity -0.125615627
REMARK minimizedRMSD -1
REMARK  0 active torsions:
REMARK  status: ('A' for Active; 'I' for Inactive)
ROOT
ATOM      1  O1  BZF d   1       3.026   1.892   1.791  0.00  0.00    -0.204 OA
ATOM      2  C2  BZF d   1       2.358   2.055   0.593  0.00  0.00     0.174 A 
ATOM      3  C3  BZF d   1       1.567   0.993   0.338  0.00  0.00    -0.012 A 
ATOM      4  C3A BZF d   1       1.681   0.153   1.490  0.00  0.00    -0.107 A 
ATOM      5  C4  BZF d   1       1.121  -1.042   1.840  0.00  0.00     0.055 A 
ATOM      6  C5  BZF d   1       1.498  -1.633   3.005  0.00  0.00    -0.016 A 
ATOM      7  C6  BZF d   1       2.436  -1.060   3.839  0.00  0.00     0.022 A 
ATOM      8  C7  BZF d   1       3.016   0.127   3.536  0.00  0.00     0.029 A 
ATOM      9  C7A BZF d   1       2.612   0.742   2.377  0.00  0.00     0.058 A 
ENDROOT
TORSDOF 0
ENDMDL
