MODEL 1
REMARK minimizedAffinity 9.74238014
REMARK minimizedRMSD -1
REMARK  0 active torsions:
REMARK  status: ('A' for Active; 'I' for Inactive)
ROOT
ATOM      1  O1  BZF d   1       1.259  -0.459   0.938  0.00  0.00    -0.204 OA
ATOM      2  C2  BZF d   1       0.657   0.325  -0.027  0.00  0.00     0.174 A 
ATOM      3  C3  BZF d   1       0.779   1.633   0.274  0.00  0.00    -0.012 A 
ATOM      4  C3A BZF d   1       1.582   1.673   1.458  0.00  0.00    -0.107 A 
ATOM      5  C4  BZF d   1       2.062   2.690   2.233  0.00  0.00     0.055 A 
ATOM      6  C5  BZF d   1       2.754   2.389   3.363  0.00  0.00    -0.016 A 
ATOM      7  C6  BZF d   1       2.980   1.085   3.750  0.00  0.00     0.022 A 
ATOM      8  C7  BZF d   1       2.527   0.042   3.011  0.00  0.00     0.029 A 
ATOM      9  C7A BZF d   1       1.856   0.343   1.852  0.00  0.00     0.058 A 
ENDROOT
TORSDOF 0
ENDMDL
