MODEL 1
REMARK minimizedAffinity 13.2218914
REMARK minimizedRMSD -1
REMARK  0 active torsions:
REMARK  status: ('A' for Active; 'I' for Inactive)
ROOT
ATOM      1  O1  BZF d   1      -0.211  -3.179  -2.653  0.00  0.00    -0.204 OA
ATOM      2  C2  BZF d   1       1.041  -3.761  -2.602  0.00  0.00     0.174 A 
ATOM      3  C3  BZF d   1       1.641  -3.504  -1.421  0.00  0.00    -0.012 A 
ATOM      4  C3A BZF d   1       0.668  -2.789  -0.653  0.00  0.00    -0.107 A 
ATOM      5  C4  BZF d   1       0.665  -2.272   0.611  0.00  0.00     0.055 A 
ATOM      6  C5  BZF d   1      -0.417  -1.567   1.034  0.00  0.00    -0.016 A 
ATOM      7  C6  BZF d   1      -1.510  -1.356   0.219  0.00  0.00     0.022 A 
ATOM      8  C7  BZF d   1      -1.555  -1.854  -1.041  0.00  0.00     0.029 A 
ATOM      9  C7A BZF d   1      -0.477  -2.595  -1.460  0.00  0.00     0.058 A 
ENDROOT
TORSDOF 0
ENDMDL
