MODEL 1
REMARK minimizedAffinity 9.27857876
REMARK minimizedRMSD -1
REMARK  0 active torsions:
REMARK  status: ('A' for Active; 'I' for Inactive)
ROOT
ATOM      1  O1  BZF d   1       5.187  -2.586   2.824  0.00  0.00    -0.204 OA
ATOM      2  C2  BZF d   1       5.995  -3.231   3.740  0.00  0.00     0.174 A 
ATOM      3  C3  BZF d   1       5.294  -3.569   4.842  0.00  0.00    -0.012 A 
ATOM      4  C3A BZF d   1       3.944  -3.189   4.560  0.00  0.00    -0.107 A 
ATOM      5  C4  BZF d   1       2.776  -3.282   5.261  0.00  0.00     0.055 A 
ATOM      6  C5  BZF d   1       1.643  -2.750   4.732  0.00  0.00    -0.016 A 
ATOM      7  C6  BZF d   1       1.642  -2.114   3.509  0.00  0.00     0.022 A 
ATOM      8  C7  BZF d   1       2.775  -2.001   2.773  0.00  0.00     0.029 A 
ATOM      9  C7A BZF d   1       3.915  -2.566   3.290  0.00  0.00     0.058 A 
ENDROOT
TORSDOF 0
ENDMDL
