MODEL 1
REMARK minimizedAffinity 3.78070354
REMARK minimizedRMSD -1
REMARK  0 active torsions:
REMARK  status: ('A' for Active; 'I' for Inactive)
ROOT
ATOM      1  O1  BZF d   1       2.410   1.663   1.373  0.00  0.00    -0.204 OA
ATOM      2  C2  BZF d   1       2.859   0.703   2.259  0.00  0.00     0.174 A 
ATOM      3  C3  BZF d   1       2.013  -0.347   2.297  0.00  0.00    -0.012 A 
ATOM      4  C3A BZF d   1       1.017  -0.063   1.309  0.00  0.00    -0.107 A 
ATOM      5  C4  BZF d   1      -0.085  -0.737   0.866  0.00  0.00     0.055 A 
ATOM      6  C5  BZF d   1      -0.890  -0.152  -0.059  0.00  0.00    -0.016 A 
ATOM      7  C6  BZF d   1      -0.625   1.106  -0.559  0.00  0.00     0.022 A 
ATOM      8  C7  BZF d   1       0.459   1.812  -0.154  0.00  0.00     0.029 A 
ATOM      9  C7A BZF d   1       1.292   1.209   0.756  0.00  0.00     0.058 A 
ENDROOT
TORSDOF 0
ENDMDL
