MODEL 1
REMARK minimizedAffinity -4.48672581
REMARK minimizedRMSD -1
REMARK  0 active torsions:
REMARK  status: ('A' for Active; 'I' for Inactive)
ROOT
ATOM      1  O1  BZF d   1       1.838  -2.247   3.346  0.00  0.00    -0.204 OA
ATOM      2  C2  BZF d   1       2.920  -1.824   4.094  0.00  0.00     0.174 A 
ATOM      3  C3  BZF d   1       3.482  -0.728   3.545  0.00  0.00    -0.012 A 
ATOM      4  C3A BZF d   1       2.647  -0.394   2.432  0.00  0.00    -0.107 A 
ATOM      5  C4  BZF d   1       2.677   0.606   1.503  0.00  0.00     0.055 A 
ATOM      6  C5  BZF d   1       1.756   0.606   0.503  0.00  0.00    -0.016 A 
ATOM      7  C6  BZF d   1       0.797  -0.379   0.400  0.00  0.00     0.022 A 
ATOM      8  C7  BZF d   1       0.724  -1.389   1.301  0.00  0.00     0.029 A 
ATOM      9  C7A BZF d   1       1.632  -1.373   2.331  0.00  0.00     0.058 A 
ENDROOT
TORSDOF 0
ENDMDL
