MODEL 1
REMARK minimizedAffinity 5.25486565
REMARK minimizedRMSD -1
REMARK  0 active torsions:
REMARK  status: ('A' for Active; 'I' for Inactive)
ROOT
ATOM      1  O1  BZF d   1       0.762  -0.776   0.965  0.00  0.00    -0.204 OA
ATOM      2  C2  BZF d   1      -0.446  -1.301   0.548  0.00  0.00     0.174 A 
ATOM      3  C3  BZF d   1      -1.264  -0.326   0.103  0.00  0.00    -0.012 A 
ATOM      4  C3A BZF d   1      -0.487   0.874   0.165  0.00  0.00    -0.107 A 
ATOM      5  C4  BZF d   1      -0.743   2.176  -0.158  0.00  0.00     0.055 A 
ATOM      6  C5  BZF d   1       0.204   3.118   0.092  0.00  0.00    -0.016 A 
ATOM      7  C6  BZF d   1       1.415   2.794   0.668  0.00  0.00     0.022 A 
ATOM      8  C7  BZF d   1       1.717   1.515   1.001  0.00  0.00     0.029 A 
ATOM      9  C7A BZF d   1       0.774   0.557   0.720  0.00  0.00     0.058 A 
ENDROOT
TORSDOF 0
ENDMDL
