MODEL 1
REMARK minimizedAffinity 11.8134174
REMARK minimizedRMSD -1
REMARK  0 active torsions:
REMARK  status: ('A' for Active; 'I' for Inactive)
ROOT
ATOM      1  O1  BZF d   1      -0.627  -4.077  -2.531  0.00  0.00    -0.204 OA
ATOM      2  C2  BZF d   1      -1.841  -3.551  -2.929  0.00  0.00     0.174 A 
ATOM      3  C3  BZF d   1      -2.324  -2.705  -1.997  0.00  0.00    -0.012 A 
ATOM      4  C3A BZF d   1      -1.308  -2.631  -0.993  0.00  0.00    -0.107 A 
ATOM      5  C4  BZF d   1      -1.195  -1.940   0.180  0.00  0.00     0.055 A 
ATOM      6  C5  BZF d   1      -0.106  -2.145   0.966  0.00  0.00    -0.016 A 
ATOM      7  C6  BZF d   1       0.886  -3.037   0.613  0.00  0.00     0.022 A 
ATOM      8  C7  BZF d   1       0.821  -3.741  -0.543  0.00  0.00     0.029 A 
ATOM      9  C7A BZF d   1      -0.263  -3.511  -1.355  0.00  0.00     0.058 A 
ENDROOT
TORSDOF 0
ENDMDL
