MODEL 1
REMARK minimizedAffinity 1.17646229
REMARK minimizedRMSD -1
REMARK  0 active torsions:
REMARK  status: ('A' for Active; 'I' for Inactive)
ROOT
ATOM      1  O1  BZF d   1       1.351  -1.579   2.997  0.00  0.00    -0.204 OA
ATOM      2  C2  BZF d   1       2.465  -1.071   3.638  0.00  0.00     0.174 A 
ATOM      3  C3  BZF d   1       2.900   0.049   3.025  0.00  0.00    -0.012 A 
ATOM      4  C3A BZF d   1       1.948   0.305   1.988  0.00  0.00    -0.107 A 
ATOM      5  C4  BZF d   1       1.827   1.286   1.046  0.00  0.00     0.055 A 
ATOM      6  C5  BZF d   1       0.822   1.206   0.134  0.00  0.00    -0.016 A 
ATOM      7  C6  BZF d   1      -0.074   0.158   0.132  0.00  0.00     0.022 A 
ATOM      8  C7  BZF d   1       0.002  -0.836   1.050  0.00  0.00     0.029 A 
ATOM      9  C7A BZF d   1       0.996  -0.741   1.993  0.00  0.00     0.058 A 
ENDROOT
TORSDOF 0
ENDMDL
