MODEL 1
REMARK minimizedAffinity 10.3203478
REMARK minimizedRMSD -1
REMARK  0 active torsions:
REMARK  status: ('A' for Active; 'I' for Inactive)
ROOT
ATOM      1  C1  DEN d   1       5.920   1.662   5.980  0.00  0.00     0.130 A 
ATOM      2  C2  DEN d   1       5.222   2.614   5.120  0.00  0.00    -0.031 A 
ATOM      3  C3  DEN d   1       4.433   1.847   4.135  0.00  0.00     0.027 A 
ATOM      4  C4  DEN d   1       4.223  -0.709   3.862  0.00  0.00     0.027 A 
ATOM      5  C5  DEN d   1       4.638  -1.928   4.351  0.00  0.00    -0.003 A 
ATOM      6  C6  DEN d   1       5.529  -2.035   5.386  0.00  0.00     0.001 A 
ATOM      7  C7  DEN d   1       5.999  -0.902   5.996  0.00  0.00     0.017 A 
ATOM      8  C8  DEN d   1       5.591   0.331   5.504  0.00  0.00    -0.094 A 
ATOM      9  C9  DEN d   1       4.680   0.418   4.465  0.00  0.00    -0.072 A 
ENDROOT
TORSDOF 0
ENDMDL
