MODEL 1
REMARK minimizedAffinity 8.54335308
REMARK minimizedRMSD -1
REMARK  0 active torsions:
REMARK  status: ('A' for Active; 'I' for Inactive)
ROOT
ATOM      1  C1  DEN d   1       2.070  -1.536  -1.216  0.00  0.00     0.130 A 
ATOM      2  C2  DEN d   1       1.593  -2.765  -0.587  0.00  0.00    -0.031 A 
ATOM      3  C3  DEN d   1       0.271  -2.490   0.008  0.00  0.00     0.027 A 
ATOM      4  C4  DEN d   1      -1.081  -0.293   0.014  0.00  0.00     0.027 A 
ATOM      5  C5  DEN d   1      -1.082   1.025  -0.385  0.00  0.00    -0.003 A 
ATOM      6  C6  DEN d   1      -0.026   1.587  -1.053  0.00  0.00     0.001 A 
ATOM      7  C7  DEN d   1       1.057   0.815  -1.383  0.00  0.00     0.017 A 
ATOM      8  C8  DEN d   1       1.068  -0.514  -0.978  0.00  0.00    -0.094 A 
ATOM      9  C9  DEN d   1      -0.015  -1.066  -0.314  0.00  0.00    -0.072 A 
ENDROOT
TORSDOF 0
ENDMDL
