MODEL 1
REMARK minimizedAffinity -3.32980251
REMARK minimizedRMSD -1
REMARK  0 active torsions:
REMARK  status: ('A' for Active; 'I' for Inactive)
ROOT
ATOM      1  C1  DEN d   1       0.964   1.542  -2.556  0.00  0.00     0.130 A 
ATOM      2  C2  DEN d   1       0.859   1.460  -1.102  0.00  0.00    -0.031 A 
ATOM      3  C3  DEN d   1       1.019   0.044  -0.712  0.00  0.00     0.027 A 
ATOM      4  C4  DEN d   1       1.423  -2.016  -2.211  0.00  0.00     0.027 A 
ATOM      5  C5  DEN d   1       1.574  -2.446  -3.511  0.00  0.00    -0.003 A 
ATOM      6  C6  DEN d   1       1.500  -1.589  -4.577  0.00  0.00     0.001 A 
ATOM      7  C7  DEN d   1       1.313  -0.249  -4.360  0.00  0.00     0.017 A 
ATOM      8  C8  DEN d   1       1.152   0.191  -3.052  0.00  0.00    -0.094 A 
ATOM      9  C9  DEN d   1       1.242  -0.689  -1.987  0.00  0.00    -0.072 A 
ENDROOT
TORSDOF 0
ENDMDL
