MODEL 1
REMARK minimizedAffinity 11.5066586
REMARK minimizedRMSD -1
REMARK  0 active torsions:
REMARK  status: ('A' for Active; 'I' for Inactive)
ROOT
ATOM      1  C1  DEN d   1      -5.588  -0.817   3.783  0.00  0.00     0.130 A 
ATOM      2  C2  DEN d   1      -5.517  -2.259   3.561  0.00  0.00    -0.031 A 
ATOM      3  C3  DEN d   1      -4.121  -2.600   3.224  0.00  0.00     0.027 A 
ATOM      4  C4  DEN d   1      -2.071  -1.046   3.031  0.00  0.00     0.027 A 
ATOM      5  C5  DEN d   1      -1.640   0.259   3.119  0.00  0.00    -0.003 A 
ATOM      6  C6  DEN d   1      -2.494   1.293   3.399  0.00  0.00     0.001 A 
ATOM      7  C7  DEN d   1      -3.817   1.033   3.646  0.00  0.00     0.017 A 
ATOM      8  C8  DEN d   1      -4.260  -0.279   3.551  0.00  0.00    -0.094 A 
ATOM      9  C9  DEN d   1      -3.379  -1.312   3.279  0.00  0.00    -0.072 A 
ENDROOT
TORSDOF 0
ENDMDL
