MODEL 1
REMARK minimizedAffinity 5.38556385
REMARK minimizedRMSD -1
REMARK  0 active torsions:
REMARK  status: ('A' for Active; 'I' for Inactive)
ROOT
ATOM      1  C1  DEN d   1       1.301   1.913  -2.821  0.00  0.00     0.130 A 
ATOM      2  C2  DEN d   1       1.567   2.242  -4.219  0.00  0.00    -0.031 A 
ATOM      3  C3  DEN d   1       1.654   0.978  -4.977  0.00  0.00     0.027 A 
ATOM      4  C4  DEN d   1       1.398  -1.444  -4.129  0.00  0.00     0.027 A 
ATOM      5  C5  DEN d   1       1.176  -2.227  -3.017  0.00  0.00    -0.003 A 
ATOM      6  C6  DEN d   1       1.016  -1.690  -1.767  0.00  0.00     0.001 A 
ATOM      7  C7  DEN d   1       1.030  -0.330  -1.605  0.00  0.00     0.017 A 
ATOM      8  C8  DEN d   1       1.260   0.465  -2.720  0.00  0.00    -0.094 A 
ATOM      9  C9  DEN d   1       1.408  -0.096  -3.977  0.00  0.00    -0.072 A 
ENDROOT
TORSDOF 0
ENDMDL
