MODEL 1
REMARK minimizedAffinity 4.6886034
REMARK minimizedRMSD -1
REMARK  0 active torsions:
REMARK  status: ('A' for Active; 'I' for Inactive)
ROOT
ATOM      1  C1  DEN d   1       4.656   2.716   5.766  0.00  0.00     0.130 A 
ATOM      2  C2  DEN d   1       3.334   2.995   5.211  0.00  0.00    -0.031 A 
ATOM      3  C3  DEN d   1       2.753   1.717   4.754  0.00  0.00     0.027 A 
ATOM      4  C4  DEN d   1       3.763  -0.654   4.855  0.00  0.00     0.027 A 
ATOM      5  C5  DEN d   1       4.866  -1.389   5.229  0.00  0.00    -0.003 A 
ATOM      6  C6  DEN d   1       5.981  -0.808   5.773  0.00  0.00     0.001 A 
ATOM      7  C7  DEN d   1       6.000   0.543   6.000  0.00  0.00     0.017 A 
ATOM      8  C8  DEN d   1       4.894   1.292   5.618  0.00  0.00    -0.094 A 
ATOM      9  C9  DEN d   1       3.772   0.684   5.081  0.00  0.00    -0.072 A 
ENDROOT
TORSDOF 0
ENDMDL
