MODEL 1
REMARK minimizedAffinity 10.2755423
REMARK minimizedRMSD -1
REMARK  0 active torsions:
REMARK  status: ('A' for Active; 'I' for Inactive)
ROOT
ATOM      1  C1  DEN d   1       4.380   2.937   4.110  0.00  0.00     0.130 A 
ATOM      2  C2  DEN d   1       5.217   3.784   4.955  0.00  0.00    -0.031 A 
ATOM      3  C3  DEN d   1       6.000   2.906   5.848  0.00  0.00     0.027 A 
ATOM      4  C4  DEN d   1       6.000   0.331   6.000  0.00  0.00     0.027 A 
ATOM      5  C5  DEN d   1       5.445  -0.823   5.493  0.00  0.00    -0.003 A 
ATOM      6  C6  DEN d   1       4.480  -0.804   4.522  0.00  0.00     0.001 A 
ATOM      7  C7  DEN d   1       4.072   0.392   3.994  0.00  0.00     0.017 A 
ATOM      8  C8  DEN d   1       4.621   1.561   4.505  0.00  0.00    -0.094 A 
ATOM      9  C9  DEN d   1       5.605   1.520   5.478  0.00  0.00    -0.072 A 
ENDROOT
TORSDOF 0
ENDMDL
