MODEL 1
REMARK minimizedAffinity 2.82292724
REMARK minimizedRMSD -1
REMARK  0 active torsions:
REMARK  status: ('A' for Active; 'I' for Inactive)
ROOT
ATOM      1  C1  DEN d   1       2.140  -0.238  -4.027  0.00  0.00     0.130 A 
ATOM      2  C2  DEN d   1       1.744   1.142  -4.293  0.00  0.00    -0.031 A 
ATOM      3  C3  DEN d   1       1.040   1.653  -3.100  0.00  0.00     0.027 A 
ATOM      4  C4  DEN d   1       0.532   0.449  -0.875  0.00  0.00     0.027 A 
ATOM      5  C5  DEN d   1       0.661  -0.736  -0.186  0.00  0.00    -0.003 A 
ATOM      6  C6  DEN d   1       1.257  -1.840  -0.736  0.00  0.00     0.001 A 
ATOM      7  C7  DEN d   1       1.787  -1.767  -1.997  0.00  0.00     0.017 A 
ATOM      8  C8  DEN d   1       1.654  -0.578  -2.701  0.00  0.00    -0.094 A 
ATOM      9  C9  DEN d   1       1.060   0.530  -2.123  0.00  0.00    -0.072 A 
ENDROOT
TORSDOF 0
ENDMDL
