MODEL 1
REMARK minimizedAffinity 5.20874453
REMARK minimizedRMSD -1
REMARK  0 active torsions:
REMARK  status: ('A' for Active; 'I' for Inactive)
ROOT
ATOM      1  C1  DEN d   1       1.935  -0.472  -3.426  0.00  0.00     0.130 A 
ATOM      2  C2  DEN d   1       1.416   0.889  -3.525  0.00  0.00    -0.031 A 
ATOM      3  C3  DEN d   1       0.657   1.179  -2.293  0.00  0.00     0.027 A 
ATOM      4  C4  DEN d   1       0.241  -0.337  -0.248  0.00  0.00     0.027 A 
ATOM      5  C5  DEN d   1       0.472  -1.583   0.291  0.00  0.00    -0.003 A 
ATOM      6  C6  DEN d   1       1.172  -2.550  -0.380  0.00  0.00     0.001 A 
ATOM      7  C7  DEN d   1       1.705  -2.272  -1.611  0.00  0.00     0.017 A 
ATOM      8  C8  DEN d   1       1.470  -1.020  -2.164  0.00  0.00    -0.094 A 
ATOM      9  C9  DEN d   1       0.770  -0.051  -1.465  0.00  0.00    -0.072 A 
ENDROOT
TORSDOF 0
ENDMDL
