MODEL 1
REMARK minimizedAffinity 1.51507723
REMARK minimizedRMSD -1
REMARK  0 active torsions:
REMARK  status: ('A' for Active; 'I' for Inactive)
ROOT
ATOM      1  C1  DEN d   1       4.472   1.758   5.964  0.00  0.00     0.130 A 
ATOM      2  C2  DEN d   1       4.956   2.764   5.023  0.00  0.00    -0.031 A 
ATOM      3  C3  DEN d   1       5.624   2.062   3.908  0.00  0.00     0.027 A 
ATOM      4  C4  DEN d   1       5.948  -0.471   3.547  0.00  0.00     0.027 A 
ATOM      5  C5  DEN d   1       5.719  -1.719   4.082  0.00  0.00    -0.003 A 
ATOM      6  C6  DEN d   1       5.093  -1.893   5.288  0.00  0.00     0.001 A 
ATOM      7  C7  DEN d   1       4.635  -0.802   5.978  0.00  0.00     0.017 A 
ATOM      8  C8  DEN d   1       4.869   0.460   5.449  0.00  0.00    -0.094 A 
ATOM      9  C9  DEN d   1       5.492   0.614   4.223  0.00  0.00    -0.072 A 
ENDROOT
TORSDOF 0
ENDMDL
