MODEL 1
REMARK minimizedAffinity 1.48199785
REMARK minimizedRMSD -1
REMARK  0 active torsions:
REMARK  status: ('A' for Active; 'I' for Inactive)
ROOT
ATOM      1  C1  DEN d   1       0.218   0.941  -1.685  0.00  0.00     0.130 A 
ATOM      2  C2  DEN d   1       0.887   1.104  -2.973  0.00  0.00    -0.031 A 
ATOM      3  C3  DEN d   1       1.582  -0.160  -3.290  0.00  0.00     0.027 A 
ATOM      4  C4  DEN d   1       1.681  -2.344  -1.921  0.00  0.00     0.027 A 
ATOM      5  C5  DEN d   1       1.278  -2.957  -0.756  0.00  0.00    -0.003 A 
ATOM      6  C6  DEN d   1       0.528  -2.309   0.189  0.00  0.00     0.001 A 
ATOM      7  C7  DEN d   1       0.119  -1.021  -0.035  0.00  0.00     0.017 A 
ATOM      8  C8  DEN d   1       0.528  -0.393  -1.204  0.00  0.00    -0.094 A 
ATOM      9  C9  DEN d   1       1.276  -1.069  -2.153  0.00  0.00    -0.072 A 
ENDROOT
TORSDOF 0
ENDMDL
