MODEL 1
REMARK minimizedAffinity 9.64016151
REMARK minimizedRMSD -1
REMARK  0 active torsions:
REMARK  status: ('A' for Active; 'I' for Inactive)
ROOT
ATOM      1  C1  DEN d   1      -0.923  -0.920   0.130  0.00  0.00     0.130 A 
ATOM      2  C2  DEN d   1      -0.945  -2.133   0.942  0.00  0.00    -0.031 A 
ATOM      3  C3  DEN d   1       0.098  -3.045   0.430  0.00  0.00     0.027 A 
ATOM      4  C4  DEN d   1       1.740  -2.695  -1.527  0.00  0.00     0.027 A 
ATOM      5  C5  DEN d   1       2.131  -1.827  -2.523  0.00  0.00    -0.003 A 
ATOM      6  C6  DEN d   1       1.515  -0.621  -2.724  0.00  0.00     0.001 A 
ATOM      7  C7  DEN d   1       0.502  -0.228  -1.889  0.00  0.00     0.017 A 
ATOM      8  C8  DEN d   1       0.097  -1.101  -0.887  0.00  0.00    -0.094 A 
ATOM      9  C9  DEN d   1       0.741  -2.311  -0.693  0.00  0.00    -0.072 A 
ENDROOT
TORSDOF 0
ENDMDL
