MODEL 1
REMARK minimizedAffinity 7.03516579
REMARK minimizedRMSD -1
REMARK  0 active torsions:
REMARK  status: ('A' for Active; 'I' for Inactive)
ROOT
ATOM      1  C1  DEN d   1       2.109  -0.784  -1.316  0.00  0.00     0.130 A 
ATOM      2  C2  DEN d   1       2.567  -2.169  -1.250  0.00  0.00    -0.031 A 
ATOM      3  C3  DEN d   1       1.503  -2.971  -0.613  0.00  0.00     0.027 A 
ATOM      4  C4  DEN d   1      -0.798  -2.209   0.268  0.00  0.00     0.027 A 
ATOM      5  C5  DEN d   1      -1.630  -1.125   0.442  0.00  0.00    -0.003 A 
ATOM      6  C6  DEN d   1      -1.264   0.143   0.077  0.00  0.00     0.001 A 
ATOM      7  C7  DEN d   1      -0.051   0.353  -0.523  0.00  0.00     0.017 A 
ATOM      8  C8  DEN d   1       0.797  -0.733  -0.696  0.00  0.00    -0.094 A 
ATOM      9  C9  DEN d   1       0.403  -2.010  -0.331  0.00  0.00    -0.072 A 
ENDROOT
TORSDOF 0
ENDMDL
