MODEL 1
REMARK minimizedAffinity 5.50371742
REMARK minimizedRMSD -1
REMARK  0 active torsions:
REMARK  status: ('A' for Active; 'I' for Inactive)
ROOT
ATOM      1  C1  DEN d   1       1.520  -0.700  -1.099  0.00  0.00     0.130 A 
ATOM      2  C2  DEN d   1       1.346  -1.919  -0.314  0.00  0.00    -0.031 A 
ATOM      3  C3  DEN d   1       1.148  -3.042  -1.253  0.00  0.00     0.027 A 
ATOM      4  C4  DEN d   1       1.099  -3.013  -3.831  0.00  0.00     0.027 A 
ATOM      5  C5  DEN d   1       1.190  -2.209  -4.946  0.00  0.00    -0.003 A 
ATOM      6  C6  DEN d   1       1.361  -0.853  -4.858  0.00  0.00     0.001 A 
ATOM      7  C7  DEN d   1       1.493  -0.265  -3.628  0.00  0.00     0.017 A 
ATOM      8  C8  DEN d   1       1.396  -1.067  -2.498  0.00  0.00    -0.094 A 
ATOM      9  C9  DEN d   1       1.234  -2.438  -2.609  0.00  0.00    -0.072 A 
ENDROOT
TORSDOF 0
ENDMDL
