MODEL 1
REMARK minimizedAffinity -3.65389299
REMARK minimizedRMSD -1
REMARK  0 active torsions:
REMARK  status: ('A' for Active; 'I' for Inactive)
ROOT
ATOM      1  C1  DEN d   1       1.502  -2.697  -1.113  0.00  0.00     0.130 A 
ATOM      2  C2  DEN d   1       0.903  -2.607   0.216  0.00  0.00    -0.031 A 
ATOM      3  C3  DEN d   1       0.335  -1.252   0.368  0.00  0.00     0.027 A 
ATOM      4  C4  DEN d   1       0.321   0.701  -1.316  0.00  0.00     0.027 A 
ATOM      5  C5  DEN d   1       0.719   1.103  -2.572  0.00  0.00    -0.003 A 
ATOM      6  C6  DEN d   1       1.430   0.285  -3.410  0.00  0.00     0.001 A 
ATOM      7  C7  DEN d   1       1.725  -0.994  -3.019  0.00  0.00     0.017 A 
ATOM      8  C8  DEN d   1       1.334  -1.404  -1.751  0.00  0.00    -0.094 A 
ATOM      9  C9  DEN d   1       0.606  -0.566  -0.924  0.00  0.00    -0.072 A 
ENDROOT
TORSDOF 0
ENDMDL
