MODEL 1
REMARK minimizedAffinity 1.13275647
REMARK minimizedRMSD -1
REMARK  0 active torsions:
REMARK  status: ('A' for Active; 'I' for Inactive)
ROOT
ATOM      1  C   UNL d   1      -2.113  -0.198  -0.399  0.00  0.00     0.020 A 
ATOM      2  C1  UNL d   1      -0.934  -0.594  -1.029  0.00  0.00     0.020 A 
ATOM      3  C2  UNL d   1       0.292  -0.431  -0.381  0.00  0.00     0.034 A 
ATOM      4  C3  UNL d   1       0.342   0.130   0.900  0.00  0.00     0.017 A 
ATOM      5  C4  UNL d   1      -0.842   0.528   1.532  0.00  0.00     0.017 A 
ATOM      6  C5  UNL d   1      -2.067   0.362   0.879  0.00  0.00     0.034 A 
ATOM      7 Cl   UNL d   1      -0.860   1.228   3.112  0.00  0.00    -0.070 Cl
ATOM      8 Cl1  UNL d   1       1.893   0.302   1.642  0.00  0.00    -0.070 Cl
ENDROOT
TORSDOF 0
ENDMDL
