MODEL 1
REMARK minimizedAffinity -4.94020224
REMARK minimizedRMSD -1
REMARK  0 active torsions:
REMARK  status: ('A' for Active; 'I' for Inactive)
ROOT
ATOM      1  C   UNL d   1      -1.724   1.056   1.766  0.00  0.00     0.020 A 
ATOM      2  C1  UNL d   1      -1.059   1.224   2.980  0.00  0.00     0.020 A 
ATOM      3  C2  UNL d   1       0.236   0.725   3.141  0.00  0.00     0.034 A 
ATOM      4  C3  UNL d   1       0.869   0.057   2.087  0.00  0.00     0.017 A 
ATOM      5  C4  UNL d   1       0.201  -0.111   0.869  0.00  0.00     0.017 A 
ATOM      6  C5  UNL d   1      -1.095   0.391   0.713  0.00  0.00     0.034 A 
ATOM      7 Cl   UNL d   1       0.918  -0.924  -0.477  0.00  0.00    -0.070 Cl
ATOM      8 Cl1  UNL d   1       2.471  -0.533   2.357  0.00  0.00    -0.070 Cl
ENDROOT
TORSDOF 0
ENDMDL
