MODEL 1
REMARK minimizedAffinity -3.70964313
REMARK minimizedRMSD -1
REMARK  0 active torsions:
REMARK  status: ('A' for Active; 'I' for Inactive)
ROOT
ATOM      1  C   UNL d   1      -0.671   1.085   2.533  0.00  0.00     0.020 A 
ATOM      2  C1  UNL d   1       0.640   1.064   2.060  0.00  0.00     0.020 A 
ATOM      3  C2  UNL d   1       0.917   0.546   0.793  0.00  0.00     0.034 A 
ATOM      4  C3  UNL d   1      -0.119   0.048  -0.005  0.00  0.00     0.017 A 
ATOM      5  C4  UNL d   1      -1.435   0.069   0.471  0.00  0.00     0.017 A 
ATOM      6  C5  UNL d   1      -1.707   0.589   1.740  0.00  0.00     0.034 A 
ATOM      7 Cl   UNL d   1      -2.766  -0.527  -0.456  0.00  0.00    -0.070 Cl
ATOM      8 Cl1  UNL d   1       0.295  -0.577  -1.562  0.00  0.00    -0.070 Cl
ENDROOT
TORSDOF 0
ENDMDL
