MODEL 1
REMARK minimizedAffinity -3.65387535
REMARK minimizedRMSD -1
REMARK  0 active torsions:
REMARK  status: ('A' for Active; 'I' for Inactive)
ROOT
ATOM      1  C   UNL d   1      -1.411   0.537   3.239  0.00  0.00     0.020 A 
ATOM      2  C1  UNL d   1      -2.121   0.546   2.039  0.00  0.00     0.020 A 
ATOM      3  C2  UNL d   1      -1.460   0.297   0.834  0.00  0.00     0.034 A 
ATOM      4  C3  UNL d   1      -0.084   0.038   0.827  0.00  0.00     0.017 A 
ATOM      5  C4  UNL d   1       0.628   0.029   2.032  0.00  0.00     0.017 A 
ATOM      6  C5  UNL d   1      -0.040   0.279   3.235  0.00  0.00     0.034 A 
ATOM      7 Cl   UNL d   1       2.326  -0.283   2.103  0.00  0.00    -0.070 Cl
ATOM      8 Cl1  UNL d   1       0.669  -0.262  -0.699  0.00  0.00    -0.070 Cl
ENDROOT
TORSDOF 0
ENDMDL
