MODEL 1
REMARK minimizedAffinity -4.48829508
REMARK minimizedRMSD -1
REMARK  0 active torsions:
REMARK  status: ('A' for Active; 'I' for Inactive)
ROOT
ATOM      1  C   UNL d   1       0.473   0.680   3.356  0.00  0.00     0.020 A 
ATOM      2  C1  UNL d   1       1.582   0.031   2.817  0.00  0.00     0.020 A 
ATOM      3  C2  UNL d   1       1.586  -0.344   1.472  0.00  0.00     0.034 A 
ATOM      4  C3  UNL d   1       0.478  -0.071   0.662  0.00  0.00     0.017 A 
ATOM      5  C4  UNL d   1      -0.636   0.581   1.204  0.00  0.00     0.017 A 
ATOM      6  C5  UNL d   1      -0.634   0.955   2.552  0.00  0.00     0.034 A 
ATOM      7 Cl   UNL d   1      -2.040   0.952   0.267  0.00  0.00    -0.070 Cl
ATOM      8 Cl1  UNL d   1       0.551  -0.563  -0.993  0.00  0.00    -0.070 Cl
ENDROOT
TORSDOF 0
ENDMDL
