MODEL 1
REMARK minimizedAffinity -4.16653681
REMARK minimizedRMSD -1
REMARK  0 active torsions:
REMARK  status: ('A' for Active; 'I' for Inactive)
ROOT
ATOM      1  C   UNL d   1       1.075   0.735   3.218  0.00  0.00     0.020 A 
ATOM      2  C1  UNL d   1      -0.270   1.050   3.401  0.00  0.00     0.020 A 
ATOM      3  C2  UNL d   1      -1.189   0.813   2.376  0.00  0.00     0.034 A 
ATOM      4  C3  UNL d   1      -0.763   0.259   1.164  0.00  0.00     0.017 A 
ATOM      5  C4  UNL d   1       0.588  -0.058   0.981  0.00  0.00     0.017 A 
ATOM      6  C5  UNL d   1       1.504   0.182   2.011  0.00  0.00     0.034 A 
ATOM      7 Cl   UNL d   1       1.189  -0.744  -0.487  0.00  0.00    -0.070 Cl
ATOM      8 Cl1  UNL d   1      -1.953  -0.008  -0.060  0.00  0.00    -0.070 Cl
ENDROOT
TORSDOF 0
ENDMDL
