MODEL 1
REMARK minimizedAffinity -6.1162653
REMARK minimizedRMSD -1
REMARK  0 active torsions:
REMARK  status: ('A' for Active; 'I' for Inactive)
ROOT
ATOM      1  C   UNL d   1       1.385  -0.017   2.975  0.00  0.00     0.020 A 
ATOM      2  C1  UNL d   1       0.173   0.384   3.535  0.00  0.00     0.020 A 
ATOM      3  C2  UNL d   1      -0.929   0.628   2.712  0.00  0.00     0.034 A 
ATOM      4  C3  UNL d   1      -0.821   0.472   1.326  0.00  0.00     0.017 A 
ATOM      5  C4  UNL d   1       0.396   0.069   0.765  0.00  0.00     0.017 A 
ATOM      6  C5  UNL d   1       1.496  -0.174   1.593  0.00  0.00     0.034 A 
ATOM      7 Cl   UNL d   1       0.607  -0.145  -0.937  0.00  0.00    -0.070 Cl
ATOM      8 Cl1  UNL d   1      -2.224   0.791   0.369  0.00  0.00    -0.070 Cl
ENDROOT
TORSDOF 0
ENDMDL
