MODEL 1
REMARK minimizedAffinity -4.61272478
REMARK minimizedRMSD -1
REMARK  0 active torsions:
REMARK  status: ('A' for Active; 'I' for Inactive)
ROOT
ATOM      1  C   UNL d   1      -0.748   0.928   3.445  0.00  0.00     0.020 A 
ATOM      2  C1  UNL d   1       0.554   0.488   3.210  0.00  0.00     0.020 A 
ATOM      3  C2  UNL d   1       0.923   0.047   1.937  0.00  0.00     0.034 A 
ATOM      4  C3  UNL d   1      -0.010   0.047   0.894  0.00  0.00     0.017 A 
ATOM      5  C4  UNL d   1      -1.316   0.489   1.131  0.00  0.00     0.017 A 
ATOM      6  C5  UNL d   1      -1.681   0.929   2.407  0.00  0.00     0.034 A 
ATOM      7 Cl   UNL d   1      -2.523   0.518  -0.106  0.00  0.00    -0.070 Cl
ATOM      8 Cl1  UNL d   1       0.516  -0.511  -0.654  0.00  0.00    -0.070 Cl
ENDROOT
TORSDOF 0
ENDMDL
