MODEL 1
REMARK minimizedAffinity -5.28915882
REMARK minimizedRMSD -1
REMARK  0 active torsions:
REMARK  status: ('A' for Active; 'I' for Inactive)
ROOT
ATOM      1  C   UNL d   1       0.999   0.360   3.361  0.00  0.00     0.020 A 
ATOM      2  C1  UNL d   1      -0.230   0.945   3.662  0.00  0.00     0.020 A 
ATOM      3  C2  UNL d   1      -1.243   0.975   2.701  0.00  0.00     0.034 A 
ATOM      4  C3  UNL d   1      -1.029   0.418   1.435  0.00  0.00     0.017 A 
ATOM      5  C4  UNL d   1       0.205  -0.168   1.133  0.00  0.00     0.017 A 
ATOM      6  C5  UNL d   1       1.216  -0.195   2.099  0.00  0.00     0.034 A 
ATOM      7 Cl   UNL d   1       0.544  -0.875  -0.407  0.00  0.00    -0.070 Cl
ATOM      8 Cl1  UNL d   1      -2.326   0.490   0.296  0.00  0.00    -0.070 Cl
ENDROOT
TORSDOF 0
ENDMDL
