MODEL 1
REMARK minimizedAffinity -5.8685832
REMARK minimizedRMSD -1
REMARK  0 active torsions:
REMARK  status: ('A' for Active; 'I' for Inactive)
ROOT
ATOM      1  C   UNL d   1       1.557  -0.122   3.132  0.00  0.00     0.020 A 
ATOM      2  C1  UNL d   1       0.525   0.530   3.806  0.00  0.00     0.020 A 
ATOM      3  C2  UNL d   1      -0.606   0.957   3.107  0.00  0.00     0.034 A 
ATOM      4  C3  UNL d   1      -0.707   0.734   1.729  0.00  0.00     0.017 A 
ATOM      5  C4  UNL d   1       0.329   0.080   1.053  0.00  0.00     0.017 A 
ATOM      6  C5  UNL d   1       1.459  -0.346   1.758  0.00  0.00     0.034 A 
ATOM      7 Cl   UNL d   1       0.276  -0.232  -0.646  0.00  0.00    -0.070 Cl
ATOM      8 Cl1  UNL d   1      -2.134   1.289   0.928  0.00  0.00    -0.070 Cl
ENDROOT
TORSDOF 0
ENDMDL
