MODEL 1
REMARK minimizedAffinity -4.81474018
REMARK minimizedRMSD -1
REMARK  0 active torsions:
REMARK  status: ('A' for Active; 'I' for Inactive)
ROOT
ATOM      1  C   UNL d   1       0.249   1.627   2.386  0.00  0.00     0.020 A 
ATOM      2  C1  UNL d   1      -1.101   1.387   2.638  0.00  0.00     0.020 A 
ATOM      3  C2  UNL d   1      -1.810   0.482   1.845  0.00  0.00     0.034 A 
ATOM      4  C3  UNL d   1      -1.169  -0.186   0.795  0.00  0.00     0.017 A 
ATOM      5  C4  UNL d   1       0.186   0.055   0.543  0.00  0.00     0.017 A 
ATOM      6  C5  UNL d   1       0.891   0.962   1.340  0.00  0.00     0.034 A 
ATOM      7 Cl   UNL d   1       1.046  -0.732  -0.734  0.00  0.00    -0.070 Cl
ATOM      8 Cl1  UNL d   1      -2.107  -1.291  -0.145  0.00  0.00    -0.070 Cl
ENDROOT
TORSDOF 0
ENDMDL
