MODEL 1
REMARK minimizedAffinity 12.1132793
REMARK minimizedRMSD -1
REMARK  2 active torsions:
REMARK  status: ('A' for Active; 'I' for Inactive)
REMARK    1  A    between atoms: C2'_3  and  C1'_4 
REMARK    2  A    between atoms: C1'_4  and  C1_5 
ROOT
ATOM      1  C1  I4B d   1       2.016  -0.312  -5.256  0.00  0.00    -0.075 A 
ATOM      2  C2  I4B d   1       0.845   0.225  -4.782  0.00  0.00     0.003 A 
ATOM      3  C3  I4B d   1      -0.092  -0.592  -4.105  0.00  0.00     0.002 A 
ATOM      4  C4  I4B d   1       0.157  -1.943  -3.970  0.00  0.00    -0.004 A 
ATOM      5  C5  I4B d   1       1.354  -2.482  -4.432  0.00  0.00     0.002 A 
ATOM      6  C6  I4B d   1       2.295  -1.660  -5.068  0.00  0.00     0.003 A 
ENDROOT
BRANCH   1   7
ATOM      7  C1' I4B d   1       2.968   0.573  -5.995  0.00  0.00     0.060 C 
BRANCH   7   8
ATOM      8  C2' I4B d   1       4.291   0.554  -5.258  0.00  0.00    -0.013 C 
ATOM      9  C4' I4B d   1       5.312  -0.277  -5.990  0.00  0.00     0.013 C 
ATOM     10  C3' I4B d   1       4.756   1.971  -5.104  0.00  0.00     0.013 C 
ENDBRANCH   7   8
ENDBRANCH   1   7
TORSDOF 2
ENDMDL
