MODEL 1
REMARK minimizedAffinity 13.4053297
REMARK minimizedRMSD -1
REMARK  2 active torsions:
REMARK  status: ('A' for Active; 'I' for Inactive)
REMARK    1  A    between atoms: C2'_3  and  C1'_4 
REMARK    2  A    between atoms: C1'_4  and  C1_5 
ROOT
ATOM      1  C1  I4B d   1       0.673  -2.186  -4.461  0.00  0.00    -0.075 A 
ATOM      2  C2  I4B d   1       2.005  -2.123  -4.137  0.00  0.00     0.003 A 
ATOM      3  C3  I4B d   1       2.931  -2.995  -4.758  0.00  0.00     0.002 A 
ATOM      4  C4  I4B d   1       2.478  -3.942  -5.654  0.00  0.00    -0.004 A 
ATOM      5  C5  I4B d   1       1.130  -3.989  -5.998  0.00  0.00     0.002 A 
ATOM      6  C6  I4B d   1       0.223  -3.098  -5.407  0.00  0.00     0.003 A 
ENDROOT
BRANCH   1   7
ATOM      7  C1' I4B d   1      -0.283  -1.272  -3.761  0.00  0.00     0.060 C 
BRANCH   7   8
ATOM      8  C2' I4B d   1      -1.223  -2.125  -2.934  0.00  0.00    -0.013 C 
ATOM      9  C4' I4B d   1      -0.744  -2.242  -1.511  0.00  0.00     0.013 C 
ATOM     10  C3' I4B d   1      -2.587  -1.503  -2.996  0.00  0.00     0.013 C 
ENDBRANCH   7   8
ENDBRANCH   1   7
TORSDOF 2
ENDMDL
