MODEL 1
REMARK minimizedAffinity 12.9030542
REMARK minimizedRMSD -1
REMARK  2 active torsions:
REMARK  status: ('A' for Active; 'I' for Inactive)
REMARK    1  A    between atoms: C2'_3  and  C1'_4 
REMARK    2  A    between atoms: C1'_4  and  C1_5 
ROOT
ATOM      1  C1  I4B d   1       0.206   1.229   3.873  0.00  0.00    -0.075 A 
ATOM      2  C2  I4B d   1      -0.739   2.065   3.333  0.00  0.00     0.003 A 
ATOM      3  C3  I4B d   1      -1.331   3.078   4.127  0.00  0.00     0.002 A 
ATOM      4  C4  I4B d   1      -0.989   3.185   5.459  0.00  0.00    -0.004 A 
ATOM      5  C5  I4B d   1      -0.014   2.350   5.999  0.00  0.00     0.002 A 
ATOM      6  C6  I4B d   1       0.596   1.374   5.198  0.00  0.00     0.003 A 
ENDROOT
BRANCH   1   7
ATOM      7  C1' I4B d   1       0.787   0.149   3.016  0.00  0.00     0.060 C 
BRANCH   7   8
ATOM      8  C2' I4B d   1       0.026  -1.130   3.297  0.00  0.00    -0.013 C 
ATOM      9  C4' I4B d   1      -0.968  -1.425   2.205  0.00  0.00     0.013 C 
ATOM     10  C3' I4B d   1       1.024  -2.241   3.435  0.00  0.00     0.013 C 
ENDBRANCH   7   8
ENDBRANCH   1   7
TORSDOF 2
ENDMDL
