MODEL 1
REMARK minimizedAffinity 11.3604631
REMARK minimizedRMSD -1
REMARK  2 active torsions:
REMARK  status: ('A' for Active; 'I' for Inactive)
REMARK    1  A    between atoms: C2'_3  and  C1'_4 
REMARK    2  A    between atoms: C1'_4  and  C1_5 
ROOT
ATOM      1  C1  I4B d   1       0.737  -1.795   3.366  0.00  0.00    -0.075 A 
ATOM      2  C2  I4B d   1      -0.045  -1.683   2.244  0.00  0.00     0.003 A 
ATOM      3  C3  I4B d   1      -0.386  -0.405   1.737  0.00  0.00     0.002 A 
ATOM      4  C4  I4B d   1       0.033   0.726   2.408  0.00  0.00    -0.004 A 
ATOM      5  C5  I4B d   1       0.845   0.610   3.532  0.00  0.00     0.002 A 
ATOM      6  C6  I4B d   1       1.210  -0.658   4.008  0.00  0.00     0.003 A 
ENDROOT
BRANCH   1   7
ATOM      7  C1' I4B d   1       1.050  -3.160   3.892  0.00  0.00     0.060 C 
BRANCH   7   8
ATOM      8  C2' I4B d   1       1.035  -3.091   5.406  0.00  0.00    -0.013 C 
ATOM      9  C4' I4B d   1      -0.056  -3.957   5.980  0.00  0.00     0.013 C 
ATOM     10  C3' I4B d   1       2.383  -3.518   5.903  0.00  0.00     0.013 C 
ENDBRANCH   7   8
ENDBRANCH   1   7
TORSDOF 2
ENDMDL
