MODEL 1
REMARK minimizedAffinity 13.3667135
REMARK minimizedRMSD -1
REMARK  2 active torsions:
REMARK  status: ('A' for Active; 'I' for Inactive)
REMARK    1  A    between atoms: C2'_3  and  C1'_4 
REMARK    2  A    between atoms: C1'_4  and  C1_5 
ROOT
ATOM      1  C1  I4B d   1      -0.568  -0.838   2.498  0.00  0.00    -0.075 A 
ATOM      2  C2  I4B d   1      -0.113  -2.029   3.008  0.00  0.00     0.003 A 
ATOM      3  C3  I4B d   1       1.267  -2.210   3.273  0.00  0.00     0.002 A 
ATOM      4  C4  I4B d   1       2.156  -1.200   2.968  0.00  0.00    -0.004 A 
ATOM      5  C5  I4B d   1       1.690   0.015   2.473  0.00  0.00     0.002 A 
ATOM      6  C6  I4B d   1       0.318   0.202   2.248  0.00  0.00     0.003 A 
ENDROOT
BRANCH   1   7
ATOM      7  C1' I4B d   1      -2.026  -0.693   2.200  0.00  0.00     0.060 C 
BRANCH   7   8
ATOM      8  C2' I4B d   1      -2.644  -2.076   2.205  0.00  0.00    -0.013 C 
ATOM      9  C4' I4B d   1      -3.682  -2.206   3.288  0.00  0.00     0.013 C 
ATOM     10  C3' I4B d   1      -3.240  -2.322   0.851  0.00  0.00     0.013 C 
ENDBRANCH   7   8
ENDBRANCH   1   7
TORSDOF 2
ENDMDL
