MODEL 1
REMARK minimizedAffinity 18.9358234
REMARK minimizedRMSD -1
REMARK  2 active torsions:
REMARK  status: ('A' for Active; 'I' for Inactive)
REMARK    1  A    between atoms: C2'_3  and  C1'_4 
REMARK    2  A    between atoms: C1'_4  and  C1_5 
ROOT
ATOM      1  C1  I4B d   1      -0.763  -2.561  -5.096  0.00  0.00    -0.075 A 
ATOM      2  C2  I4B d   1      -1.240  -2.553  -3.809  0.00  0.00     0.003 A 
ATOM      3  C3  I4B d   1      -0.878  -1.512  -2.921  0.00  0.00     0.002 A 
ATOM      4  C4  I4B d   1      -0.002  -0.533  -3.342  0.00  0.00    -0.004 A 
ATOM      5  C5  I4B d   1       0.462  -0.529  -4.655  0.00  0.00     0.002 A 
ATOM      6  C6  I4B d   1       0.070  -1.543  -5.541  0.00  0.00     0.003 A 
ENDROOT
BRANCH   1   7
ATOM      7  C1' I4B d   1      -1.140  -3.693  -5.998  0.00  0.00     0.060 C 
BRANCH   7   8
ATOM      8  C2' I4B d   1      -2.072  -4.610  -5.232  0.00  0.00    -0.013 C 
ATOM      9  C4' I4B d   1      -3.344  -4.858  -5.999  0.00  0.00     0.013 C 
ATOM     10  C3' I4B d   1      -1.343  -5.892  -4.963  0.00  0.00     0.013 C 
ENDBRANCH   7   8
ENDBRANCH   1   7
TORSDOF 2
ENDMDL
