MODEL 1
REMARK minimizedAffinity 1.10821187
REMARK minimizedRMSD -1
REMARK  0 active torsions:
REMARK  status: ('A' for Active; 'I' for Inactive)
ROOT
ATOM      1  C   UNL d   1      -0.899  -1.177   1.686  0.00  0.00     0.023 A 
ATOM      2  C1  UNL d   1       0.437  -1.392   2.024  0.00  0.00     0.003 A 
ATOM      3  C2  UNL d   1       1.445  -1.119   1.098  0.00  0.00     0.048 A 
ATOM      4  C3  UNL d   1       1.111  -0.630  -0.164  0.00  0.00     0.023 A 
ATOM      5  C4  UNL d   1      -0.225  -0.413  -0.507  0.00  0.00     0.048 A 
ATOM      6  C5  UNL d   1      -1.230  -0.688   0.422  0.00  0.00     0.003 A 
ATOM      7  I   UNL d   1       2.610  -0.222  -1.544  0.00  0.00    -0.146 I 
ENDROOT
TORSDOF 0
ENDMDL
