MODEL 1
REMARK minimizedAffinity -2.72343016
REMARK minimizedRMSD -1
REMARK  0 active torsions:
REMARK  status: ('A' for Active; 'I' for Inactive)
ROOT
ATOM      1  C   UNL d   1       5.801   4.436   2.099  0.00  0.00     0.023 A 
ATOM      2  C1  UNL d   1       5.983   5.548   2.922  0.00  0.00     0.003 A 
ATOM      3  C2  UNL d   1       4.938   5.998   3.731  0.00  0.00     0.048 A 
ATOM      4  C3  UNL d   1       3.714   5.330   3.714  0.00  0.00     0.023 A 
ATOM      5  C4  UNL d   1       3.528   4.217   2.893  0.00  0.00     0.048 A 
ATOM      6  C5  UNL d   1       4.575   3.771   2.085  0.00  0.00     0.003 A 
ATOM      7  I   UNL d   1       2.157   5.997   4.919  0.00  0.00    -0.146 I 
ENDROOT
TORSDOF 0
ENDMDL
