MODEL 1
REMARK minimizedAffinity 5.44619417
REMARK minimizedRMSD -1
REMARK  0 active torsions:
REMARK  status: ('A' for Active; 'I' for Inactive)
ROOT
ATOM      1  C   UNL d   1       4.512  -3.384   6.000  0.00  0.00     0.023 A 
ATOM      2  C1  UNL d   1       3.864  -4.511   5.493  0.00  0.00     0.003 A 
ATOM      3  C2  UNL d   1       4.059  -4.892   4.164  0.00  0.00     0.048 A 
ATOM      4  C3  UNL d   1       4.903  -4.141   3.346  0.00  0.00     0.023 A 
ATOM      5  C4  UNL d   1       5.554  -3.013   3.849  0.00  0.00     0.048 A 
ATOM      6  C5  UNL d   1       5.356  -2.636   5.178  0.00  0.00     0.003 A 
ATOM      7  I   UNL d   1       5.195  -4.706   1.367  0.00  0.00    -0.146 I 
ENDROOT
TORSDOF 0
ENDMDL
