MODEL 1
REMARK minimizedAffinity 6.25749588
REMARK minimizedRMSD -1
REMARK  0 active torsions:
REMARK  status: ('A' for Active; 'I' for Inactive)
ROOT
ATOM      1  C   UNL d   1       3.789  -5.002   5.996  0.00  0.00     0.023 A 
ATOM      2  C1  UNL d   1       3.462  -6.000   5.078  0.00  0.00     0.003 A 
ATOM      3  C2  UNL d   1       3.126  -5.660   3.766  0.00  0.00     0.048 A 
ATOM      4  C3  UNL d   1       3.120  -4.320   3.379  0.00  0.00     0.023 A 
ATOM      5  C4  UNL d   1       3.447  -3.318   4.294  0.00  0.00     0.048 A 
ATOM      6  C5  UNL d   1       3.782  -3.663   5.605  0.00  0.00     0.003 A 
ATOM      7  I   UNL d   1       2.621  -3.811   1.427  0.00  0.00    -0.146 I 
ENDROOT
TORSDOF 0
ENDMDL
