MODEL 1
REMARK minimizedAffinity 6.73836803
REMARK minimizedRMSD -1
REMARK  0 active torsions:
REMARK  status: ('A' for Active; 'I' for Inactive)
ROOT
ATOM      1  C   UNL d   1       5.115   0.862  -0.553  0.00  0.00     0.023 A 
ATOM      2  C1  UNL d   1       5.646   1.212   0.689  0.00  0.00     0.003 A 
ATOM      3  C2  UNL d   1       5.333   2.447   1.260  0.00  0.00     0.048 A 
ATOM      4  C3  UNL d   1       4.488   3.328   0.585  0.00  0.00     0.023 A 
ATOM      5  C4  UNL d   1       3.954   2.981  -0.657  0.00  0.00     0.048 A 
ATOM      6  C5  UNL d   1       4.270   1.746  -1.225  0.00  0.00     0.003 A 
ATOM      7  I   UNL d   1       4.021   5.166   1.434  0.00  0.00    -0.146 I 
ENDROOT
TORSDOF 0
ENDMDL
