MODEL 1
REMARK minimizedAffinity -0.894607723
REMARK minimizedRMSD -1
REMARK  0 active torsions:
REMARK  status: ('A' for Active; 'I' for Inactive)
ROOT
ATOM      1  C   UNL d   1       2.007   4.060   3.876  0.00  0.00     0.023 A 
ATOM      2  C1  UNL d   1       2.993   3.226   3.347  0.00  0.00     0.003 A 
ATOM      3  C2  UNL d   1       4.139   3.777   2.770  0.00  0.00     0.048 A 
ATOM      4  C3  UNL d   1       4.294   5.162   2.727  0.00  0.00     0.023 A 
ATOM      5  C4  UNL d   1       3.311   6.000   3.256  0.00  0.00     0.048 A 
ATOM      6  C5  UNL d   1       2.166   5.445   3.831  0.00  0.00     0.003 A 
ATOM      7  I   UNL d   1       6.000   5.984   1.870  0.00  0.00    -0.146 I 
ENDROOT
TORSDOF 0
ENDMDL
