MODEL 1
REMARK minimizedAffinity -0.0149185183
REMARK minimizedRMSD -1
REMARK  0 active torsions:
REMARK  status: ('A' for Active; 'I' for Inactive)
ROOT
ATOM      1  C   UNL d   1       1.952  -2.427   1.952  0.00  0.00     0.023 A 
ATOM      2  C1  UNL d   1       0.971  -2.095   2.886  0.00  0.00     0.003 A 
ATOM      3  C2  UNL d   1      -0.168  -1.393   2.485  0.00  0.00     0.048 A 
ATOM      4  C3  UNL d   1      -0.320  -1.028   1.148  0.00  0.00     0.023 A 
ATOM      5  C4  UNL d   1       0.659  -1.359   0.209  0.00  0.00     0.048 A 
ATOM      6  C5  UNL d   1       1.796  -2.060   0.615  0.00  0.00     0.003 A 
ATOM      7  I   UNL d   1      -2.014   0.016   0.548  0.00  0.00    -0.146 I 
ENDROOT
TORSDOF 0
ENDMDL
