MODEL 1
REMARK minimizedAffinity -1.56568193
REMARK minimizedRMSD -1
REMARK  0 active torsions:
REMARK  status: ('A' for Active; 'I' for Inactive)
ROOT
ATOM      1  C   UNL d   1       0.907  -3.691   2.079  0.00  0.00     0.023 A 
ATOM      2  C1  UNL d   1       0.138  -2.788   2.815  0.00  0.00     0.003 A 
ATOM      3  C2  UNL d   1      -0.121  -1.514   2.307  0.00  0.00     0.048 A 
ATOM      4  C3  UNL d   1       0.390  -1.148   1.062  0.00  0.00     0.023 A 
ATOM      5  C4  UNL d   1       1.159  -2.048   0.322  0.00  0.00     0.048 A 
ATOM      6  C5  UNL d   1       1.416  -3.321   0.834  0.00  0.00     0.003 A 
ATOM      7  I   UNL d   1       0.006   0.748   0.304  0.00  0.00    -0.146 I 
ENDROOT
TORSDOF 0
ENDMDL
