MODEL 1
REMARK minimizedAffinity 1.44113088
REMARK minimizedRMSD -1
REMARK  0 active torsions:
REMARK  status: ('A' for Active; 'I' for Inactive)
ROOT
ATOM      1  C   UNL d   1      -0.896  -0.715   2.313  0.00  0.00     0.023 A 
ATOM      2  C1  UNL d   1      -0.696  -1.533   3.425  0.00  0.00     0.003 A 
ATOM      3  C2  UNL d   1       0.135  -2.651   3.331  0.00  0.00     0.048 A 
ATOM      4  C3  UNL d   1       0.764  -2.945   2.122  0.00  0.00     0.023 A 
ATOM      5  C4  UNL d   1       0.567  -2.130   1.006  0.00  0.00     0.048 A 
ATOM      6  C5  UNL d   1      -0.266  -1.013   1.105  0.00  0.00     0.003 A 
ATOM      7  I   UNL d   1       2.002  -4.608   1.979  0.00  0.00    -0.146 I 
ENDROOT
TORSDOF 0
ENDMDL
