MODEL 1
REMARK minimizedAffinity -0.921401143
REMARK minimizedRMSD -1
REMARK  0 active torsions:
REMARK  status: ('A' for Active; 'I' for Inactive)
ROOT
ATOM      1  C   UNL d   1       1.437  -3.087   2.164  0.00  0.00     0.023 A 
ATOM      2  C1  UNL d   1       0.454  -2.543   2.990  0.00  0.00     0.003 A 
ATOM      3  C2  UNL d   1      -0.457  -1.618   2.477  0.00  0.00     0.048 A 
ATOM      4  C3  UNL d   1      -0.381  -1.243   1.136  0.00  0.00     0.023 A 
ATOM      5  C4  UNL d   1       0.600  -1.786   0.305  0.00  0.00     0.048 A 
ATOM      6  C5  UNL d   1       1.510  -2.709   0.823  0.00  0.00     0.003 A 
ATOM      7  I   UNL d   1      -1.737   0.134   0.370  0.00  0.00    -0.146 I 
ENDROOT
TORSDOF 0
ENDMDL
