MODEL 1
REMARK minimizedAffinity -4.26006746
REMARK minimizedRMSD -1
REMARK  1 active torsions:
REMARK  status: ('A' for Active; 'I' for Inactive)
REMARK    1  A    between atoms: C1_2  and  C2_3 
ROOT
ATOM      1  C2  UNL d   1       0.215  -0.598   0.065  0.00  0.00    -0.076 A 
ATOM      2  C3  UNL d   1      -0.305   0.249  -0.930  0.00  0.00     0.004 A 
ATOM      3  C4  UNL d   1      -1.612   0.098  -1.389  0.00  0.00    -0.003 A 
ATOM      4  C5  UNL d   1      -2.421  -0.902  -0.861  0.00  0.00     0.000 A 
ATOM      5  C6  UNL d   1      -1.927  -1.740   0.139  0.00  0.00     0.000 A 
ATOM      6  C7  UNL d   1      -0.617  -1.591   0.625  0.00  0.00    -0.073 A 
ATOM      7  C8  UNL d   1      -0.135  -2.526   1.699  0.00  0.00     0.078 C 
ENDROOT
BRANCH   1   8
ATOM      8  C1  UNL d   1       1.649  -0.404   0.504  0.00  0.00     0.053 C 
ATOM      9  C   UNL d   1       2.058   1.061   0.528  0.00  0.00     0.018 C 
ENDBRANCH   1   8
TORSDOF 1
ENDMDL
