MODEL 1
REMARK minimizedAffinity -3.9397738
REMARK minimizedRMSD -1
REMARK  1 active torsions:
REMARK  status: ('A' for Active; 'I' for Inactive)
REMARK    1  A    between atoms: C1_2  and  C2_3 
ROOT
ATOM      1  C2  UNL d   1      -0.044   0.228  -0.378  0.00  0.00    -0.076 A 
ATOM      2  C3  UNL d   1      -0.573  -0.346   0.791  0.00  0.00     0.004 A 
ATOM      3  C4  UNL d   1      -1.872  -0.851   0.817  0.00  0.00    -0.003 A 
ATOM      4  C5  UNL d   1      -2.662  -0.791  -0.326  0.00  0.00     0.000 A 
ATOM      5  C6  UNL d   1      -2.147  -0.241  -1.499  0.00  0.00     0.000 A 
ATOM      6  C7  UNL d   1      -0.834   0.258  -1.547  0.00  0.00    -0.073 A 
ATOM      7  C8  UNL d   1      -0.332   0.846  -2.837  0.00  0.00     0.078 C 
ENDROOT
BRANCH   1   8
ATOM      8  C1  UNL d   1       1.362   0.784  -0.339  0.00  0.00     0.053 C 
ATOM      9  C   UNL d   1       1.978   0.713   1.050  0.00  0.00     0.018 C 
ENDBRANCH   1   8
TORSDOF 1
ENDMDL
