MODEL 1
REMARK minimizedAffinity -4.39923
REMARK minimizedRMSD -1
REMARK  1 active torsions:
REMARK  status: ('A' for Active; 'I' for Inactive)
REMARK    1  A    between atoms: C1_2  and  C2_3 
ROOT
ATOM      1  C2  UNL d   1       0.275  -0.188   0.058  0.00  0.00    -0.076 A 
ATOM      2  C3  UNL d   1       0.086   0.520  -1.142  0.00  0.00     0.004 A 
ATOM      3  C4  UNL d   1      -1.128   0.466  -1.824  0.00  0.00    -0.003 A 
ATOM      4  C5  UNL d   1      -2.174  -0.297  -1.317  0.00  0.00     0.000 A 
ATOM      5  C6  UNL d   1      -2.011  -0.992  -0.119  0.00  0.00     0.000 A 
ATOM      6  C7  UNL d   1      -0.798  -0.935   0.589  0.00  0.00    -0.073 A 
ATOM      7  C8  UNL d   1      -0.675  -1.709   1.873  0.00  0.00     0.078 C 
ENDROOT
BRANCH   1   8
ATOM      8  C1  UNL d   1       1.622  -0.113   0.739  0.00  0.00     0.053 C 
ATOM      9  C   UNL d   1       2.162   1.307   0.809  0.00  0.00     0.018 C 
ENDBRANCH   1   8
TORSDOF 1
ENDMDL
