MODEL 1
REMARK minimizedAffinity -4.18845749
REMARK minimizedRMSD -1
REMARK  1 active torsions:
REMARK  status: ('A' for Active; 'I' for Inactive)
REMARK    1  A    between atoms: C1_2  and  C2_3 
ROOT
ATOM      1  C2  UNL d   1      -0.821  -0.242   0.227  0.00  0.00    -0.076 A 
ATOM      2  C3  UNL d   1      -0.335   0.817  -0.559  0.00  0.00     0.004 A 
ATOM      3  C4  UNL d   1       1.012   1.175  -0.526  0.00  0.00    -0.003 A 
ATOM      4  C5  UNL d   1       1.895   0.479   0.292  0.00  0.00     0.000 A 
ATOM      5  C6  UNL d   1       1.433  -0.586   1.065  0.00  0.00     0.000 A 
ATOM      6  C7  UNL d   1       0.081  -0.970   1.032  0.00  0.00    -0.073 A 
ATOM      7  C8  UNL d   1      -0.363  -2.122   1.891  0.00  0.00     0.078 C 
ENDROOT
BRANCH   1   8
ATOM      8  C1  UNL d   1      -2.297  -0.566   0.172  0.00  0.00     0.053 C 
ATOM      9  C   UNL d   1      -2.700  -1.223  -1.140  0.00  0.00     0.018 C 
ENDBRANCH   1   8
TORSDOF 1
ENDMDL
