MODEL 1
REMARK minimizedAffinity -4.66629982
REMARK minimizedRMSD -1
REMARK  1 active torsions:
REMARK  status: ('A' for Active; 'I' for Inactive)
REMARK    1  A    between atoms: C1_2  and  C2_3 
ROOT
ATOM      1  C2  UNL d   1      -0.084  -0.025   0.228  0.00  0.00    -0.076 A 
ATOM      2  C3  UNL d   1      -0.618   0.657  -0.879  0.00  0.00     0.004 A 
ATOM      3  C4  UNL d   1      -1.933   0.442  -1.288  0.00  0.00    -0.003 A 
ATOM      4  C5  UNL d   1      -2.735  -0.459  -0.596  0.00  0.00     0.000 A 
ATOM      5  C6  UNL d   1      -2.227  -1.131   0.515  0.00  0.00     0.000 A 
ATOM      6  C7  UNL d   1      -0.909  -0.913   0.951  0.00  0.00    -0.073 A 
ATOM      7  C8  UNL d   1      -0.411  -1.670   2.152  0.00  0.00     0.078 C 
ENDROOT
BRANCH   1   8
ATOM      8  C1  UNL d   1       1.358   0.228   0.609  0.00  0.00     0.053 C 
ATOM      9  C   UNL d   1       1.684   1.711   0.700  0.00  0.00     0.018 C 
ENDBRANCH   1   8
TORSDOF 1
ENDMDL
