MODEL 1
REMARK minimizedAffinity -5.53033447
REMARK minimizedRMSD -1
REMARK  1 active torsions:
REMARK  status: ('A' for Active; 'I' for Inactive)
REMARK    1  A    between atoms: C1_2  and  C2_3 
ROOT
ATOM      1  C2  UNL d   1      -1.036  -0.522   0.464  0.00  0.00    -0.076 A 
ATOM      2  C3  UNL d   1      -1.945   0.121  -0.394  0.00  0.00     0.004 A 
ATOM      3  C4  UNL d   1      -3.180  -0.453  -0.692  0.00  0.00    -0.003 A 
ATOM      4  C5  UNL d   1      -3.525  -1.681  -0.138  0.00  0.00     0.000 A 
ATOM      5  C6  UNL d   1      -2.643  -2.325   0.729  0.00  0.00     0.000 A 
ATOM      6  C7  UNL d   1      -1.401  -1.751   1.053  0.00  0.00    -0.073 A 
ATOM      7  C8  UNL d   1      -0.486  -2.493   1.989  0.00  0.00     0.078 C 
ENDROOT
BRANCH   1   8
ATOM      8  C1  UNL d   1       0.299   0.136   0.730  0.00  0.00     0.053 C 
ATOM      9  C   UNL d   1       1.362  -0.276  -0.276  0.00  0.00     0.018 C 
ENDBRANCH   1   8
TORSDOF 1
ENDMDL
