MODEL 1
REMARK minimizedAffinity -1.46010888
REMARK minimizedRMSD -1
REMARK  1 active torsions:
REMARK  status: ('A' for Active; 'I' for Inactive)
REMARK    1  A    between atoms: C1_2  and  C2_3 
ROOT
ATOM      1  C2  UNL d   1       2.684   2.487  -0.056  0.00  0.00    -0.076 A 
ATOM      2  C3  UNL d   1       2.874   3.573   0.816  0.00  0.00     0.004 A 
ATOM      3  C4  UNL d   1       2.516   3.486   2.160  0.00  0.00    -0.003 A 
ATOM      4  C5  UNL d   1       1.962   2.310   2.655  0.00  0.00     0.000 A 
ATOM      5  C6  UNL d   1       1.782   1.217   1.808  0.00  0.00     0.000 A 
ATOM      6  C7  UNL d   1       2.153   1.283   0.454  0.00  0.00    -0.073 A 
ATOM      7  C8  UNL d   1       1.931   0.075  -0.415  0.00  0.00     0.078 C 
ENDROOT
BRANCH   1   8
ATOM      8  C1  UNL d   1       3.066   2.649  -1.509  0.00  0.00     0.053 C 
ATOM      9  C   UNL d   1       3.745   3.982  -1.788  0.00  0.00     0.018 C 
ENDBRANCH   1   8
TORSDOF 1
ENDMDL
