MODEL 1
REMARK minimizedAffinity -1.75214124
REMARK minimizedRMSD -1
REMARK  1 active torsions:
REMARK  status: ('A' for Active; 'I' for Inactive)
REMARK    1  A    between atoms: C1_2  and  C2_3 
ROOT
ATOM      1  C2  UNL d   1       0.447  -0.064  -0.172  0.00  0.00    -0.076 A 
ATOM      2  C3  UNL d   1       0.082   0.615  -1.347  0.00  0.00     0.004 A 
ATOM      3  C4  UNL d   1      -1.155   0.392  -1.950  0.00  0.00    -0.003 A 
ATOM      4  C5  UNL d   1      -2.047  -0.513  -1.386  0.00  0.00     0.000 A 
ATOM      5  C6  UNL d   1      -1.709  -1.182  -0.210  0.00  0.00     0.000 A 
ATOM      6  C7  UNL d   1      -0.472  -0.957   0.419  0.00  0.00    -0.073 A 
ATOM      7  C8  UNL d   1      -0.157  -1.710   1.682  0.00  0.00     0.078 C 
ENDROOT
BRANCH   1   8
ATOM      8  C1  UNL d   1       1.813   0.198   0.422  0.00  0.00     0.053 C 
ATOM      9  C   UNL d   1       2.301   1.615   0.159  0.00  0.00     0.018 C 
ENDBRANCH   1   8
TORSDOF 1
ENDMDL
