MODEL 1
REMARK minimizedAffinity -4.5302248
REMARK minimizedRMSD -1
REMARK  1 active torsions:
REMARK  status: ('A' for Active; 'I' for Inactive)
REMARK    1  A    between atoms: C1_2  and  C2_3 
ROOT
ATOM      1  C2  UNL d   1       0.041  -0.198   0.264  0.00  0.00    -0.076 A 
ATOM      2  C3  UNL d   1      -0.539  -0.817   1.384  0.00  0.00     0.004 A 
ATOM      3  C4  UNL d   1      -1.884  -1.184   1.385  0.00  0.00    -0.003 A 
ATOM      4  C5  UNL d   1      -2.670  -0.938   0.265  0.00  0.00     0.000 A 
ATOM      5  C6  UNL d   1      -2.107  -0.341  -0.862  0.00  0.00     0.000 A 
ATOM      6  C7  UNL d   1      -0.748   0.020  -0.886  0.00  0.00    -0.073 A 
ATOM      7  C8  UNL d   1      -0.195   0.667  -2.125  0.00  0.00     0.078 C 
ENDROOT
BRANCH   1   8
ATOM      8  C1  UNL d   1       1.498   0.202   0.331  0.00  0.00     0.053 C 
ATOM      9  C   UNL d   1       1.715   1.482   1.123  0.00  0.00     0.018 C 
ENDBRANCH   1   8
TORSDOF 1
ENDMDL
