MODEL 1
REMARK minimizedAffinity -4.2847724
REMARK minimizedRMSD -1
REMARK  1 active torsions:
REMARK  status: ('A' for Active; 'I' for Inactive)
REMARK    1  A    between atoms: C1_2  and  C2_3 
ROOT
ATOM      1  C2  UNL d   1      -0.422  -0.403  -0.065  0.00  0.00    -0.076 A 
ATOM      2  C3  UNL d   1      -1.219  -0.723   1.048  0.00  0.00     0.004 A 
ATOM      3  C4  UNL d   1      -2.581  -0.983   0.904  0.00  0.00    -0.003 A 
ATOM      4  C5  UNL d   1      -3.168  -0.927  -0.356  0.00  0.00     0.000 A 
ATOM      5  C6  UNL d   1      -2.389  -0.628  -1.473  0.00  0.00     0.000 A 
ATOM      6  C7  UNL d   1      -1.011  -0.380  -1.347  0.00  0.00    -0.073 A 
ATOM      7  C8  UNL d   1      -0.220  -0.056  -2.585  0.00  0.00     0.078 C 
ENDROOT
BRANCH   1   8
ATOM      8  C1  UNL d   1       1.043  -0.104   0.157  0.00  0.00     0.053 C 
ATOM      9  C   UNL d   1       1.316   1.383   0.328  0.00  0.00     0.018 C 
ENDBRANCH   1   8
TORSDOF 1
ENDMDL
