MODEL 1
REMARK minimizedAffinity -4.85274839
REMARK minimizedRMSD -1
REMARK  1 active torsions:
REMARK  status: ('A' for Active; 'I' for Inactive)
REMARK    1  A    between atoms: C1_2  and  C2_3 
ROOT
ATOM      1  C2  UNL d   1       0.032  -0.010  -0.061  0.00  0.00    -0.076 A 
ATOM      2  C3  UNL d   1      -0.603  -0.334   1.150  0.00  0.00     0.004 A 
ATOM      3  C4  UNL d   1      -1.958  -0.660   1.185  0.00  0.00    -0.003 A 
ATOM      4  C5  UNL d   1      -2.699  -0.669   0.009  0.00  0.00     0.000 A 
ATOM      5  C6  UNL d   1      -2.082  -0.368  -1.204  0.00  0.00     0.000 A 
ATOM      6  C7  UNL d   1      -0.713  -0.052  -1.259  0.00  0.00    -0.073 A 
ATOM      7  C8  UNL d   1      -0.100   0.271  -2.594  0.00  0.00     0.078 C 
ENDROOT
BRANCH   1   8
ATOM      8  C1  UNL d   1       1.497   0.363  -0.034  0.00  0.00     0.053 C 
ATOM      9  C   UNL d   1       1.777   1.559   0.862  0.00  0.00     0.018 C 
ENDBRANCH   1   8
TORSDOF 1
ENDMDL
