MODEL 1
REMARK minimizedAffinity -4.44061041
REMARK minimizedRMSD -1
REMARK  1 active torsions:
REMARK  status: ('A' for Active; 'I' for Inactive)
REMARK    1  A    between atoms: C1_2  and  C2_3 
ROOT
ATOM      1  C2  UNL d   1      -1.414  -0.807  -0.104  0.00  0.00    -0.076 A 
ATOM      2  C3  UNL d   1      -0.896   0.261  -0.857  0.00  0.00     0.004 A 
ATOM      3  C4  UNL d   1       0.410   0.709  -0.661  0.00  0.00    -0.003 A 
ATOM      4  C5  UNL d   1       1.218   0.097   0.290  0.00  0.00     0.000 A 
ATOM      5  C6  UNL d   1       0.725  -0.975   1.034  0.00  0.00     0.000 A 
ATOM      6  C7  UNL d   1      -0.583  -1.450   0.838  0.00  0.00    -0.073 A 
ATOM      7  C8  UNL d   1      -1.064  -2.606   1.672  0.00  0.00     0.078 C 
ENDROOT
BRANCH   1   8
ATOM      8  C1  UNL d   1      -2.846  -1.232  -0.341  0.00  0.00     0.053 C 
ATOM      9  C   UNL d   1      -2.961  -2.337  -1.380  0.00  0.00     0.018 C 
ENDBRANCH   1   8
TORSDOF 1
ENDMDL
