MODEL 1
REMARK minimizedAffinity -4.585289
REMARK minimizedRMSD -1
REMARK  1 active torsions:
REMARK  status: ('A' for Active; 'I' for Inactive)
REMARK    1  A    between atoms: C1_2  and  C2_3 
ROOT
ATOM      1  C2  UNL d   1      -0.034  -0.224  -0.131  0.00  0.00    -0.076 A 
ATOM      2  C3  UNL d   1      -0.321   0.574  -1.253  0.00  0.00     0.004 A 
ATOM      3  C4  UNL d   1      -1.629   0.722  -1.711  0.00  0.00    -0.003 A 
ATOM      4  C5  UNL d   1      -2.671   0.077  -1.055  0.00  0.00     0.000 A 
ATOM      5  C6  UNL d   1      -2.407  -0.704   0.069  0.00  0.00     0.000 A 
ATOM      6  C7  UNL d   1      -1.096  -0.852   0.554  0.00  0.00    -0.073 A 
ATOM      7  C8  UNL d   1      -0.867  -1.711   1.768  0.00  0.00     0.078 C 
ENDROOT
BRANCH   1   8
ATOM      8  C1  UNL d   1       1.407  -0.370   0.303  0.00  0.00     0.053 C 
ATOM      9  C   UNL d   1       2.065   0.969   0.597  0.00  0.00     0.018 C 
ENDBRANCH   1   8
TORSDOF 1
ENDMDL
