MODEL 1
REMARK minimizedAffinity 4.50981569
REMARK minimizedRMSD -1
REMARK  0 active torsions:
REMARK  status: ('A' for Active; 'I' for Inactive)
ROOT
ATOM      1  C   UNL d   1      -5.993  -3.811  -5.681  0.00  0.00     0.077 C 
ATOM      2  C1  UNL d   1      -5.879  -3.000  -4.424  0.00  0.00    -0.074 A 
ATOM      3  C2  UNL d   1      -5.999  -1.607  -4.454  0.00  0.00    -0.005 A 
ATOM      4  C3  UNL d   1      -5.900  -0.867  -3.276  0.00  0.00     0.006 A 
ATOM      5  C4  UNL d   1      -5.681  -1.511  -2.058  0.00  0.00    -0.005 A 
ATOM      6  C5  UNL d   1      -5.558  -2.904  -2.008  0.00  0.00    -0.074 A 
ATOM      7  C6  UNL d   1      -5.331  -3.613  -0.706  0.00  0.00     0.077 C 
ATOM      8  C7  UNL d   1      -5.666  -3.641  -3.196  0.00  0.00    -0.001 A 
ENDROOT
TORSDOF 0
ENDMDL
