MODEL 1
REMARK minimizedAffinity 6.24818087
REMARK minimizedRMSD -1
REMARK  0 active torsions:
REMARK  status: ('A' for Active; 'I' for Inactive)
ROOT
ATOM      1  C   UNL d   1      -1.365  -3.910   0.038  0.00  0.00     0.077 C 
ATOM      2  C1  UNL d   1      -2.017  -2.675  -0.509  0.00  0.00    -0.074 A 
ATOM      3  C2  UNL d   1      -3.272  -2.737  -1.124  0.00  0.00    -0.005 A 
ATOM      4  C3  UNL d   1      -3.870  -1.578  -1.619  0.00  0.00     0.006 A 
ATOM      5  C4  UNL d   1      -3.221  -0.348  -1.506  0.00  0.00    -0.005 A 
ATOM      6  C5  UNL d   1      -1.966  -0.267  -0.894  0.00  0.00    -0.074 A 
ATOM      7  C6  UNL d   1      -1.259   1.048  -0.755  0.00  0.00     0.077 C 
ATOM      8  C7  UNL d   1      -1.375  -1.434  -0.392  0.00  0.00    -0.001 A 
ENDROOT
TORSDOF 0
ENDMDL
