MODEL 1
REMARK minimizedAffinity 2.00594735
REMARK minimizedRMSD -1
REMARK  0 active torsions:
REMARK  status: ('A' for Active; 'I' for Inactive)
ROOT
ATOM      1  C   UNL d   1      -4.859   3.575   1.549  0.00  0.00     0.077 C 
ATOM      2  C1  UNL d   1      -4.095   2.297   1.731  0.00  0.00    -0.074 A 
ATOM      3  C2  UNL d   1      -4.729   1.057   1.606  0.00  0.00    -0.005 A 
ATOM      4  C3  UNL d   1      -4.004  -0.124   1.769  0.00  0.00     0.006 A 
ATOM      5  C4  UNL d   1      -2.639  -0.075   2.058  0.00  0.00    -0.005 A 
ATOM      6  C5  UNL d   1      -1.988   1.156   2.185  0.00  0.00    -0.074 A 
ATOM      7  C6  UNL d   1      -0.520   1.225   2.486  0.00  0.00     0.077 C 
ATOM      8  C7  UNL d   1      -2.723   2.337   2.013  0.00  0.00    -0.001 A 
ENDROOT
TORSDOF 0
ENDMDL
