MODEL 1
REMARK minimizedAffinity 3.95247459
REMARK minimizedRMSD -1
REMARK  0 active torsions:
REMARK  status: ('A' for Active; 'I' for Inactive)
ROOT
ATOM      1  C   UNL d   1      -5.994  -2.087  -1.926  0.00  0.00     0.077 C 
ATOM      2  C1  UNL d   1      -5.529  -2.223  -3.345  0.00  0.00    -0.074 A 
ATOM      3  C2  UNL d   1      -6.000  -3.257  -4.160  0.00  0.00    -0.005 A 
ATOM      4  C3  UNL d   1      -5.565  -3.366  -5.481  0.00  0.00     0.006 A 
ATOM      5  C4  UNL d   1      -4.657  -2.442  -6.000  0.00  0.00    -0.005 A 
ATOM      6  C5  UNL d   1      -4.176  -1.400  -5.200  0.00  0.00    -0.074 A 
ATOM      7  C6  UNL d   1      -3.208  -0.392  -5.745  0.00  0.00     0.077 C 
ATOM      8  C7  UNL d   1      -4.623  -1.294  -3.876  0.00  0.00    -0.001 A 
ENDROOT
TORSDOF 0
ENDMDL
