MODEL 1
REMARK minimizedAffinity 12.3088474
REMARK minimizedRMSD -1
REMARK  0 active torsions:
REMARK  status: ('A' for Active; 'I' for Inactive)
ROOT
ATOM      1  C   UNL d   1      -2.622   1.371   0.972  0.00  0.00     0.077 C 
ATOM      2  C1  UNL d   1      -2.055   0.426   1.990  0.00  0.00    -0.074 A 
ATOM      3  C2  UNL d   1      -0.755  -0.074   1.861  0.00  0.00    -0.005 A 
ATOM      4  C3  UNL d   1      -0.239  -0.945   2.820  0.00  0.00     0.006 A 
ATOM      5  C4  UNL d   1      -1.016  -1.325   3.916  0.00  0.00    -0.005 A 
ATOM      6  C5  UNL d   1      -2.317  -0.834   4.061  0.00  0.00    -0.074 A 
ATOM      7  C6  UNL d   1      -3.162  -1.224   5.238  0.00  0.00     0.077 C 
ATOM      8  C7  UNL d   1      -2.827   0.046   3.097  0.00  0.00    -0.001 A 
ENDROOT
TORSDOF 0
ENDMDL
