MODEL 1
REMARK minimizedAffinity 8.94846916
REMARK minimizedRMSD -1
REMARK  0 active torsions:
REMARK  status: ('A' for Active; 'I' for Inactive)
ROOT
ATOM      1  C   UNL d   1      -4.879  -4.030  -0.588  0.00  0.00     0.077 C 
ATOM      2  C1  UNL d   1      -5.278  -3.264  -1.814  0.00  0.00    -0.074 A 
ATOM      3  C2  UNL d   1      -5.641  -1.916  -1.733  0.00  0.00    -0.005 A 
ATOM      4  C3  UNL d   1      -6.000  -1.214  -2.884  0.00  0.00     0.006 A 
ATOM      5  C4  UNL d   1      -6.000  -1.852  -4.125  0.00  0.00    -0.005 A 
ATOM      6  C5  UNL d   1      -5.639  -3.199  -4.225  0.00  0.00    -0.074 A 
ATOM      7  C6  UNL d   1      -5.624  -3.897  -5.553  0.00  0.00     0.077 C 
ATOM      8  C7  UNL d   1      -5.273  -3.896  -3.066  0.00  0.00    -0.001 A 
ENDROOT
TORSDOF 0
ENDMDL
