MODEL 1
REMARK minimizedAffinity 20.9887257
REMARK minimizedRMSD -1
REMARK  0 active torsions:
REMARK  status: ('A' for Active; 'I' for Inactive)
ROOT
ATOM      1  C   UNL d   1      -0.310   0.738   2.724  0.00  0.00     0.077 C 
ATOM      2  C1  UNL d   1      -1.229   0.423   1.580  0.00  0.00    -0.074 A 
ATOM      3  C2  UNL d   1      -1.026   0.992   0.318  0.00  0.00    -0.005 A 
ATOM      4  C3  UNL d   1      -1.883   0.682  -0.738  0.00  0.00     0.006 A 
ATOM      5  C4  UNL d   1      -2.949  -0.197  -0.544  0.00  0.00    -0.005 A 
ATOM      6  C5  UNL d   1      -3.167  -0.775   0.711  0.00  0.00    -0.074 A 
ATOM      7  C6  UNL d   1      -4.302  -1.729   0.934  0.00  0.00     0.077 C 
ATOM      8  C7  UNL d   1      -2.297  -0.465   1.766  0.00  0.00    -0.001 A 
ENDROOT
TORSDOF 0
ENDMDL
