MODEL 1
REMARK minimizedAffinity 9.18763351
REMARK minimizedRMSD -1
REMARK  0 active torsions:
REMARK  status: ('A' for Active; 'I' for Inactive)
ROOT
ATOM      1  C   UNL d   1      -0.779   0.144   1.958  0.00  0.00     0.077 C 
ATOM      2  C1  UNL d   1      -2.186   0.647   1.829  0.00  0.00    -0.074 A 
ATOM      3  C2  UNL d   1      -2.472   2.013   1.916  0.00  0.00    -0.005 A 
ATOM      4  C3  UNL d   1      -3.785   2.467   1.784  0.00  0.00     0.006 A 
ATOM      5  C4  UNL d   1      -4.823   1.560   1.565  0.00  0.00    -0.005 A 
ATOM      6  C5  UNL d   1      -4.556   0.190   1.474  0.00  0.00    -0.074 A 
ATOM      7  C6  UNL d   1      -5.658  -0.797   1.229  0.00  0.00     0.077 C 
ATOM      8  C7  UNL d   1      -3.233  -0.257   1.601  0.00  0.00    -0.001 A 
ENDROOT
TORSDOF 0
ENDMDL
