MODEL 1
REMARK minimizedAffinity 13.0469131
REMARK minimizedRMSD -1
REMARK  0 active torsions:
REMARK  status: ('A' for Active; 'I' for Inactive)
ROOT
ATOM      1  C   UNL d   1      -3.414   0.671  -5.999  0.00  0.00     0.077 C 
ATOM      2  C1  UNL d   1      -2.378  -0.374  -5.706  0.00  0.00    -0.074 A 
ATOM      3  C2  UNL d   1      -2.613  -1.721  -6.000  0.00  0.00    -0.005 A 
ATOM      4  C3  UNL d   1      -1.636  -2.680  -5.730  0.00  0.00     0.006 A 
ATOM      5  C4  UNL d   1      -0.417  -2.302  -5.166  0.00  0.00    -0.005 A 
ATOM      6  C5  UNL d   1      -0.164  -0.959  -4.867  0.00  0.00    -0.074 A 
ATOM      7  C6  UNL d   1       1.144  -0.535  -4.269  0.00  0.00     0.077 C 
ATOM      8  C7  UNL d   1      -1.148  -0.001  -5.147  0.00  0.00    -0.001 A 
ENDROOT
TORSDOF 0
ENDMDL
