MODEL 1
REMARK minimizedAffinity 10.0572729
REMARK minimizedRMSD -1
REMARK  0 active torsions:
REMARK  status: ('A' for Active; 'I' for Inactive)
ROOT
ATOM      1  C   UNL d   1      -1.978  -2.992  -5.979  0.00  0.00     0.077 C 
ATOM      2  C1  UNL d   1      -3.380  -3.288  -5.534  0.00  0.00    -0.074 A 
ATOM      3  C2  UNL d   1      -4.057  -4.420  -5.998  0.00  0.00    -0.005 A 
ATOM      4  C3  UNL d   1      -5.357  -4.687  -5.568  0.00  0.00     0.006 A 
ATOM      5  C4  UNL d   1      -5.991  -3.827  -4.671  0.00  0.00    -0.005 A 
ATOM      6  C5  UNL d   1      -5.329  -2.691  -4.195  0.00  0.00    -0.074 A 
ATOM      7  C6  UNL d   1      -5.992  -1.761  -3.223  0.00  0.00     0.077 C 
ATOM      8  C7  UNL d   1      -4.021  -2.433  -4.627  0.00  0.00    -0.001 A 
ENDROOT
TORSDOF 0
ENDMDL
