MODEL 1
REMARK minimizedAffinity 8.65406418
REMARK minimizedRMSD -1
REMARK  0 active torsions:
REMARK  status: ('A' for Active; 'I' for Inactive)
ROOT
ATOM      1  C   UNL d   1      -5.409  -4.233  -5.996  0.00  0.00     0.077 C 
ATOM      2  C1  UNL d   1      -5.408  -3.326  -4.802  0.00  0.00    -0.074 A 
ATOM      3  C2  UNL d   1      -5.998  -3.722  -3.598  0.00  0.00    -0.005 A 
ATOM      4  C3  UNL d   1      -5.982  -2.871  -2.493  0.00  0.00     0.006 A 
ATOM      5  C4  UNL d   1      -5.376  -1.618  -2.580  0.00  0.00    -0.005 A 
ATOM      6  C5  UNL d   1      -4.779  -1.204  -3.776  0.00  0.00    -0.074 A 
ATOM      7  C6  UNL d   1      -4.115   0.136  -3.885  0.00  0.00     0.077 C 
ATOM      8  C7  UNL d   1      -4.794  -2.068  -4.880  0.00  0.00    -0.001 A 
ENDROOT
TORSDOF 0
ENDMDL
