MODEL 1
REMARK minimizedAffinity 4.82339621
REMARK minimizedRMSD -1
REMARK  0 active torsions:
REMARK  status: ('A' for Active; 'I' for Inactive)
ROOT
ATOM      1  C   UNL d   1       2.505  -0.859  -3.633  0.00  0.00     0.077 C 
ATOM      2  C1  UNL d   1       1.450   0.118  -3.207  0.00  0.00    -0.074 A 
ATOM      3  C2  UNL d   1       1.745   1.146  -2.306  0.00  0.00    -0.005 A 
ATOM      4  C3  UNL d   1       0.756   2.054  -1.926  0.00  0.00     0.006 A 
ATOM      5  C4  UNL d   1      -0.536   1.942  -2.442  0.00  0.00    -0.005 A 
ATOM      6  C5  UNL d   1      -0.849   0.921  -3.344  0.00  0.00    -0.074 A 
ATOM      7  C6  UNL d   1      -2.230   0.792  -3.916  0.00  0.00     0.077 C 
ATOM      8  C7  UNL d   1       0.152   0.017  -3.727  0.00  0.00    -0.001 A 
ENDROOT
TORSDOF 0
ENDMDL
