MODEL 1
REMARK minimizedAffinity 4.00669909
REMARK minimizedRMSD -1
REMARK  0 active torsions:
REMARK  status: ('A' for Active; 'I' for Inactive)
ROOT
ATOM      1  C   UNL d   1      -1.607   0.008  -4.442  0.00  0.00     0.077 C 
ATOM      2  C1  UNL d   1      -0.194   0.308  -4.039  0.00  0.00    -0.074 A 
ATOM      3  C2  UNL d   1       0.120   1.475  -3.335  0.00  0.00    -0.005 A 
ATOM      4  C3  UNL d   1       1.438   1.736  -2.959  0.00  0.00     0.006 A 
ATOM      5  C4  UNL d   1       2.453   0.835  -3.283  0.00  0.00    -0.005 A 
ATOM      6  C5  UNL d   1       2.157  -0.337  -3.987  0.00  0.00    -0.074 A 
ATOM      7  C6  UNL d   1       3.235  -1.321  -4.335  0.00  0.00     0.077 C 
ATOM      8  C7  UNL d   1       0.830  -0.596  -4.355  0.00  0.00    -0.001 A 
ENDROOT
TORSDOF 0
ENDMDL
