MODEL 1
REMARK minimizedAffinity 0.578808188
REMARK minimizedRMSD -1
REMARK  0 active torsions:
REMARK  status: ('A' for Active; 'I' for Inactive)
ROOT
ATOM      1  C   UNL d   1       0.436  -0.097   2.782  0.00  0.00     0.077 C 
ATOM      2  C1  UNL d   1      -0.834   0.330   2.108  0.00  0.00    -0.074 A 
ATOM      3  C2  UNL d   1      -0.880   0.536   0.725  0.00  0.00    -0.005 A 
ATOM      4  C3  UNL d   1      -2.071   0.923   0.111  0.00  0.00     0.006 A 
ATOM      5  C4  UNL d   1      -3.226   1.109   0.872  0.00  0.00    -0.005 A 
ATOM      6  C5  UNL d   1      -3.199   0.907   2.255  0.00  0.00    -0.074 A 
ATOM      7  C6  UNL d   1      -4.434   1.092   3.086  0.00  0.00     0.077 C 
ATOM      8  C7  UNL d   1      -2.001   0.510   2.864  0.00  0.00    -0.001 A 
ENDROOT
TORSDOF 0
ENDMDL
