MODEL 1
REMARK minimizedAffinity 5.61323452
REMARK minimizedRMSD -1
REMARK  0 active torsions:
REMARK  status: ('A' for Active; 'I' for Inactive)
ROOT
ATOM      1  C   UNL d   1      -0.403  -1.369   2.974  0.00  0.00     0.077 C 
ATOM      2  C1  UNL d   1      -1.476  -0.416   2.536  0.00  0.00    -0.074 A 
ATOM      3  C2  UNL d   1      -1.240   0.513   1.517  0.00  0.00    -0.005 A 
ATOM      4  C3  UNL d   1      -2.250   1.386   1.114  0.00  0.00     0.006 A 
ATOM      5  C4  UNL d   1      -3.504   1.339   1.724  0.00  0.00    -0.005 A 
ATOM      6  C5  UNL d   1      -3.759   0.417   2.743  0.00  0.00    -0.074 A 
ATOM      7  C6  UNL d   1      -5.104   0.347   3.403  0.00  0.00     0.077 C 
ATOM      8  C7  UNL d   1      -2.741  -0.462   3.138  0.00  0.00    -0.001 A 
ENDROOT
TORSDOF 0
ENDMDL
