MODEL 1
REMARK minimizedAffinity -1.99625278
REMARK minimizedRMSD -1
REMARK  0 active torsions:
REMARK  status: ('A' for Active; 'I' for Inactive)
ROOT
ATOM      1  C   UNL d   1      -1.086   1.645   1.602  0.00  0.00     0.077 C 
ATOM      2  C1  UNL d   1      -2.278   0.802   1.258  0.00  0.00    -0.074 A 
ATOM      3  C2  UNL d   1      -2.234  -0.108   0.197  0.00  0.00    -0.005 A 
ATOM      4  C3  UNL d   1      -3.347  -0.892  -0.105  0.00  0.00     0.006 A 
ATOM      5  C4  UNL d   1      -4.514  -0.775   0.651  0.00  0.00    -0.005 A 
ATOM      6  C5  UNL d   1      -4.577   0.128   1.716  0.00  0.00    -0.074 A 
ATOM      7  C6  UNL d   1      -5.821   0.259   2.545  0.00  0.00     0.077 C 
ATOM      8  C7  UNL d   1      -3.452   0.908   2.018  0.00  0.00    -0.001 A 
ENDROOT
TORSDOF 0
ENDMDL
