MODEL 1
REMARK minimizedAffinity 12.4946957
REMARK minimizedRMSD -1
REMARK  0 active torsions:
REMARK  status: ('A' for Active; 'I' for Inactive)
ROOT
ATOM      1  C   UNL d   1       5.302   4.298  -5.998  0.00  0.00     0.077 C 
ATOM      2  C1  UNL d   1       5.321   3.137  -5.050  0.00  0.00    -0.074 A 
ATOM      3  C2  UNL d   1       5.999   3.217  -3.829  0.00  0.00    -0.005 A 
ATOM      4  C3  UNL d   1       6.000   2.132  -2.952  0.00  0.00     0.006 A 
ATOM      5  C4  UNL d   1       5.325   0.957  -3.287  0.00  0.00    -0.005 A 
ATOM      6  C5  UNL d   1       4.641   0.859  -4.503  0.00  0.00    -0.074 A 
ATOM      7  C6  UNL d   1       3.902  -0.393  -4.874  0.00  0.00     0.077 C 
ATOM      8  C7  UNL d   1       4.639   1.956  -5.375  0.00  0.00    -0.001 A 
ENDROOT
TORSDOF 0
ENDMDL
