MODEL 1
REMARK minimizedAffinity 4.10883617
REMARK minimizedRMSD -1
REMARK  0 active torsions:
REMARK  status: ('A' for Active; 'I' for Inactive)
ROOT
ATOM      1  C   UNL d   1       1.063  -2.453  -5.997  0.00  0.00     0.077 C 
ATOM      2  C1  UNL d   1       1.887  -1.442  -5.256  0.00  0.00    -0.074 A 
ATOM      3  C2  UNL d   1       2.658  -1.815  -4.151  0.00  0.00    -0.005 A 
ATOM      4  C3  UNL d   1       3.427  -0.866  -3.477  0.00  0.00     0.006 A 
ATOM      5  C4  UNL d   1       3.432   0.463  -3.901  0.00  0.00    -0.005 A 
ATOM      6  C5  UNL d   1       2.668   0.854  -5.005  0.00  0.00    -0.074 A 
ATOM      7  C6  UNL d   1       2.670   2.277  -5.480  0.00  0.00     0.077 C 
ATOM      8  C7  UNL d   1       1.904  -0.106  -5.681  0.00  0.00    -0.001 A 
ENDROOT
TORSDOF 0
ENDMDL
