MODEL 1
REMARK minimizedAffinity 8.8541441
REMARK minimizedRMSD -1
REMARK  0 active torsions:
REMARK  status: ('A' for Active; 'I' for Inactive)
ROOT
ATOM      1  C   UNL d   1      -4.288   1.053   3.898  0.00  0.00     0.077 C 
ATOM      2  C1  UNL d   1      -3.454   0.810   2.675  0.00  0.00    -0.074 A 
ATOM      3  C2  UNL d   1      -2.313   1.577   2.419  0.00  0.00    -0.005 A 
ATOM      4  C3  UNL d   1      -1.542   1.333   1.283  0.00  0.00     0.006 A 
ATOM      5  C4  UNL d   1      -1.903   0.320   0.393  0.00  0.00    -0.005 A 
ATOM      6  C5  UNL d   1      -3.040  -0.458   0.634  0.00  0.00    -0.074 A 
ATOM      7  C6  UNL d   1      -3.436  -1.557  -0.307  0.00  0.00     0.077 C 
ATOM      8  C7  UNL d   1      -3.806  -0.211   1.781  0.00  0.00    -0.001 A 
ENDROOT
TORSDOF 0
ENDMDL
