MODEL 1
REMARK minimizedAffinity -3.51520181
REMARK minimizedRMSD -1
REMARK  0 active torsions:
REMARK  status: ('A' for Active; 'I' for Inactive)
ROOT
ATOM      1  C4' PXY d   1       0.926   0.247  -1.135  0.00  0.00     0.077 C 
ATOM      2  C1' PXY d   1      -2.590   4.003   1.500  0.00  0.00     0.077 C 
ATOM      3  C1  PXY d   1      -1.668   3.026   0.798  0.00  0.00    -0.082 A 
ATOM      4  C2  PXY d   1      -1.639   1.761   1.185  0.00  0.00     0.003 A 
ATOM      5  C3  PXY d   1      -0.788   0.871   0.583  0.00  0.00     0.003 A 
ATOM      6  C4  PXY d   1       0.003   1.267  -0.462  0.00  0.00    -0.082 A 
ATOM      7  C5  PXY d   1      -0.028   2.553  -0.869  0.00  0.00     0.003 A 
ATOM      8  C6  PXY d   1      -0.869   3.451  -0.218  0.00  0.00     0.003 A 
ENDROOT
TORSDOF 0
ENDMDL
