MODEL 1
REMARK minimizedAffinity -6.46331978
REMARK minimizedRMSD -1
REMARK  0 active torsions:
REMARK  status: ('A' for Active; 'I' for Inactive)
ROOT
ATOM      1  C4' PXY d   1       0.222  -0.248  -0.237  0.00  0.00     0.077 C 
ATOM      2  C1' PXY d   1      -2.933   4.151   1.789  0.00  0.00     0.077 C 
ATOM      3  C1  PXY d   1      -2.107   2.991   1.269  0.00  0.00    -0.082 A 
ATOM      4  C2  PXY d   1      -1.231   3.195   0.299  0.00  0.00     0.003 A 
ATOM      5  C3  PXY d   1      -0.498   2.151  -0.205  0.00  0.00     0.003 A 
ATOM      6  C4  PXY d   1      -0.627   0.895   0.326  0.00  0.00    -0.082 A 
ATOM      7  C5  PXY d   1      -1.511   0.681   1.322  0.00  0.00     0.003 A 
ATOM      8  C6  PXY d   1      -2.274   1.746   1.792  0.00  0.00     0.003 A 
ENDROOT
TORSDOF 0
ENDMDL
