MODEL 1
REMARK minimizedAffinity -5.31081867
REMARK minimizedRMSD -1
REMARK  0 active torsions:
REMARK  status: ('A' for Active; 'I' for Inactive)
ROOT
ATOM      1  C4' PXY d   1       0.543  -0.232  -0.688  0.00  0.00     0.077 C 
ATOM      2  C1' PXY d   1      -2.949   4.120   0.824  0.00  0.00     0.077 C 
ATOM      3  C1  PXY d   1      -2.029   2.985   0.416  0.00  0.00    -0.082 A 
ATOM      4  C2  PXY d   1      -2.270   1.760   0.853  0.00  0.00     0.003 A 
ATOM      5  C3  PXY d   1      -1.431   0.728   0.521  0.00  0.00     0.003 A 
ATOM      6  C4  PXY d   1      -0.364   0.943  -0.310  0.00  0.00    -0.082 A 
ATOM      7  C5  PXY d   1      -0.118   2.188  -0.769  0.00  0.00     0.003 A 
ATOM      8  C6  PXY d   1      -0.958   3.230  -0.386  0.00  0.00     0.003 A 
ENDROOT
TORSDOF 0
ENDMDL
