MODEL 1
REMARK minimizedAffinity -3.83945084
REMARK minimizedRMSD -1
REMARK  0 active torsions:
REMARK  status: ('A' for Active; 'I' for Inactive)
ROOT
ATOM      1  C4' PXY d   1       0.759  -2.299  -1.121  0.00  0.00     0.077 C 
ATOM      2  C1' PXY d   1      -0.620   3.073   0.510  0.00  0.00     0.077 C 
ATOM      3  C1  PXY d   1      -0.257   1.661   0.095  0.00  0.00    -0.082 A 
ATOM      4  C2  PXY d   1       0.246   1.442  -1.109  0.00  0.00     0.003 A 
ATOM      5  C3  PXY d   1       0.550   0.167  -1.513  0.00  0.00     0.003 A 
ATOM      6  C4  PXY d   1       0.387  -0.888  -0.656  0.00  0.00    -0.082 A 
ATOM      7  C5  PXY d   1      -0.116  -0.672   0.578  0.00  0.00     0.003 A 
ATOM      8  C6  PXY d   1      -0.457   0.624   0.954  0.00  0.00     0.003 A 
ENDROOT
TORSDOF 0
ENDMDL
