MODEL 1
REMARK minimizedAffinity -5.43658304
REMARK minimizedRMSD -1
REMARK  0 active torsions:
REMARK  status: ('A' for Active; 'I' for Inactive)
ROOT
ATOM      1  C4' PXY d   1       0.277  -1.308   1.084  0.00  0.00     0.077 C 
ATOM      2  C1' PXY d   1      -2.247   3.889   0.917  0.00  0.00     0.077 C 
ATOM      3  C1  PXY d   1      -1.586   2.526   0.947  0.00  0.00    -0.082 A 
ATOM      4  C2  PXY d   1      -1.640   1.797   2.051  0.00  0.00     0.003 A 
ATOM      5  C3  PXY d   1      -1.020   0.576   2.106  0.00  0.00     0.003 A 
ATOM      6  C4  PXY d   1      -0.384   0.071   1.004  0.00  0.00    -0.082 A 
ATOM      7  C5  PXY d   1      -0.334   0.803  -0.129  0.00  0.00     0.003 A 
ATOM      8  C6  PXY d   1      -0.934   2.059  -0.152  0.00  0.00     0.003 A 
ENDROOT
TORSDOF 0
ENDMDL
