MODEL 1
REMARK minimizedAffinity -4.79424477
REMARK minimizedRMSD -1
REMARK  0 active torsions:
REMARK  status: ('A' for Active; 'I' for Inactive)
ROOT
ATOM      1  C4' PXY d   1       0.156   3.859  -1.181  0.00  0.00     0.077 C 
ATOM      2  C1' PXY d   1      -1.586  -0.410   2.305  0.00  0.00     0.077 C 
ATOM      3  C1  PXY d   1      -1.140   0.716   1.394  0.00  0.00    -0.082 A 
ATOM      4  C2  PXY d   1      -0.372   0.448   0.351  0.00  0.00     0.003 A 
ATOM      5  C3  PXY d   1       0.067   1.459  -0.465  0.00  0.00     0.003 A 
ATOM      6  C4  PXY d   1      -0.326   2.751  -0.240  0.00  0.00    -0.082 A 
ATOM      7  C5  PXY d   1      -1.118   3.031   0.817  0.00  0.00     0.003 A 
ATOM      8  C6  PXY d   1      -1.520   1.996   1.656  0.00  0.00     0.003 A 
ENDROOT
TORSDOF 0
ENDMDL
