MODEL 1
REMARK minimizedAffinity -1.83202016
REMARK minimizedRMSD -1
REMARK  0 active torsions:
REMARK  status: ('A' for Active; 'I' for Inactive)
ROOT
ATOM      1  C4' PXY d   1       1.060  -2.064  -1.358  0.00  0.00     0.077 C 
ATOM      2  C1' PXY d   1      -1.166   1.996   2.103  0.00  0.00     0.077 C 
ATOM      3  C1  PXY d   1      -0.585   0.939   1.185  0.00  0.00    -0.082 A 
ATOM      4  C2  PXY d   1      -0.491  -0.312   1.606  0.00  0.00     0.003 A 
ATOM      5  C3  PXY d   1       0.061  -1.275   0.800  0.00  0.00     0.003 A 
ATOM      6  C4  PXY d   1       0.472  -0.965  -0.468  0.00  0.00    -0.082 A 
ATOM      7  C5  PXY d   1       0.370   0.307  -0.909  0.00  0.00     0.003 A 
ATOM      8  C6  PXY d   1      -0.156   1.278  -0.061  0.00  0.00     0.003 A 
ENDROOT
TORSDOF 0
ENDMDL
