MODEL 1
REMARK minimizedAffinity 2.017838
REMARK minimizedRMSD -1
REMARK  0 active torsions:
REMARK  status: ('A' for Active; 'I' for Inactive)
ROOT
ATOM      1  C4' PXY d   1      -0.139  -0.129   1.317  0.00  0.00     0.077 C 
ATOM      2  C1' PXY d   1       1.493  -3.136  -3.342  0.00  0.00     0.077 C 
ATOM      3  C1  PXY d   1       1.074  -2.338  -2.123  0.00  0.00    -0.082 A 
ATOM      4  C2  PXY d   1       0.475  -2.951  -1.115  0.00  0.00     0.003 A 
ATOM      5  C3  PXY d   1       0.060  -2.239  -0.018  0.00  0.00     0.003 A 
ATOM      6  C4  PXY d   1       0.310  -0.896   0.070  0.00  0.00    -0.082 A 
ATOM      7  C5  PXY d   1       0.930  -0.266  -0.949  0.00  0.00     0.003 A 
ATOM      8  C6  PXY d   1       1.306  -0.999  -2.071  0.00  0.00     0.003 A 
ENDROOT
TORSDOF 0
ENDMDL
