MODEL 1
REMARK minimizedAffinity -4.218297
REMARK minimizedRMSD -1
REMARK  0 active torsions:
REMARK  status: ('A' for Active; 'I' for Inactive)
ROOT
ATOM      1  C4' PXY d   1       1.099  -2.992  -2.440  0.00  0.00     0.077 C 
ATOM      2  C1' PXY d   1      -0.603   0.827   1.551  0.00  0.00     0.077 C 
ATOM      3  C1  PXY d   1      -0.149  -0.165   0.499  0.00  0.00    -0.082 A 
ATOM      4  C2  PXY d   1      -0.902  -1.218   0.225  0.00  0.00     0.003 A 
ATOM      5  C3  PXY d   1      -0.491  -2.142  -0.701  0.00  0.00     0.003 A 
ATOM      6  C4  PXY d   1       0.676  -1.959  -1.392  0.00  0.00    -0.082 A 
ATOM      7  C5  PXY d   1       1.445  -0.882  -1.126  0.00  0.00     0.003 A 
ATOM      8  C6  PXY d   1       1.030   0.023  -0.153  0.00  0.00     0.003 A 
ENDROOT
TORSDOF 0
ENDMDL
