MODEL 1
REMARK minimizedAffinity -1.44155383
REMARK minimizedRMSD -1
REMARK  0 active torsions:
REMARK  status: ('A' for Active; 'I' for Inactive)
ROOT
ATOM      1  C4' PXY d   1      -0.704   0.378   1.483  0.00  0.00     0.077 C 
ATOM      2  C1' PXY d   1       1.267  -2.788  -2.934  0.00  0.00     0.077 C 
ATOM      3  C1  PXY d   1       0.762  -1.953  -1.774  0.00  0.00    -0.082 A 
ATOM      4  C2  PXY d   1      -0.325  -2.331  -1.120  0.00  0.00     0.003 A 
ATOM      5  C3  PXY d   1      -0.814  -1.570  -0.089  0.00  0.00     0.003 A 
ATOM      6  C4  PXY d   1      -0.153  -0.440   0.311  0.00  0.00    -0.082 A 
ATOM      7  C5  PXY d   1       0.963  -0.054  -0.343  0.00  0.00     0.003 A 
ATOM      8  C6  PXY d   1       1.419  -0.817  -1.414  0.00  0.00     0.003 A 
ENDROOT
TORSDOF 0
ENDMDL
