MODEL 1
REMARK minimizedAffinity -2.49308896
REMARK minimizedRMSD -1
REMARK  0 active torsions:
REMARK  status: ('A' for Active; 'I' for Inactive)
ROOT
ATOM      1  C4' PXY d   1       0.111   1.968   1.965  0.00  0.00     0.077 C 
ATOM      2  C1' PXY d   1       1.097  -2.662  -1.353  0.00  0.00     0.077 C 
ATOM      3  C1  PXY d   1       0.832  -1.455  -0.474  0.00  0.00    -0.082 A 
ATOM      4  C2  PXY d   1       0.839  -0.244  -1.007  0.00  0.00     0.003 A 
ATOM      5  C3  PXY d   1       0.632   0.861  -0.221  0.00  0.00     0.003 A 
ATOM      6  C4  PXY d   1       0.364   0.721   1.114  0.00  0.00    -0.082 A 
ATOM      7  C5  PXY d   1       0.345  -0.512   1.663  0.00  0.00     0.003 A 
ATOM      8  C6  PXY d   1       0.598  -1.618   0.856  0.00  0.00     0.003 A 
ENDROOT
TORSDOF 0
ENDMDL
