MODEL 1
REMARK minimizedAffinity -5.95342112
REMARK minimizedRMSD -1
REMARK  0 active torsions:
REMARK  status: ('A' for Active; 'I' for Inactive)
ROOT
ATOM      1  C4' PXY d   1       0.282  -0.706   0.585  0.00  0.00     0.077 C 
ATOM      2  C1' PXY d   1      -2.719   4.210   1.076  0.00  0.00     0.077 C 
ATOM      3  C1  PXY d   1      -1.937   2.916   0.959  0.00  0.00    -0.082 A 
ATOM      4  C2  PXY d   1      -0.816   2.891   0.257  0.00  0.00     0.003 A 
ATOM      5  C3  PXY d   1      -0.113   1.722   0.113  0.00  0.00     0.003 A 
ATOM      6  C4  PXY d   1      -0.535   0.580   0.739  0.00  0.00    -0.082 A 
ATOM      7  C5  PXY d   1      -1.672   0.600   1.466  0.00  0.00     0.003 A 
ATOM      8  C6  PXY d   1      -2.393   1.787   1.565  0.00  0.00     0.003 A 
ENDROOT
TORSDOF 0
ENDMDL
