MODEL 1
REMARK minimizedAffinity -5.41167927
REMARK minimizedRMSD -1
REMARK  0 active torsions:
REMARK  status: ('A' for Active; 'I' for Inactive)
ROOT
ATOM      1  C4' PXY d   1       0.649  -0.319  -0.533  0.00  0.00     0.077 C 
ATOM      2  C1' PXY d   1      -2.767   4.148   0.805  0.00  0.00     0.077 C 
ATOM      3  C1  PXY d   1      -1.874   2.971   0.465  0.00  0.00    -0.082 A 
ATOM      4  C2  PXY d   1      -0.894   3.124  -0.410  0.00  0.00     0.003 A 
ATOM      5  C3  PXY d   1      -0.097   2.062  -0.753  0.00  0.00     0.003 A 
ATOM      6  C4  PXY d   1      -0.271   0.844  -0.153  0.00  0.00    -0.082 A 
ATOM      7  C5  PXY d   1      -1.262   0.682   0.749  0.00  0.00     0.003 A 
ATOM      8  C6  PXY d   1      -2.086   1.762   1.053  0.00  0.00     0.003 A 
ENDROOT
TORSDOF 0
ENDMDL
