MODEL 1
REMARK minimizedAffinity -1.54874051
REMARK minimizedRMSD -1
REMARK  0 active torsions:
REMARK  status: ('A' for Active; 'I' for Inactive)
ROOT
ATOM      1  C4' PXY d   1      -1.109   2.178   2.024  0.00  0.00     0.077 C 
ATOM      2  C1' PXY d   1       1.236  -1.889  -1.349  0.00  0.00     0.077 C 
ATOM      3  C1  PXY d   1       0.626  -0.813  -0.472  0.00  0.00    -0.082 A 
ATOM      4  C2  PXY d   1       0.348  -1.080   0.794  0.00  0.00     0.003 A 
ATOM      5  C3  PXY d   1      -0.234  -0.129   1.592  0.00  0.00     0.003 A 
ATOM      6  C4  PXY d   1      -0.484   1.126   1.104  0.00  0.00    -0.082 A 
ATOM      7  C5  PXY d   1      -0.194   1.410  -0.183  0.00  0.00     0.003 A 
ATOM      8  C6  PXY d   1       0.358   0.417  -0.988  0.00  0.00     0.003 A 
ENDROOT
TORSDOF 0
ENDMDL
