MODEL 1
REMARK minimizedAffinity -5.21097803
REMARK minimizedRMSD -1
REMARK  0 active torsions:
REMARK  status: ('A' for Active; 'I' for Inactive)
ROOT
ATOM      1  C4' PXY d   1       1.240   0.037  -1.057  0.00  0.00     0.077 C 
ATOM      2  C1' PXY d   1      -3.053   3.326   0.986  0.00  0.00     0.077 C 
ATOM      3  C1  PXY d   1      -1.927   2.457   0.461  0.00  0.00    -0.082 A 
ATOM      4  C2  PXY d   1      -1.147   2.911  -0.506  0.00  0.00     0.003 A 
ATOM      5  C3  PXY d   1      -0.144   2.125  -1.014  0.00  0.00     0.003 A 
ATOM      6  C4  PXY d   1       0.097   0.884  -0.490  0.00  0.00    -0.082 A 
ATOM      7  C5  PXY d   1      -0.688   0.418   0.505  0.00  0.00     0.003 A 
ATOM      8  C6  PXY d   1      -1.727   1.214   0.978  0.00  0.00     0.003 A 
ENDROOT
TORSDOF 0
ENDMDL
