MODEL 1
REMARK minimizedAffinity -2.83887768
REMARK minimizedRMSD -1
REMARK  0 active torsions:
REMARK  status: ('A' for Active; 'I' for Inactive)
ROOT
ATOM      1  C4' PXY d   1       1.114  -1.707  -1.562  0.00  0.00     0.077 C 
ATOM      2  C1' PXY d   1      -0.952   2.619   1.668  0.00  0.00     0.077 C 
ATOM      3  C1  PXY d   1      -0.410   1.492   0.811  0.00  0.00    -0.082 A 
ATOM      4  C2  PXY d   1      -0.641   0.237   1.158  0.00  0.00     0.003 A 
ATOM      5  C3  PXY d   1      -0.131  -0.794   0.412  0.00  0.00     0.003 A 
ATOM      6  C4  PXY d   1       0.578  -0.538  -0.731  0.00  0.00    -0.082 A 
ATOM      7  C5  PXY d   1       0.809   0.740  -1.098  0.00  0.00     0.003 A 
ATOM      8  C6  PXY d   1       0.318   1.773  -0.304  0.00  0.00     0.003 A 
ENDROOT
TORSDOF 0
ENDMDL
