MODEL 1
REMARK minimizedAffinity -3.67690682
REMARK minimizedRMSD -1
REMARK  0 active torsions:
REMARK  status: ('A' for Active; 'I' for Inactive)
ROOT
ATOM      1  C4' PXY d   1      -2.342   3.788   1.332  0.00  0.00     0.077 C 
ATOM      2  C1' PXY d   1       0.886  -0.809  -0.032  0.00  0.00     0.077 C 
ATOM      3  C1  PXY d   1       0.038   0.392   0.338  0.00  0.00    -0.082 A 
ATOM      4  C2  PXY d   1      -0.610   1.052  -0.608  0.00  0.00     0.003 A 
ATOM      5  C3  PXY d   1      -1.355   2.160  -0.296  0.00  0.00     0.003 A 
ATOM      6  C4  PXY d   1      -1.482   2.564   1.006  0.00  0.00    -0.082 A 
ATOM      7  C5  PXY d   1      -0.833   1.889   1.979  0.00  0.00     0.003 A 
ATOM      8  C6  PXY d   1      -0.049   0.792   1.636  0.00  0.00     0.003 A 
ENDROOT
TORSDOF 0
ENDMDL
