MODEL 1
REMARK minimizedAffinity -5.78163195
REMARK minimizedRMSD -1
REMARK  0 active torsions:
REMARK  status: ('A' for Active; 'I' for Inactive)
ROOT
ATOM      1  C4' PXY d   1       0.017  -1.183   1.465  0.00  0.00     0.077 C 
ATOM      2  C1' PXY d   1      -0.672   4.141  -0.678  0.00  0.00     0.077 C 
ATOM      3  C1  PXY d   1      -0.486   2.741  -0.127  0.00  0.00    -0.082 A 
ATOM      4  C2  PXY d   1      -1.248   2.324   0.871  0.00  0.00     0.003 A 
ATOM      5  C3  PXY d   1      -1.072   1.072   1.402  0.00  0.00     0.003 A 
ATOM      6  C4  PXY d   1      -0.142   0.219   0.871  0.00  0.00    -0.082 A 
ATOM      7  C5  PXY d   1       0.632   0.633  -0.155  0.00  0.00     0.003 A 
ATOM      8  C6  PXY d   1       0.465   1.922  -0.653  0.00  0.00     0.003 A 
ENDROOT
TORSDOF 0
ENDMDL
