MODEL 1
REMARK minimizedAffinity -5.76486254
REMARK minimizedRMSD -1
REMARK  0 active torsions:
REMARK  status: ('A' for Active; 'I' for Inactive)
ROOT
ATOM      1  C4' PXY d   1      -0.389   3.753  -1.683  0.00  0.00     0.077 C 
ATOM      2  C1' PXY d   1      -1.123  -0.142   2.525  0.00  0.00     0.077 C 
ATOM      3  C1  PXY d   1      -0.943   0.882   1.422  0.00  0.00    -0.082 A 
ATOM      4  C2  PXY d   1       0.080   0.775   0.590  0.00  0.00     0.003 A 
ATOM      5  C3  PXY d   1       0.276   1.710  -0.393  0.00  0.00     0.003 A 
ATOM      6  C4  PXY d   1      -0.615   2.737  -0.560  0.00  0.00    -0.082 A 
ATOM      7  C5  PXY d   1      -1.667   2.847   0.278  0.00  0.00     0.003 A 
ATOM      8  C6  PXY d   1      -1.825   1.911   1.295  0.00  0.00     0.003 A 
ENDROOT
TORSDOF 0
ENDMDL
