MODEL 1
REMARK minimizedAffinity -6.25260639
REMARK minimizedRMSD -1
REMARK  0 active torsions:
REMARK  status: ('A' for Active; 'I' for Inactive)
ROOT
ATOM      1  C4' PXY d   1      -0.019  -1.188   2.640  0.00  0.00     0.077 C 
ATOM      2  C1' PXY d   1      -0.814   3.644  -0.433  0.00  0.00     0.077 C 
ATOM      3  C1  PXY d   1      -0.604   2.370   0.362  0.00  0.00    -0.082 A 
ATOM      4  C2  PXY d   1      -1.107   2.269   1.582  0.00  0.00     0.003 A 
ATOM      5  C3  PXY d   1      -0.899   1.137   2.327  0.00  0.00     0.003 A 
ATOM      6  C4  PXY d   1      -0.215   0.076   1.797  0.00  0.00    -0.082 A 
ATOM      7  C5  PXY d   1       0.292   0.166   0.549  0.00  0.00     0.003 A 
ATOM      8  C6  PXY d   1       0.105   1.340  -0.175  0.00  0.00     0.003 A 
ENDROOT
TORSDOF 0
ENDMDL
