MODEL 1
REMARK minimizedAffinity 14.957942
REMARK minimizedRMSD -1
REMARK  0 active torsions:
REMARK  status: ('A' for Active; 'I' for Inactive)
ROOT
ATOM      1  C4' PXY d   1      -6.000  -2.612  -2.623  0.00  0.00     0.077 C 
ATOM      2  C1' PXY d   1      -4.571   1.623   1.043  0.00  0.00     0.077 C 
ATOM      3  C1  PXY d   1      -4.955   0.520   0.077  0.00  0.00    -0.082 A 
ATOM      4  C2  PXY d   1      -4.616  -0.731   0.344  0.00  0.00     0.003 A 
ATOM      5  C3  PXY d   1      -4.928  -1.737  -0.534  0.00  0.00     0.003 A 
ATOM      6  C4  PXY d   1      -5.641  -1.467  -1.672  0.00  0.00    -0.082 A 
ATOM      7  C5  PXY d   1      -6.000  -0.195  -1.946  0.00  0.00     0.003 A 
ATOM      8  C6  PXY d   1      -5.638   0.817  -1.062  0.00  0.00     0.003 A 
ENDROOT
TORSDOF 0
ENDMDL
