MODEL 1
REMARK minimizedAffinity 9.87031841
REMARK minimizedRMSD -1
REMARK  0 active torsions:
REMARK  status: ('A' for Active; 'I' for Inactive)
ROOT
ATOM      1  C4' PXY d   1      -6.000  -0.178  -1.350  0.00  0.00     0.077 C 
ATOM      2  C1' PXY d   1      -1.968  -1.199   2.665  0.00  0.00     0.077 C 
ATOM      3  C1  PXY d   1      -3.025  -0.919   1.615  0.00  0.00    -0.082 A 
ATOM      4  C2  PXY d   1      -3.809  -1.900   1.198  0.00  0.00     0.003 A 
ATOM      5  C3  PXY d   1      -4.749  -1.671   0.226  0.00  0.00     0.003 A 
ATOM      6  C4  PXY d   1      -4.925  -0.413  -0.285  0.00  0.00    -0.082 A 
ATOM      7  C5  PXY d   1      -4.136   0.595   0.143  0.00  0.00     0.003 A 
ATOM      8  C6  PXY d   1      -3.160   0.333   1.100  0.00  0.00     0.003 A 
ENDROOT
TORSDOF 0
ENDMDL
