MODEL 1
REMARK minimizedAffinity 12.8187199
REMARK minimizedRMSD -1
REMARK  0 active torsions:
REMARK  status: ('A' for Active; 'I' for Inactive)
ROOT
ATOM      1  C4' PXY d   1      -6.000  -1.556  -0.351  0.00  0.00     0.077 C 
ATOM      2  C1' PXY d   1      -1.201   0.753   1.897  0.00  0.00     0.077 C 
ATOM      3  C1  PXY d   1      -2.465   0.159   1.307  0.00  0.00    -0.082 A 
ATOM      4  C2  PXY d   1      -2.752  -1.114   1.523  0.00  0.00     0.003 A 
ATOM      5  C3  PXY d   1      -3.875  -1.675   0.971  0.00  0.00     0.003 A 
ATOM      6  C4  PXY d   1      -4.740  -0.912   0.233  0.00  0.00    -0.082 A 
ATOM      7  C5  PXY d   1      -4.459   0.391   0.017  0.00  0.00     0.003 A 
ATOM      8  C6  PXY d   1      -3.293   0.931   0.552  0.00  0.00     0.003 A 
ENDROOT
TORSDOF 0
ENDMDL
