MODEL 1
REMARK minimizedAffinity 2.20844531
REMARK minimizedRMSD -1
REMARK  0 active torsions:
REMARK  status: ('A' for Active; 'I' for Inactive)
ROOT
ATOM      1  C4' PXY d   1      -1.549  -2.318  -2.704  0.00  0.00     0.077 C 
ATOM      2  C1' PXY d   1       2.406   0.016   0.806  0.00  0.00     0.077 C 
ATOM      3  C1  PXY d   1       1.359  -0.590  -0.108  0.00  0.00    -0.082 A 
ATOM      4  C2  PXY d   1       1.626  -1.713  -0.754  0.00  0.00     0.003 A 
ATOM      5  C3  PXY d   1       0.703  -2.258  -1.609  0.00  0.00     0.003 A 
ATOM      6  C4  PXY d   1      -0.526  -1.675  -1.764  0.00  0.00    -0.082 A 
ATOM      7  C5  PXY d   1      -0.810  -0.534  -1.100  0.00  0.00     0.003 A 
ATOM      8  C6  PXY d   1       0.156   0.025  -0.268  0.00  0.00     0.003 A 
ENDROOT
TORSDOF 0
ENDMDL
