MODEL 1
REMARK minimizedAffinity 0.294596404
REMARK minimizedRMSD -1
REMARK  0 active torsions:
REMARK  status: ('A' for Active; 'I' for Inactive)
ROOT
ATOM      1  C4' PXY d   1      -2.899   3.370   2.598  0.00  0.00     0.077 C 
ATOM      2  C1' PXY d   1      -5.999  -0.761   0.003  0.00  0.00     0.077 C 
ATOM      3  C1  PXY d   1      -5.197   0.329   0.686  0.00  0.00    -0.082 A 
ATOM      4  C2  PXY d   1      -3.922   0.496   0.374  0.00  0.00     0.003 A 
ATOM      5  C3  PXY d   1      -3.174   1.456   1.006  0.00  0.00     0.003 A 
ATOM      6  C4  PXY d   1      -3.750   2.289   1.927  0.00  0.00    -0.082 A 
ATOM      7  C5  PXY d   1      -5.053   2.132   2.242  0.00  0.00     0.003 A 
ATOM      8  C6  PXY d   1      -5.785   1.125   1.620  0.00  0.00     0.003 A 
ENDROOT
TORSDOF 0
ENDMDL
