MODEL 1
REMARK minimizedAffinity 4.40442705
REMARK minimizedRMSD -1
REMARK  0 active torsions:
REMARK  status: ('A' for Active; 'I' for Inactive)
ROOT
ATOM      1  C4' PXY d   1      -4.125   1.749   1.991  0.00  0.00     0.077 C 
ATOM      2  C1' PXY d   1      -5.958  -1.761  -2.220  0.00  0.00     0.077 C 
ATOM      3  C1  PXY d   1      -5.473  -0.851  -1.109  0.00  0.00    -0.082 A 
ATOM      4  C2  PXY d   1      -6.000   0.355  -0.975  0.00  0.00     0.003 A 
ATOM      5  C3  PXY d   1      -5.551   1.204   0.004  0.00  0.00     0.003 A 
ATOM      6  C4  PXY d   1      -4.590   0.793   0.889  0.00  0.00    -0.082 A 
ATOM      7  C5  PXY d   1      -4.055  -0.440   0.766  0.00  0.00     0.003 A 
ATOM      8  C6  PXY d   1      -4.496  -1.271  -0.261  0.00  0.00     0.003 A 
ENDROOT
TORSDOF 0
ENDMDL
