MODEL 1
REMARK minimizedAffinity 2.78254223
REMARK minimizedRMSD -1
REMARK  0 active torsions:
REMARK  status: ('A' for Active; 'I' for Inactive)
ROOT
ATOM      1  C4' PXY d   1      -1.497  -5.644   5.983  0.00  0.00     0.077 C 
ATOM      2  C1' PXY d   1       1.467  -0.681   5.995  0.00  0.00     0.077 C 
ATOM      3  C1  PXY d   1       0.700  -1.988   5.987  0.00  0.00    -0.082 A 
ATOM      4  C2  PXY d   1      -0.623  -1.971   5.975  0.00  0.00     0.003 A 
ATOM      5  C3  PXY d   1      -1.333  -3.144   6.000  0.00  0.00     0.003 A 
ATOM      6  C4  PXY d   1      -0.682  -4.348   5.982  0.00  0.00    -0.082 A 
ATOM      7  C5  PXY d   1       0.668  -4.374   5.983  0.00  0.00     0.003 A 
ATOM      8  C6  PXY d   1       1.370  -3.173   6.000  0.00  0.00     0.003 A 
ENDROOT
TORSDOF 0
ENDMDL
