MODEL 1
REMARK minimizedAffinity 7.24632502
REMARK minimizedRMSD -1
REMARK  0 active torsions:
REMARK  status: ('A' for Active; 'I' for Inactive)
ROOT
ATOM      1  C4' PXY d   1       1.290   2.099   2.356  0.00  0.00     0.077 C 
ATOM      2  C1' PXY d   1       0.732  -1.940  -1.742  0.00  0.00     0.077 C 
ATOM      3  C1  PXY d   1       0.881  -0.890  -0.659  0.00  0.00    -0.082 A 
ATOM      4  C2  PXY d   1       0.278   0.280  -0.794  0.00  0.00     0.003 A 
ATOM      5  C3  PXY d   1       0.428   1.253   0.161  0.00  0.00     0.003 A 
ATOM      6  C4  PXY d   1       1.160   1.006   1.292  0.00  0.00    -0.082 A 
ATOM      7  C5  PXY d   1       1.769  -0.189   1.443  0.00  0.00     0.003 A 
ATOM      8  C6  PXY d   1       1.638  -1.148   0.442  0.00  0.00     0.003 A 
ENDROOT
TORSDOF 0
ENDMDL
