MODEL 1
REMARK minimizedAffinity 1.04852927
REMARK minimizedRMSD -1
REMARK  0 active torsions:
REMARK  status: ('A' for Active; 'I' for Inactive)
ROOT
ATOM      1  C4' PXY d   1      -0.658   0.436  -1.581  0.00  0.00     0.077 C 
ATOM      2  C1' PXY d   1       3.812  -1.054   1.768  0.00  0.00     0.077 C 
ATOM      3  C1  PXY d   1       2.647  -0.666   0.879  0.00  0.00    -0.082 A 
ATOM      4  C2  PXY d   1       1.743   0.192   1.323  0.00  0.00     0.003 A 
ATOM      5  C3  PXY d   1       0.665   0.529   0.544  0.00  0.00     0.003 A 
ATOM      6  C4  PXY d   1       0.540   0.023  -0.722  0.00  0.00    -0.082 A 
ATOM      7  C5  PXY d   1       1.464  -0.845  -1.186  0.00  0.00     0.003 A 
ATOM      8  C6  PXY d   1       2.528  -1.206  -0.365  0.00  0.00     0.003 A 
ENDROOT
TORSDOF 0
ENDMDL
