MODEL 1
REMARK minimizedAffinity 0.0409184322
REMARK minimizedRMSD -1
REMARK  0 active torsions:
REMARK  status: ('A' for Active; 'I' for Inactive)
ROOT
ATOM      1  C4' PXY d   1      -0.243  -0.804   6.000  0.00  0.00     0.077 C 
ATOM      2  C1' PXY d   1       2.291  -5.999   5.933  0.00  0.00     0.077 C 
ATOM      3  C1  PXY d   1       1.637  -4.632   5.955  0.00  0.00    -0.082 A 
ATOM      4  C2  PXY d   1       0.318  -4.538   6.000  0.00  0.00     0.003 A 
ATOM      5  C3  PXY d   1      -0.290  -3.309   5.988  0.00  0.00     0.003 A 
ATOM      6  C4  PXY d   1       0.461  -2.164   5.985  0.00  0.00    -0.082 A 
ATOM      7  C5  PXY d   1       1.807  -2.252   5.951  0.00  0.00     0.003 A 
ATOM      8  C6  PXY d   1       2.404  -3.508   5.921  0.00  0.00     0.003 A 
ENDROOT
TORSDOF 0
ENDMDL
