MODEL 1
REMARK minimizedAffinity 1.58309066
REMARK minimizedRMSD -1
REMARK  0 active torsions:
REMARK  status: ('A' for Active; 'I' for Inactive)
ROOT
ATOM      1  C4' PXY d   1      -2.039  -3.185   5.971  0.00  0.00     0.077 C 
ATOM      2  C1' PXY d   1       3.014  -5.993   5.995  0.00  0.00     0.077 C 
ATOM      3  C1  PXY d   1       1.683  -5.267   5.983  0.00  0.00    -0.082 A 
ATOM      4  C2  PXY d   1       1.660  -3.944   5.978  0.00  0.00     0.003 A 
ATOM      5  C3  PXY d   1       0.465  -3.271   6.000  0.00  0.00     0.003 A 
ATOM      6  C4  PXY d   1      -0.718  -3.960   5.973  0.00  0.00    -0.082 A 
ATOM      7  C5  PXY d   1      -0.702  -5.310   5.968  0.00  0.00     0.003 A 
ATOM      8  C6  PXY d   1       0.521  -5.974   5.988  0.00  0.00     0.003 A 
ENDROOT
TORSDOF 0
ENDMDL
