MODEL 1
REMARK minimizedAffinity 9.75735188
REMARK minimizedRMSD -1
REMARK  0 active torsions:
REMARK  status: ('A' for Active; 'I' for Inactive)
ROOT
ATOM      1  C4' PXY d   1       4.211  -1.067   1.608  0.00  0.00     0.077 C 
ATOM      2  C1' PXY d   1      -0.712   0.195  -1.146  0.00  0.00     0.077 C 
ATOM      3  C1  PXY d   1       0.575  -0.130  -0.414  0.00  0.00    -0.082 A 
ATOM      4  C2  PXY d   1       1.668  -0.409  -1.104  0.00  0.00     0.003 A 
ATOM      5  C3  PXY d   1       2.833  -0.735  -0.457  0.00  0.00     0.003 A 
ATOM      6  C4  PXY d   1       2.892  -0.724   0.910  0.00  0.00    -0.082 A 
ATOM      7  C5  PXY d   1       1.783  -0.430   1.622  0.00  0.00     0.003 A 
ATOM      8  C6  PXY d   1       0.601  -0.142   0.947  0.00  0.00     0.003 A 
ENDROOT
TORSDOF 0
ENDMDL
