MODEL 1
REMARK minimizedAffinity -3.2827754
REMARK minimizedRMSD -1
REMARK  0 active torsions:
REMARK  status: ('A' for Active; 'I' for Inactive)
ROOT
ATOM      1  C1  BNZ d   1      -0.263  -0.797  -0.709  0.00  0.00     0.000 A 
ATOM      2  C2  BNZ d   1       0.881  -1.151  -0.045  0.00  0.00     0.000 A 
ATOM      3  C3  BNZ d   1       1.564  -0.237   0.708  0.00  0.00     0.000 A 
ATOM      4  C4  BNZ d   1       1.125   1.037   0.762  0.00  0.00     0.000 A 
ATOM      5  C5  BNZ d   1      -0.021   1.412   0.090  0.00  0.00     0.000 A 
ATOM      6  C6  BNZ d   1      -0.728   0.480  -0.634  0.00  0.00     0.000 A 
ENDROOT
TORSDOF 0
ENDMDL
