MODEL 1
REMARK minimizedAffinity -4.87211609
REMARK minimizedRMSD -1
REMARK  0 active torsions:
REMARK  status: ('A' for Active; 'I' for Inactive)
ROOT
ATOM      1  C1  BNZ d   1       0.412  -1.421  -0.349  0.00  0.00     0.000 A 
ATOM      2  C2  BNZ d   1      -0.214  -0.215  -0.183  0.00  0.00     0.000 A 
ATOM      3  C3  BNZ d   1       0.369   0.782   0.549  0.00  0.00     0.000 A 
ATOM      4  C4  BNZ d   1       1.557   0.558   1.146  0.00  0.00     0.000 A 
ATOM      5  C5  BNZ d   1       2.197  -0.656   0.996  0.00  0.00     0.000 A 
ATOM      6  C6  BNZ d   1       1.625  -1.644   0.226  0.00  0.00     0.000 A 
ENDROOT
TORSDOF 0
ENDMDL
