MODEL 1
REMARK minimizedAffinity -4.46130514
REMARK minimizedRMSD -1
REMARK  0 active torsions:
REMARK  status: ('A' for Active; 'I' for Inactive)
ROOT
ATOM      1  C1  BNZ d   1       1.602   0.070   0.831  0.00  0.00     0.000 A 
ATOM      2  C2  BNZ d   1       0.424   0.332   0.184  0.00  0.00     0.000 A 
ATOM      3  C3  BNZ d   1      -0.187  -0.629  -0.572  0.00  0.00     0.000 A 
ATOM      4  C4  BNZ d   1       0.400  -1.835  -0.713  0.00  0.00     0.000 A 
ATOM      5  C5  BNZ d   1       1.593  -2.111  -0.075  0.00  0.00     0.000 A 
ATOM      6  C6  BNZ d   1       2.185  -1.154   0.717  0.00  0.00     0.000 A 
ENDROOT
TORSDOF 0
ENDMDL
