MODEL 1
REMARK minimizedAffinity -4.82929611
REMARK minimizedRMSD -1
REMARK  0 active torsions:
REMARK  status: ('A' for Active; 'I' for Inactive)
ROOT
ATOM      1  C1  BNZ d   1       1.789   0.744   0.502  0.00  0.00     0.000 A 
ATOM      2  C2  BNZ d   1       2.967   0.112   0.801  0.00  0.00     0.000 A 
ATOM      3  C3  BNZ d   1       3.075  -1.247   0.709  0.00  0.00     0.000 A 
ATOM      4  C4  BNZ d   1       1.995  -1.976   0.357  0.00  0.00     0.000 A 
ATOM      5  C5  BNZ d   1       0.798  -1.354   0.062  0.00  0.00     0.000 A 
ATOM      6  C6  BNZ d   1       0.704   0.018   0.119  0.00  0.00     0.000 A 
ENDROOT
TORSDOF 0
ENDMDL
