MODEL 1
REMARK minimizedAffinity -2.94889736
REMARK minimizedRMSD -1
REMARK  0 active torsions:
REMARK  status: ('A' for Active; 'I' for Inactive)
ROOT
ATOM      1  C1  BNZ d   1      -2.488   0.334   0.079  0.00  0.00     0.000 A 
ATOM      2  C2  BNZ d   1      -1.433   0.615  -0.747  0.00  0.00     0.000 A 
ATOM      3  C3  BNZ d   1      -0.342  -0.206  -0.792  0.00  0.00     0.000 A 
ATOM      4  C4  BNZ d   1      -0.289  -1.284   0.017  0.00  0.00     0.000 A 
ATOM      5  C5  BNZ d   1      -1.341  -1.576   0.862  0.00  0.00     0.000 A 
ATOM      6  C6  BNZ d   1      -2.455  -0.768   0.876  0.00  0.00     0.000 A 
ENDROOT
TORSDOF 0
ENDMDL
