MODEL 1
REMARK minimizedAffinity -3.99476838
REMARK minimizedRMSD -1
REMARK  0 active torsions:
REMARK  status: ('A' for Active; 'I' for Inactive)
ROOT
ATOM      1  C1  BNZ d   1       2.765   0.761  -0.028  0.00  0.00     0.000 A 
ATOM      2  C2  BNZ d   1       3.283  -0.507  -0.047  0.00  0.00     0.000 A 
ATOM      3  C3  BNZ d   1       2.460  -1.598  -0.085  0.00  0.00     0.000 A 
ATOM      4  C4  BNZ d   1       1.123  -1.422  -0.063  0.00  0.00     0.000 A 
ATOM      5  C5  BNZ d   1       0.586  -0.150  -0.035  0.00  0.00     0.000 A 
ATOM      6  C6  BNZ d   1       1.417   0.947  -0.036  0.00  0.00     0.000 A 
ENDROOT
TORSDOF 0
ENDMDL
