MODEL 1
REMARK minimizedAffinity -4.49857521
REMARK minimizedRMSD -1
REMARK  0 active torsions:
REMARK  status: ('A' for Active; 'I' for Inactive)
ROOT
ATOM      1  C1  BNZ d   1       2.210   0.217   1.171  0.00  0.00     0.000 A 
ATOM      2  C2  BNZ d   1       1.207   0.705   0.376  0.00  0.00     0.000 A 
ATOM      3  C3  BNZ d   1       0.567  -0.105  -0.521  0.00  0.00     0.000 A 
ATOM      4  C4  BNZ d   1       0.958  -1.389  -0.650  0.00  0.00     0.000 A 
ATOM      5  C5  BNZ d   1       1.973  -1.894   0.138  0.00  0.00     0.000 A 
ATOM      6  C6  BNZ d   1       2.588  -1.086   1.067  0.00  0.00     0.000 A 
ENDROOT
TORSDOF 0
ENDMDL
