MODEL 1
REMARK minimizedAffinity -2.07316995
REMARK minimizedRMSD -1
REMARK  0 active torsions:
REMARK  status: ('A' for Active; 'I' for Inactive)
ROOT
ATOM      1  C1  BNZ d   1      -0.975   0.927  -0.882  0.00  0.00     0.000 A 
ATOM      2  C2  BNZ d   1      -0.586  -0.354  -0.595  0.00  0.00     0.000 A 
ATOM      3  C3  BNZ d   1       0.578  -0.598   0.077  0.00  0.00     0.000 A 
ATOM      4  C4  BNZ d   1       1.372   0.435   0.427  0.00  0.00     0.000 A 
ATOM      5  C5  BNZ d   1       0.998   1.732   0.136  0.00  0.00     0.000 A 
ATOM      6  C6  BNZ d   1      -0.194   1.977  -0.506  0.00  0.00     0.000 A 
ENDROOT
TORSDOF 0
ENDMDL
