MODEL 1
REMARK minimizedAffinity 20.1560555
REMARK minimizedRMSD -1
REMARK  1 active torsions:
REMARK  status: ('A' for Active; 'I' for Inactive)
REMARK    1  A    between atoms: C1_2  and  C2_3 
ROOT
ATOM      1  C2  UNL d   1       3.874  -1.405  -4.023  0.00  0.00    -0.081 A 
ATOM      2  C3  UNL d   1       4.891  -2.154  -3.418  0.00  0.00     0.006 A 
ATOM      3  C4  UNL d   1       5.406  -3.288  -4.048  0.00  0.00     0.002 A 
ATOM      4  C5  UNL d   1       4.920  -3.689  -5.297  0.00  0.00    -0.080 A 
ATOM      5  C6  UNL d   1       5.486  -4.888  -5.998  0.00  0.00     0.076 C 
ATOM      6  C7  UNL d   1       3.892  -2.952  -5.894  0.00  0.00     0.002 A 
ATOM      7  C8  UNL d   1       3.375  -1.818  -5.264  0.00  0.00     0.006 A 
ENDROOT
BRANCH   1   8
ATOM      8  C1  UNL d   1       3.361  -0.144  -3.376  0.00  0.00     0.054 C 
ATOM      9  C   UNL d   1       4.062   1.087  -3.930  0.00  0.00     0.018 C 
ENDBRANCH   1   8
TORSDOF 1
ENDMDL
