MODEL 1
REMARK minimizedAffinity 2.26352763
REMARK minimizedRMSD -1
REMARK  1 active torsions:
REMARK  status: ('A' for Active; 'I' for Inactive)
REMARK    1  A    between atoms: C1_2  and  C2_3 
ROOT
ATOM      1  C2  UNL d   1       3.157  -1.482  -4.276  0.00  0.00    -0.081 A 
ATOM      2  C3  UNL d   1       4.387  -1.733  -3.656  0.00  0.00     0.006 A 
ATOM      3  C4  UNL d   1       5.281  -2.656  -4.203  0.00  0.00     0.002 A 
ATOM      4  C5  UNL d   1       4.964  -3.339  -5.382  0.00  0.00    -0.080 A 
ATOM      5  C6  UNL d   1       5.927  -4.310  -5.996  0.00  0.00     0.076 C 
ATOM      6  C7  UNL d   1       3.727  -3.102  -5.992  0.00  0.00     0.002 A 
ATOM      7  C8  UNL d   1       2.833  -2.179  -5.446  0.00  0.00     0.006 A 
ENDROOT
BRANCH   1   8
ATOM      8  C1  UNL d   1       2.218  -0.440  -3.725  0.00  0.00     0.054 C 
ATOM      9  C   UNL d   1       2.663   0.964  -4.111  0.00  0.00     0.018 C 
ENDBRANCH   1   8
TORSDOF 1
ENDMDL
