MODEL 1
REMARK minimizedAffinity 6.1270051
REMARK minimizedRMSD -1
REMARK  1 active torsions:
REMARK  status: ('A' for Active; 'I' for Inactive)
REMARK    1  A    between atoms: C1_2  and  C2_3 
ROOT
ATOM      1  C2  UNL d   1      -0.273  -4.816   2.622  0.00  0.00    -0.081 A 
ATOM      2  C3  UNL d   1      -0.251  -3.669   3.426  0.00  0.00     0.006 A 
ATOM      3  C4  UNL d   1      -1.106  -2.599   3.156  0.00  0.00     0.002 A 
ATOM      4  C5  UNL d   1      -2.002  -2.659   2.083  0.00  0.00    -0.080 A 
ATOM      5  C6  UNL d   1      -2.946  -1.529   1.800  0.00  0.00     0.076 C 
ATOM      6  C7  UNL d   1      -2.011  -3.797   1.269  0.00  0.00     0.002 A 
ATOM      7  C8  UNL d   1      -1.156  -4.868   1.539  0.00  0.00     0.006 A 
ENDROOT
BRANCH   1   8
ATOM      8  C1  UNL d   1       0.602  -5.998   2.950  0.00  0.00     0.054 C 
ATOM      9  C   UNL d   1       1.874  -5.995   2.114  0.00  0.00     0.018 C 
ENDBRANCH   1   8
TORSDOF 1
ENDMDL
