MODEL 1
REMARK minimizedAffinity 7.54354763
REMARK minimizedRMSD -1
REMARK  1 active torsions:
REMARK  status: ('A' for Active; 'I' for Inactive)
REMARK    1  A    between atoms: C1_2  and  C2_3 
ROOT
ATOM      1  C2  UNL d   1      -3.571  -2.340   1.835  0.00  0.00    -0.081 A 
ATOM      2  C3  UNL d   1      -4.935  -2.113   1.613  0.00  0.00     0.006 A 
ATOM      3  C4  UNL d   1      -5.683  -1.354   2.516  0.00  0.00     0.002 A 
ATOM      4  C5  UNL d   1      -5.078  -0.804   3.652  0.00  0.00    -0.080 A 
ATOM      5  C6  UNL d   1      -5.863   0.038   4.614  0.00  0.00     0.076 C 
ATOM      6  C7  UNL d   1      -3.720  -1.046   3.883  0.00  0.00     0.002 A 
ATOM      7  C8  UNL d   1      -2.972  -1.805   2.981  0.00  0.00     0.006 A 
ENDROOT
BRANCH   1   8
ATOM      8  C1  UNL d   1      -2.748  -3.104   0.830  0.00  0.00     0.054 C 
ATOM      9  C   UNL d   1      -2.020  -4.271   1.482  0.00  0.00     0.018 C 
ENDBRANCH   1   8
TORSDOF 1
ENDMDL
