MODEL 1
REMARK minimizedAffinity 14.6982355
REMARK minimizedRMSD -1
REMARK  1 active torsions:
REMARK  status: ('A' for Active; 'I' for Inactive)
REMARK    1  A    between atoms: C1_2  and  C2_3 
ROOT
ATOM      1  C2  UNL d   1      -0.629  -5.550   0.459  0.00  0.00    -0.081 A 
ATOM      2  C3  UNL d   1      -1.947  -5.846   0.830  0.00  0.00     0.006 A 
ATOM      3  C4  UNL d   1      -2.285  -6.000   2.177  0.00  0.00     0.002 A 
ATOM      4  C5  UNL d   1      -1.315  -5.854   3.174  0.00  0.00    -0.080 A 
ATOM      5  C6  UNL d   1      -1.671  -5.987   4.625  0.00  0.00     0.076 C 
ATOM      6  C7  UNL d   1       0.005  -5.576   2.802  0.00  0.00     0.002 A 
ATOM      7  C8  UNL d   1       0.344  -5.422   1.456  0.00  0.00     0.006 A 
ENDROOT
BRANCH   1   8
ATOM      8  C1  UNL d   1      -0.274  -5.320  -0.988  0.00  0.00     0.054 C 
ATOM      9  C   UNL d   1      -0.076  -3.839  -1.279  0.00  0.00     0.018 C 
ENDBRANCH   1   8
TORSDOF 1
ENDMDL
