MODEL 1
REMARK minimizedAffinity 3.87100816
REMARK minimizedRMSD -1
REMARK  1 active torsions:
REMARK  status: ('A' for Active; 'I' for Inactive)
REMARK    1  A    between atoms: C1_2  and  C2_3 
ROOT
ATOM      1  C2  UNL d   1      -1.466  -5.990   1.374  0.00  0.00    -0.081 A 
ATOM      2  C3  UNL d   1      -1.914  -5.997   2.701  0.00  0.00     0.006 A 
ATOM      3  C4  UNL d   1      -1.000  -5.998   3.757  0.00  0.00     0.002 A 
ATOM      4  C5  UNL d   1       0.376  -5.984   3.505  0.00  0.00    -0.080 A 
ATOM      5  C6  UNL d   1       1.368  -5.955   4.629  0.00  0.00     0.076 C 
ATOM      6  C7  UNL d   1       0.824  -5.995   2.179  0.00  0.00     0.002 A 
ATOM      7  C8  UNL d   1      -0.090  -5.995   1.123  0.00  0.00     0.006 A 
ENDROOT
BRANCH   1   8
ATOM      8  C1  UNL d   1      -2.450  -5.923   0.234  0.00  0.00     0.054 C 
ATOM      9  C   UNL d   1      -3.869  -5.705   0.739  0.00  0.00     0.018 C 
ENDBRANCH   1   8
TORSDOF 1
ENDMDL
