MODEL 1
REMARK minimizedAffinity 8.25270653
REMARK minimizedRMSD -1
REMARK  1 active torsions:
REMARK  status: ('A' for Active; 'I' for Inactive)
REMARK    1  A    between atoms: C1_2  and  C2_3 
ROOT
ATOM      1  C2  UNL d   1      -5.037  -0.846   3.773  0.00  0.00    -0.081 A 
ATOM      2  C3  UNL d   1      -5.730  -1.568   2.794  0.00  0.00     0.006 A 
ATOM      3  C4  UNL d   1      -5.033  -2.282   1.816  0.00  0.00     0.002 A 
ATOM      4  C5  UNL d   1      -3.635  -2.293   1.806  0.00  0.00    -0.080 A 
ATOM      5  C6  UNL d   1      -2.875  -3.081   0.780  0.00  0.00     0.076 C 
ATOM      6  C7  UNL d   1      -2.942  -1.558   2.774  0.00  0.00     0.002 A 
ATOM      7  C8  UNL d   1      -3.638  -0.843   3.751  0.00  0.00     0.006 A 
ENDROOT
BRANCH   1   8
ATOM      8  C1  UNL d   1      -5.784  -0.127   4.868  0.00  0.00     0.054 C 
ATOM      9  C   UNL d   1      -5.517   1.371   4.828  0.00  0.00     0.018 C 
ENDBRANCH   1   8
TORSDOF 1
ENDMDL
