MODEL 1
REMARK minimizedAffinity 13.3180428
REMARK minimizedRMSD -1
REMARK  1 active torsions:
REMARK  status: ('A' for Active; 'I' for Inactive)
REMARK    1  A    between atoms: C1_2  and  C2_3 
ROOT
ATOM      1  C2  UNL d   1       1.560   1.076  -0.260  0.00  0.00    -0.081 A 
ATOM      2  C3  UNL d   1       2.014   2.255  -0.865  0.00  0.00     0.006 A 
ATOM      3  C4  UNL d   1       2.726   2.205  -2.065  0.00  0.00     0.002 A 
ATOM      4  C5  UNL d   1       2.989   0.979  -2.685  0.00  0.00    -0.080 A 
ATOM      5  C6  UNL d   1       3.725   0.914  -3.990  0.00  0.00     0.076 C 
ATOM      6  C7  UNL d   1       2.550  -0.200  -2.072  0.00  0.00     0.002 A 
ATOM      7  C8  UNL d   1       1.839  -0.151  -0.871  0.00  0.00     0.006 A 
ENDROOT
BRANCH   1   8
ATOM      8  C1  UNL d   1       0.736   1.130   1.002  0.00  0.00     0.054 C 
ATOM      9  C   UNL d   1      -0.648   0.536   0.784  0.00  0.00     0.018 C 
ENDBRANCH   1   8
TORSDOF 1
ENDMDL
