MODEL 1
REMARK minimizedAffinity 6.84167671
REMARK minimizedRMSD -1
REMARK  1 active torsions:
REMARK  status: ('A' for Active; 'I' for Inactive)
REMARK    1  A    between atoms: C1_2  and  C2_3 
ROOT
ATOM      1  C2  UNL d   1      -0.291  -0.294  -0.553  0.00  0.00    -0.081 A 
ATOM      2  C3  UNL d   1      -0.771   0.433  -1.649  0.00  0.00     0.006 A 
ATOM      3  C4  UNL d   1      -1.813  -0.070  -2.432  0.00  0.00     0.002 A 
ATOM      4  C5  UNL d   1      -2.396  -1.305  -2.127  0.00  0.00    -0.080 A 
ATOM      5  C6  UNL d   1      -3.536  -1.842  -2.941  0.00  0.00     0.076 C 
ATOM      6  C7  UNL d   1      -1.905  -2.039  -1.043  0.00  0.00     0.002 A 
ATOM      7  C8  UNL d   1      -0.863  -1.537  -0.261  0.00  0.00     0.006 A 
ENDROOT
BRANCH   1   8
ATOM      8  C1  UNL d   1       0.789   0.275   0.331  0.00  0.00     0.054 C 
ATOM      9  C   UNL d   1       0.197   0.969   1.550  0.00  0.00     0.018 C 
ENDBRANCH   1   8
TORSDOF 1
ENDMDL
