MODEL 1
REMARK minimizedAffinity 12.1703529
REMARK minimizedRMSD -1
REMARK  1 active torsions:
REMARK  status: ('A' for Active; 'I' for Inactive)
REMARK    1  A    between atoms: C1_2  and  C2_3 
ROOT
ATOM      1  C2  UNL d   1       3.673   0.960  -1.728  0.00  0.00    -0.081 A 
ATOM      2  C3  UNL d   1       3.010   1.839  -2.593  0.00  0.00     0.006 A 
ATOM      3  C4  UNL d   1       3.088   1.663  -3.977  0.00  0.00     0.002 A 
ATOM      4  C5  UNL d   1       3.821   0.601  -4.517  0.00  0.00    -0.080 A 
ATOM      5  C6  UNL d   1       3.887   0.383  -6.000  0.00  0.00     0.076 C 
ATOM      6  C7  UNL d   1       4.497  -0.267  -3.653  0.00  0.00     0.002 A 
ATOM      7  C8  UNL d   1       4.421  -0.090  -2.270  0.00  0.00     0.006 A 
ENDROOT
BRANCH   1   8
ATOM      8  C1  UNL d   1       3.539   1.110  -0.234  0.00  0.00     0.054 C 
ATOM      9  C   UNL d   1       2.223   1.777   0.140  0.00  0.00     0.018 C 
ENDBRANCH   1   8
TORSDOF 1
ENDMDL
