MODEL 1
REMARK minimizedAffinity 15.1145344
REMARK minimizedRMSD -1
REMARK  1 active torsions:
REMARK  status: ('A' for Active; 'I' for Inactive)
REMARK    1  A    between atoms: C1_2  and  C2_3 
ROOT
ATOM      1  C2  UNL d   1      -0.538  -4.277   2.621  0.00  0.00    -0.081 A 
ATOM      2  C3  UNL d   1      -0.961  -5.412   3.323  0.00  0.00     0.006 A 
ATOM      3  C4  UNL d   1      -0.150  -5.979   4.309  0.00  0.00     0.002 A 
ATOM      4  C5  UNL d   1       1.093  -5.415   4.615  0.00  0.00    -0.080 A 
ATOM      5  C6  UNL d   1       1.961  -5.995   5.692  0.00  0.00     0.076 C 
ATOM      6  C7  UNL d   1       1.524  -4.291   3.902  0.00  0.00     0.002 A 
ATOM      7  C8  UNL d   1       0.713  -3.725   2.916  0.00  0.00     0.006 A 
ENDROOT
BRANCH   1   8
ATOM      8  C1  UNL d   1      -1.439  -3.626   1.603  0.00  0.00     0.054 C 
ATOM      9  C   UNL d   1      -1.753  -2.186   1.982  0.00  0.00     0.018 C 
ENDBRANCH   1   8
TORSDOF 1
ENDMDL
