MODEL 1
REMARK minimizedAffinity 3.98643327
REMARK minimizedRMSD -1
REMARK  1 active torsions:
REMARK  status: ('A' for Active; 'I' for Inactive)
REMARK    1  A    between atoms: C1_2  and  C2_3 
ROOT
ATOM      1  C2  UNL d   1      -2.275  -2.393  -1.670  0.00  0.00    -0.081 A 
ATOM      2  C3  UNL d   1      -2.262  -1.248  -2.476  0.00  0.00     0.006 A 
ATOM      3  C4  UNL d   1      -1.565  -0.106  -2.072  0.00  0.00     0.002 A 
ATOM      4  C5  UNL d   1      -0.864  -0.093  -0.861  0.00  0.00    -0.080 A 
ATOM      5  C6  UNL d   1      -0.088   1.116  -0.431  0.00  0.00     0.076 C 
ATOM      6  C7  UNL d   1      -0.892  -1.231  -0.048  0.00  0.00     0.002 A 
ATOM      7  C8  UNL d   1      -1.589  -2.373  -0.451  0.00  0.00     0.006 A 
ENDROOT
BRANCH   1   8
ATOM      8  C1  UNL d   1      -2.971  -3.647  -2.132  0.00  0.00     0.054 C 
ATOM      9  C   UNL d   1      -2.337  -4.889  -1.523  0.00  0.00     0.018 C 
ENDBRANCH   1   8
TORSDOF 1
ENDMDL
