MODEL 1
REMARK minimizedAffinity 0.977990866
REMARK minimizedRMSD -1
REMARK  0 active torsions:
REMARK  status: ('A' for Active; 'I' for Inactive)
ROOT
ATOM      1  C   UNL d   1      -2.390   0.125  -0.562  0.00  0.00     0.172 C 
ATOM      2  N   UNL d   1      -1.672  -1.098  -0.831  0.00  0.00    -0.070 N 
ATOM      3  C1  UNL d   1      -1.254  -2.002   0.109  0.00  0.00    -0.004 A 
ATOM      4  C2  UNL d   1      -0.609  -3.028  -0.548  0.00  0.00    -0.047 A 
ATOM      5  C3  UNL d   1      -0.640  -2.729  -1.931  0.00  0.00    -0.047 A 
ATOM      6  C4  UNL d   1      -1.303  -1.530  -2.078  0.00  0.00    -0.004 A 
ENDROOT
TORSDOF 0
ENDMDL
