MODEL 1
REMARK minimizedAffinity -0.850719154
REMARK minimizedRMSD -1
REMARK  0 active torsions:
REMARK  status: ('A' for Active; 'I' for Inactive)
ROOT
ATOM      1  C   UNL d   1      -2.235  -0.332   2.523  0.00  0.00     0.172 C 
ATOM      2  N   UNL d   1      -0.801  -0.158   2.499  0.00  0.00    -0.070 N 
ATOM      3  C1  UNL d   1      -0.137   0.923   1.986  0.00  0.00    -0.004 A 
ATOM      4  C2  UNL d   1       1.214   0.708   2.154  0.00  0.00    -0.047 A 
ATOM      5  C3  UNL d   1       1.366  -0.547   2.790  0.00  0.00    -0.047 A 
ATOM      6  C4  UNL d   1       0.103  -1.061   2.992  0.00  0.00    -0.004 A 
ENDROOT
TORSDOF 0
ENDMDL
