MODEL 1
REMARK minimizedAffinity -0.664523959
REMARK minimizedRMSD -1
REMARK  0 active torsions:
REMARK  status: ('A' for Active; 'I' for Inactive)
ROOT
ATOM      1  C   UNL d   1      -0.246   0.001   2.844  0.00  0.00     0.172 C 
ATOM      2  N   UNL d   1      -1.609   0.280   2.458  0.00  0.00    -0.070 N 
ATOM      3  C1  UNL d   1      -2.658   0.475   3.316  0.00  0.00    -0.004 A 
ATOM      4  C2  UNL d   1      -3.785   0.713   2.559  0.00  0.00    -0.047 A 
ATOM      5  C3  UNL d   1      -3.400   0.659   1.198  0.00  0.00    -0.047 A 
ATOM      6  C4  UNL d   1      -2.048   0.389   1.165  0.00  0.00    -0.004 A 
ENDROOT
TORSDOF 0
ENDMDL
