MODEL 1
REMARK minimizedAffinity 3.39504862
REMARK minimizedRMSD -1
REMARK  0 active torsions:
REMARK  status: ('A' for Active; 'I' for Inactive)
ROOT
ATOM      1  C   UNL d   1      -0.432  -0.440   2.967  0.00  0.00     0.172 C 
ATOM      2  N   UNL d   1      -1.554  -0.096   2.126  0.00  0.00    -0.070 N 
ATOM      3  C1  UNL d   1      -2.852   0.039   2.542  0.00  0.00    -0.004 A 
ATOM      4  C2  UNL d   1      -3.614   0.372   1.443  0.00  0.00    -0.047 A 
ATOM      5  C3  UNL d   1      -2.745   0.438   0.328  0.00  0.00    -0.047 A 
ATOM      6  C4  UNL d   1      -1.476   0.143   0.779  0.00  0.00    -0.004 A 
ENDROOT
TORSDOF 0
ENDMDL
