MODEL 1
REMARK minimizedAffinity 0.0653425008
REMARK minimizedRMSD -1
REMARK  0 active torsions:
REMARK  status: ('A' for Active; 'I' for Inactive)
ROOT
ATOM      1  C   UNL d   1       0.127  -0.318   3.257  0.00  0.00     0.172 C 
ATOM      2  N   UNL d   1      -0.086   0.196   1.924  0.00  0.00    -0.070 N 
ATOM      3  C1  UNL d   1       0.834   0.880   1.175  0.00  0.00    -0.004 A 
ATOM      4  C2  UNL d   1       0.247   1.194  -0.031  0.00  0.00    -0.047 A 
ATOM      5  C3  UNL d   1      -1.073   0.683  -0.006  0.00  0.00    -0.047 A 
ATOM      6  C4  UNL d   1      -1.252   0.070   1.216  0.00  0.00    -0.004 A 
ENDROOT
TORSDOF 0
ENDMDL
