MODEL 1
REMARK minimizedAffinity -3.80037427
REMARK minimizedRMSD -1
REMARK  0 active torsions:
REMARK  status: ('A' for Active; 'I' for Inactive)
ROOT
ATOM      1  C   UNL d   1       0.184   0.058   1.987  0.00  0.00     0.172 C 
ATOM      2  N   UNL d   1      -0.786  -0.339   2.979  0.00  0.00    -0.070 N 
ATOM      3  C1  UNL d   1      -0.499  -0.804   4.235  0.00  0.00    -0.004 A 
ATOM      4  C2  UNL d   1      -1.693  -1.071   4.869  0.00  0.00    -0.047 A 
ATOM      5  C3  UNL d   1      -2.734  -0.758   3.963  0.00  0.00    -0.047 A 
ATOM      6  C4  UNL d   1      -2.144  -0.307   2.801  0.00  0.00    -0.004 A 
ENDROOT
TORSDOF 0
ENDMDL
