MODEL 1
REMARK minimizedAffinity -2.74883032
REMARK minimizedRMSD -1
REMARK  0 active torsions:
REMARK  status: ('A' for Active; 'I' for Inactive)
ROOT
ATOM      1  C   UNL d   1      -0.790  -1.196   3.566  0.00  0.00     0.172 C 
ATOM      2  N   UNL d   1      -1.861  -0.672   2.751  0.00  0.00    -0.070 N 
ATOM      3  C1  UNL d   1      -3.196  -0.732   3.051  0.00  0.00    -0.004 A 
ATOM      4  C2  UNL d   1      -3.887  -0.122   2.027  0.00  0.00    -0.047 A 
ATOM      5  C3  UNL d   1      -2.934   0.319   1.077  0.00  0.00    -0.047 A 
ATOM      6  C4  UNL d   1      -1.688  -0.035   1.551  0.00  0.00    -0.004 A 
ENDROOT
TORSDOF 0
ENDMDL
