MODEL 1
REMARK minimizedAffinity -0.634236157
REMARK minimizedRMSD -1
REMARK  0 active torsions:
REMARK  status: ('A' for Active; 'I' for Inactive)
ROOT
ATOM      1  C   UNL d   1       0.042  -0.459   3.206  0.00  0.00     0.172 C 
ATOM      2  N   UNL d   1      -1.177  -0.047   2.549  0.00  0.00    -0.070 N 
ATOM      3  C1  UNL d   1      -2.263   0.517   3.163  0.00  0.00    -0.004 A 
ATOM      4  C2  UNL d   1      -3.213   0.763   2.196  0.00  0.00    -0.047 A 
ATOM      5  C3  UNL d   1      -2.680   0.332   0.958  0.00  0.00    -0.047 A 
ATOM      6  C4  UNL d   1      -1.418  -0.166   1.206  0.00  0.00    -0.004 A 
ENDROOT
TORSDOF 0
ENDMDL
