MODEL 1
REMARK minimizedAffinity 3.18898463
REMARK minimizedRMSD -1
REMARK  0 active torsions:
REMARK  status: ('A' for Active; 'I' for Inactive)
ROOT
ATOM      1  C   UNL d   1      -0.212   0.148   3.042  0.00  0.00     0.172 C 
ATOM      2  N   UNL d   1      -1.436   0.334   2.299  0.00  0.00    -0.070 N 
ATOM      3  C1  UNL d   1      -1.654  -0.063   1.007  0.00  0.00    -0.004 A 
ATOM      4  C2  UNL d   1      -2.940   0.295   0.666  0.00  0.00    -0.047 A 
ATOM      5  C3  UNL d   1      -3.515   0.930   1.793  0.00  0.00    -0.047 A 
ATOM      6  C4  UNL d   1      -2.562   0.941   2.789  0.00  0.00    -0.004 A 
ENDROOT
TORSDOF 0
ENDMDL
