MODEL 1
REMARK minimizedAffinity 2.53151774
REMARK minimizedRMSD -1
REMARK  0 active torsions:
REMARK  status: ('A' for Active; 'I' for Inactive)
ROOT
ATOM      1  C   UNL d   1      -2.752  -0.144   0.686  0.00  0.00     0.172 C 
ATOM      2  N   UNL d   1      -1.969  -0.977  -0.196  0.00  0.00    -0.070 N 
ATOM      3  C1  UNL d   1      -1.808  -2.332  -0.080  0.00  0.00    -0.004 A 
ATOM      4  C2  UNL d   1      -0.993  -2.750  -1.110  0.00  0.00    -0.047 A 
ATOM      5  C3  UNL d   1      -0.651  -1.606  -1.870  0.00  0.00    -0.047 A 
ATOM      6  C4  UNL d   1      -1.269  -0.523  -1.282  0.00  0.00    -0.004 A 
ENDROOT
TORSDOF 0
ENDMDL
