MODEL 1
REMARK minimizedAffinity 10.9159536
REMARK minimizedRMSD -1
REMARK  0 active torsions:
REMARK  status: ('A' for Active; 'I' for Inactive)
ROOT
ATOM      1  C   UNL d   1       0.768   1.941   0.651  0.00  0.00     0.172 C 
ATOM      2  N   UNL d   1       0.178   1.435   1.868  0.00  0.00    -0.070 N 
ATOM      3  C1  UNL d   1      -0.598   2.154   2.738  0.00  0.00    -0.004 A 
ATOM      4  C2  UNL d   1      -0.964   1.315   3.769  0.00  0.00    -0.047 A 
ATOM      5  C3  UNL d   1      -0.388   0.049   3.509  0.00  0.00    -0.047 A 
ATOM      6  C4  UNL d   1       0.314   0.151   2.326  0.00  0.00    -0.004 A 
ENDROOT
TORSDOF 0
ENDMDL
