MODEL 1
REMARK minimizedAffinity 4.20051336
REMARK minimizedRMSD -1
REMARK  0 active torsions:
REMARK  status: ('A' for Active; 'I' for Inactive)
ROOT
ATOM      1  C   UNL d   1      -0.533  -4.501   1.846  0.00  0.00     0.172 C 
ATOM      2  N   UNL d   1       0.791  -4.963   2.189  0.00  0.00    -0.070 N 
ATOM      3  C1  UNL d   1       1.101  -5.801   3.228  0.00  0.00    -0.004 A 
ATOM      4  C2  UNL d   1       2.465  -6.000   3.217  0.00  0.00    -0.047 A 
ATOM      5  C3  UNL d   1       2.993  -5.256   2.135  0.00  0.00    -0.047 A 
ATOM      6  C4  UNL d   1       1.935  -4.624   1.516  0.00  0.00    -0.004 A 
ENDROOT
TORSDOF 0
ENDMDL
