MODEL 1
REMARK minimizedAffinity 3.10282612
REMARK minimizedRMSD -1
REMARK  0 active torsions:
REMARK  status: ('A' for Active; 'I' for Inactive)
ROOT
ATOM      1  C   UNL d   1      -0.601  -2.655  -1.097  0.00  0.00     0.172 C 
ATOM      2  N   UNL d   1      -1.443  -1.546  -0.714  0.00  0.00    -0.070 N 
ATOM      3  C1  UNL d   1      -2.485  -1.045  -1.447  0.00  0.00    -0.004 A 
ATOM      4  C2  UNL d   1      -3.033   0.004  -0.740  0.00  0.00    -0.047 A 
ATOM      5  C3  UNL d   1      -2.293   0.138   0.459  0.00  0.00    -0.047 A 
ATOM      6  C4  UNL d   1      -1.315  -0.834   0.449  0.00  0.00    -0.004 A 
ENDROOT
TORSDOF 0
ENDMDL
