MODEL 1
REMARK minimizedAffinity -0.0184039883
REMARK minimizedRMSD -1
REMARK  0 active torsions:
REMARK  status: ('A' for Active; 'I' for Inactive)
ROOT
ATOM      1  C   UNL d   1      -1.562  -1.280  -1.871  0.00  0.00     0.172 C 
ATOM      2  N   UNL d   1      -2.253  -0.489  -0.880  0.00  0.00    -0.070 N 
ATOM      3  C1  UNL d   1      -1.659   0.228   0.125  0.00  0.00    -0.004 A 
ATOM      4  C2  UNL d   1      -2.657   0.840   0.852  0.00  0.00    -0.047 A 
ATOM      5  C3  UNL d   1      -3.892   0.479   0.265  0.00  0.00    -0.047 A 
ATOM      6  C4  UNL d   1      -3.613  -0.345  -0.805  0.00  0.00    -0.004 A 
ENDROOT
TORSDOF 0
ENDMDL
