MODEL 1
REMARK minimizedAffinity 3.76423407
REMARK minimizedRMSD -1
REMARK  0 active torsions:
REMARK  status: ('A' for Active; 'I' for Inactive)
ROOT
ATOM      1  C   UNL d   1      -2.836  -0.523   0.029  0.00  0.00     0.172 C 
ATOM      2  N   UNL d   1      -2.029  -1.395  -0.791  0.00  0.00    -0.070 N 
ATOM      3  C1  UNL d   1      -1.368  -1.032  -1.934  0.00  0.00    -0.004 A 
ATOM      4  C2  UNL d   1      -0.716  -2.145  -2.417  0.00  0.00    -0.047 A 
ATOM      5  C3  UNL d   1      -0.995  -3.216  -1.535  0.00  0.00    -0.047 A 
ATOM      6  C4  UNL d   1      -1.810  -2.724  -0.537  0.00  0.00    -0.004 A 
ENDROOT
TORSDOF 0
ENDMDL
