MODEL 1
REMARK minimizedAffinity 1.64241278
REMARK minimizedRMSD -1
REMARK  0 active torsions:
REMARK  status: ('A' for Active; 'I' for Inactive)
ROOT
ATOM      1  C   UNL d   1      -3.359  -0.216  -0.391  0.00  0.00     0.172 C 
ATOM      2  N   UNL d   1      -2.481  -1.116  -1.102  0.00  0.00    -0.070 N 
ATOM      3  C1  UNL d   1      -1.565  -1.956  -0.529  0.00  0.00    -0.004 A 
ATOM      4  C2  UNL d   1      -0.932  -2.644  -1.542  0.00  0.00    -0.047 A 
ATOM      5  C3  UNL d   1      -1.487  -2.201  -2.766  0.00  0.00    -0.047 A 
ATOM      6  C4  UNL d   1      -2.444  -1.255  -2.464  0.00  0.00    -0.004 A 
ENDROOT
TORSDOF 0
ENDMDL
