MODEL 1
REMARK minimizedAffinity 0.0818821937
REMARK minimizedRMSD -1
REMARK  0 active torsions:
REMARK  status: ('A' for Active; 'I' for Inactive)
ROOT
ATOM      1  C   UNL d   1      -0.510  -0.314   3.092  0.00  0.00     0.172 C 
ATOM      2  N   UNL d   1      -1.742   0.060   2.438  0.00  0.00    -0.070 N 
ATOM      3  C1  UNL d   1      -2.018  -0.097   1.106  0.00  0.00    -0.004 A 
ATOM      4  C2  UNL d   1      -3.291   0.379   0.879  0.00  0.00    -0.047 A 
ATOM      5  C3  UNL d   1      -3.798   0.840   2.118  0.00  0.00    -0.047 A 
ATOM      6  C4  UNL d   1      -2.818   0.630   3.066  0.00  0.00    -0.004 A 
ENDROOT
TORSDOF 0
ENDMDL
