MODEL 1
REMARK minimizedAffinity 5.7116518
REMARK minimizedRMSD -1
REMARK  0 active torsions:
REMARK  status: ('A' for Active; 'I' for Inactive)
ROOT
ATOM      1  C   UNL d   1      -4.408   0.387   2.288  0.00  0.00     0.023 A 
ATOM      2  C1  UNL d   1      -3.732  -0.831   2.354  0.00  0.00     0.003 A 
ATOM      3  C2  UNL d   1      -4.182  -1.837   3.211  0.00  0.00     0.048 A 
ATOM      4  C3  UNL d   1      -5.311  -1.618   4.000  0.00  0.00     0.023 A 
ATOM      5  C4  UNL d   1      -5.992  -0.401   3.938  0.00  0.00     0.048 A 
ATOM      6  C5  UNL d   1      -5.537   0.602   3.079  0.00  0.00     0.003 A 
ATOM      7  I   UNL d   1      -5.984  -3.113   5.278  0.00  0.00    -0.146 I 
ENDROOT
TORSDOF 0
ENDMDL
