MODEL 1
REMARK minimizedAffinity 7.30520391
REMARK minimizedRMSD -1
REMARK  0 active torsions:
REMARK  status: ('A' for Active; 'I' for Inactive)
ROOT
ATOM      1  C   UNL d   1       3.682  -1.758  -0.924  0.00  0.00     0.023 A 
ATOM      2  C1  UNL d   1       2.993  -2.831  -0.359  0.00  0.00     0.003 A 
ATOM      3  C2  UNL d   1       3.643  -4.049  -0.151  0.00  0.00     0.048 A 
ATOM      4  C3  UNL d   1       4.983  -4.187  -0.510  0.00  0.00     0.023 A 
ATOM      5  C4  UNL d   1       5.678  -3.116  -1.075  0.00  0.00     0.048 A 
ATOM      6  C5  UNL d   1       5.023  -1.901  -1.281  0.00  0.00     0.003 A 
ATOM      7  I   UNL d   1       5.953  -5.999  -0.201  0.00  0.00    -0.146 I 
ENDROOT
TORSDOF 0
ENDMDL
