MODEL 1
REMARK minimizedAffinity 7.17738008
REMARK minimizedRMSD -1
REMARK  0 active torsions:
REMARK  status: ('A' for Active; 'I' for Inactive)
ROOT
ATOM      1  C   UNL d   1      -0.644   3.430  -2.174  0.00  0.00     0.023 A 
ATOM      2  C1  UNL d   1      -0.029   4.197  -1.185  0.00  0.00     0.003 A 
ATOM      3  C2  UNL d   1       0.239   3.640   0.067  0.00  0.00     0.048 A 
ATOM      4  C3  UNL d   1      -0.111   2.315   0.324  0.00  0.00     0.023 A 
ATOM      5  C4  UNL d   1      -0.726   1.543  -0.663  0.00  0.00     0.048 A 
ATOM      6  C5  UNL d   1      -0.993   2.104  -1.913  0.00  0.00     0.003 A 
ATOM      7  I   UNL d   1       0.287   1.483   2.186  0.00  0.00    -0.146 I 
ENDROOT
TORSDOF 0
ENDMDL
