MODEL 1
REMARK minimizedAffinity 2.38471174
REMARK minimizedRMSD -1
REMARK  0 active torsions:
REMARK  status: ('A' for Active; 'I' for Inactive)
ROOT
ATOM      1  C   UNL d   1      -4.441   0.297   1.480  0.00  0.00     0.023 A 
ATOM      2  C1  UNL d   1      -5.553   0.726   2.205  0.00  0.00     0.003 A 
ATOM      3  C2  UNL d   1      -5.999  -0.011   3.304  0.00  0.00     0.048 A 
ATOM      4  C3  UNL d   1      -5.328  -1.176   3.673  0.00  0.00     0.023 A 
ATOM      5  C4  UNL d   1      -4.214  -1.609   2.951  0.00  0.00     0.048 A 
ATOM      6  C5  UNL d   1      -3.773  -0.869   1.853  0.00  0.00     0.003 A 
ATOM      7  I   UNL d   1      -5.990  -2.275   5.308  0.00  0.00    -0.146 I 
ENDROOT
TORSDOF 0
ENDMDL
