MODEL 1
REMARK minimizedAffinity 1.15159869
REMARK minimizedRMSD -1
REMARK  0 active torsions:
REMARK  status: ('A' for Active; 'I' for Inactive)
ROOT
ATOM      1  C   UNL d   1      -0.669  -2.882  -5.992  0.00  0.00     0.023 A 
ATOM      2  C1  UNL d   1      -1.978  -2.401  -5.990  0.00  0.00     0.003 A 
ATOM      3  C2  UNL d   1      -3.051  -3.295  -5.992  0.00  0.00     0.048 A 
ATOM      4  C3  UNL d   1      -2.807  -4.668  -5.996  0.00  0.00     0.023 A 
ATOM      5  C4  UNL d   1      -1.499  -5.153  -5.998  0.00  0.00     0.048 A 
ATOM      6  C5  UNL d   1      -0.429  -4.256  -5.996  0.00  0.00     0.003 A 
ATOM      7  I   UNL d   1      -4.403  -6.000  -5.999  0.00  0.00    -0.146 I 
ENDROOT
TORSDOF 0
ENDMDL
