MODEL 1
REMARK minimizedAffinity 4.53831148
REMARK minimizedRMSD -1
REMARK  0 active torsions:
REMARK  status: ('A' for Active; 'I' for Inactive)
ROOT
ATOM      1  C   UNL d   1       1.947  -3.166   5.347  0.00  0.00     0.023 A 
ATOM      2  C1  UNL d   1       1.787  -1.944   6.000  0.00  0.00     0.003 A 
ATOM      3  C2  UNL d   1       1.345  -0.825   5.291  0.00  0.00     0.048 A 
ATOM      4  C3  UNL d   1       1.065  -0.935   3.930  0.00  0.00     0.023 A 
ATOM      5  C4  UNL d   1       1.223  -2.156   3.272  0.00  0.00     0.048 A 
ATOM      6  C5  UNL d   1       1.665  -3.272   3.985  0.00  0.00     0.003 A 
ATOM      7  I   UNL d   1       0.407   0.729   2.873  0.00  0.00    -0.146 I 
ENDROOT
TORSDOF 0
ENDMDL
