MODEL 1
REMARK minimizedAffinity 7.60646677
REMARK minimizedRMSD -1
REMARK  0 active torsions:
REMARK  status: ('A' for Active; 'I' for Inactive)
ROOT
ATOM      1  C   UNL d   1      -5.991  -0.931   3.899  0.00  0.00     0.023 A 
ATOM      2  C1  UNL d   1      -5.999   0.447   3.683  0.00  0.00     0.003 A 
ATOM      3  C2  UNL d   1      -4.821   1.106   3.323  0.00  0.00     0.048 A 
ATOM      4  C3  UNL d   1      -3.639   0.380   3.180  0.00  0.00     0.023 A 
ATOM      5  C4  UNL d   1      -3.626  -0.999   3.394  0.00  0.00     0.048 A 
ATOM      6  C5  UNL d   1      -4.806  -1.653   3.755  0.00  0.00     0.003 A 
ATOM      7  I   UNL d   1      -1.886   1.358   2.644  0.00  0.00    -0.146 I 
ENDROOT
TORSDOF 0
ENDMDL
