MODEL 1
REMARK minimizedAffinity 9.60911655
REMARK minimizedRMSD -1
REMARK  0 active torsions:
REMARK  status: ('A' for Active; 'I' for Inactive)
ROOT
ATOM      1  C   UNL d   1      -4.104   0.949  -1.240  0.00  0.00     0.023 A 
ATOM      2  C1  UNL d   1      -3.614   1.494  -0.053  0.00  0.00     0.003 A 
ATOM      3  C2  UNL d   1      -4.157   1.103   1.173  0.00  0.00     0.048 A 
ATOM      4  C3  UNL d   1      -5.189   0.165   1.204  0.00  0.00     0.023 A 
ATOM      5  C4  UNL d   1      -5.682  -0.384   0.019  0.00  0.00     0.048 A 
ATOM      6  C5  UNL d   1      -5.137   0.011  -1.204  0.00  0.00     0.003 A 
ATOM      7  I   UNL d   1      -5.999  -0.419   3.027  0.00  0.00    -0.146 I 
ENDROOT
TORSDOF 0
ENDMDL
