MODEL 1
REMARK minimizedAffinity 4.5924511
REMARK minimizedRMSD -1
REMARK  0 active torsions:
REMARK  status: ('A' for Active; 'I' for Inactive)
ROOT
ATOM      1  C   UNL d   1      -5.923  -4.871  -5.562  0.00  0.00     0.023 A 
ATOM      2  C1  UNL d   1      -5.050  -3.873  -5.996  0.00  0.00     0.003 A 
ATOM      3  C2  UNL d   1      -3.697  -3.932  -5.658  0.00  0.00     0.048 A 
ATOM      4  C3  UNL d   1      -3.223  -4.993  -4.886  0.00  0.00     0.023 A 
ATOM      5  C4  UNL d   1      -4.092  -5.994  -4.451  0.00  0.00     0.048 A 
ATOM      6  C5  UNL d   1      -5.445  -5.930  -4.790  0.00  0.00     0.003 A 
ATOM      7  I   UNL d   1      -1.208  -5.083  -4.382  0.00  0.00    -0.146 I 
ENDROOT
TORSDOF 0
ENDMDL
