MODEL 1
REMARK minimizedAffinity 5.05584621
REMARK minimizedRMSD -1
REMARK  0 active torsions:
REMARK  status: ('A' for Active; 'I' for Inactive)
ROOT
ATOM      1  C   UNL d   1       0.856  -4.198  -0.522  0.00  0.00     0.023 A 
ATOM      2  C1  UNL d   1       1.402  -5.026  -1.503  0.00  0.00     0.003 A 
ATOM      3  C2  UNL d   1       2.787  -5.161  -1.614  0.00  0.00     0.048 A 
ATOM      4  C3  UNL d   1       3.622  -4.466  -0.739  0.00  0.00     0.023 A 
ATOM      5  C4  UNL d   1       3.080  -3.637   0.245  0.00  0.00     0.048 A 
ATOM      6  C5  UNL d   1       1.694  -3.505   0.351  0.00  0.00     0.003 A 
ATOM      7  I   UNL d   1       5.684  -4.665  -0.901  0.00  0.00    -0.146 I 
ENDROOT
TORSDOF 0
ENDMDL
