MODEL 1
REMARK minimizedAffinity 3.41214252
REMARK minimizedRMSD -1
REMARK  0 active torsions:
REMARK  status: ('A' for Active; 'I' for Inactive)
ROOT
ATOM      1  C   UNL d   1      -4.935   4.239  -4.861  0.00  0.00     0.023 A 
ATOM      2  C1  UNL d   1      -4.119   4.048  -5.977  0.00  0.00     0.003 A 
ATOM      3  C2  UNL d   1      -2.817   4.553  -5.986  0.00  0.00     0.048 A 
ATOM      4  C3  UNL d   1      -2.337   5.248  -4.876  0.00  0.00     0.023 A 
ATOM      5  C4  UNL d   1      -3.150   5.440  -3.757  0.00  0.00     0.048 A 
ATOM      6  C5  UNL d   1      -4.451   4.934  -3.753  0.00  0.00     0.003 A 
ATOM      7  I   UNL d   1      -0.400   6.000  -4.886  0.00  0.00    -0.146 I 
ENDROOT
TORSDOF 0
ENDMDL
