MODEL 1
REMARK minimizedAffinity 3.83241343
REMARK minimizedRMSD -1
REMARK  1 active torsions:
REMARK  status: ('A' for Active; 'I' for Inactive)
REMARK    1  A    between atoms: C1_2  and  C2_3 
ROOT
ATOM      1  C2  UNL d   1       5.172  -3.626  -1.085  0.00  0.00    -0.077 A 
ATOM      2  C3  UNL d   1       3.910  -4.156  -1.387  0.00  0.00     0.002 A 
ATOM      3  C4  UNL d   1       3.471  -4.225  -2.711  0.00  0.00     0.002 A 
ATOM      4  C5  UNL d   1       4.291  -3.771  -3.742  0.00  0.00    -0.004 A 
ATOM      5  C6  UNL d   1       5.547  -3.241  -3.452  0.00  0.00     0.002 A 
ATOM      6  C7  UNL d   1       5.987  -3.170  -2.129  0.00  0.00     0.002 A 
ENDROOT
BRANCH   1   7
ATOM      7  C1  UNL d   1       5.667  -3.596   0.338  0.00  0.00     0.055 C 
ATOM      8  C   UNL d   1       5.918  -2.171   0.807  0.00  0.00     0.019 C 
ENDBRANCH   1   7
TORSDOF 1
ENDMDL
