MODEL 1
REMARK minimizedAffinity 9.07846928
REMARK minimizedRMSD -1
REMARK  1 active torsions:
REMARK  status: ('A' for Active; 'I' for Inactive)
REMARK    1  A    between atoms: C1_2  and  C2_3 
ROOT
ATOM      1  C2  UNL d   1       3.922  -3.884  -4.212  0.00  0.00    -0.077 A 
ATOM      2  C3  UNL d   1       5.218  -3.388  -4.014  0.00  0.00     0.002 A 
ATOM      3  C4  UNL d   1       5.963  -3.784  -2.901  0.00  0.00     0.002 A 
ATOM      4  C5  UNL d   1       5.423  -4.680  -1.982  0.00  0.00    -0.004 A 
ATOM      5  C6  UNL d   1       4.134  -5.178  -2.169  0.00  0.00     0.002 A 
ATOM      6  C7  UNL d   1       3.387  -4.782  -3.280  0.00  0.00     0.002 A 
ENDROOT
BRANCH   1   7
ATOM      7  C1  UNL d   1       3.135  -3.497  -5.437  0.00  0.00     0.055 C 
ATOM      8  C   UNL d   1       2.518  -2.114  -5.283  0.00  0.00     0.019 C 
ENDBRANCH   1   7
TORSDOF 1
ENDMDL
