MODEL 1
REMARK minimizedAffinity 4.76560116
REMARK minimizedRMSD -1
REMARK  1 active torsions:
REMARK  status: ('A' for Active; 'I' for Inactive)
REMARK    1  A    between atoms: C1_2  and  C2_3 
ROOT
ATOM      1  C2  UNL d   1       3.869  -3.609  -4.266  0.00  0.00    -0.077 A 
ATOM      2  C3  UNL d   1       3.433  -4.557  -3.330  0.00  0.00     0.002 A 
ATOM      3  C4  UNL d   1       4.275  -4.966  -2.294  0.00  0.00     0.002 A 
ATOM      4  C5  UNL d   1       5.555  -4.429  -2.181  0.00  0.00    -0.004 A 
ATOM      5  C6  UNL d   1       5.999  -3.487  -3.108  0.00  0.00     0.002 A 
ATOM      6  C7  UNL d   1       5.160  -3.078  -4.145  0.00  0.00     0.002 A 
ENDROOT
BRANCH   1   7
ATOM      7  C1  UNL d   1       2.945  -3.130  -5.355  0.00  0.00     0.055 C 
ATOM      8  C   UNL d   1       2.228  -1.850  -4.950  0.00  0.00     0.019 C 
ENDBRANCH   1   7
TORSDOF 1
ENDMDL
