MODEL 1
REMARK minimizedAffinity 5.56203413
REMARK minimizedRMSD -1
REMARK  1 active torsions:
REMARK  status: ('A' for Active; 'I' for Inactive)
REMARK    1  A    between atoms: C1_2  and  C2_3 
ROOT
ATOM      1  C2  UNL d   1       3.628  -4.116  -1.359  0.00  0.00    -0.077 A 
ATOM      2  C3  UNL d   1       4.819  -3.691  -0.755  0.00  0.00     0.002 A 
ATOM      3  C4  UNL d   1       6.000  -3.617  -1.497  0.00  0.00     0.002 A 
ATOM      4  C5  UNL d   1       5.999  -3.962  -2.847  0.00  0.00    -0.004 A 
ATOM      5  C6  UNL d   1       4.820  -4.388  -3.456  0.00  0.00     0.002 A 
ATOM      6  C7  UNL d   1       3.639  -4.464  -2.716  0.00  0.00     0.002 A 
ENDROOT
BRANCH   1   7
ATOM      7  C1  UNL d   1       2.343  -4.150  -0.573  0.00  0.00     0.055 C 
ATOM      8  C   UNL d   1       1.557  -2.858  -0.742  0.00  0.00     0.019 C 
ENDBRANCH   1   7
TORSDOF 1
ENDMDL
