MODEL 1
REMARK minimizedAffinity 8.09219933
REMARK minimizedRMSD -1
REMARK  1 active torsions:
REMARK  status: ('A' for Active; 'I' for Inactive)
REMARK    1  A    between atoms: C1_2  and  C2_3 
ROOT
ATOM      1  C2  UNL d   1      -1.895  -2.554   4.037  0.00  0.00    -0.077 A 
ATOM      2  C3  UNL d   1      -2.131  -2.969   5.355  0.00  0.00     0.002 A 
ATOM      3  C4  UNL d   1      -1.231  -3.819   6.000  0.00  0.00     0.002 A 
ATOM      4  C5  UNL d   1      -0.087  -4.258   5.336  0.00  0.00    -0.004 A 
ATOM      5  C6  UNL d   1       0.156  -3.853   4.024  0.00  0.00     0.002 A 
ATOM      6  C7  UNL d   1      -0.744  -3.004   3.378  0.00  0.00     0.002 A 
ENDROOT
BRANCH   1   7
ATOM      7  C1  UNL d   1      -2.840  -1.598   3.357  0.00  0.00     0.055 C 
ATOM      8  C   UNL d   1      -2.136  -0.305   2.972  0.00  0.00     0.019 C 
ENDBRANCH   1   7
TORSDOF 1
ENDMDL
