MODEL 1
REMARK minimizedAffinity 7.87923908
REMARK minimizedRMSD -1
REMARK  1 active torsions:
REMARK  status: ('A' for Active; 'I' for Inactive)
REMARK    1  A    between atoms: C1_2  and  C2_3 
ROOT
ATOM      1  C2  UNL d   1      -0.836   0.791  -3.350  0.00  0.00    -0.077 A 
ATOM      2  C3  UNL d   1       0.303   0.597  -4.144  0.00  0.00     0.002 A 
ATOM      3  C4  UNL d   1       1.534   1.128  -3.754  0.00  0.00     0.002 A 
ATOM      4  C5  UNL d   1       1.638   1.852  -2.568  0.00  0.00    -0.004 A 
ATOM      5  C6  UNL d   1       0.511   2.052  -1.773  0.00  0.00     0.002 A 
ATOM      6  C7  UNL d   1      -0.721   1.523  -2.161  0.00  0.00     0.002 A 
ENDROOT
BRANCH   1   7
ATOM      7  C1  UNL d   1      -2.155   0.178  -3.744  0.00  0.00     0.055 C 
ATOM      8  C   UNL d   1      -2.743  -0.647  -2.608  0.00  0.00     0.019 C 
ENDBRANCH   1   7
TORSDOF 1
ENDMDL
