MODEL 1
REMARK minimizedAffinity 6.09869957
REMARK minimizedRMSD -1
REMARK  1 active torsions:
REMARK  status: ('A' for Active; 'I' for Inactive)
REMARK    1  A    between atoms: C1_2  and  C2_3 
ROOT
ATOM      1  C2  UNL d   1      -0.542   0.351  -2.379  0.00  0.00    -0.077 A 
ATOM      2  C3  UNL d   1      -0.522   1.408  -1.459  0.00  0.00     0.002 A 
ATOM      3  C4  UNL d   1       0.585   2.257  -1.383  0.00  0.00     0.002 A 
ATOM      4  C5  UNL d   1       1.676   2.059  -2.227  0.00  0.00    -0.004 A 
ATOM      5  C6  UNL d   1       1.665   1.009  -3.144  0.00  0.00     0.002 A 
ATOM      6  C7  UNL d   1       0.561   0.159  -3.220  0.00  0.00     0.002 A 
ENDROOT
BRANCH   1   7
ATOM      7  C1  UNL d   1      -1.755  -0.535  -2.496  0.00  0.00     0.055 C 
ATOM      8  C   UNL d   1      -3.011   0.279  -2.771  0.00  0.00     0.019 C 
ENDBRANCH   1   7
TORSDOF 1
ENDMDL
