MODEL 1
REMARK minimizedAffinity 8.28481197
REMARK minimizedRMSD -1
REMARK  1 active torsions:
REMARK  status: ('A' for Active; 'I' for Inactive)
REMARK    1  A    between atoms: C1_2  and  C2_3 
ROOT
ATOM      1  C2  UNL d   1      -1.438  -0.071   3.124  0.00  0.00    -0.077 A 
ATOM      2  C3  UNL d   1      -2.356   0.831   2.568  0.00  0.00     0.002 A 
ATOM      3  C4  UNL d   1      -1.910   1.914   1.808  0.00  0.00     0.002 A 
ATOM      4  C5  UNL d   1      -0.546   2.103   1.594  0.00  0.00    -0.004 A 
ATOM      5  C6  UNL d   1       0.375   1.212   2.144  0.00  0.00     0.002 A 
ATOM      6  C7  UNL d   1      -0.069   0.129   2.905  0.00  0.00     0.002 A 
ENDROOT
BRANCH   1   7
ATOM      7  C1  UNL d   1      -1.920  -1.268   3.902  0.00  0.00     0.055 C 
ATOM      8  C   UNL d   1      -0.904  -2.400   3.861  0.00  0.00     0.019 C 
ENDBRANCH   1   7
TORSDOF 1
ENDMDL
