MODEL 1
REMARK minimizedAffinity 7.47831964
REMARK minimizedRMSD -1
REMARK  1 active torsions:
REMARK  status: ('A' for Active; 'I' for Inactive)
REMARK    1  A    between atoms: C1_2  and  C2_3 
ROOT
ATOM      1  C2  UNL d   1      -1.914   0.325   2.620  0.00  0.00    -0.077 A 
ATOM      2  C3  UNL d   1      -2.898   0.916   1.814  0.00  0.00     0.002 A 
ATOM      3  C4  UNL d   1      -2.586   2.014   1.011  0.00  0.00     0.002 A 
ATOM      4  C5  UNL d   1      -1.292   2.528   1.002  0.00  0.00    -0.004 A 
ATOM      5  C6  UNL d   1      -0.307   1.949   1.801  0.00  0.00     0.002 A 
ATOM      6  C7  UNL d   1      -0.616   0.852   2.605  0.00  0.00     0.002 A 
ENDROOT
BRANCH   1   7
ATOM      7  C1  UNL d   1      -2.235  -0.891   3.449  0.00  0.00     0.055 C 
ATOM      8  C   UNL d   1      -1.119  -1.922   3.376  0.00  0.00     0.019 C 
ENDBRANCH   1   7
TORSDOF 1
ENDMDL
