MODEL 1
REMARK minimizedAffinity 4.08235359
REMARK minimizedRMSD -1
REMARK  1 active torsions:
REMARK  status: ('A' for Active; 'I' for Inactive)
REMARK    1  A    between atoms: C1_2  and  C2_3 
ROOT
ATOM      1  C2  UNL d   1      -0.248   1.267  -1.467  0.00  0.00    -0.077 A 
ATOM      2  C3  UNL d   1       0.800   0.874  -2.310  0.00  0.00     0.002 A 
ATOM      3  C4  UNL d   1       0.578  -0.058  -3.326  0.00  0.00     0.002 A 
ATOM      4  C5  UNL d   1      -0.691  -0.600  -3.511  0.00  0.00    -0.004 A 
ATOM      5  C6  UNL d   1      -1.741  -0.217  -2.676  0.00  0.00     0.002 A 
ATOM      6  C7  UNL d   1      -1.520   0.713  -1.659  0.00  0.00     0.002 A 
ENDROOT
BRANCH   1   7
ATOM      7  C1  UNL d   1      -0.022   2.308  -0.402  0.00  0.00     0.055 C 
ATOM      8  C   UNL d   1      -0.715   1.930   0.898  0.00  0.00     0.019 C 
ENDBRANCH   1   7
TORSDOF 1
ENDMDL
