MODEL 1
REMARK minimizedAffinity 1.19446373
REMARK minimizedRMSD -1
REMARK  1 active torsions:
REMARK  status: ('A' for Active; 'I' for Inactive)
REMARK    1  A    between atoms: C1_2  and  C2_3 
ROOT
ATOM      1  C2  UNL d   1       4.883  -2.835  -1.381  0.00  0.00    -0.077 A 
ATOM      2  C3  UNL d   1       5.958  -2.971  -0.491  0.00  0.00     0.002 A 
ATOM      3  C4  UNL d   1       5.890  -2.417   0.789  0.00  0.00     0.002 A 
ATOM      4  C5  UNL d   1       4.748  -1.728   1.192  0.00  0.00    -0.004 A 
ATOM      5  C6  UNL d   1       3.674  -1.586   0.314  0.00  0.00     0.002 A 
ATOM      6  C7  UNL d   1       3.741  -2.137  -0.966  0.00  0.00     0.002 A 
ENDROOT
BRANCH   1   7
ATOM      7  C1  UNL d   1       4.934  -3.474  -2.744  0.00  0.00     0.055 C 
ATOM      8  C   UNL d   1       3.656  -4.243  -3.044  0.00  0.00     0.019 C 
ENDBRANCH   1   7
TORSDOF 1
ENDMDL
