MODEL 1
REMARK minimizedAffinity -4.3479023
REMARK minimizedRMSD -1
REMARK  0 active torsions:
REMARK  status: ('A' for Active; 'I' for Inactive)
ROOT
ATOM      1  C4' PXY d   1      -2.710   0.158   0.103  0.00  0.00     0.077 C 
ATOM      2  C1' PXY d   1       2.624   0.633   2.281  0.00  0.00     0.077 C 
ATOM      3  C1  PXY d   1       1.225   0.521   1.708  0.00  0.00    -0.082 A 
ATOM      4  C2  PXY d   1       0.451  -0.492   2.063  0.00  0.00     0.003 A 
ATOM      5  C3  PXY d   1      -0.805  -0.625   1.530  0.00  0.00     0.003 A 
ATOM      6  C4  PXY d   1      -1.294   0.316   0.664  0.00  0.00    -0.082 A 
ATOM      7  C5  PXY d   1      -0.515   1.358   0.305  0.00  0.00     0.003 A 
ATOM      8  C6  PXY d   1       0.773   1.454   0.826  0.00  0.00     0.003 A 
ENDROOT
TORSDOF 0
ENDMDL
