MODEL 1
REMARK minimizedAffinity 2.02317643
REMARK minimizedRMSD -1
REMARK  0 active torsions:
REMARK  status: ('A' for Active; 'I' for Inactive)
ROOT
ATOM      1  C4' PXY d   1      -0.641   1.277   4.231  0.00  0.00     0.077 C 
ATOM      2  C1' PXY d   1      -0.304  -0.655  -1.207  0.00  0.00     0.077 C 
ATOM      3  C1  PXY d   1      -0.405  -0.150   0.219  0.00  0.00    -0.082 A 
ATOM      4  C2  PXY d   1       0.555   0.616   0.711  0.00  0.00     0.003 A 
ATOM      5  C3  PXY d   1       0.495   1.055   2.009  0.00  0.00     0.003 A 
ATOM      6  C4  PXY d   1      -0.585   0.752   2.794  0.00  0.00    -0.082 A 
ATOM      7  C5  PXY d   1      -1.574  -0.020   2.295  0.00  0.00     0.003 A 
ATOM      8  C6  PXY d   1      -1.474  -0.490   0.989  0.00  0.00     0.003 A 
ENDROOT
TORSDOF 0
ENDMDL
