MODEL 1
REMARK minimizedAffinity -3.04585147
REMARK minimizedRMSD -1
REMARK  0 active torsions:
REMARK  status: ('A' for Active; 'I' for Inactive)
ROOT
ATOM      1  C4' PXY d   1       3.019   0.770   1.149  0.00  0.00     0.077 C 
ATOM      2  C1' PXY d   1      -2.666  -0.270   1.252  0.00  0.00     0.077 C 
ATOM      3  C1  PXY d   1      -1.177   0.014   1.230  0.00  0.00    -0.082 A 
ATOM      4  C2  PXY d   1      -0.405  -0.609   0.355  0.00  0.00     0.003 A 
ATOM      5  C3  PXY d   1       0.948  -0.388   0.343  0.00  0.00     0.003 A 
ATOM      6  C4  PXY d   1       1.509   0.521   1.200  0.00  0.00    -0.082 A 
ATOM      7  C5  PXY d   1       0.726   1.169   2.089  0.00  0.00     0.003 A 
ATOM      8  C6  PXY d   1      -0.639   0.899   2.112  0.00  0.00     0.003 A 
ENDROOT
TORSDOF 0
ENDMDL
