MODEL 1
REMARK minimizedAffinity -0.0822323486
REMARK minimizedRMSD -1
REMARK  0 active torsions:
REMARK  status: ('A' for Active; 'I' for Inactive)
ROOT
ATOM      1  C4' PXY d   1       2.644   2.374   1.232  0.00  0.00     0.077 C 
ATOM      2  C1' PXY d   1      -2.090  -0.448   2.975  0.00  0.00     0.077 C 
ATOM      3  C1  PXY d   1      -0.853   0.303   2.523  0.00  0.00    -0.082 A 
ATOM      4  C2  PXY d   1      -0.154  -0.147   1.493  0.00  0.00     0.003 A 
ATOM      5  C3  PXY d   1       0.985   0.502   1.092  0.00  0.00     0.003 A 
ATOM      6  C4  PXY d   1       1.383   1.654   1.717  0.00  0.00    -0.082 A 
ATOM      7  C5  PXY d   1       0.669   2.125   2.761  0.00  0.00     0.003 A 
ATOM      8  C6  PXY d   1      -0.461   1.428   3.179  0.00  0.00     0.003 A 
ENDROOT
TORSDOF 0
ENDMDL
