MODEL 1
REMARK minimizedAffinity -3.57597041
REMARK minimizedRMSD -1
REMARK  0 active torsions:
REMARK  status: ('A' for Active; 'I' for Inactive)
ROOT
ATOM      1  C4' PXY d   1       1.627   1.340   2.504  0.00  0.00     0.077 C 
ATOM      2  C1' PXY d   1      -2.943  -1.087  -0.073  0.00  0.00     0.077 C 
ATOM      3  C1  PXY d   1      -1.753  -0.443   0.610  0.00  0.00    -0.082 A 
ATOM      4  C2  PXY d   1      -0.591  -0.383  -0.020  0.00  0.00     0.003 A 
ATOM      5  C3  PXY d   1       0.504   0.167   0.596  0.00  0.00     0.003 A 
ATOM      6  C4  PXY d   1       0.395   0.708   1.849  0.00  0.00    -0.082 A 
ATOM      7  C5  PXY d   1      -0.789   0.660   2.494  0.00  0.00     0.003 A 
ATOM      8  C6  PXY d   1      -1.878   0.061   1.868  0.00  0.00     0.003 A 
ENDROOT
TORSDOF 0
ENDMDL
