MODEL 1
REMARK minimizedAffinity 1.22639656
REMARK minimizedRMSD -1
REMARK  0 active torsions:
REMARK  status: ('A' for Active; 'I' for Inactive)
ROOT
ATOM      1  C4' PXY d   1       3.246   1.988   2.154  0.00  0.00     0.077 C 
ATOM      2  C1' PXY d   1      -1.648  -0.380   0.192  0.00  0.00     0.077 C 
ATOM      3  C1  PXY d   1      -0.365   0.251   0.697  0.00  0.00    -0.082 A 
ATOM      4  C2  PXY d   1       0.525  -0.496   1.330  0.00  0.00     0.003 A 
ATOM      5  C3  PXY d   1       1.676   0.065   1.822  0.00  0.00     0.003 A 
ATOM      6  C4  PXY d   1       1.942   1.392   1.618  0.00  0.00    -0.082 A 
ATOM      7  C5  PXY d   1       1.043   2.158   0.964  0.00  0.00     0.003 A 
ATOM      8  C6  PXY d   1      -0.138   1.579   0.509  0.00  0.00     0.003 A 
ENDROOT
TORSDOF 0
ENDMDL
