MODEL 1
REMARK minimizedAffinity 0.053265769
REMARK minimizedRMSD -1
REMARK  0 active torsions:
REMARK  status: ('A' for Active; 'I' for Inactive)
ROOT
ATOM      1  C4' PXY d   1      -2.885  -1.504   0.032  0.00  0.00     0.077 C 
ATOM      2  C1' PXY d   1       0.471   2.361   2.717  0.00  0.00     0.077 C 
ATOM      3  C1  PXY d   1      -0.407   1.354   2.001  0.00  0.00    -0.082 A 
ATOM      4  C2  PXY d   1      -1.287   0.646   2.692  0.00  0.00     0.003 A 
ATOM      5  C3  PXY d   1      -2.067  -0.291   2.066  0.00  0.00     0.003 A 
ATOM      6  C4  PXY d   1      -1.984  -0.469   0.711  0.00  0.00    -0.082 A 
ATOM      7  C5  PXY d   1      -1.096   0.256  -0.002  0.00  0.00     0.003 A 
ATOM      8  C6  PXY d   1      -0.284   1.174   0.658  0.00  0.00     0.003 A 
ENDROOT
TORSDOF 0
ENDMDL
