MODEL 1
REMARK minimizedAffinity -0.4369497
REMARK minimizedRMSD -1
REMARK  0 active torsions:
REMARK  status: ('A' for Active; 'I' for Inactive)
ROOT
ATOM      1  C4' PXY d   1       1.407   1.336   2.380  0.00  0.00     0.077 C 
ATOM      2  C1' PXY d   1      -3.269  -0.980  -0.106  0.00  0.00     0.077 C 
ATOM      3  C1  PXY d   1      -2.050  -0.369   0.556  0.00  0.00    -0.082 A 
ATOM      4  C2  PXY d   1      -1.020   0.002  -0.186  0.00  0.00     0.003 A 
ATOM      5  C3  PXY d   1       0.103   0.527   0.399  0.00  0.00     0.003 A 
ATOM      6  C4  PXY d   1       0.152   0.723   1.754  0.00  0.00    -0.082 A 
ATOM      7  C5  PXY d   1      -0.900   0.357   2.517  0.00  0.00     0.003 A 
ATOM      8  C6  PXY d   1      -2.014  -0.212   1.907  0.00  0.00     0.003 A 
ENDROOT
TORSDOF 0
ENDMDL
