MODEL 1
REMARK minimizedAffinity 0.582692564
REMARK minimizedRMSD -1
REMARK  0 active torsions:
REMARK  status: ('A' for Active; 'I' for Inactive)
ROOT
ATOM      1  C4' PXY d   1       2.638   1.383   1.062  0.00  0.00     0.077 C 
ATOM      2  C1' PXY d   1      -2.908  -0.168   1.557  0.00  0.00     0.077 C 
ATOM      3  C1  PXY d   1      -1.455   0.247   1.437  0.00  0.00    -0.082 A 
ATOM      4  C2  PXY d   1      -0.821   0.082   0.288  0.00  0.00     0.003 A 
ATOM      5  C3  PXY d   1       0.503   0.423   0.171  0.00  0.00     0.003 A 
ATOM      6  C4  PXY d   1       1.168   0.987   1.226  0.00  0.00    -0.082 A 
ATOM      7  C5  PXY d   1       0.525   1.168   2.399  0.00  0.00     0.003 A 
ATOM      8  C6  PXY d   1      -0.807   0.778   2.509  0.00  0.00     0.003 A 
ENDROOT
TORSDOF 0
ENDMDL
