MODEL 1
REMARK minimizedAffinity 2.4661355
REMARK minimizedRMSD -1
REMARK  0 active torsions:
REMARK  status: ('A' for Active; 'I' for Inactive)
ROOT
ATOM      1  C4' PXY d   1      -0.016  -1.328   4.282  0.00  0.00     0.077 C 
ATOM      2  C1' PXY d   1      -1.258   0.759  -0.964  0.00  0.00     0.077 C 
ATOM      3  C1  PXY d   1      -0.943   0.217   0.416  0.00  0.00    -0.082 A 
ATOM      4  C2  PXY d   1       0.316   0.021   0.771  0.00  0.00     0.003 A 
ATOM      5  C3  PXY d   1       0.617  -0.499   2.004  0.00  0.00     0.003 A 
ATOM      6  C4  PXY d   1      -0.379  -0.773   2.902  0.00  0.00    -0.082 A 
ATOM      7  C5  PXY d   1      -1.667  -0.566   2.551  0.00  0.00     0.003 A 
ATOM      8  C6  PXY d   1      -1.953  -0.076   1.281  0.00  0.00     0.003 A 
ENDROOT
TORSDOF 0
ENDMDL
