MODEL 1
REMARK minimizedAffinity -4.08282375
REMARK minimizedRMSD -1
REMARK  0 active torsions:
REMARK  status: ('A' for Active; 'I' for Inactive)
ROOT
ATOM      1  C1  BNZ d   1       0.313   1.111   0.993  0.00  0.00     0.000 A 
ATOM      2  C2  BNZ d   1       0.931   0.468  -0.046  0.00  0.00     0.000 A 
ATOM      3  C3  BNZ d   1       0.522  -0.775  -0.442  0.00  0.00     0.000 A 
ATOM      4  C4  BNZ d   1      -0.474  -1.389   0.228  0.00  0.00     0.000 A 
ATOM      5  C5  BNZ d   1      -1.100  -0.758   1.284  0.00  0.00     0.000 A 
ATOM      6  C6  BNZ d   1      -0.712   0.509   1.654  0.00  0.00     0.000 A 
ENDROOT
TORSDOF 0
ENDMDL
