MODEL 1
REMARK minimizedAffinity -4.01168537
REMARK minimizedRMSD -1
REMARK  0 active torsions:
REMARK  status: ('A' for Active; 'I' for Inactive)
ROOT
ATOM      1  C1  BNZ d   1       1.935  -0.401  -0.417  0.00  0.00     0.000 A 
ATOM      2  C2  BNZ d   1       1.731   0.896  -0.030  0.00  0.00     0.000 A 
ATOM      3  C3  BNZ d   1       0.488   1.330   0.339  0.00  0.00     0.000 A 
ATOM      4  C4  BNZ d   1      -0.555   0.478   0.281  0.00  0.00     0.000 A 
ATOM      5  C5  BNZ d   1      -0.368  -0.831  -0.116  0.00  0.00     0.000 A 
ATOM      6  C6  BNZ d   1       0.892  -1.275  -0.449  0.00  0.00     0.000 A 
ENDROOT
TORSDOF 0
ENDMDL
