MODEL 1
REMARK minimizedAffinity -4.20072317
REMARK minimizedRMSD -1
REMARK  0 active torsions:
REMARK  status: ('A' for Active; 'I' for Inactive)
ROOT
ATOM      1  C1  BNZ d   1       1.172   1.604   0.760  0.00  0.00     0.000 A 
ATOM      2  C2  BNZ d   1       0.438   0.668   0.082  0.00  0.00     0.000 A 
ATOM      3  C3  BNZ d   1      -0.563  -0.024   0.706  0.00  0.00     0.000 A 
ATOM      4  C4  BNZ d   1      -0.801   0.193   2.015  0.00  0.00     0.000 A 
ATOM      5  C5  BNZ d   1      -0.064   1.126   2.715  0.00  0.00     0.000 A 
ATOM      6  C6  BNZ d   1       0.917   1.848   2.074  0.00  0.00     0.000 A 
ENDROOT
TORSDOF 0
ENDMDL
