MODEL 1
REMARK minimizedAffinity -1.92252707
REMARK minimizedRMSD -1
REMARK  0 active torsions:
REMARK  status: ('A' for Active; 'I' for Inactive)
ROOT
ATOM      1  C1  BNZ d   1      -0.621  -0.130   0.264  0.00  0.00     0.000 A 
ATOM      2  C2  BNZ d   1      -0.856   0.705   1.324  0.00  0.00     0.000 A 
ATOM      3  C3  BNZ d   1       0.102   1.582   1.750  0.00  0.00     0.000 A 
ATOM      4  C4  BNZ d   1       1.306   1.596   1.142  0.00  0.00     0.000 A 
ATOM      5  C5  BNZ d   1       1.561   0.754   0.078  0.00  0.00     0.000 A 
ATOM      6  C6  BNZ d   1       0.582  -0.100  -0.373  0.00  0.00     0.000 A 
ENDROOT
TORSDOF 0
ENDMDL
