MODEL 1
REMARK minimizedAffinity -3.29125762
REMARK minimizedRMSD -1
REMARK  0 active torsions:
REMARK  status: ('A' for Active; 'I' for Inactive)
ROOT
ATOM      1  C1  BNZ d   1      -2.750  -2.583  -1.919  0.00  0.00     0.000 A 
ATOM      2  C2  BNZ d   1      -1.960  -2.315  -0.834  0.00  0.00     0.000 A 
ATOM      3  C3  BNZ d   1      -0.856  -1.518  -0.951  0.00  0.00     0.000 A 
ATOM      4  C4  BNZ d   1      -0.521  -1.023  -2.160  0.00  0.00     0.000 A 
ATOM      5  C5  BNZ d   1      -1.303  -1.291  -3.266  0.00  0.00     0.000 A 
ATOM      6  C6  BNZ d   1      -2.435  -2.062  -3.136  0.00  0.00     0.000 A 
ENDROOT
TORSDOF 0
ENDMDL
