MODEL 1
REMARK minimizedAffinity -1.71881795
REMARK minimizedRMSD -1
REMARK  0 active torsions:
REMARK  status: ('A' for Active; 'I' for Inactive)
ROOT
ATOM      1  C1  BNZ d   1       1.845   0.295  -0.683  0.00  0.00     0.000 A 
ATOM      2  C2  BNZ d   1       1.503  -0.934  -1.181  0.00  0.00     0.000 A 
ATOM      3  C3  BNZ d   1       0.290  -1.493  -0.893  0.00  0.00     0.000 A 
ATOM      4  C4  BNZ d   1      -0.563  -0.842  -0.075  0.00  0.00     0.000 A 
ATOM      5  C5  BNZ d   1      -0.229   0.394   0.442  0.00  0.00     0.000 A 
ATOM      6  C6  BNZ d   1       0.978   0.971   0.119  0.00  0.00     0.000 A 
ENDROOT
TORSDOF 0
ENDMDL
