MODEL 1
REMARK minimizedAffinity -4.97319841
REMARK minimizedRMSD -1
REMARK  0 active torsions:
REMARK  status: ('A' for Active; 'I' for Inactive)
ROOT
ATOM      1  C1  BNZ d   1      -0.912   0.705   1.883  0.00  0.00     0.000 A 
ATOM      2  C2  BNZ d   1      -0.625   0.192   0.646  0.00  0.00     0.000 A 
ATOM      3  C3  BNZ d   1       0.298   0.794  -0.164  0.00  0.00     0.000 A 
ATOM      4  C4  BNZ d   1       0.901   1.928   0.247  0.00  0.00     0.000 A 
ATOM      5  C5  BNZ d   1       0.615   2.462   1.487  0.00  0.00     0.000 A 
ATOM      6  C6  BNZ d   1      -0.285   1.832   2.316  0.00  0.00     0.000 A 
ENDROOT
TORSDOF 0
ENDMDL
