MODEL 1
REMARK minimizedAffinity -3.225389
REMARK minimizedRMSD -1
REMARK  0 active torsions:
REMARK  status: ('A' for Active; 'I' for Inactive)
ROOT
ATOM      1  C1  BNZ d   1      -0.341   0.049   1.169  0.00  0.00     0.000 A 
ATOM      2  C2  BNZ d   1       0.392   1.204   1.249  0.00  0.00     0.000 A 
ATOM      3  C3  BNZ d   1       1.101   1.658   0.172  0.00  0.00     0.000 A 
ATOM      4  C4  BNZ d   1       1.108   0.939  -0.968  0.00  0.00     0.000 A 
ATOM      5  C5  BNZ d   1       0.382  -0.232  -1.061  0.00  0.00     0.000 A 
ATOM      6  C6  BNZ d   1      -0.361  -0.666   0.012  0.00  0.00     0.000 A 
ENDROOT
TORSDOF 0
ENDMDL
