MODEL 1
REMARK minimizedAffinity -5.02171564
REMARK minimizedRMSD -1
REMARK  0 active torsions:
REMARK  status: ('A' for Active; 'I' for Inactive)
ROOT
ATOM      1  C1  BNZ d   1       1.364   2.401   1.304  0.00  0.00     0.000 A 
ATOM      2  C2  BNZ d   1       1.754   1.617   0.251  0.00  0.00     0.000 A 
ATOM      3  C3  BNZ d   1       0.932   0.640  -0.237  0.00  0.00     0.000 A 
ATOM      4  C4  BNZ d   1      -0.260   0.420   0.354  0.00  0.00     0.000 A 
ATOM      5  C5  BNZ d   1      -0.664   1.196   1.423  0.00  0.00     0.000 A 
ATOM      6  C6  BNZ d   1       0.150   2.205   1.886  0.00  0.00     0.000 A 
ENDROOT
TORSDOF 0
ENDMDL
