MODEL 1
REMARK minimizedAffinity -4.89162922
REMARK minimizedRMSD -1
REMARK  0 active torsions:
REMARK  status: ('A' for Active; 'I' for Inactive)
ROOT
ATOM      1  C1  BNZ d   1       1.409  -0.030  -0.033  0.00  0.00     0.000 A 
ATOM      2  C2  BNZ d   1       2.302   0.939   0.340  0.00  0.00     0.000 A 
ATOM      3  C3  BNZ d   1       1.919   1.969   1.153  0.00  0.00     0.000 A 
ATOM      4  C4  BNZ d   1       0.635   2.050   1.559  0.00  0.00     0.000 A 
ATOM      5  C5  BNZ d   1      -0.279   1.086   1.185  0.00  0.00     0.000 A 
ATOM      6  C6  BNZ d   1       0.120   0.030   0.398  0.00  0.00     0.000 A 
ENDROOT
TORSDOF 0
ENDMDL
