MODEL 1
REMARK minimizedAffinity -3.57210898
REMARK minimizedRMSD -1
REMARK  0 active torsions:
REMARK  status: ('A' for Active; 'I' for Inactive)
ROOT
ATOM      1  C1  BNZ d   1      -0.618   0.811   2.124  0.00  0.00     0.000 A 
ATOM      2  C2  BNZ d   1      -0.501   0.560   0.783  0.00  0.00     0.000 A 
ATOM      3  C3  BNZ d   1       0.274   1.356  -0.013  0.00  0.00     0.000 A 
ATOM      4  C4  BNZ d   1       0.898   2.424   0.524  0.00  0.00     0.000 A 
ATOM      5  C5  BNZ d   1       0.782   2.696   1.873  0.00  0.00     0.000 A 
ATOM      6  C6  BNZ d   1       0.032   1.870   2.679  0.00  0.00     0.000 A 
ENDROOT
TORSDOF 0
ENDMDL
