MODEL 1
REMARK minimizedAffinity -3.07591391
REMARK minimizedRMSD -1
REMARK  0 active torsions:
REMARK  status: ('A' for Active; 'I' for Inactive)
ROOT
ATOM      1  C1  BNZ d   1       1.246   1.211  -0.667  0.00  0.00     0.000 A 
ATOM      2  C2  BNZ d   1       1.558   2.301   0.101  0.00  0.00     0.000 A 
ATOM      3  C3  BNZ d   1       0.970   2.490   1.321  0.00  0.00     0.000 A 
ATOM      4  C4  BNZ d   1       0.043   1.612   1.753  0.00  0.00     0.000 A 
ATOM      5  C5  BNZ d   1      -0.290   0.513   0.986  0.00  0.00     0.000 A 
ATOM      6  C6  BNZ d   1       0.332   0.305  -0.224  0.00  0.00     0.000 A 
ENDROOT
TORSDOF 0
ENDMDL
