MODEL 1
REMARK minimizedAffinity -4.63831997
REMARK minimizedRMSD -1
REMARK  0 active torsions:
REMARK  status: ('A' for Active; 'I' for Inactive)
ROOT
ATOM      1  C1  BNZ d   1      -0.993   0.759   1.462  0.00  0.00     0.000 A 
ATOM      2  C2  BNZ d   1      -0.206   1.846   1.735  0.00  0.00     0.000 A 
ATOM      3  C3  BNZ d   1       0.845   2.170   0.924  0.00  0.00     0.000 A 
ATOM      4  C4  BNZ d   1       1.134   1.385  -0.134  0.00  0.00     0.000 A 
ATOM      5  C5  BNZ d   1       0.356   0.280  -0.417  0.00  0.00     0.000 A 
ATOM      6  C6  BNZ d   1      -0.725  -0.021   0.379  0.00  0.00     0.000 A 
ENDROOT
TORSDOF 0
ENDMDL
