MODEL 1
REMARK minimizedAffinity -4.11544371
REMARK minimizedRMSD -1
REMARK  0 active torsions:
REMARK  status: ('A' for Active; 'I' for Inactive)
ROOT
ATOM      1  C1  BNZ d   1      -0.029   0.283   0.293  0.00  0.00     0.000 A 
ATOM      2  C2  BNZ d   1       1.173   0.728  -0.188  0.00  0.00     0.000 A 
ATOM      3  C3  BNZ d   1       1.891   1.675   0.488  0.00  0.00     0.000 A 
ATOM      4  C4  BNZ d   1       1.387   2.204   1.622  0.00  0.00     0.000 A 
ATOM      5  C5  BNZ d   1       0.172   1.772   2.115  0.00  0.00     0.000 A 
ATOM      6  C6  BNZ d   1      -0.529   0.791   1.453  0.00  0.00     0.000 A 
ENDROOT
TORSDOF 0
ENDMDL
