MODEL 1
REMARK minimizedAffinity -5.83010244
REMARK minimizedRMSD -1
REMARK  0 active torsions:
REMARK  status: ('A' for Active; 'I' for Inactive)
ROOT
ATOM      1  C   UNL d   1      -2.101  -0.439  -2.090  0.00  0.00    -0.002 A 
ATOM      2  C1  UNL d   1      -0.905  -0.008  -2.647  0.00  0.00     0.010 A 
ATOM      3  C2  UNL d   1       0.292  -0.130  -1.939  0.00  0.00     0.041 A 
ATOM      4  C3  UNL d   1       0.267  -0.700  -0.651  0.00  0.00    -0.075 A 
ATOM      5  S   UNL d   1       1.610  -0.951   0.401  0.00  0.00     0.015 SA
ATOM      6  C4  UNL d   1       0.628  -1.637   1.613  0.00  0.00     0.022 A 
ATOM      7  C5  UNL d   1      -0.695  -1.681   1.242  0.00  0.00     0.026 A 
ATOM      8  C6  UNL d   1      -0.925  -1.142  -0.069  0.00  0.00    -0.082 A 
ATOM      9  C7  UNL d   1      -2.122  -1.004  -0.812  0.00  0.00     0.045 A 
ENDROOT
TORSDOF 0
ENDMDL
