MODEL 1
REMARK minimizedAffinity -0.554175735
REMARK minimizedRMSD -1
REMARK  0 active torsions:
REMARK  status: ('A' for Active; 'I' for Inactive)
ROOT
ATOM      1  C   UNL d   1      -2.842  -0.191  -1.381  0.00  0.00    -0.002 A 
ATOM      2  C1  UNL d   1      -2.773  -1.353  -0.624  0.00  0.00     0.010 A 
ATOM      3  C2  UNL d   1      -1.645  -1.631   0.150  0.00  0.00     0.041 A 
ATOM      4  C3  UNL d   1      -0.577  -0.712   0.153  0.00  0.00    -0.075 A 
ATOM      5  S   UNL d   1       0.904  -0.842   1.025  0.00  0.00     0.015 SA
ATOM      6  C4  UNL d   1       1.481   0.641   0.415  0.00  0.00     0.022 A 
ATOM      7  C5  UNL d   1       0.578   1.235  -0.436  0.00  0.00     0.026 A 
ATOM      8  C6  UNL d   1      -0.623   0.465  -0.600  0.00  0.00    -0.082 A 
ATOM      9  C7  UNL d   1      -1.780   0.718  -1.376  0.00  0.00     0.045 A 
ENDROOT
TORSDOF 0
ENDMDL
