MODEL 1
REMARK minimizedAffinity -1.76933658
REMARK minimizedRMSD -1
REMARK  0 active torsions:
REMARK  status: ('A' for Active; 'I' for Inactive)
ROOT
ATOM      1  C   UNL d   1       0.771   0.692   0.777  0.00  0.00    -0.002 A 
ATOM      2  C1  UNL d   1       1.051   0.417  -0.554  0.00  0.00     0.010 A 
ATOM      3  C2  UNL d   1       0.113  -0.234  -1.357  0.00  0.00     0.041 A 
ATOM      4  C3  UNL d   1      -1.124  -0.606  -0.795  0.00  0.00    -0.075 A 
ATOM      5  S   UNL d   1      -2.426  -1.412  -1.588  0.00  0.00     0.015 SA
ATOM      6  C4  UNL d   1      -3.384  -1.409  -0.178  0.00  0.00     0.022 A 
ATOM      7  C5  UNL d   1      -2.742  -0.812   0.881  0.00  0.00     0.026 A 
ATOM      8  C6  UNL d   1      -1.429  -0.339   0.543  0.00  0.00    -0.082 A 
ATOM      9  C7  UNL d   1      -0.457   0.322   1.331  0.00  0.00     0.045 A 
ENDROOT
TORSDOF 0
ENDMDL
