MODEL 1
REMARK minimizedAffinity -1.18978894
REMARK minimizedRMSD -1
REMARK  0 active torsions:
REMARK  status: ('A' for Active; 'I' for Inactive)
ROOT
ATOM      1  C   UNL d   1      -1.443  -0.516  -2.942  0.00  0.00    -0.002 A 
ATOM      2  C1  UNL d   1      -2.311  -1.414  -2.336  0.00  0.00     0.010 A 
ATOM      3  C2  UNL d   1      -2.135  -1.780  -1.000  0.00  0.00     0.041 A 
ATOM      4  C3  UNL d   1      -1.062  -1.223  -0.276  0.00  0.00    -0.075 A 
ATOM      5  S   UNL d   1      -0.652  -1.524   1.371  0.00  0.00     0.015 SA
ATOM      6  C4  UNL d   1       0.684  -0.468   1.309  0.00  0.00     0.022 A 
ATOM      7  C5  UNL d   1       0.828   0.109   0.069  0.00  0.00     0.026 A 
ATOM      8  C6  UNL d   1      -0.176  -0.316  -0.865  0.00  0.00    -0.082 A 
ATOM      9  C7  UNL d   1      -0.381   0.035  -2.221  0.00  0.00     0.045 A 
ENDROOT
TORSDOF 0
ENDMDL
