MODEL 1
REMARK minimizedAffinity -0.731372476
REMARK minimizedRMSD -1
REMARK  0 active torsions:
REMARK  status: ('A' for Active; 'I' for Inactive)
ROOT
ATOM      1  C   UNL d   1      -0.377   1.011   0.085  0.00  0.00    -0.002 A 
ATOM      2  C1  UNL d   1       0.072   0.838  -1.217  0.00  0.00     0.010 A 
ATOM      3  C2  UNL d   1      -0.436  -0.190  -2.013  0.00  0.00     0.041 A 
ATOM      4  C3  UNL d   1      -1.415  -1.049  -1.474  0.00  0.00    -0.075 A 
ATOM      5  S   UNL d   1      -2.182  -2.376  -2.263  0.00  0.00     0.015 SA
ATOM      6  C4  UNL d   1      -3.124  -2.744  -0.891  0.00  0.00     0.022 A 
ATOM      7  C5  UNL d   1      -2.872  -1.886   0.152  0.00  0.00     0.026 A 
ATOM      8  C6  UNL d   1      -1.883  -0.894  -0.166  0.00  0.00    -0.082 A 
ATOM      9  C7  UNL d   1      -1.347   0.157   0.616  0.00  0.00     0.045 A 
ENDROOT
TORSDOF 0
ENDMDL
