MODEL 1
REMARK minimizedAffinity -4.55754375
REMARK minimizedRMSD -1
REMARK  0 active torsions:
REMARK  status: ('A' for Active; 'I' for Inactive)
ROOT
ATOM      1  C   UNL d   1      -2.346  -2.358  -3.468  0.00  0.00    -0.002 A 
ATOM      2  C1  UNL d   1      -2.513  -3.575  -2.822  0.00  0.00     0.010 A 
ATOM      3  C2  UNL d   1      -2.460  -3.652  -1.429  0.00  0.00     0.041 A 
ATOM      4  C3  UNL d   1      -2.237  -2.475  -0.688  0.00  0.00    -0.075 A 
ATOM      5  S   UNL d   1      -2.134  -2.329   1.026  0.00  0.00     0.015 SA
ATOM      6  C4  UNL d   1      -1.866  -0.648   0.942  0.00  0.00     0.022 A 
ATOM      7  C5  UNL d   1      -1.853  -0.192  -0.355  0.00  0.00     0.026 A 
ATOM      8  C6  UNL d   1      -2.066  -1.238  -1.316  0.00  0.00    -0.082 A 
ATOM      9  C7  UNL d   1      -2.124  -1.192  -2.730  0.00  0.00     0.045 A 
ENDROOT
TORSDOF 0
ENDMDL
