MODEL 1
REMARK minimizedAffinity -4.59234095
REMARK minimizedRMSD -1
REMARK  0 active torsions:
REMARK  status: ('A' for Active; 'I' for Inactive)
ROOT
ATOM      1  C   UNL d   1       2.343   3.604   0.529  0.00  0.00    -0.002 A 
ATOM      2  C1  UNL d   1       2.938   2.598   1.277  0.00  0.00     0.010 A 
ATOM      3  C2  UNL d   1       2.333   1.344   1.390  0.00  0.00     0.041 A 
ATOM      4  C3  UNL d   1       1.109   1.116   0.730  0.00  0.00    -0.075 A 
ATOM      5  S   UNL d   1       0.187  -0.340   0.726  0.00  0.00     0.015 SA
ATOM      6  C4  UNL d   1      -1.019   0.339  -0.270  0.00  0.00     0.022 A 
ATOM      7  C5  UNL d   1      -0.740   1.644  -0.600  0.00  0.00     0.026 A 
ATOM      8  C6  UNL d   1       0.491   2.113  -0.030  0.00  0.00    -0.082 A 
ATOM      9  C7  UNL d   1       1.129   3.374  -0.124  0.00  0.00     0.045 A 
ENDROOT
TORSDOF 0
ENDMDL
