MODEL 1
REMARK minimizedAffinity -0.937480748
REMARK minimizedRMSD -1
REMARK  0 active torsions:
REMARK  status: ('A' for Active; 'I' for Inactive)
ROOT
ATOM      1  C   UNL d   1      -3.383  -0.921  -0.424  0.00  0.00    -0.002 A 
ATOM      2  C1  UNL d   1      -2.623  -1.081  -1.574  0.00  0.00     0.010 A 
ATOM      3  C2  UNL d   1      -1.284  -0.685  -1.601  0.00  0.00     0.041 A 
ATOM      4  C3  UNL d   1      -0.716  -0.122  -0.442  0.00  0.00    -0.075 A 
ATOM      5  S   UNL d   1       0.904   0.434  -0.242  0.00  0.00     0.015 SA
ATOM      6  C4  UNL d   1       0.625   0.896   1.374  0.00  0.00     0.022 A 
ATOM      7  C5  UNL d   1      -0.667   0.640   1.769  0.00  0.00     0.026 A 
ATOM      8  C6  UNL d   1      -1.461   0.049   0.729  0.00  0.00    -0.082 A 
ATOM      9  C7  UNL d   1      -2.816  -0.362   0.724  0.00  0.00     0.045 A 
ENDROOT
TORSDOF 0
ENDMDL
