MODEL 1
REMARK minimizedAffinity 0.199678376
REMARK minimizedRMSD -1
REMARK  0 active torsions:
REMARK  status: ('A' for Active; 'I' for Inactive)
ROOT
ATOM      1  C   UNL d   1      -1.432  -0.482  -2.750  0.00  0.00    -0.002 A 
ATOM      2  C1  UNL d   1      -0.148   0.043  -2.720  0.00  0.00     0.010 A 
ATOM      3  C2  UNL d   1       0.544   0.160  -1.513  0.00  0.00     0.041 A 
ATOM      4  C3  UNL d   1      -0.081  -0.267  -0.325  0.00  0.00    -0.075 A 
ATOM      5  S   UNL d   1       0.575  -0.221   1.269  0.00  0.00     0.015 SA
ATOM      6  C4  UNL d   1      -0.834  -0.900   1.948  0.00  0.00     0.022 A 
ATOM      7  C5  UNL d   1      -1.791  -1.160   0.996  0.00  0.00     0.026 A 
ATOM      8  C6  UNL d   1      -1.373  -0.801  -0.329  0.00  0.00    -0.082 A 
ATOM      9  C7  UNL d   1      -2.049  -0.905  -1.569  0.00  0.00     0.045 A 
ENDROOT
TORSDOF 0
ENDMDL
