MODEL 1
REMARK minimizedAffinity 0.0194349978
REMARK minimizedRMSD -1
REMARK  0 active torsions:
REMARK  status: ('A' for Active; 'I' for Inactive)
ROOT
ATOM      1  C   UNL d   1      -2.607  -2.782  -3.033  0.00  0.00    -0.002 A 
ATOM      2  C1  UNL d   1      -3.054  -2.778  -1.719  0.00  0.00     0.010 A 
ATOM      3  C2  UNL d   1      -2.449  -1.958  -0.765  0.00  0.00     0.041 A 
ATOM      4  C3  UNL d   1      -1.378  -1.132  -1.157  0.00  0.00    -0.075 A 
ATOM      5  S   UNL d   1      -0.485  -0.044  -0.161  0.00  0.00     0.015 SA
ATOM      6  C4  UNL d   1       0.511   0.442  -1.456  0.00  0.00     0.022 A 
ATOM      7  C5  UNL d   1       0.184  -0.200  -2.627  0.00  0.00     0.026 A 
ATOM      8  C6  UNL d   1      -0.910  -1.117  -2.475  0.00  0.00    -0.082 A 
ATOM      9  C7  UNL d   1      -1.544  -1.961  -3.418  0.00  0.00     0.045 A 
ENDROOT
TORSDOF 0
ENDMDL
