MODEL 1
REMARK minimizedAffinity 12.2046471
REMARK minimizedRMSD -1
REMARK  0 active torsions:
REMARK  status: ('A' for Active; 'I' for Inactive)
ROOT
ATOM      1  C2' OXE d   1       0.800  -0.760   1.629  0.00  0.00     0.078 C 
ATOM      2  C1' OXE d   1       3.346   0.405   1.827  0.00  0.00     0.078 C 
ATOM      3  C1  OXE d   1       2.990  -0.680   2.813  0.00  0.00    -0.078 A 
ATOM      4  C2  OXE d   1       1.725  -1.212   2.738  0.00  0.00    -0.078 A 
ATOM      5  C3  OXE d   1       1.364  -2.253   3.588  0.00  0.00     0.003 A 
ATOM      6  C4  OXE d   1       2.222  -2.658   4.617  0.00  0.00    -0.002 A 
ATOM      7  C5  OXE d   1       3.500  -2.102   4.736  0.00  0.00    -0.002 A 
ATOM      8  C6  OXE d   1       3.915  -1.144   3.818  0.00  0.00     0.003 A 
ENDROOT
TORSDOF 0
ENDMDL
