MODEL 1
REMARK minimizedAffinity 7.78039217
REMARK minimizedRMSD -1
REMARK  0 active torsions:
REMARK  status: ('A' for Active; 'I' for Inactive)
ROOT
ATOM      1  C2' OXE d   1       4.119  -2.142   5.137  0.00  0.00     0.078 C 
ATOM      2  C1' OXE d   1       1.528  -3.115   4.672  0.00  0.00     0.078 C 
ATOM      3  C1  OXE d   1       2.017  -1.977   3.811  0.00  0.00    -0.078 A 
ATOM      4  C2  OXE d   1       3.269  -1.477   4.077  0.00  0.00    -0.078 A 
ATOM      5  C3  OXE d   1       3.790  -0.464   3.277  0.00  0.00     0.003 A 
ATOM      6  C4  OXE d   1       2.993   0.153   2.305  0.00  0.00    -0.002 A 
ATOM      7  C5  OXE d   1       1.701  -0.316   2.045  0.00  0.00    -0.002 A 
ATOM      8  C6  OXE d   1       1.214  -1.405   2.758  0.00  0.00     0.003 A 
ENDROOT
TORSDOF 0
ENDMDL
