MODEL 1
REMARK minimizedAffinity 15.0221214
REMARK minimizedRMSD -1
REMARK  0 active torsions:
REMARK  status: ('A' for Active; 'I' for Inactive)
ROOT
ATOM      1  C2' OXE d   1       1.311  -2.736  -0.584  0.00  0.00     0.078 C 
ATOM      2  C1' OXE d   1       2.372  -4.614   1.212  0.00  0.00     0.078 C 
ATOM      3  C1  OXE d   1       2.027  -3.247   1.747  0.00  0.00    -0.078 A 
ATOM      4  C2  OXE d   1       1.552  -2.319   0.851  0.00  0.00    -0.078 A 
ATOM      5  C3  OXE d   1       1.166  -1.060   1.302  0.00  0.00     0.003 A 
ATOM      6  C4  OXE d   1       1.402  -0.680   2.629  0.00  0.00    -0.002 A 
ATOM      7  C5  OXE d   1       1.921  -1.597   3.549  0.00  0.00    -0.002 A 
ATOM      8  C6  OXE d   1       2.199  -2.895   3.134  0.00  0.00     0.003 A 
ENDROOT
TORSDOF 0
ENDMDL
