MODEL 1
REMARK minimizedAffinity 6.64282799
REMARK minimizedRMSD -1
REMARK  0 active torsions:
REMARK  status: ('A' for Active; 'I' for Inactive)
ROOT
ATOM      1  C2' OXE d   1      -5.993  -0.475  -5.092  0.00  0.00     0.078 C 
ATOM      2  C1' OXE d   1      -5.995  -0.065  -2.315  0.00  0.00     0.078 C 
ATOM      3  C1  OXE d   1      -5.981   1.152  -3.207  0.00  0.00    -0.078 A 
ATOM      4  C2  OXE d   1      -5.933   0.942  -4.564  0.00  0.00    -0.078 A 
ATOM      5  C3  OXE d   1      -5.973   2.029  -5.432  0.00  0.00     0.003 A 
ATOM      6  C4  OXE d   1      -5.907   3.336  -4.934  0.00  0.00    -0.002 A 
ATOM      7  C5  OXE d   1      -5.915   3.572  -3.556  0.00  0.00    -0.002 A 
ATOM      8  C6  OXE d   1      -5.995   2.495  -2.680  0.00  0.00     0.003 A 
ENDROOT
TORSDOF 0
ENDMDL
