MODEL 1
REMARK minimizedAffinity 6.2532835
REMARK minimizedRMSD -1
REMARK  0 active torsions:
REMARK  status: ('A' for Active; 'I' for Inactive)
ROOT
ATOM      1  C2' OXE d   1       4.994  -2.751   5.999  0.00  0.00     0.078 C 
ATOM      2  C1' OXE d   1       5.928  -1.764   3.542  0.00  0.00     0.078 C 
ATOM      3  C1  OXE d   1       4.437  -1.809   3.761  0.00  0.00    -0.078 A 
ATOM      4  C2  OXE d   1       3.987  -2.337   4.948  0.00  0.00    -0.078 A 
ATOM      5  C3  OXE d   1       2.623  -2.351   5.223  0.00  0.00     0.003 A 
ATOM      6  C4  OXE d   1       1.698  -1.975   4.241  0.00  0.00    -0.002 A 
ATOM      7  C5  OXE d   1       2.133  -1.472   3.011  0.00  0.00    -0.002 A 
ATOM      8  C6  OXE d   1       3.497  -1.343   2.772  0.00  0.00     0.003 A 
ENDROOT
TORSDOF 0
ENDMDL
