MODEL 1
REMARK minimizedAffinity 3.52880239
REMARK minimizedRMSD -1
REMARK  0 active torsions:
REMARK  status: ('A' for Active; 'I' for Inactive)
ROOT
ATOM      1  C2' OXE d   1       2.582  -1.378   3.021  0.00  0.00     0.078 C 
ATOM      2  C1' OXE d   1       1.830  -2.897   5.259  0.00  0.00     0.078 C 
ATOM      3  C1  OXE d   1       3.297  -2.605   5.067  0.00  0.00    -0.078 A 
ATOM      4  C2  OXE d   1       3.661  -1.902   3.944  0.00  0.00    -0.078 A 
ATOM      5  C3  OXE d   1       4.995  -1.559   3.747  0.00  0.00     0.003 A 
ATOM      6  C4  OXE d   1       5.988  -2.055   4.601  0.00  0.00    -0.002 A 
ATOM      7  C5  OXE d   1       5.643  -2.808   5.729  0.00  0.00    -0.002 A 
ATOM      8  C6  OXE d   1       4.302  -3.055   5.999  0.00  0.00     0.003 A 
ENDROOT
TORSDOF 0
ENDMDL
