MODEL 1
REMARK minimizedAffinity 15.6137934
REMARK minimizedRMSD -1
REMARK  0 active torsions:
REMARK  status: ('A' for Active; 'I' for Inactive)
ROOT
ATOM      1  C2' OXE d   1       5.937  -2.069   4.074  0.00  0.00     0.078 C 
ATOM      2  C1' OXE d   1       6.000  -0.938   1.506  0.00  0.00     0.078 C 
ATOM      3  C1  OXE d   1       4.653  -1.128   2.158  0.00  0.00    -0.078 A 
ATOM      4  C2  OXE d   1       4.629  -1.725   3.396  0.00  0.00    -0.078 A 
ATOM      5  C3  OXE d   1       3.417  -1.874   4.065  0.00  0.00     0.003 A 
ATOM      6  C4  OXE d   1       2.211  -1.562   3.426  0.00  0.00    -0.002 A 
ATOM      7  C5  OXE d   1       2.211  -0.990   2.150  0.00  0.00    -0.002 A 
ATOM      8  C6  OXE d   1       3.423  -0.727   1.520  0.00  0.00     0.003 A 
ENDROOT
TORSDOF 0
ENDMDL
