MODEL 1
REMARK minimizedAffinity 3.49325323
REMARK minimizedRMSD -1
REMARK  0 active torsions:
REMARK  status: ('A' for Active; 'I' for Inactive)
ROOT
ATOM      1  C2' OXE d   1       4.626   1.997  -4.897  0.00  0.00     0.078 C 
ATOM      2  C1' OXE d   1       4.172   0.468  -2.587  0.00  0.00     0.078 C 
ATOM      3  C1  OXE d   1       4.831  -0.211  -3.762  0.00  0.00    -0.078 A 
ATOM      4  C2  OXE d   1       5.007   0.532  -4.904  0.00  0.00    -0.078 A 
ATOM      5  C3  OXE d   1       5.660  -0.029  -5.998  0.00  0.00     0.003 A 
ATOM      6  C4  OXE d   1       6.000  -1.387  -6.000  0.00  0.00    -0.002 A 
ATOM      7  C5  OXE d   1       5.793  -2.172  -4.861  0.00  0.00    -0.002 A 
ATOM      8  C6  OXE d   1       5.250  -1.590  -3.721  0.00  0.00     0.003 A 
ENDROOT
TORSDOF 0
ENDMDL
