MODEL 1
REMARK minimizedAffinity -2.98560739
REMARK minimizedRMSD -1
REMARK  0 active torsions:
REMARK  status: ('A' for Active; 'I' for Inactive)
ROOT
ATOM      1  C4' PXY d   1      -1.479   3.526   1.825  0.00  0.00     0.077 C 
ATOM      2  C1' PXY d   1       0.912  -1.232  -0.424  0.00  0.00     0.077 C 
ATOM      3  C1  PXY d   1       0.281   0.020   0.154  0.00  0.00    -0.082 A 
ATOM      4  C2  PXY d   1       0.712   0.494   1.312  0.00  0.00     0.003 A 
ATOM      5  C3  PXY d   1       0.131   1.607   1.864  0.00  0.00     0.003 A 
ATOM      6  C4  PXY d   1      -0.865   2.271   1.200  0.00  0.00    -0.082 A 
ATOM      7  C5  PXY d   1      -1.303   1.799   0.013  0.00  0.00     0.003 A 
ATOM      8  C6  PXY d   1      -0.728   0.645  -0.511  0.00  0.00     0.003 A 
ENDROOT
TORSDOF 0
ENDMDL
