MODEL 1
REMARK minimizedAffinity -5.18712616
REMARK minimizedRMSD -1
REMARK  0 active torsions:
REMARK  status: ('A' for Active; 'I' for Inactive)
ROOT
ATOM      1  C4' PXY d   1       0.330  -1.963  -1.111  0.00  0.00     0.077 C 
ATOM      2  C1' PXY d   1      -0.972   2.771   1.940  0.00  0.00     0.077 C 
ATOM      3  C1  PXY d   1      -0.619   1.529   1.146  0.00  0.00    -0.082 A 
ATOM      4  C2  PXY d   1      -1.247   1.279   0.009  0.00  0.00     0.003 A 
ATOM      5  C3  PXY d   1      -0.963   0.144  -0.706  0.00  0.00     0.003 A 
ATOM      6  C4  PXY d   1       0.012  -0.717  -0.280  0.00  0.00    -0.082 A 
ATOM      7  C5  PXY d   1       0.666  -0.463   0.874  0.00  0.00     0.003 A 
ATOM      8  C6  PXY d   1       0.333   0.673   1.606  0.00  0.00     0.003 A 
ENDROOT
TORSDOF 0
ENDMDL
