MODEL 1
REMARK minimizedAffinity -5.38476324
REMARK minimizedRMSD -1
REMARK  0 active torsions:
REMARK  status: ('A' for Active; 'I' for Inactive)
ROOT
ATOM      1  C4' PXY d   1       1.066  -0.742   0.537  0.00  0.00     0.077 C 
ATOM      2  C1' PXY d   1      -1.936   4.101   1.506  0.00  0.00     0.077 C 
ATOM      3  C1  PXY d   1      -1.159   2.826   1.244  0.00  0.00    -0.082 A 
ATOM      4  C2  PXY d   1      -0.215   2.450   2.092  0.00  0.00     0.003 A 
ATOM      5  C3  PXY d   1       0.519   1.317   1.855  0.00  0.00     0.003 A 
ATOM      6  C4  PXY d   1       0.250   0.532   0.765  0.00  0.00    -0.082 A 
ATOM      7  C5  PXY d   1      -0.719   0.904  -0.099  0.00  0.00     0.003 A 
ATOM      8  C6  PXY d   1      -1.425   2.079   0.139  0.00  0.00     0.003 A 
ENDROOT
TORSDOF 0
ENDMDL
