MODEL 1
REMARK minimizedAffinity -2.55862999
REMARK minimizedRMSD -1
REMARK  0 active torsions:
REMARK  status: ('A' for Active; 'I' for Inactive)
ROOT
ATOM      1  C4' PXY d   1       0.778  -2.010  -1.195  0.00  0.00     0.077 C 
ATOM      2  C1' PXY d   1      -0.636   2.526   2.098  0.00  0.00     0.077 C 
ATOM      3  C1  PXY d   1      -0.256   1.333   1.242  0.00  0.00    -0.082 A 
ATOM      4  C2  PXY d   1      -0.557   1.330  -0.046  0.00  0.00     0.003 A 
ATOM      5  C3  PXY d   1      -0.249   0.246  -0.827  0.00  0.00     0.003 A 
ATOM      6  C4  PXY d   1       0.421  -0.823  -0.295  0.00  0.00    -0.082 A 
ATOM      7  C5  PXY d   1       0.741  -0.823   1.016  0.00  0.00     0.003 A 
ATOM      8  C6  PXY d   1       0.383   0.270   1.801  0.00  0.00     0.003 A 
ENDROOT
TORSDOF 0
ENDMDL
