MODEL 1
REMARK minimizedAffinity -4.27353716
REMARK minimizedRMSD -1
REMARK  0 active torsions:
REMARK  status: ('A' for Active; 'I' for Inactive)
ROOT
ATOM      1  C4' PXY d   1       0.263  -1.913  -1.211  0.00  0.00     0.077 C 
ATOM      2  C1' PXY d   1      -1.035   2.763   1.930  0.00  0.00     0.077 C 
ATOM      3  C1  PXY d   1      -0.684   1.535   1.114  0.00  0.00    -0.082 A 
ATOM      4  C2  PXY d   1      -1.127   1.427  -0.128  0.00  0.00     0.003 A 
ATOM      5  C3  PXY d   1      -0.845   0.308  -0.870  0.00  0.00     0.003 A 
ATOM      6  C4  PXY d   1      -0.059  -0.686  -0.353  0.00  0.00    -0.082 A 
ATOM      7  C5  PXY d   1       0.405  -0.579   0.910  0.00  0.00     0.003 A 
ATOM      8  C6  PXY d   1       0.074   0.546   1.661  0.00  0.00     0.003 A 
ENDROOT
TORSDOF 0
ENDMDL
