MODEL 1
REMARK minimizedAffinity 8.75724411
REMARK minimizedRMSD -1
REMARK  0 active torsions:
REMARK  status: ('A' for Active; 'I' for Inactive)
ROOT
ATOM      1  C4' PXY d   1       2.174   3.492   2.364  0.00  0.00     0.077 C 
ATOM      2  C1' PXY d   1      -3.156   1.331   1.790  0.00  0.00     0.077 C 
ATOM      3  C1  PXY d   1      -1.757   1.891   1.952  0.00  0.00    -0.082 A 
ATOM      4  C2  PXY d   1      -1.430   3.020   1.344  0.00  0.00     0.003 A 
ATOM      5  C3  PXY d   1      -0.160   3.524   1.454  0.00  0.00     0.003 A 
ATOM      6  C4  PXY d   1       0.770   2.894   2.236  0.00  0.00    -0.082 A 
ATOM      7  C5  PXY d   1       0.441   1.747   2.868  0.00  0.00     0.003 A 
ATOM      8  C6  PXY d   1      -0.841   1.230   2.711  0.00  0.00     0.003 A 
ENDROOT
TORSDOF 0
ENDMDL
