MODEL 1
REMARK minimizedAffinity -3.51394606
REMARK minimizedRMSD -1
REMARK  0 active torsions:
REMARK  status: ('A' for Active; 'I' for Inactive)
ROOT
ATOM      1  C4' PXY d   1       0.445  -2.379  -1.423  0.00  0.00     0.077 C 
ATOM      2  C1' PXY d   1      -0.104   2.325   1.890  0.00  0.00     0.077 C 
ATOM      3  C1  PXY d   1       0.036   1.098   1.011  0.00  0.00    -0.082 A 
ATOM      4  C2  PXY d   1      -0.029  -0.106   1.554  0.00  0.00     0.003 A 
ATOM      5  C3  PXY d   1       0.128  -1.226   0.778  0.00  0.00     0.003 A 
ATOM      6  C4  PXY d   1       0.299  -1.113  -0.575  0.00  0.00    -0.082 A 
ATOM      7  C5  PXY d   1       0.356   0.113  -1.138  0.00  0.00     0.003 A 
ATOM      8  C6  PXY d   1       0.236   1.238  -0.328  0.00  0.00     0.003 A 
ENDROOT
TORSDOF 0
ENDMDL
