MODEL 1
REMARK minimizedAffinity -4.0581665
REMARK minimizedRMSD -1
REMARK  0 active torsions:
REMARK  status: ('A' for Active; 'I' for Inactive)
ROOT
ATOM      1  C4' PXY d   1       0.710  -1.295  -0.839  0.00  0.00     0.077 C 
ATOM      2  C1' PXY d   1      -1.116   3.540   1.750  0.00  0.00     0.077 C 
ATOM      3  C1  PXY d   1      -0.628   2.270   1.081  0.00  0.00    -0.082 A 
ATOM      4  C2  PXY d   1      -0.780   2.120  -0.225  0.00  0.00     0.003 A 
ATOM      5  C3  PXY d   1      -0.374   0.964  -0.841  0.00  0.00     0.003 A 
ATOM      6  C4  PXY d   1       0.242  -0.026  -0.122  0.00  0.00    -0.082 A 
ATOM      7  C5  PXY d   1       0.409   0.125   1.209  0.00  0.00     0.003 A 
ATOM      8  C6  PXY d   1      -0.047   1.288   1.822  0.00  0.00     0.003 A 
ENDROOT
TORSDOF 0
ENDMDL
