MODEL 1
REMARK minimizedAffinity -5.76355696
REMARK minimizedRMSD -1
REMARK  0 active torsions:
REMARK  status: ('A' for Active; 'I' for Inactive)
ROOT
ATOM      1  C4' PXY d   1       0.659  -1.397  -1.163  0.00  0.00     0.077 C 
ATOM      2  C1' PXY d   1      -1.116   2.887   2.289  0.00  0.00     0.077 C 
ATOM      3  C1  PXY d   1      -0.662   1.765   1.377  0.00  0.00    -0.082 A 
ATOM      4  C2  PXY d   1       0.238   0.895   1.808  0.00  0.00     0.003 A 
ATOM      5  C3  PXY d   1       0.684  -0.107   0.985  0.00  0.00     0.003 A 
ATOM      6  C4  PXY d   1       0.164  -0.253  -0.273  0.00  0.00    -0.082 A 
ATOM      7  C5  PXY d   1      -0.762   0.623  -0.716  0.00  0.00     0.003 A 
ATOM      8  C6  PXY d   1      -1.171   1.658   0.120  0.00  0.00     0.003 A 
ENDROOT
TORSDOF 0
ENDMDL
