MODEL 1
REMARK minimizedAffinity -3.54189825
REMARK minimizedRMSD -1
REMARK  0 active torsions:
REMARK  status: ('A' for Active; 'I' for Inactive)
ROOT
ATOM      1  C4' PXY d   1      -0.908   2.386   1.278  0.00  0.00     0.077 C 
ATOM      2  C1' PXY d   1       0.930  -2.626  -0.937  0.00  0.00     0.077 C 
ATOM      3  C1  PXY d   1       0.447  -1.307  -0.368  0.00  0.00    -0.082 A 
ATOM      4  C2  PXY d   1       0.771  -0.970   0.869  0.00  0.00     0.003 A 
ATOM      5  C3  PXY d   1       0.316   0.205   1.411  0.00  0.00     0.003 A 
ATOM      6  C4  PXY d   1      -0.435   1.068   0.659  0.00  0.00    -0.082 A 
ATOM      7  C5  PXY d   1      -0.761   0.737  -0.608  0.00  0.00     0.003 A 
ATOM      8  C6  PXY d   1      -0.324  -0.479  -1.125  0.00  0.00     0.003 A 
ENDROOT
TORSDOF 0
ENDMDL
