MODEL 1
REMARK minimizedAffinity -3.07056665
REMARK minimizedRMSD -1
REMARK  0 active torsions:
REMARK  status: ('A' for Active; 'I' for Inactive)
ROOT
ATOM      1  C4' PXY d   1       0.512  -1.737  -2.070  0.00  0.00     0.077 C 
ATOM      2  C1' PXY d   1      -0.960   2.416   1.672  0.00  0.00     0.077 C 
ATOM      3  C1  PXY d   1      -0.564   1.323   0.699  0.00  0.00    -0.082 A 
ATOM      4  C2  PXY d   1      -0.848   1.457  -0.587  0.00  0.00     0.003 A 
ATOM      5  C3  PXY d   1      -0.526   0.464  -1.476  0.00  0.00     0.003 A 
ATOM      6  C4  PXY d   1       0.140  -0.655  -1.053  0.00  0.00    -0.082 A 
ATOM      7  C5  PXY d   1       0.442  -0.795   0.255  0.00  0.00     0.003 A 
ATOM      8  C6  PXY d   1       0.070   0.206   1.148  0.00  0.00     0.003 A 
ENDROOT
TORSDOF 0
ENDMDL
