MODEL 1
REMARK minimizedAffinity -4.40248299
REMARK minimizedRMSD -1
REMARK  0 active torsions:
REMARK  status: ('A' for Active; 'I' for Inactive)
ROOT
ATOM      1  C4' PXY d   1       0.950  -1.237  -0.409  0.00  0.00     0.077 C 
ATOM      2  C1' PXY d   1      -1.536   3.624   1.489  0.00  0.00     0.077 C 
ATOM      3  C1  PXY d   1      -0.892   2.349   0.981  0.00  0.00    -0.082 A 
ATOM      4  C2  PXY d   1      -0.337   1.509   1.839  0.00  0.00     0.003 A 
ATOM      5  C3  PXY d   1       0.278   0.368   1.394  0.00  0.00     0.003 A 
ATOM      6  C4  PXY d   1       0.279   0.057   0.060  0.00  0.00    -0.082 A 
ATOM      7  C5  PXY d   1      -0.294   0.904  -0.821  0.00  0.00     0.003 A 
ATOM      8  C6  PXY d   1      -0.877   2.077  -0.352  0.00  0.00     0.003 A 
ENDROOT
TORSDOF 0
ENDMDL
