MODEL 1
REMARK minimizedAffinity -2.74360394
REMARK minimizedRMSD -1
REMARK  0 active torsions:
REMARK  status: ('A' for Active; 'I' for Inactive)
ROOT
ATOM      1  C4' PXY d   1      -0.000  -1.774  -1.500  0.00  0.00     0.077 C 
ATOM      2  C1' PXY d   1       0.007   2.625   2.250  0.00  0.00     0.077 C 
ATOM      3  C1  PXY d   1      -0.000   1.479   1.257  0.00  0.00    -0.082 A 
ATOM      4  C2  PXY d   1      -0.010   0.232   1.699  0.00  0.00     0.003 A 
ATOM      5  C3  PXY d   1       0.015  -0.817   0.815  0.00  0.00     0.003 A 
ATOM      6  C4  PXY d   1      -0.002  -0.586  -0.534  0.00  0.00    -0.082 A 
ATOM      7  C5  PXY d   1      -0.002   0.684  -0.992  0.00  0.00     0.003 A 
ATOM      8  C6  PXY d   1       0.013   1.734  -0.079  0.00  0.00     0.003 A 
ENDROOT
TORSDOF 0
ENDMDL
