MODEL 1
REMARK minimizedAffinity -2.24369359
REMARK minimizedRMSD -1
REMARK  2 active torsions:
REMARK  status: ('A' for Active; 'I' for Inactive)
REMARK    1  A    between atoms: C2'_3  and  C1'_4 
REMARK    2  A    between atoms: C1'_4  and  C1_5 
ROOT
ATOM      1  C1  I4B d   1       0.807  -0.266   0.319  0.00  0.00    -0.075 A 
ATOM      2  C2  I4B d   1       1.471   0.909   0.569  0.00  0.00     0.003 A 
ATOM      3  C3  I4B d   1       0.853   2.151   0.284  0.00  0.00     0.002 A 
ATOM      4  C4  I4B d   1      -0.401   2.171  -0.293  0.00  0.00    -0.004 A 
ATOM      5  C5  I4B d   1      -1.081   0.979  -0.524  0.00  0.00     0.002 A 
ATOM      6  C6  I4B d   1      -0.479  -0.247  -0.205  0.00  0.00     0.003 A 
ENDROOT
BRANCH   1   7
ATOM      7  C1' I4B d   1       1.502  -1.560   0.600  0.00  0.00     0.060 C 
BRANCH   7   8
ATOM      8  C2' I4B d   1       2.882  -1.494  -0.022  0.00  0.00    -0.013 C 
ATOM      9  C4' I4B d   1       3.955  -1.744   1.004  0.00  0.00     0.013 C 
ATOM     10  C3' I4B d   1       2.941  -2.508  -1.126  0.00  0.00     0.013 C 
ENDBRANCH   7   8
ENDBRANCH   1   7
TORSDOF 2
ENDMDL
