MODEL 1
REMARK minimizedAffinity -3.47417235
REMARK minimizedRMSD -1
REMARK  2 active torsions:
REMARK  status: ('A' for Active; 'I' for Inactive)
REMARK    1  A    between atoms: C2'_3  and  C1'_4 
REMARK    2  A    between atoms: C1'_4  and  C1_5 
ROOT
ATOM      1  C1  I4B d   1       0.052   0.566   0.219  0.00  0.00    -0.075 A 
ATOM      2  C2  I4B d   1       1.038   1.070   1.031  0.00  0.00     0.003 A 
ATOM      3  C3  I4B d   1       2.164   0.278   1.360  0.00  0.00     0.002 A 
ATOM      4  C4  I4B d   1       2.240  -1.021   0.901  0.00  0.00    -0.004 A 
ATOM      5  C5  I4B d   1       1.251  -1.523   0.059  0.00  0.00     0.002 A 
ATOM      6  C6  I4B d   1       0.156  -0.721  -0.294  0.00  0.00     0.003 A 
ENDROOT
BRANCH   1   7
ATOM      7  C1' I4B d   1      -1.140   1.418  -0.082  0.00  0.00     0.060 C 
BRANCH   7   8
ATOM      8  C2' I4B d   1      -2.341   0.799   0.603  0.00  0.00    -0.013 C 
ATOM      9  C4' I4B d   1      -2.787   1.631   1.777  0.00  0.00     0.013 C 
ATOM     10  C3' I4B d   1      -3.436   0.664  -0.413  0.00  0.00     0.013 C 
ENDBRANCH   7   8
ENDBRANCH   1   7
TORSDOF 2
ENDMDL
