MODEL 1
REMARK minimizedAffinity -4.60887432
REMARK minimizedRMSD -1
REMARK  2 active torsions:
REMARK  status: ('A' for Active; 'I' for Inactive)
REMARK    1  A    between atoms: C2'_3  and  C1'_4 
REMARK    2  A    between atoms: C1'_4  and  C1_5 
ROOT
ATOM      1  C1  I4B d   1       1.187   0.659   0.189  0.00  0.00    -0.075 A 
ATOM      2  C2  I4B d   1       1.248  -0.651   0.595  0.00  0.00     0.003 A 
ATOM      3  C3  I4B d   1       2.488  -1.228   0.959  0.00  0.00     0.002 A 
ATOM      4  C4  I4B d   1       3.643  -0.479   0.855  0.00  0.00    -0.004 A 
ATOM      5  C5  I4B d   1       3.577   0.855   0.465  0.00  0.00     0.002 A 
ATOM      6  C6  I4B d   1       2.340   1.432   0.142  0.00  0.00     0.003 A 
ENDROOT
BRANCH   1   7
ATOM      7  C1' I4B d   1      -0.135   1.226  -0.220  0.00  0.00     0.060 C 
BRANCH   7   8
ATOM      8  C2' I4B d   1      -1.146   0.098  -0.224  0.00  0.00    -0.013 C 
ATOM      9  C4' I4B d   1      -2.551   0.626  -0.352  0.00  0.00     0.013 C 
ATOM     10  C3' I4B d   1      -0.808  -0.822  -1.359  0.00  0.00     0.013 C 
ENDBRANCH   7   8
ENDBRANCH   1   7
TORSDOF 2
ENDMDL
