MODEL 1
REMARK minimizedAffinity -1.62868559
REMARK minimizedRMSD -1
REMARK  2 active torsions:
REMARK  status: ('A' for Active; 'I' for Inactive)
REMARK    1  A    between atoms: C2'_3  and  C1'_4 
REMARK    2  A    between atoms: C1'_4  and  C1_5 
ROOT
ATOM      1  C1  I4B d   1      -0.976   0.703  -0.167  0.00  0.00    -0.075 A 
ATOM      2  C2  I4B d   1      -0.214   1.757  -0.605  0.00  0.00     0.003 A 
ATOM      3  C3  I4B d   1       1.183   1.771  -0.374  0.00  0.00     0.002 A 
ATOM      4  C4  I4B d   1       1.764   0.742   0.338  0.00  0.00    -0.004 A 
ATOM      5  C5  I4B d   1       0.994  -0.337   0.762  0.00  0.00     0.002 A 
ATOM      6  C6  I4B d   1      -0.383  -0.363   0.498  0.00  0.00     0.003 A 
ENDROOT
BRANCH   1   7
ATOM      7  C1' I4B d   1      -2.454   0.736  -0.399  0.00  0.00     0.060 C 
BRANCH   7   8
ATOM      8  C2' I4B d   1      -3.139   0.405   0.911  0.00  0.00    -0.013 C 
ATOM      9  C4' I4B d   1      -3.375   1.645   1.732  0.00  0.00     0.013 C 
ATOM     10  C3' I4B d   1      -4.431  -0.289   0.595  0.00  0.00     0.013 C 
ENDBRANCH   7   8
ENDBRANCH   1   7
TORSDOF 2
ENDMDL
