MODEL 1
REMARK minimizedAffinity -0.832625866
REMARK minimizedRMSD -1
REMARK  2 active torsions:
REMARK  status: ('A' for Active; 'I' for Inactive)
REMARK    1  A    between atoms: C2'_3  and  C1'_4 
REMARK    2  A    between atoms: C1'_4  and  C1_5 
ROOT
ATOM      1  C1  I4B d   1       1.221  -0.721   0.709  0.00  0.00    -0.075 A 
ATOM      2  C2  I4B d   1       0.937   0.609   0.521  0.00  0.00     0.003 A 
ATOM      3  C3  I4B d   1       1.894   1.597   0.857  0.00  0.00     0.002 A 
ATOM      4  C4  I4B d   1       3.094   1.216   1.422  0.00  0.00    -0.004 A 
ATOM      5  C5  I4B d   1       3.389  -0.134   1.591  0.00  0.00     0.002 A 
ATOM      6  C6  I4B d   1       2.452  -1.109   1.221  0.00  0.00     0.003 A 
ENDROOT
BRANCH   1   7
ATOM      7  C1' I4B d   1       0.174  -1.736   0.374  0.00  0.00     0.060 C 
BRANCH   7   8
ATOM      8  C2' I4B d   1       0.452  -2.248  -1.024  0.00  0.00    -0.013 C 
ATOM      9  C4' I4B d   1      -0.386  -1.526  -2.046  0.00  0.00     0.013 C 
ATOM     10  C3' I4B d   1       1.915  -2.071  -1.300  0.00  0.00     0.013 C 
ENDBRANCH   7   8
ENDBRANCH   1   7
TORSDOF 2
ENDMDL
