MODEL 1
REMARK minimizedAffinity 0.773699164
REMARK minimizedRMSD -1
REMARK  2 active torsions:
REMARK  status: ('A' for Active; 'I' for Inactive)
REMARK    1  A    between atoms: C2'_3  and  C1'_4 
REMARK    2  A    between atoms: C1'_4  and  C1_5 
ROOT
ATOM      1  C1  I4B d   1      -0.534   0.000   0.082  0.00  0.00    -0.075 A 
ATOM      2  C2  I4B d   1       0.362   0.824   0.717  0.00  0.00     0.003 A 
ATOM      3  C3  I4B d   1       1.685   0.384   0.961  0.00  0.00     0.002 A 
ATOM      4  C4  I4B d   1       2.053  -0.897   0.603  0.00  0.00    -0.004 A 
ATOM      5  C5  I4B d   1       1.150  -1.723  -0.061  0.00  0.00     0.002 A 
ATOM      6  C6  I4B d   1      -0.148  -1.267  -0.334  0.00  0.00     0.003 A 
ENDROOT
BRANCH   1   7
ATOM      7  C1' I4B d   1      -1.933   0.485  -0.131  0.00  0.00     0.060 C 
BRANCH   7   8
ATOM      8  C2' I4B d   1      -2.708   0.254   1.151  0.00  0.00    -0.013 C 
ATOM      9  C4' I4B d   1      -2.981   1.552   1.864  0.00  0.00     0.013 C 
ATOM     10  C3' I4B d   1      -3.984  -0.450   0.800  0.00  0.00     0.013 C 
ENDBRANCH   7   8
ENDBRANCH   1   7
TORSDOF 2
ENDMDL
