MODEL 1
REMARK minimizedAffinity -0.374591887
REMARK minimizedRMSD -1
REMARK  1 active torsions:
REMARK  status: ('A' for Active; 'I' for Inactive)
REMARK    1  A    between atoms: N_2  and  C1_3 
ROOT
ATOM      1  C1  UNL d   1       2.974  -0.204  -0.459  0.00  0.00     0.143 A 
ATOM      2  C2  UNL d   1       1.603   0.000  -0.264  0.00  0.00    -0.057 A 
ATOM      3  C3  UNL d   1       0.702  -1.072  -0.266  0.00  0.00     0.033 A 
ATOM      4  C4  UNL d   1       1.154  -2.367  -0.493  0.00  0.00    -0.042 A 
ATOM      5  C5  UNL d   1       2.508  -2.591  -0.714  0.00  0.00     0.033 A 
ATOM      6  C6  UNL d   1       3.404  -1.517  -0.704  0.00  0.00    -0.057 A 
ENDROOT
BRANCH   1   7
ATOM      7  N   UNL d   1       3.906   0.831  -0.567  0.00  0.00    -0.732 N 
ATOM      8  C   UNL d   1       5.077   0.684  -1.405  0.00  0.00     0.284 C 
ATOM      9  H3  UNL d   1       3.466   1.746  -0.625  0.00  0.00     0.395 HD
ENDBRANCH   1   7
TORSDOF 1
ENDMDL
