MODEL 1
REMARK minimizedAffinity 1.67928588
REMARK minimizedRMSD -1
REMARK  1 active torsions:
REMARK  status: ('A' for Active; 'I' for Inactive)
REMARK    1  A    between atoms: N_2  and  C1_3 
ROOT
ATOM      1  C1  UNL d   1       1.099   0.260  -0.097  0.00  0.00     0.143 A 
ATOM      2  C2  UNL d   1       0.229  -0.754  -0.512  0.00  0.00    -0.057 A 
ATOM      3  C3  UNL d   1       0.707  -2.021  -0.868  0.00  0.00     0.033 A 
ATOM      4  C4  UNL d   1       2.072  -2.288  -0.841  0.00  0.00    -0.042 A 
ATOM      5  C5  UNL d   1       2.957  -1.288  -0.456  0.00  0.00     0.033 A 
ATOM      6  C6  UNL d   1       2.473  -0.027  -0.095  0.00  0.00    -0.057 A 
ENDROOT
BRANCH   1   7
ATOM      7  N   UNL d   1       0.694   1.569   0.175  0.00  0.00    -0.732 N 
ATOM      8  C   UNL d   1      -0.048   1.877   1.378  0.00  0.00     0.284 C 
ATOM      9  H3  UNL d   1       1.411   2.253  -0.058  0.00  0.00     0.395 HD
ENDBRANCH   1   7
TORSDOF 1
ENDMDL
