MODEL 1
REMARK minimizedAffinity 6.11504793
REMARK minimizedRMSD -1
REMARK  1 active torsions:
REMARK  status: ('A' for Active; 'I' for Inactive)
REMARK    1  A    between atoms: N_2  and  C1_3 
ROOT
ATOM      1  C1  UNL d   1       2.121  -2.381  -1.052  0.00  0.00     0.143 A 
ATOM      2  C2  UNL d   1       2.580  -3.268  -2.031  0.00  0.00    -0.057 A 
ATOM      3  C3  UNL d   1       3.687  -2.957  -2.831  0.00  0.00     0.033 A 
ATOM      4  C4  UNL d   1       4.338  -1.737  -2.684  0.00  0.00    -0.042 A 
ATOM      5  C5  UNL d   1       3.884  -0.830  -1.733  0.00  0.00     0.033 A 
ATOM      6  C6  UNL d   1       2.782  -1.148  -0.933  0.00  0.00    -0.057 A 
ENDROOT
BRANCH   1   7
ATOM      7  N   UNL d   1       0.966  -2.589  -0.293  0.00  0.00    -0.732 N 
ATOM      8  C   UNL d   1      -0.340  -2.564  -0.916  0.00  0.00     0.284 C 
ATOM      9  H3  UNL d   1       1.084  -3.327   0.398  0.00  0.00     0.395 HD
ENDBRANCH   1   7
TORSDOF 1
ENDMDL
