MODEL 1
REMARK minimizedAffinity 8.32711983
REMARK minimizedRMSD -1
REMARK  1 active torsions:
REMARK  status: ('A' for Active; 'I' for Inactive)
REMARK    1  A    between atoms: N_2  and  C1_3 
ROOT
ATOM      1  C1  UNL d   1       4.598   4.010   5.045  0.00  0.00     0.143 A 
ATOM      2  C2  UNL d   1       3.630   3.006   5.155  0.00  0.00    -0.057 A 
ATOM      3  C3  UNL d   1       3.421   2.083   4.122  0.00  0.00     0.033 A 
ATOM      4  C4  UNL d   1       4.160   2.167   2.947  0.00  0.00    -0.042 A 
ATOM      5  C5  UNL d   1       5.110   3.173   2.806  0.00  0.00     0.033 A 
ATOM      6  C6  UNL d   1       5.318   4.087   3.843  0.00  0.00    -0.057 A 
ENDROOT
BRANCH   1   7
ATOM      7  N   UNL d   1       4.784   5.017   5.995  0.00  0.00    -0.732 N 
ATOM      8  C   UNL d   1       5.990   5.818   5.994  0.00  0.00     0.284 C 
ATOM      9  H3  UNL d   1       3.934   5.547   6.172  0.00  0.00     0.395 HD
ENDBRANCH   1   7
TORSDOF 1
ENDMDL
