MODEL 1
REMARK minimizedAffinity 6.91320276
REMARK minimizedRMSD -1
REMARK  1 active torsions:
REMARK  status: ('A' for Active; 'I' for Inactive)
REMARK    1  A    between atoms: N_2  and  C1_3 
ROOT
ATOM      1  C1  UNL d   1       0.308  -3.052   5.808  0.00  0.00     0.143 A 
ATOM      2  C2  UNL d   1      -1.090  -3.058   5.867  0.00  0.00    -0.057 A 
ATOM      3  C3  UNL d   1      -1.807  -4.256   5.972  0.00  0.00     0.033 A 
ATOM      4  C4  UNL d   1      -1.137  -5.475   5.993  0.00  0.00    -0.042 A 
ATOM      5  C5  UNL d   1       0.251  -5.494   5.911  0.00  0.00     0.033 A 
ATOM      6  C6  UNL d   1       0.962  -4.294   5.812  0.00  0.00    -0.057 A 
ENDROOT
BRANCH   1   7
ATOM      7  N   UNL d   1       1.073  -1.901   5.604  0.00  0.00    -0.732 N 
ATOM      8  C   UNL d   1       0.560  -0.599   5.975  0.00  0.00     0.284 C 
ATOM      9  H3  UNL d   1       2.055  -2.041   5.831  0.00  0.00     0.395 HD
ENDBRANCH   1   7
TORSDOF 1
ENDMDL
