MODEL 1
REMARK minimizedAffinity 6.76865625
REMARK minimizedRMSD -1
REMARK  1 active torsions:
REMARK  status: ('A' for Active; 'I' for Inactive)
REMARK    1  A    between atoms: N_2  and  C1_3 
ROOT
ATOM      1  C1  UNL d   1      -1.789  -5.016  -2.437  0.00  0.00     0.143 A 
ATOM      2  C2  UNL d   1      -1.294  -5.669  -1.303  0.00  0.00    -0.057 A 
ATOM      3  C3  UNL d   1      -0.392  -5.039  -0.439  0.00  0.00     0.033 A 
ATOM      4  C4  UNL d   1       0.056  -3.750  -0.710  0.00  0.00    -0.042 A 
ATOM      5  C5  UNL d   1      -0.403  -3.091  -1.844  0.00  0.00     0.033 A 
ATOM      6  C6  UNL d   1      -1.310  -3.723  -2.701  0.00  0.00    -0.057 A 
ENDROOT
BRANCH   1   7
ATOM      7  N   UNL d   1      -2.612  -5.625  -3.388  0.00  0.00    -0.732 N 
ATOM      8  C   UNL d   1      -2.088  -6.000  -4.684  0.00  0.00     0.284 C 
ATOM      9  H3  UNL d   1      -3.237  -6.314  -2.977  0.00  0.00     0.395 HD
ENDBRANCH   1   7
TORSDOF 1
ENDMDL
