MODEL 1
REMARK minimizedAffinity 2.54950047
REMARK minimizedRMSD -1
REMARK  1 active torsions:
REMARK  status: ('A' for Active; 'I' for Inactive)
REMARK    1  A    between atoms: C3_4  and  O_7 
ROOT
ATOM      1  C   UNL d   1       2.919   1.393  -0.008  0.00  0.00    -0.033 A 
ATOM      2  C1  UNL d   1       3.298   1.532  -1.344  0.00  0.00     0.039 A 
ATOM      3  C2  UNL d   1       2.326   1.671  -2.337  0.00  0.00    -0.080 A 
ATOM      4  C3  UNL d   1       0.980   1.670  -1.979  0.00  0.00     0.150 A 
ATOM      5  C4  UNL d   1       0.596   1.536  -0.649  0.00  0.00    -0.007 A 
ATOM      6  C5  UNL d   1       1.568   1.397   0.340  0.00  0.00     0.039 A 
ENDROOT
BRANCH   4   7
ATOM      7  O   UNL d   1      -0.005   1.798  -2.913  0.00  0.00    -0.526 OA
ATOM      8  H5  UNL d   1       0.408   1.853  -3.791  0.00  0.00     0.418 HD
ENDBRANCH   4   7
TORSDOF 1
ENDMDL
