MODEL 1
REMARK minimizedAffinity 5.87290096
REMARK minimizedRMSD -1
REMARK  1 active torsions:
REMARK  status: ('A' for Active; 'I' for Inactive)
REMARK    1  A    between atoms: C3_4  and  O_7 
ROOT
ATOM      1  C   UNL d   1      -1.119   5.804  -4.795  0.00  0.00    -0.033 A 
ATOM      2  C1  UNL d   1      -1.821   5.736  -3.589  0.00  0.00     0.039 A 
ATOM      3  C2  UNL d   1      -3.216   5.797  -3.587  0.00  0.00    -0.080 A 
ATOM      4  C3  UNL d   1      -3.896   5.926  -4.795  0.00  0.00     0.150 A 
ATOM      5  C4  UNL d   1      -3.203   5.990  -6.000  0.00  0.00    -0.007 A 
ATOM      6  C5  UNL d   1      -1.810   5.930  -6.000  0.00  0.00     0.039 A 
ENDROOT
BRANCH   4   7
ATOM      7  O   UNL d   1      -5.256   5.994  -4.843  0.00  0.00    -0.526 OA
ATOM      8  H5  UNL d   1      -5.598   5.966  -3.934  0.00  0.00     0.418 HD
ENDBRANCH   4   7
TORSDOF 1
ENDMDL
