MODEL 1
REMARK minimizedAffinity 6.90986204
REMARK minimizedRMSD -1
REMARK  1 active torsions:
REMARK  status: ('A' for Active; 'I' for Inactive)
REMARK    1  A    between atoms: C3_4  and  O_7 
ROOT
ATOM      1  C   UNL d   1      -1.264  -0.869   1.653  0.00  0.00    -0.033 A 
ATOM      2  C1  UNL d   1      -1.737   0.378   1.241  0.00  0.00     0.039 A 
ATOM      3  C2  UNL d   1      -2.188   1.303   2.185  0.00  0.00    -0.080 A 
ATOM      4  C3  UNL d   1      -2.160   0.969   3.536  0.00  0.00     0.150 A 
ATOM      5  C4  UNL d   1      -1.686  -0.270   3.954  0.00  0.00    -0.007 A 
ATOM      6  C5  UNL d   1      -1.237  -1.193   3.010  0.00  0.00     0.039 A 
ENDROOT
BRANCH   4   7
ATOM      7  O   UNL d   1      -2.595   1.836   4.494  0.00  0.00    -0.526 OA
ATOM      8  H5  UNL d   1      -2.920   2.640   4.056  0.00  0.00     0.418 HD
ENDBRANCH   4   7
TORSDOF 1
ENDMDL
