MODEL 1
REMARK minimizedAffinity 9.74085617
REMARK minimizedRMSD -1
REMARK  1 active torsions:
REMARK  status: ('A' for Active; 'I' for Inactive)
REMARK    1  A    between atoms: C3_4  and  O_7 
ROOT
ATOM      1  C   UNL d   1       4.296   1.890  -0.113  0.00  0.00    -0.033 A 
ATOM      2  C1  UNL d   1       5.413   2.700  -0.328  0.00  0.00     0.039 A 
ATOM      3  C2  UNL d   1       6.000   3.381   0.740  0.00  0.00    -0.080 A 
ATOM      4  C3  UNL d   1       5.462   3.243   2.017  0.00  0.00     0.150 A 
ATOM      5  C4  UNL d   1       4.351   2.435   2.239  0.00  0.00    -0.007 A 
ATOM      6  C5  UNL d   1       3.766   1.757   1.171  0.00  0.00     0.039 A 
ENDROOT
BRANCH   4   7
ATOM      7  O   UNL d   1       5.997   3.891   3.090  0.00  0.00    -0.526 OA
ATOM      8  H5  UNL d   1       6.741   4.435   2.781  0.00  0.00     0.418 HD
ENDBRANCH   4   7
TORSDOF 1
ENDMDL
