MODEL 1
REMARK minimizedAffinity 11.618825
REMARK minimizedRMSD -1
REMARK  1 active torsions:
REMARK  status: ('A' for Active; 'I' for Inactive)
REMARK    1  A    between atoms: C3_4  and  O_7 
ROOT
ATOM      1  C   UNL d   1      -1.923  -1.465   0.865  0.00  0.00    -0.033 A 
ATOM      2  C1  UNL d   1      -2.882  -0.451   0.873  0.00  0.00     0.039 A 
ATOM      3  C2  UNL d   1      -2.937   0.451   1.937  0.00  0.00    -0.080 A 
ATOM      4  C3  UNL d   1      -2.029   0.328   2.985  0.00  0.00     0.150 A 
ATOM      5  C4  UNL d   1      -1.069  -0.678   2.982  0.00  0.00    -0.007 A 
ATOM      6  C5  UNL d   1      -1.016  -1.578   1.919  0.00  0.00     0.039 A 
ENDROOT
BRANCH   4   7
ATOM      7  O   UNL d   1      -2.048   1.182   4.048  0.00  0.00    -0.526 OA
ATOM      8  H5  UNL d   1      -2.782   1.807   3.928  0.00  0.00     0.418 HD
ENDBRANCH   4   7
TORSDOF 1
ENDMDL
