MODEL 1
REMARK minimizedAffinity 9.24769211
REMARK minimizedRMSD -1
REMARK  1 active torsions:
REMARK  status: ('A' for Active; 'I' for Inactive)
REMARK    1  A    between atoms: C3_4  and  O_7 
ROOT
ATOM      1  C   UNL d   1       2.855   2.099  -2.158  0.00  0.00    -0.033 A 
ATOM      2  C1  UNL d   1       3.140   2.981  -3.202  0.00  0.00     0.039 A 
ATOM      3  C2  UNL d   1       2.100   3.609  -3.891  0.00  0.00    -0.080 A 
ATOM      4  C3  UNL d   1       0.783   3.347  -3.526  0.00  0.00     0.150 A 
ATOM      5  C4  UNL d   1       0.492   2.472  -2.484  0.00  0.00    -0.007 A 
ATOM      6  C5  UNL d   1       1.531   1.846  -1.798  0.00  0.00     0.039 A 
ENDROOT
BRANCH   4   7
ATOM      7  O   UNL d   1      -0.265   3.932  -4.172  0.00  0.00    -0.526 OA
ATOM      8  H5  UNL d   1       0.086   4.489  -4.887  0.00  0.00     0.418 HD
ENDBRANCH   4   7
TORSDOF 1
ENDMDL
