MODEL 1
REMARK minimizedAffinity 10.6580887
REMARK minimizedRMSD -1
REMARK  1 active torsions:
REMARK  status: ('A' for Active; 'I' for Inactive)
REMARK    1  A    between atoms: C3_4  and  O_7 
ROOT
ATOM      1  C   UNL d   1       1.996  -3.575   0.729  0.00  0.00    -0.033 A 
ATOM      2  C1  UNL d   1       2.435  -4.558  -0.161  0.00  0.00     0.039 A 
ATOM      3  C2  UNL d   1       3.627  -4.381  -0.867  0.00  0.00    -0.080 A 
ATOM      4  C3  UNL d   1       4.370  -3.220  -0.673  0.00  0.00     0.150 A 
ATOM      5  C4  UNL d   1       3.940  -2.239   0.215  0.00  0.00    -0.007 A 
ATOM      6  C5  UNL d   1       2.750  -2.416   0.918  0.00  0.00     0.039 A 
ENDROOT
BRANCH   4   7
ATOM      7  O   UNL d   1       5.537  -3.000  -1.342  0.00  0.00    -0.526 OA
ATOM      8  H5  UNL d   1       5.693  -3.749  -1.942  0.00  0.00     0.418 HD
ENDBRANCH   4   7
TORSDOF 1
ENDMDL
