MODEL 1
REMARK minimizedAffinity 14.7556944
REMARK minimizedRMSD -1
REMARK  1 active torsions:
REMARK  status: ('A' for Active; 'I' for Inactive)
REMARK    1  A    between atoms: C3_4  and  O_7 
ROOT
ATOM      1  C   UNL d   1       4.853  -5.999   0.258  0.00  0.00    -0.033 A 
ATOM      2  C1  UNL d   1       3.724  -5.458  -0.360  0.00  0.00     0.039 A 
ATOM      3  C2  UNL d   1       3.711  -4.115  -0.741  0.00  0.00    -0.080 A 
ATOM      4  C3  UNL d   1       4.832  -3.325  -0.501  0.00  0.00     0.150 A 
ATOM      5  C4  UNL d   1       5.962  -3.859   0.111  0.00  0.00    -0.007 A 
ATOM      6  C5  UNL d   1       5.973  -5.200   0.492  0.00  0.00     0.039 A 
ENDROOT
BRANCH   4   7
ATOM      7  O   UNL d   1       4.865  -2.008  -0.851  0.00  0.00    -0.526 OA
ATOM      8  H5  UNL d   1       4.005  -1.771  -1.237  0.00  0.00     0.418 HD
ENDBRANCH   4   7
TORSDOF 1
ENDMDL
