MODEL 1
REMARK minimizedAffinity 10.0503807
REMARK minimizedRMSD -1
REMARK  1 active torsions:
REMARK  status: ('A' for Active; 'I' for Inactive)
REMARK    1  A    between atoms: C3_4  and  O_7 
ROOT
ATOM      1  C   UNL d   1      -1.150  -4.140  -2.383  0.00  0.00    -0.033 A 
ATOM      2  C1  UNL d   1      -2.052  -5.080  -2.886  0.00  0.00     0.039 A 
ATOM      3  C2  UNL d   1      -1.795  -5.716  -4.102  0.00  0.00    -0.080 A 
ATOM      4  C3  UNL d   1      -0.633  -5.405  -4.804  0.00  0.00     0.150 A 
ATOM      5  C4  UNL d   1       0.272  -4.473  -4.306  0.00  0.00    -0.007 A 
ATOM      6  C5  UNL d   1       0.013  -3.838  -3.093  0.00  0.00     0.039 A 
ENDROOT
BRANCH   4   7
ATOM      7  O   UNL d   1      -0.341  -5.997  -5.997  0.00  0.00    -0.526 OA
ATOM      8  H5  UNL d   1      -1.069  -6.597  -6.229  0.00  0.00     0.418 HD
ENDBRANCH   4   7
TORSDOF 1
ENDMDL
