MODEL 1
REMARK minimizedAffinity 10.5128078
REMARK minimizedRMSD -1
REMARK  1 active torsions:
REMARK  status: ('A' for Active; 'I' for Inactive)
REMARK    1  A    between atoms: C3_4  and  O_7 
ROOT
ATOM      1  C   UNL d   1       2.662   2.265   1.132  0.00  0.00    -0.033 A 
ATOM      2  C1  UNL d   1       3.348   1.844  -0.009  0.00  0.00     0.039 A 
ATOM      3  C2  UNL d   1       4.476   2.542  -0.445  0.00  0.00    -0.080 A 
ATOM      4  C3  UNL d   1       4.907   3.657   0.268  0.00  0.00     0.150 A 
ATOM      5  C4  UNL d   1       4.231   4.080   1.408  0.00  0.00    -0.007 A 
ATOM      6  C5  UNL d   1       3.104   3.382   1.841  0.00  0.00     0.039 A 
ENDROOT
BRANCH   4   7
ATOM      7  O   UNL d   1       6.000   4.373  -0.122  0.00  0.00    -0.526 OA
ATOM      8  H5  UNL d   1       6.348   3.982  -0.940  0.00  0.00     0.418 HD
ENDBRANCH   4   7
TORSDOF 1
ENDMDL
