MODEL 1
REMARK minimizedAffinity 7.33640862
REMARK minimizedRMSD -1
REMARK  1 active torsions:
REMARK  status: ('A' for Active; 'I' for Inactive)
REMARK    1  A    between atoms: C3_4  and  O_7 
ROOT
ATOM      1  C   UNL d   1      -6.000  -0.997  -4.888  0.00  0.00    -0.033 A 
ATOM      2  C1  UNL d   1      -5.991   0.390  -5.046  0.00  0.00     0.039 A 
ATOM      3  C2  UNL d   1      -5.957   1.222  -3.925  0.00  0.00    -0.080 A 
ATOM      4  C3  UNL d   1      -5.931   0.655  -2.654  0.00  0.00     0.150 A 
ATOM      5  C4  UNL d   1      -5.935  -0.726  -2.489  0.00  0.00    -0.007 A 
ATOM      6  C5  UNL d   1      -5.970  -1.555  -3.610  0.00  0.00     0.039 A 
ENDROOT
BRANCH   4   7
ATOM      7  O   UNL d   1      -5.902   1.427  -1.531  0.00  0.00    -0.526 OA
ATOM      8  H5  UNL d   1      -5.932   2.361  -1.797  0.00  0.00     0.418 HD
ENDBRANCH   4   7
TORSDOF 1
ENDMDL
