MODEL 1
REMARK minimizedAffinity 7.89327955
REMARK minimizedRMSD -1
REMARK  1 active torsions:
REMARK  status: ('A' for Active; 'I' for Inactive)
REMARK    1  A    between atoms: C3_4  and  O_7 
ROOT
ATOM      1  C   UNL d   1      -3.136  -1.358   1.381  0.00  0.00    -0.033 A 
ATOM      2  C1  UNL d   1      -4.266  -0.550   1.520  0.00  0.00     0.039 A 
ATOM      3  C2  UNL d   1      -4.290   0.461   2.484  0.00  0.00    -0.080 A 
ATOM      4  C3  UNL d   1      -3.178   0.653   3.299  0.00  0.00     0.150 A 
ATOM      5  C4  UNL d   1      -2.047  -0.145   3.163  0.00  0.00    -0.007 A 
ATOM      6  C5  UNL d   1      -2.026  -1.154   2.201  0.00  0.00     0.039 A 
ENDROOT
BRANCH   4   7
ATOM      7  O   UNL d   1      -3.156   1.623   4.256  0.00  0.00    -0.526 OA
ATOM      8  H5  UNL d   1      -4.015   2.077   4.255  0.00  0.00     0.418 HD
ENDBRANCH   4   7
TORSDOF 1
ENDMDL
