MODEL 1
REMARK minimizedAffinity 1.47516549
REMARK minimizedRMSD -1
REMARK  1 active torsions:
REMARK  status: ('A' for Active; 'I' for Inactive)
REMARK    1  A    between atoms: C3_4  and  O_7 
ROOT
ATOM      1  C   UNL d   1      -5.467  -4.787   5.998  0.00  0.00    -0.033 A 
ATOM      2  C1  UNL d   1      -4.648  -3.855   5.358  0.00  0.00     0.039 A 
ATOM      3  C2  UNL d   1      -4.357  -3.995   3.999  0.00  0.00    -0.080 A 
ATOM      4  C3  UNL d   1      -4.892  -5.070   3.294  0.00  0.00     0.150 A 
ATOM      5  C4  UNL d   1      -5.711  -6.000   3.924  0.00  0.00    -0.007 A 
ATOM      6  C5  UNL d   1      -6.000  -5.859   5.281  0.00  0.00     0.039 A 
ENDROOT
BRANCH   4   7
ATOM      7  O   UNL d   1      -4.632  -5.251   1.968  0.00  0.00    -0.526 OA
ATOM      8  H5  UNL d   1      -4.029  -4.548   1.673  0.00  0.00     0.418 HD
ENDBRANCH   4   7
TORSDOF 1
ENDMDL
