MODEL 1
REMARK minimizedAffinity 2.56335044
REMARK minimizedRMSD -1
REMARK  1 active torsions:
REMARK  status: ('A' for Active; 'I' for Inactive)
REMARK    1  A    between atoms: C3_4  and  O_7 
ROOT
ATOM      1  C   UNL d   1       4.843  -4.074  -1.495  0.00  0.00    -0.033 A 
ATOM      2  C1  UNL d   1       5.200  -2.755  -1.780  0.00  0.00     0.039 A 
ATOM      3  C2  UNL d   1       4.286  -1.721  -1.569  0.00  0.00    -0.080 A 
ATOM      4  C3  UNL d   1       3.020  -2.019  -1.072  0.00  0.00     0.150 A 
ATOM      5  C4  UNL d   1       2.659  -3.330  -0.782  0.00  0.00    -0.007 A 
ATOM      6  C5  UNL d   1       3.573  -4.362  -0.994  0.00  0.00     0.039 A 
ENDROOT
BRANCH   4   7
ATOM      7  O   UNL d   1       2.093  -1.044  -0.854  0.00  0.00    -0.526 OA
ATOM      8  H5  UNL d   1       2.472  -0.192  -1.127  0.00  0.00     0.418 HD
ENDBRANCH   4   7
TORSDOF 1
ENDMDL
