MODEL 1
REMARK minimizedAffinity -1.25801361
REMARK minimizedRMSD -1
REMARK  1 active torsions:
REMARK  status: ('A' for Active; 'I' for Inactive)
REMARK    1  A    between atoms: C3_4  and  O_7 
ROOT
ATOM      1  C   UNL d   1      -0.432   4.017   0.567  0.00  0.00    -0.033 A 
ATOM      2  C1  UNL d   1      -0.359   2.871   1.362  0.00  0.00     0.039 A 
ATOM      3  C2  UNL d   1      -0.289   1.610   0.768  0.00  0.00    -0.080 A 
ATOM      4  C3  UNL d   1      -0.293   1.507  -0.620  0.00  0.00     0.150 A 
ATOM      5  C4  UNL d   1      -0.362   2.644  -1.419  0.00  0.00    -0.007 A 
ATOM      6  C5  UNL d   1      -0.433   3.903  -0.824  0.00  0.00     0.039 A 
ENDROOT
BRANCH   4   7
ATOM      7  O   UNL d   1      -0.231   0.297  -1.246  0.00  0.00    -0.526 OA
ATOM      8  H5  UNL d   1      -0.216  -0.399  -0.568  0.00  0.00     0.418 HD
ENDBRANCH   4   7
TORSDOF 1
ENDMDL
