MODEL 1
REMARK minimizedAffinity 0.171621338
REMARK minimizedRMSD -1
REMARK  1 active torsions:
REMARK  status: ('A' for Active; 'I' for Inactive)
REMARK    1  A    between atoms: C3_4  and  O_7 
ROOT
ATOM      1  C   UNL d   1       0.151   2.500   1.559  0.00  0.00    -0.033 A 
ATOM      2  C1  UNL d   1      -0.268   2.484   2.890  0.00  0.00     0.039 A 
ATOM      3  C2  UNL d   1      -0.380   1.273   3.575  0.00  0.00    -0.080 A 
ATOM      4  C3  UNL d   1      -0.071   0.085   2.917  0.00  0.00     0.150 A 
ATOM      5  C4  UNL d   1       0.351   0.093   1.592  0.00  0.00    -0.007 A 
ATOM      6  C5  UNL d   1       0.461   1.304   0.910  0.00  0.00     0.039 A 
ENDROOT
BRANCH   4   7
ATOM      7  O   UNL d   1      -0.170  -1.122   3.543  0.00  0.00    -0.526 OA
ATOM      8  H5  UNL d   1      -0.500  -0.975   4.445  0.00  0.00     0.418 HD
ENDBRANCH   4   7
TORSDOF 1
ENDMDL
