MODEL 1
REMARK minimizedAffinity 8.09006977
REMARK minimizedRMSD -1
REMARK  1 active torsions:
REMARK  status: ('A' for Active; 'I' for Inactive)
REMARK    1  A    between atoms: C3_4  and  O_7 
ROOT
ATOM      1  C   UNL d   1       1.995  -1.827   3.634  0.00  0.00    -0.033 A 
ATOM      2  C1  UNL d   1       3.074  -1.224   4.283  0.00  0.00     0.039 A 
ATOM      3  C2  UNL d   1       4.117  -2.007   4.782  0.00  0.00    -0.080 A 
ATOM      4  C3  UNL d   1       4.070  -3.389   4.624  0.00  0.00     0.150 A 
ATOM      5  C4  UNL d   1       3.000  -3.996   3.974  0.00  0.00    -0.007 A 
ATOM      6  C5  UNL d   1       1.959  -3.213   3.478  0.00  0.00     0.039 A 
ENDROOT
BRANCH   4   7
ATOM      7  O   UNL d   1       5.062  -4.195   5.097  0.00  0.00    -0.526 OA
ATOM      8  H5  UNL d   1       5.721  -3.640   5.548  0.00  0.00     0.418 HD
ENDBRANCH   4   7
TORSDOF 1
ENDMDL
