MODEL 1
REMARK minimizedAffinity -3.34652185
REMARK minimizedRMSD -1
REMARK  1 active torsions:
REMARK  status: ('A' for Active; 'I' for Inactive)
REMARK    1  A    between atoms: C3_4  and  O_7 
ROOT
ATOM      1  C   UNL d   1      -1.155   3.044   0.842  0.00  0.00    -0.033 A 
ATOM      2  C1  UNL d   1      -0.332   2.017   0.375  0.00  0.00     0.039 A 
ATOM      3  C2  UNL d   1      -0.007   0.946   1.211  0.00  0.00    -0.080 A 
ATOM      4  C3  UNL d   1      -0.512   0.914   2.508  0.00  0.00     0.150 A 
ATOM      5  C4  UNL d   1      -1.336   1.932   2.977  0.00  0.00    -0.007 A 
ATOM      6  C5  UNL d   1      -1.658   3.001   2.142  0.00  0.00     0.039 A 
ENDROOT
BRANCH   4   7
ATOM      7  O   UNL d   1      -0.219  -0.108   3.361  0.00  0.00    -0.526 OA
ATOM      8  H5  UNL d   1       0.383  -0.723   2.909  0.00  0.00     0.418 HD
ENDBRANCH   4   7
TORSDOF 1
ENDMDL
