MODEL 1
REMARK minimizedAffinity 2.54670024
REMARK minimizedRMSD -1
REMARK  1 active torsions:
REMARK  status: ('A' for Active; 'I' for Inactive)
REMARK    1  A    between atoms: C3_4  and  O_7 
ROOT
ATOM      1  C   UNL d   1       1.241  -2.729  -0.586  0.00  0.00    -0.033 A 
ATOM      2  C1  UNL d   1      -0.067  -2.648  -1.068  0.00  0.00     0.039 A 
ATOM      3  C2  UNL d   1      -0.483  -1.519  -1.777  0.00  0.00    -0.080 A 
ATOM      4  C3  UNL d   1       0.418  -0.480  -1.998  0.00  0.00     0.150 A 
ATOM      5  C4  UNL d   1       1.724  -0.557  -1.524  0.00  0.00    -0.007 A 
ATOM      6  C5  UNL d   1       2.137  -1.684  -0.816  0.00  0.00     0.039 A 
ENDROOT
BRANCH   4   7
ATOM      7  O   UNL d   1       0.057   0.643  -2.680  0.00  0.00    -0.526 OA
ATOM      8  H5  UNL d   1      -0.882   0.568  -2.922  0.00  0.00     0.418 HD
ENDBRANCH   4   7
TORSDOF 1
ENDMDL
