MODEL 1
REMARK minimizedAffinity 6.11807823
REMARK minimizedRMSD -1
REMARK  1 active torsions:
REMARK  status: ('A' for Active; 'I' for Inactive)
REMARK    1  A    between atoms: C3_4  and  O_7 
ROOT
ATOM      1  C   UNL d   1       0.258   2.234   2.624  0.00  0.00    -0.033 A 
ATOM      2  C1  UNL d   1      -0.978   2.023   3.238  0.00  0.00     0.039 A 
ATOM      3  C2  UNL d   1      -2.131   2.608   2.708  0.00  0.00    -0.080 A 
ATOM      4  C3  UNL d   1      -2.033   3.398   1.567  0.00  0.00     0.150 A 
ATOM      5  C4  UNL d   1      -0.805   3.610   0.949  0.00  0.00    -0.007 A 
ATOM      6  C5  UNL d   1       0.345   3.026   1.479  0.00  0.00     0.039 A 
ENDROOT
BRANCH   4   7
ATOM      7  O   UNL d   1      -3.129   3.994   1.016  0.00  0.00    -0.526 OA
ATOM      8  H5  UNL d   1      -3.902   3.783   1.566  0.00  0.00     0.418 HD
ENDBRANCH   4   7
TORSDOF 1
ENDMDL
