MODEL 1
REMARK minimizedAffinity 1.29920006
REMARK minimizedRMSD -1
REMARK  1 active torsions:
REMARK  status: ('A' for Active; 'I' for Inactive)
REMARK    1  A    between atoms: C3_4  and  O_7 
ROOT
ATOM      1  C   UNL d   1       0.439  -0.038  -0.687  0.00  0.00    -0.033 A 
ATOM      2  C1  UNL d   1       1.235  -0.050   0.460  0.00  0.00     0.039 A 
ATOM      3  C2  UNL d   1       0.859   0.694   1.581  0.00  0.00    -0.080 A 
ATOM      4  C3  UNL d   1      -0.314   1.443   1.542  0.00  0.00     0.150 A 
ATOM      5  C4  UNL d   1      -1.114   1.456   0.404  0.00  0.00    -0.007 A 
ATOM      6  C5  UNL d   1      -0.736   0.714  -0.714  0.00  0.00     0.039 A 
ENDROOT
BRANCH   4   7
ATOM      7  O   UNL d   1      -0.719   2.188   2.609  0.00  0.00    -0.526 OA
ATOM      8  H5  UNL d   1      -0.054   2.105   3.313  0.00  0.00     0.418 HD
ENDBRANCH   4   7
TORSDOF 1
ENDMDL
