MODEL 1
REMARK minimizedAffinity 1.86765933
REMARK minimizedRMSD -1
REMARK  1 active torsions:
REMARK  status: ('A' for Active; 'I' for Inactive)
REMARK    1  A    between atoms: C3_4  and  O_7 
ROOT
ATOM      1  C   UNL d   1       5.149  -5.218  -1.728  0.00  0.00    -0.033 A 
ATOM      2  C1  UNL d   1       4.357  -4.357  -2.489  0.00  0.00     0.039 A 
ATOM      3  C2  UNL d   1       4.041  -3.085  -2.006  0.00  0.00    -0.080 A 
ATOM      4  C3  UNL d   1       4.524  -2.688  -0.762  0.00  0.00     0.150 A 
ATOM      5  C4  UNL d   1       5.316  -3.540   0.000  0.00  0.00    -0.007 A 
ATOM      6  C5  UNL d   1       5.630  -4.809  -0.483  0.00  0.00     0.039 A 
ENDROOT
BRANCH   4   7
ATOM      7  O   UNL d   1       4.238  -1.459  -0.247  0.00  0.00    -0.526 OA
ATOM      8  H5  UNL d   1       3.658  -0.991  -0.870  0.00  0.00     0.418 HD
ENDBRANCH   4   7
TORSDOF 1
ENDMDL
