MODEL 1
REMARK minimizedAffinity -4.39908075
REMARK minimizedRMSD -1
REMARK  2 active torsions:
REMARK  status: ('A' for Active; 'I' for Inactive)
REMARK    1  A    between atoms: C1_2  and  C2_3 
REMARK    2  A    between atoms: C2_3  and  C3_4 
ROOT
ATOM      1  C3  UNL d   1       1.029   0.120   1.226  0.00  0.00    -0.075 A 
ATOM      2  C4  UNL d   1       0.316   0.780   0.214  0.00  0.00     0.002 A 
ATOM      3  C5  UNL d   1      -0.750   0.148  -0.428  0.00  0.00     0.002 A 
ATOM      4  C6  UNL d   1      -1.109  -1.151  -0.075  0.00  0.00    -0.004 A 
ATOM      5  C7  UNL d   1      -0.397  -1.821   0.917  0.00  0.00     0.002 A 
ATOM      6  C8  UNL d   1       0.667  -1.190   1.564  0.00  0.00     0.002 A 
ENDROOT
BRANCH   1   7
ATOM      7  C2  UNL d   1       2.164   0.809   1.945  0.00  0.00     0.056 C 
BRANCH   7   8
ATOM      8  C1  UNL d   1       1.837   2.232   2.409  0.00  0.00     0.007 C 
ATOM      9  C   UNL d   1       2.606   3.304   1.649  0.00  0.00     0.009 C 
ENDBRANCH   7   8
ENDBRANCH   1   7
TORSDOF 2
ENDMDL
