MODEL 1
REMARK minimizedAffinity 6.29784012
REMARK minimizedRMSD -1
REMARK  2 active torsions:
REMARK  status: ('A' for Active; 'I' for Inactive)
REMARK    1  A    between atoms: C1_2  and  C2_3 
REMARK    2  A    between atoms: C2_3  and  C3_4 
ROOT
ATOM      1  C3  UNL d   1      -2.862  -1.243   4.080  0.00  0.00    -0.075 A 
ATOM      2  C4  UNL d   1      -3.022   0.095   4.468  0.00  0.00     0.002 A 
ATOM      3  C5  UNL d   1      -2.095   1.062   4.078  0.00  0.00     0.002 A 
ATOM      4  C6  UNL d   1      -0.992   0.702   3.307  0.00  0.00    -0.004 A 
ATOM      5  C7  UNL d   1      -0.813  -0.627   2.931  0.00  0.00     0.002 A 
ATOM      6  C8  UNL d   1      -1.742  -1.596   3.315  0.00  0.00     0.002 A 
ENDROOT
BRANCH   1   7
ATOM      7  C2  UNL d   1      -3.878  -2.289   4.474  0.00  0.00     0.056 C 
BRANCH   7   8
ATOM      8  C1  UNL d   1      -3.720  -2.803   5.908  0.00  0.00     0.007 C 
ATOM      9  C   UNL d   1      -2.945  -4.111   5.996  0.00  0.00     0.009 C 
ENDBRANCH   7   8
ENDBRANCH   1   7
TORSDOF 2
ENDMDL
