MODEL 1
REMARK minimizedAffinity 2.71292686
REMARK minimizedRMSD -1
REMARK  2 active torsions:
REMARK  status: ('A' for Active; 'I' for Inactive)
REMARK    1  A    between atoms: C1_2  and  C2_3 
REMARK    2  A    between atoms: C2_3  and  C3_4 
ROOT
ATOM      1  C3  UNL d   1       1.927   0.921   2.225  0.00  0.00    -0.075 A 
ATOM      2  C4  UNL d   1       1.903  -0.317   1.565  0.00  0.00     0.002 A 
ATOM      3  C5  UNL d   1       0.771  -1.130   1.625  0.00  0.00     0.002 A 
ATOM      4  C6  UNL d   1      -0.345  -0.722   2.351  0.00  0.00    -0.004 A 
ATOM      5  C7  UNL d   1      -0.327   0.498   3.024  0.00  0.00     0.002 A 
ATOM      6  C8  UNL d   1       0.803   1.315   2.962  0.00  0.00     0.002 A 
ENDROOT
BRANCH   1   7
ATOM      7  C2  UNL d   1       3.138   1.819   2.140  0.00  0.00     0.056 C 
BRANCH   7   8
ATOM      8  C1  UNL d   1       2.897   3.120   1.367  0.00  0.00     0.007 C 
ATOM      9  C   UNL d   1       3.863   3.317   0.207  0.00  0.00     0.009 C 
ENDBRANCH   7   8
ENDBRANCH   1   7
TORSDOF 2
ENDMDL
