MODEL 1
REMARK minimizedAffinity -3.8815093
REMARK minimizedRMSD -1
REMARK  2 active torsions:
REMARK  status: ('A' for Active; 'I' for Inactive)
REMARK    1  A    between atoms: C1_2  and  C2_3 
REMARK    2  A    between atoms: C2_3  and  C3_4 
ROOT
ATOM      1  C3  UNL d   1      -1.620  -1.020  -0.380  0.00  0.00    -0.075 A 
ATOM      2  C4  UNL d   1      -0.994  -0.485  -1.514  0.00  0.00     0.002 A 
ATOM      3  C5  UNL d   1      -1.541   0.617  -2.173  0.00  0.00     0.002 A 
ATOM      4  C6  UNL d   1      -2.725   1.189  -1.713  0.00  0.00    -0.004 A 
ATOM      5  C7  UNL d   1      -3.365   0.655  -0.597  0.00  0.00     0.002 A 
ATOM      6  C8  UNL d   1      -2.817  -0.444   0.067  0.00  0.00     0.002 A 
ENDROOT
BRANCH   1   7
ATOM      7  C2  UNL d   1      -1.017  -2.193   0.355  0.00  0.00     0.056 C 
BRANCH   7   8
ATOM      8  C1  UNL d   1      -0.146  -1.798   1.552  0.00  0.00     0.007 C 
ATOM      9  C   UNL d   1       1.271  -1.400   1.158  0.00  0.00     0.009 C 
ENDBRANCH   7   8
ENDBRANCH   1   7
TORSDOF 2
ENDMDL
