MODEL 1
REMARK minimizedAffinity 4.00240946
REMARK minimizedRMSD -1
REMARK  2 active torsions:
REMARK  status: ('A' for Active; 'I' for Inactive)
REMARK    1  A    between atoms: C1_2  and  C2_3 
REMARK    2  A    between atoms: C2_3  and  C3_4 
ROOT
ATOM      1  C3  UNL d   1      -1.405  -1.482  -0.080  0.00  0.00    -0.075 A 
ATOM      2  C4  UNL d   1      -0.616  -0.667  -0.906  0.00  0.00     0.002 A 
ATOM      3  C5  UNL d   1      -1.180  -0.009  -1.998  0.00  0.00     0.002 A 
ATOM      4  C6  UNL d   1      -2.535  -0.163  -2.285  0.00  0.00    -0.004 A 
ATOM      5  C7  UNL d   1      -3.324  -0.983  -1.482  0.00  0.00     0.002 A 
ATOM      6  C8  UNL d   1      -2.763  -1.640  -0.385  0.00  0.00     0.002 A 
ENDROOT
BRANCH   1   7
ATOM      7  C2  UNL d   1      -0.806  -2.174   1.121  0.00  0.00     0.056 C 
BRANCH   7   8
ATOM      8  C1  UNL d   1       0.581  -1.655   1.513  0.00  0.00     0.007 C 
ATOM      9  C   UNL d   1       0.942  -1.943   2.964  0.00  0.00     0.009 C 
ENDBRANCH   7   8
ENDBRANCH   1   7
TORSDOF 2
ENDMDL
