MODEL 1
REMARK minimizedAffinity -6.40057278
REMARK minimizedRMSD -1
REMARK  2 active torsions:
REMARK  status: ('A' for Active; 'I' for Inactive)
REMARK    1  A    between atoms: C1_2  and  C2_3 
REMARK    2  A    between atoms: C2_3  and  C3_4 
ROOT
ATOM      1  C3  UNL d   1       0.388   0.119   0.793  0.00  0.00    -0.075 A 
ATOM      2  C4  UNL d   1       0.354   0.595  -0.525  0.00  0.00     0.002 A 
ATOM      3  C5  UNL d   1      -0.776   0.400  -1.321  0.00  0.00     0.002 A 
ATOM      4  C6  UNL d   1      -1.879  -0.282  -0.813  0.00  0.00    -0.004 A 
ATOM      5  C7  UNL d   1      -1.851  -0.774   0.490  0.00  0.00     0.002 A 
ATOM      6  C8  UNL d   1      -0.723  -0.576   1.290  0.00  0.00     0.002 A 
ENDROOT
BRANCH   1   7
ATOM      7  C2  UNL d   1       1.595   0.353   1.669  0.00  0.00     0.056 C 
BRANCH   7   8
ATOM      8  C1  UNL d   1       1.806   1.819   2.062  0.00  0.00     0.007 C 
ATOM      9  C   UNL d   1       3.033   2.444   1.412  0.00  0.00     0.009 C 
ENDBRANCH   7   8
ENDBRANCH   1   7
TORSDOF 2
ENDMDL
