MODEL 1
REMARK minimizedAffinity -1.94244993
REMARK minimizedRMSD -1
REMARK  2 active torsions:
REMARK  status: ('A' for Active; 'I' for Inactive)
REMARK    1  A    between atoms: C1_2  and  C2_3 
REMARK    2  A    between atoms: C2_3  and  C3_4 
ROOT
ATOM      1  C3  UNL d   1      -1.640  -1.489   0.763  0.00  0.00    -0.075 A 
ATOM      2  C4  UNL d   1      -1.349  -0.595   1.804  0.00  0.00     0.002 A 
ATOM      3  C5  UNL d   1      -0.425   0.434   1.617  0.00  0.00     0.002 A 
ATOM      4  C6  UNL d   1       0.226   0.576   0.394  0.00  0.00    -0.004 A 
ATOM      5  C7  UNL d   1      -0.043  -0.316  -0.642  0.00  0.00     0.002 A 
ATOM      6  C8  UNL d   1      -0.970  -1.344  -0.459  0.00  0.00     0.002 A 
ENDROOT
BRANCH   1   7
ATOM      7  C2  UNL d   1      -2.660  -2.586   0.950  0.00  0.00     0.056 C 
BRANCH   7   8
ATOM      8  C1  UNL d   1      -3.176  -3.187  -0.362  0.00  0.00     0.007 C 
ATOM      9  C   UNL d   1      -2.709  -4.618  -0.592  0.00  0.00     0.009 C 
ENDBRANCH   7   8
ENDBRANCH   1   7
TORSDOF 2
ENDMDL
