MODEL 1
REMARK minimizedAffinity -0.74947381
REMARK minimizedRMSD -1
REMARK  2 active torsions:
REMARK  status: ('A' for Active; 'I' for Inactive)
REMARK    1  A    between atoms: C1_2  and  C2_3 
REMARK    2  A    between atoms: C2_3  and  C3_4 
ROOT
ATOM      1  C3  UNL d   1      -0.838  -0.328  -2.553  0.00  0.00    -0.075 A 
ATOM      2  C4  UNL d   1      -2.064  -0.962  -2.803  0.00  0.00     0.002 A 
ATOM      3  C5  UNL d   1      -2.286  -1.625  -4.010  0.00  0.00     0.002 A 
ATOM      4  C6  UNL d   1      -1.291  -1.654  -4.985  0.00  0.00    -0.004 A 
ATOM      5  C7  UNL d   1      -0.076  -1.013  -4.755  0.00  0.00     0.002 A 
ATOM      6  C8  UNL d   1       0.150  -0.353  -3.546  0.00  0.00     0.002 A 
ENDROOT
BRANCH   1   7
ATOM      7  C2  UNL d   1      -0.581   0.367  -1.237  0.00  0.00     0.056 C 
BRANCH   7   8
ATOM      8  C1  UNL d   1       0.658  -0.143  -0.495  0.00  0.00     0.007 C 
ATOM      9  C   UNL d   1       0.326  -1.108   0.636  0.00  0.00     0.009 C 
ENDBRANCH   7   8
ENDBRANCH   1   7
TORSDOF 2
ENDMDL
