MODEL 1
REMARK minimizedAffinity 3.42871237
REMARK minimizedRMSD -1
REMARK  2 active torsions:
REMARK  status: ('A' for Active; 'I' for Inactive)
REMARK    1  A    between atoms: C1_2  and  C2_3 
REMARK    2  A    between atoms: C2_3  and  C3_4 
ROOT
ATOM      1  C3  UNL d   1      -2.157  -0.621   2.935  0.00  0.00    -0.075 A 
ATOM      2  C4  UNL d   1      -2.383   0.605   3.577  0.00  0.00     0.002 A 
ATOM      3  C5  UNL d   1      -2.874   0.641   4.882  0.00  0.00     0.002 A 
ATOM      4  C6  UNL d   1      -3.155  -0.546   5.557  0.00  0.00    -0.004 A 
ATOM      5  C7  UNL d   1      -2.949  -1.769   4.923  0.00  0.00     0.002 A 
ATOM      6  C8  UNL d   1      -2.454  -1.808   3.618  0.00  0.00     0.002 A 
ENDROOT
BRANCH   1   7
ATOM      7  C2  UNL d   1      -1.598  -0.667   1.533  0.00  0.00     0.056 C 
BRANCH   7   8
ATOM      8  C1  UNL d   1      -2.266   0.312   0.562  0.00  0.00     0.007 C 
ATOM      9  C   UNL d   1      -1.646   0.297  -0.829  0.00  0.00     0.009 C 
ENDBRANCH   7   8
ENDBRANCH   1   7
TORSDOF 2
ENDMDL
