MODEL 1
REMARK minimizedAffinity 5.8577137
REMARK minimizedRMSD -1
REMARK  2 active torsions:
REMARK  status: ('A' for Active; 'I' for Inactive)
REMARK    1  A    between atoms: C1_2  and  C2_3 
REMARK    2  A    between atoms: C2_3  and  C3_4 
ROOT
ATOM      1  C3  UNL d   1      -0.604  -0.453  -0.336  0.00  0.00    -0.075 A 
ATOM      2  C4  UNL d   1       0.690  -0.049  -0.696  0.00  0.00     0.002 A 
ATOM      3  C5  UNL d   1       0.976   0.323  -2.010  0.00  0.00     0.002 A 
ATOM      4  C6  UNL d   1      -0.022   0.285  -2.981  0.00  0.00    -0.004 A 
ATOM      5  C7  UNL d   1      -1.307  -0.130  -2.638  0.00  0.00     0.002 A 
ATOM      6  C8  UNL d   1      -1.597  -0.498  -1.323  0.00  0.00     0.002 A 
ENDROOT
BRANCH   1   7
ATOM      7  C2  UNL d   1      -0.928  -0.828   1.090  0.00  0.00     0.056 C 
BRANCH   7   8
ATOM      8  C1  UNL d   1      -2.111  -0.057   1.685  0.00  0.00     0.007 C 
ATOM      9  C   UNL d   1      -2.175  -0.134   3.205  0.00  0.00     0.009 C 
ENDBRANCH   7   8
ENDBRANCH   1   7
TORSDOF 2
ENDMDL
