MODEL 1
REMARK minimizedAffinity 10.4213743
REMARK minimizedRMSD -1
REMARK  2 active torsions:
REMARK  status: ('A' for Active; 'I' for Inactive)
REMARK    1  A    between atoms: C1_2  and  C2_3 
REMARK    2  A    between atoms: C2_3  and  C3_4 
ROOT
ATOM      1  C3  UNL d   1      -4.288   3.711  -0.107  0.00  0.00    -0.075 A 
ATOM      2  C4  UNL d   1      -4.544   4.503   1.022  0.00  0.00     0.002 A 
ATOM      3  C5  UNL d   1      -5.350   5.637   0.924  0.00  0.00     0.002 A 
ATOM      4  C6  UNL d   1      -5.901   5.999  -0.303  0.00  0.00    -0.004 A 
ATOM      5  C7  UNL d   1      -5.641   5.229  -1.434  0.00  0.00     0.002 A 
ATOM      6  C8  UNL d   1      -4.838   4.091  -1.338  0.00  0.00     0.002 A 
ENDROOT
BRANCH   1   7
ATOM      7  C2  UNL d   1      -3.441   2.465  -0.001  0.00  0.00     0.056 C 
BRANCH   7   8
ATOM      8  C1  UNL d   1      -2.110   2.551  -0.756  0.00  0.00     0.007 C 
ATOM      9  C   UNL d   1      -1.169   1.393  -0.447  0.00  0.00     0.009 C 
ENDBRANCH   7   8
ENDBRANCH   1   7
TORSDOF 2
ENDMDL
