MODEL 1
REMARK minimizedAffinity -0.97442174
REMARK minimizedRMSD -1
REMARK  2 active torsions:
REMARK  status: ('A' for Active; 'I' for Inactive)
REMARK    1  A    between atoms: C1_2  and  C2_3 
REMARK    2  A    between atoms: C2_3  and  C3_4 
ROOT
ATOM      1  C3  UNL d   1      -5.858   4.806   3.092  0.00  0.00    -0.075 A 
ATOM      2  C4  UNL d   1      -5.972   5.999   3.821  0.00  0.00     0.002 A 
ATOM      3  C5  UNL d   1      -5.999   5.978   5.215  0.00  0.00     0.002 A 
ATOM      4  C6  UNL d   1      -5.923   4.765   5.898  0.00  0.00    -0.004 A 
ATOM      5  C7  UNL d   1      -5.826   3.573   5.184  0.00  0.00     0.002 A 
ATOM      6  C8  UNL d   1      -5.794   3.592   3.788  0.00  0.00     0.002 A 
ENDROOT
BRANCH   1   7
ATOM      7  C2  UNL d   1      -5.798   4.825   1.583  0.00  0.00     0.056 C 
BRANCH   7   8
ATOM      8  C1  UNL d   1      -5.468   3.467   0.955  0.00  0.00     0.007 C 
ATOM      9  C   UNL d   1      -4.471   3.563  -0.192  0.00  0.00     0.009 C 
ENDBRANCH   7   8
ENDBRANCH   1   7
TORSDOF 2
ENDMDL
