MODEL 1
REMARK minimizedAffinity -2.71859932
REMARK minimizedRMSD -1
REMARK  2 active torsions:
REMARK  status: ('A' for Active; 'I' for Inactive)
REMARK    1  A    between atoms: C1_2  and  C2_3 
REMARK    2  A    between atoms: C2_3  and  C3_4 
ROOT
ATOM      1  C3  UNL d   1      -0.507  -1.515   0.090  0.00  0.00    -0.075 A 
ATOM      2  C4  UNL d   1      -1.427  -2.573   0.061  0.00  0.00     0.002 A 
ATOM      3  C5  UNL d   1      -2.427  -2.617  -0.911  0.00  0.00     0.002 A 
ATOM      4  C6  UNL d   1      -2.526  -1.600  -1.859  0.00  0.00    -0.004 A 
ATOM      5  C7  UNL d   1      -1.628  -0.536  -1.829  0.00  0.00     0.002 A 
ATOM      6  C8  UNL d   1      -0.624  -0.492  -0.860  0.00  0.00     0.002 A 
ENDROOT
BRANCH   1   7
ATOM      7  C2  UNL d   1       0.595  -1.477   1.122  0.00  0.00     0.056 C 
BRANCH   7   8
ATOM      8  C1  UNL d   1       0.129  -1.046   2.516  0.00  0.00     0.007 C 
ATOM      9  C   UNL d   1       1.276  -0.848   3.498  0.00  0.00     0.009 C 
ENDBRANCH   7   8
ENDBRANCH   1   7
TORSDOF 2
ENDMDL
