MODEL 1
REMARK minimizedAffinity -4.58492184
REMARK minimizedRMSD -1
REMARK  2 active torsions:
REMARK  status: ('A' for Active; 'I' for Inactive)
REMARK    1  A    between atoms: C1_2  and  C2_3 
REMARK    2  A    between atoms: C2_3  and  C3_4 
ROOT
ATOM      1  C3  UNL d   1      -0.252  -0.881   0.875  0.00  0.00    -0.075 A 
ATOM      2  C4  UNL d   1      -0.381  -2.144   1.470  0.00  0.00     0.002 A 
ATOM      3  C5  UNL d   1      -1.451  -2.977   1.139  0.00  0.00     0.002 A 
ATOM      4  C6  UNL d   1      -2.407  -2.554   0.218  0.00  0.00    -0.004 A 
ATOM      5  C7  UNL d   1      -2.298  -1.294  -0.366  0.00  0.00     0.002 A 
ATOM      6  C8  UNL d   1      -1.227  -0.461  -0.040  0.00  0.00     0.002 A 
ENDROOT
BRANCH   1   7
ATOM      7  C2  UNL d   1       0.919   0.013   1.208  0.00  0.00     0.056 C 
BRANCH   7   8
ATOM      8  C1  UNL d   1       1.371   0.905   0.047  0.00  0.00     0.007 C 
ATOM      9  C   UNL d   1       2.230   2.082   0.493  0.00  0.00     0.009 C 
ENDBRANCH   7   8
ENDBRANCH   1   7
TORSDOF 2
ENDMDL
