MODEL 1
REMARK minimizedAffinity -5.5700407
REMARK minimizedRMSD -1
REMARK  2 active torsions:
REMARK  status: ('A' for Active; 'I' for Inactive)
REMARK    1  A    between atoms: C1_2  and  C2_3 
REMARK    2  A    between atoms: C2_3  and  C3_4 
ROOT
ATOM      1  C3  UNL d   1       1.531   0.637   0.779  0.00  0.00    -0.075 A 
ATOM      2  C4  UNL d   1       1.417   0.704   2.175  0.00  0.00     0.002 A 
ATOM      3  C5  UNL d   1       1.997   1.757   2.883  0.00  0.00     0.002 A 
ATOM      4  C6  UNL d   1       2.706   2.748   2.207  0.00  0.00    -0.004 A 
ATOM      5  C7  UNL d   1       2.840   2.682   0.822  0.00  0.00     0.002 A 
ATOM      6  C8  UNL d   1       2.257   1.632   0.111  0.00  0.00     0.002 A 
ENDROOT
BRANCH   1   7
ATOM      7  C2  UNL d   1       0.881  -0.484   0.004  0.00  0.00     0.056 C 
BRANCH   7   8
ATOM      8  C1  UNL d   1      -0.225  -0.023  -0.951  0.00  0.00     0.007 C 
ATOM      9  C   UNL d   1      -1.610  -0.509  -0.546  0.00  0.00     0.009 C 
ENDBRANCH   7   8
ENDBRANCH   1   7
TORSDOF 2
ENDMDL
