MODEL 1
REMARK minimizedAffinity -2.21627474
REMARK minimizedRMSD -1
REMARK  2 active torsions:
REMARK  status: ('A' for Active; 'I' for Inactive)
REMARK    1  A    between atoms: C1_2  and  C2_3 
REMARK    2  A    between atoms: C2_3  and  C3_4 
ROOT
ATOM      1  C3  UNL d   1       1.071   0.186   1.987  0.00  0.00    -0.075 A 
ATOM      2  C4  UNL d   1       1.066  -1.080   1.384  0.00  0.00     0.002 A 
ATOM      3  C5  UNL d   1      -0.055  -1.905   1.479  0.00  0.00     0.002 A 
ATOM      4  C6  UNL d   1      -1.179  -1.480   2.184  0.00  0.00    -0.004 A 
ATOM      5  C7  UNL d   1      -1.179  -0.231   2.801  0.00  0.00     0.002 A 
ATOM      6  C8  UNL d   1      -0.060   0.599   2.704  0.00  0.00     0.002 A 
ENDROOT
BRANCH   1   7
ATOM      7  C2  UNL d   1       2.270   1.096   1.864  0.00  0.00     0.056 C 
BRANCH   7   8
ATOM      8  C1  UNL d   1       2.078   2.251   0.875  0.00  0.00     0.007 C 
ATOM      9  C   UNL d   1       3.206   2.364  -0.142  0.00  0.00     0.009 C 
ENDBRANCH   7   8
ENDBRANCH   1   7
TORSDOF 2
ENDMDL
