MODEL 1
REMARK minimizedAffinity -2.57268238
REMARK minimizedRMSD -1
REMARK  0 active torsions:
REMARK  status: ('A' for Active; 'I' for Inactive)
ROOT
ATOM      1  C1  BNZ d   1       2.582   2.862  -3.021  0.00  0.00     0.000 A 
ATOM      2  C2  BNZ d   1       1.935   1.743  -3.473  0.00  0.00     0.000 A 
ATOM      3  C3  BNZ d   1       1.002   1.112  -2.697  0.00  0.00     0.000 A 
ATOM      4  C4  BNZ d   1       0.747   1.578  -1.458  0.00  0.00     0.000 A 
ATOM      5  C5  BNZ d   1       1.397   2.700  -0.984  0.00  0.00     0.000 A 
ATOM      6  C6  BNZ d   1       2.307   3.355  -1.783  0.00  0.00     0.000 A 
ENDROOT
TORSDOF 0
ENDMDL
