MODEL 1
REMARK minimizedAffinity 2.52576995
REMARK minimizedRMSD -1
REMARK  0 active torsions:
REMARK  status: ('A' for Active; 'I' for Inactive)
ROOT
ATOM      1  C1  BNZ d   1       2.560   1.646   1.966  0.00  0.00     0.000 A 
ATOM      2  C2  BNZ d   1       1.580   2.210   1.193  0.00  0.00     0.000 A 
ATOM      3  C3  BNZ d   1       1.796   3.393   0.543  0.00  0.00     0.000 A 
ATOM      4  C4  BNZ d   1       2.975   4.030   0.699  0.00  0.00     0.000 A 
ATOM      5  C5  BNZ d   1       3.969   3.478   1.482  0.00  0.00     0.000 A 
ATOM      6  C6  BNZ d   1       3.762   2.268   2.104  0.00  0.00     0.000 A 
ENDROOT
TORSDOF 0
ENDMDL
