MODEL 1
REMARK minimizedAffinity 7.52157545
REMARK minimizedRMSD -1
REMARK  0 active torsions:
REMARK  status: ('A' for Active; 'I' for Inactive)
ROOT
ATOM      1  C1  BNZ d   1       3.274   2.465  -5.935  0.00  0.00     0.000 A 
ATOM      2  C2  BNZ d   1       2.604   1.271  -5.988  0.00  0.00     0.000 A 
ATOM      3  C3  BNZ d   1       1.868   0.834  -4.922  0.00  0.00     0.000 A 
ATOM      4  C4  BNZ d   1       1.835   1.570  -3.793  0.00  0.00     0.000 A 
ATOM      5  C5  BNZ d   1       2.512   2.771  -3.721  0.00  0.00     0.000 A 
ATOM      6  C6  BNZ d   1       3.221   3.227  -4.809  0.00  0.00     0.000 A 
ENDROOT
TORSDOF 0
ENDMDL
