MODEL 1
REMARK minimizedAffinity 4.24189377
REMARK minimizedRMSD -1
REMARK  0 active torsions:
REMARK  status: ('A' for Active; 'I' for Inactive)
ROOT
ATOM      1  C1  BNZ d   1      -3.946  -2.706   4.076  0.00  0.00     0.000 A 
ATOM      2  C2  BNZ d   1      -2.832  -2.398   3.342  0.00  0.00     0.000 A 
ATOM      3  C3  BNZ d   1      -2.544  -1.102   3.018  0.00  0.00     0.000 A 
ATOM      4  C4  BNZ d   1      -3.390  -0.121   3.393  0.00  0.00     0.000 A 
ATOM      5  C5  BNZ d   1      -4.522  -0.417   4.125  0.00  0.00     0.000 A 
ATOM      6  C6  BNZ d   1      -4.789  -1.718   4.483  0.00  0.00     0.000 A 
ENDROOT
TORSDOF 0
ENDMDL
