MODEL 1
REMARK minimizedAffinity 5.66679621
REMARK minimizedRMSD -1
REMARK  0 active torsions:
REMARK  status: ('A' for Active; 'I' for Inactive)
ROOT
ATOM      1  C1  BNZ d   1       1.474   1.543  -4.997  0.00  0.00     0.000 A 
ATOM      2  C2  BNZ d   1       0.702   1.168  -3.930  0.00  0.00     0.000 A 
ATOM      3  C3  BNZ d   1       1.276   0.716  -2.775  0.00  0.00     0.000 A 
ATOM      4  C4  BNZ d   1       2.618   0.602  -2.701  0.00  0.00     0.000 A 
ATOM      5  C5  BNZ d   1       3.410   0.968  -3.772  0.00  0.00     0.000 A 
ATOM      6  C6  BNZ d   1       2.830   1.459  -4.919  0.00  0.00     0.000 A 
ENDROOT
TORSDOF 0
ENDMDL
