MODEL 1
REMARK minimizedAffinity 1.23304868
REMARK minimizedRMSD -1
REMARK  0 active torsions:
REMARK  status: ('A' for Active; 'I' for Inactive)
ROOT
ATOM      1  C1  BNZ d   1      -1.386  -0.620  -0.015  0.00  0.00     0.000 A 
ATOM      2  C2  BNZ d   1      -1.635  -1.944   0.232  0.00  0.00     0.000 A 
ATOM      3  C3  BNZ d   1      -0.661  -2.885   0.051  0.00  0.00     0.000 A 
ATOM      4  C4  BNZ d   1       0.547  -2.508  -0.415  0.00  0.00     0.000 A 
ATOM      5  C5  BNZ d   1       0.811  -1.178  -0.677  0.00  0.00     0.000 A 
ATOM      6  C6  BNZ d   1      -0.160  -0.229  -0.457  0.00  0.00     0.000 A 
ENDROOT
TORSDOF 0
ENDMDL
