MODEL 1
REMARK minimizedAffinity -1.30389416
REMARK minimizedRMSD -1
REMARK  0 active torsions:
REMARK  status: ('A' for Active; 'I' for Inactive)
ROOT
ATOM      1  C1  BNZ d   1      -0.568   0.215  -1.174  0.00  0.00     0.000 A 
ATOM      2  C2  BNZ d   1       0.595   0.173  -1.897  0.00  0.00     0.000 A 
ATOM      3  C3  BNZ d   1       1.437  -0.901  -1.807  0.00  0.00     0.000 A 
ATOM      4  C4  BNZ d   1       1.135  -1.911  -0.966  0.00  0.00     0.000 A 
ATOM      5  C5  BNZ d   1      -0.028  -1.879  -0.223  0.00  0.00     0.000 A 
ATOM      6  C6  BNZ d   1      -0.892  -0.815  -0.346  0.00  0.00     0.000 A 
ENDROOT
TORSDOF 0
ENDMDL
