MODEL 1
REMARK minimizedAffinity 3.356709
REMARK minimizedRMSD -1
REMARK  0 active torsions:
REMARK  status: ('A' for Active; 'I' for Inactive)
ROOT
ATOM      1  C1  BNZ d   1       1.104  -0.717  -1.195  0.00  0.00     0.000 A 
ATOM      2  C2  BNZ d   1      -0.078  -0.602  -0.513  0.00  0.00     0.000 A 
ATOM      3  C3  BNZ d   1      -0.677  -1.699   0.039  0.00  0.00     0.000 A 
ATOM      4  C4  BNZ d   1      -0.116  -2.914  -0.126  0.00  0.00     0.000 A 
ATOM      5  C5  BNZ d   1       1.071  -3.048  -0.818  0.00  0.00     0.000 A 
ATOM      6  C6  BNZ d   1       1.692  -1.936  -1.339  0.00  0.00     0.000 A 
ENDROOT
TORSDOF 0
ENDMDL
