MODEL 1
REMARK minimizedAffinity -0.865781486
REMARK minimizedRMSD -1
REMARK  0 active torsions:
REMARK  status: ('A' for Active; 'I' for Inactive)
ROOT
ATOM      1  C1  BNZ d   1       1.434  -2.622  -0.491  0.00  0.00     0.000 A 
ATOM      2  C2  BNZ d   1       0.265  -2.736   0.214  0.00  0.00     0.000 A 
ATOM      3  C3  BNZ d   1      -0.632  -1.705   0.253  0.00  0.00     0.000 A 
ATOM      4  C4  BNZ d   1      -0.341  -0.549  -0.378  0.00  0.00     0.000 A 
ATOM      5  C5  BNZ d   1       0.837  -0.416  -1.085  0.00  0.00     0.000 A 
ATOM      6  C6  BNZ d   1       1.720  -1.469  -1.155  0.00  0.00     0.000 A 
ENDROOT
TORSDOF 0
ENDMDL
