MODEL 1
REMARK minimizedAffinity 2.22500062
REMARK minimizedRMSD -1
REMARK  0 active torsions:
REMARK  status: ('A' for Active; 'I' for Inactive)
ROOT
ATOM      1  C1  BNZ d   1       0.512  -0.132  -1.218  0.00  0.00     0.000 A 
ATOM      2  C2  BNZ d   1       1.101  -1.369  -1.223  0.00  0.00     0.000 A 
ATOM      3  C3  BNZ d   1       1.884  -1.767  -2.270  0.00  0.00     0.000 A 
ATOM      4  C4  BNZ d   1       2.044  -0.945  -3.328  0.00  0.00     0.000 A 
ATOM      5  C5  BNZ d   1       1.450   0.301  -3.341  0.00  0.00     0.000 A 
ATOM      6  C6  BNZ d   1       0.694   0.713  -2.268  0.00  0.00     0.000 A 
ENDROOT
TORSDOF 0
ENDMDL
