MODEL 1
REMARK minimizedAffinity 0.901649952
REMARK minimizedRMSD -1
REMARK  0 active torsions:
REMARK  status: ('A' for Active; 'I' for Inactive)
ROOT
ATOM      1  C1  BNZ d   1       1.053  -2.193  -0.771  0.00  0.00     0.000 A 
ATOM      2  C2  BNZ d   1       1.093  -0.849  -1.029  0.00  0.00     0.000 A 
ATOM      3  C3  BNZ d   1       0.065  -0.032  -0.648  0.00  0.00     0.000 A 
ATOM      4  C4  BNZ d   1      -1.018  -0.566  -0.047  0.00  0.00     0.000 A 
ATOM      5  C5  BNZ d   1      -1.077  -1.921   0.211  0.00  0.00     0.000 A 
ATOM      6  C6  BNZ d   1      -0.024  -2.734  -0.138  0.00  0.00     0.000 A 
ENDROOT
TORSDOF 0
ENDMDL
