MODEL 1
REMARK minimizedAffinity 0.00889084395
REMARK minimizedRMSD -1
REMARK  0 active torsions:
REMARK  status: ('A' for Active; 'I' for Inactive)
ROOT
ATOM      1  C1  BNZ d   1       5.935   1.333   6.000  0.00  0.00     0.000 A 
ATOM      2  C2  BNZ d   1       5.599   2.005   4.855  0.00  0.00     0.000 A 
ATOM      3  C3  BNZ d   1       5.315   1.326   3.703  0.00  0.00     0.000 A 
ATOM      4  C4  BNZ d   1       5.405  -0.020   3.687  0.00  0.00     0.000 A 
ATOM      5  C5  BNZ d   1       5.752  -0.711   4.831  0.00  0.00     0.000 A 
ATOM      6  C6  BNZ d   1       6.000  -0.026   5.999  0.00  0.00     0.000 A 
ENDROOT
TORSDOF 0
ENDMDL
