MODEL 1
REMARK minimizedAffinity -0.413835645
REMARK minimizedRMSD -1
REMARK  0 active torsions:
REMARK  status: ('A' for Active; 'I' for Inactive)
ROOT
ATOM      1  C1  BNZ d   1       1.773  -1.761  -1.538  0.00  0.00     0.000 A 
ATOM      2  C2  BNZ d   1       0.974  -0.685  -1.819  0.00  0.00     0.000 A 
ATOM      3  C3  BNZ d   1       0.025  -0.267  -0.928  0.00  0.00     0.000 A 
ATOM      4  C4  BNZ d   1      -0.151  -0.949   0.222  0.00  0.00     0.000 A 
ATOM      5  C5  BNZ d   1       0.641  -2.042   0.515  0.00  0.00     0.000 A 
ATOM      6  C6  BNZ d   1       1.621  -2.436  -0.366  0.00  0.00     0.000 A 
ENDROOT
TORSDOF 0
ENDMDL
