MODEL 1
REMARK minimizedAffinity 4.41963625
REMARK minimizedRMSD -1
REMARK  0 active torsions:
REMARK  status: ('A' for Active; 'I' for Inactive)
ROOT
ATOM      1  C1  BNZ d   1       5.998  -3.132   3.719  0.00  0.00     0.000 A 
ATOM      2  C2  BNZ d   1       5.618  -3.809   4.848  0.00  0.00     0.000 A 
ATOM      3  C3  BNZ d   1       5.227  -3.134   5.970  0.00  0.00     0.000 A 
ATOM      4  C4  BNZ d   1       5.254  -1.785   5.976  0.00  0.00     0.000 A 
ATOM      5  C5  BNZ d   1       5.643  -1.089   4.849  0.00  0.00     0.000 A 
ATOM      6  C6  BNZ d   1       5.999  -1.771   3.709  0.00  0.00     0.000 A 
ENDROOT
TORSDOF 0
ENDMDL
