MODEL 1
REMARK minimizedAffinity 17.6750145
REMARK minimizedRMSD -1
REMARK  3 active torsions:
REMARK  status: ('A' for Active; 'I' for Inactive)
REMARK    1  A    between atoms: C3'_2  and  C2'_3 
REMARK    2  A    between atoms: C2'_3  and  C1'_4 
REMARK    3  A    between atoms: C1'_4  and  C1_5 
ROOT
ATOM      1  C1  N4B d   1      -1.601   3.483   0.635  0.00  0.00    -0.075 A 
ATOM      2  C2  N4B d   1      -1.407   4.120  -0.610  0.00  0.00     0.002 A 
ATOM      3  C3  N4B d   1      -0.429   3.675  -1.465  0.00  0.00     0.002 A 
ATOM      4  C4  N4B d   1       0.377   2.611  -1.089  0.00  0.00    -0.004 A 
ATOM      5  C5  N4B d   1       0.167   1.985   0.105  0.00  0.00     0.002 A 
ATOM      6  C6  N4B d   1      -0.815   2.419   0.972  0.00  0.00     0.002 A 
ENDROOT
BRANCH   1   7
ATOM      7  C1' N4B d   1      -2.601   3.989   1.639  0.00  0.00     0.057 C 
BRANCH   7   8
ATOM      8  C2' N4B d   1      -2.877   5.465   1.371  0.00  0.00     0.009 C 
BRANCH   8   9
ATOM      9  C3' N4B d   1      -4.359   5.743   1.194  0.00  0.00     0.004 C 
ATOM     10  C4' N4B d   1      -4.864   5.359  -0.165  0.00  0.00     0.003 C 
ENDBRANCH   8   9
ENDBRANCH   7   8
ENDBRANCH   1   7
TORSDOF 3
ENDMDL
