MODEL 1
REMARK minimizedAffinity 9.64752769
REMARK minimizedRMSD -1
REMARK  3 active torsions:
REMARK  status: ('A' for Active; 'I' for Inactive)
REMARK    1  A    between atoms: C3'_2  and  C2'_3 
REMARK    2  A    between atoms: C2'_3  and  C1'_4 
REMARK    3  A    between atoms: C1'_4  and  C1_5 
ROOT
ATOM      1  C1  N4B d   1      -0.484   2.604   1.045  0.00  0.00    -0.075 A 
ATOM      2  C2  N4B d   1      -1.175   3.812   1.281  0.00  0.00     0.002 A 
ATOM      3  C3  N4B d   1      -1.448   4.662   0.237  0.00  0.00     0.002 A 
ATOM      4  C4  N4B d   1      -1.025   4.335  -1.042  0.00  0.00    -0.004 A 
ATOM      5  C5  N4B d   1      -0.380   3.153  -1.266  0.00  0.00     0.002 A 
ATOM      6  C6  N4B d   1      -0.102   2.288  -0.227  0.00  0.00     0.002 A 
ENDROOT
BRANCH   1   7
ATOM      7  C1' N4B d   1      -0.087   1.684   2.167  0.00  0.00     0.057 C 
BRANCH   7   8
ATOM      8  C2' N4B d   1       1.431   1.701   2.316  0.00  0.00     0.009 C 
BRANCH   8   9
ATOM      9  C3' N4B d   1       1.984   0.328   2.657  0.00  0.00     0.004 C 
ATOM     10  C4' N4B d   1       2.894  -0.212   1.594  0.00  0.00     0.003 C 
ENDBRANCH   8   9
ENDBRANCH   7   8
ENDBRANCH   1   7
TORSDOF 3
ENDMDL
