MODEL 1
REMARK minimizedAffinity 11.3354197
REMARK minimizedRMSD -1
REMARK  3 active torsions:
REMARK  status: ('A' for Active; 'I' for Inactive)
REMARK    1  A    between atoms: C3'_2  and  C2'_3 
REMARK    2  A    between atoms: C2'_3  and  C1'_4 
REMARK    3  A    between atoms: C1'_4  and  C1_5 
ROOT
ATOM      1  C1  N4B d   1       0.351   2.652   0.363  0.00  0.00    -0.075 A 
ATOM      2  C2  N4B d   1      -0.716   2.086   1.094  0.00  0.00     0.002 A 
ATOM      3  C3  N4B d   1      -0.472   1.459   2.291  0.00  0.00     0.002 A 
ATOM      4  C4  N4B d   1       0.828   1.370   2.766  0.00  0.00    -0.004 A 
ATOM      5  C5  N4B d   1       1.850   1.942   2.067  0.00  0.00     0.002 A 
ATOM      6  C6  N4B d   1       1.619   2.579   0.864  0.00  0.00     0.002 A 
ENDROOT
BRANCH   1   7
ATOM      7  C1' N4B d   1       0.145   3.272  -0.992  0.00  0.00     0.057 C 
BRANCH   7   8
ATOM      8  C2' N4B d   1      -1.073   4.190  -0.943  0.00  0.00     0.009 C 
BRANCH   8   9
ATOM      9  C3' N4B d   1      -1.004   5.163   0.221  0.00  0.00     0.004 C 
ATOM     10  C4' N4B d   1      -2.349   5.705   0.604  0.00  0.00     0.003 C 
ENDBRANCH   8   9
ENDBRANCH   7   8
ENDBRANCH   1   7
TORSDOF 3
ENDMDL
