MODEL 1
REMARK minimizedAffinity 19.0458851
REMARK minimizedRMSD -1
REMARK  3 active torsions:
REMARK  status: ('A' for Active; 'I' for Inactive)
REMARK    1  A    between atoms: C3'_2  and  C2'_3 
REMARK    2  A    between atoms: C2'_3  and  C1'_4 
REMARK    3  A    between atoms: C1'_4  and  C1_5 
ROOT
ATOM      1  C1  N4B d   1       3.484  -5.441  -1.342  0.00  0.00    -0.075 A 
ATOM      2  C2  N4B d   1       4.625  -5.438  -0.510  0.00  0.00     0.002 A 
ATOM      3  C3  N4B d   1       5.872  -5.629  -1.053  0.00  0.00     0.002 A 
ATOM      4  C4  N4B d   1       6.000  -5.842  -2.417  0.00  0.00    -0.004 A 
ATOM      5  C5  N4B d   1       4.895  -5.818  -3.218  0.00  0.00     0.002 A 
ATOM      6  C6  N4B d   1       3.636  -5.624  -2.686  0.00  0.00     0.002 A 
ENDROOT
BRANCH   1   7
ATOM      7  C1' N4B d   1       2.093  -5.323  -0.782  0.00  0.00     0.057 C 
BRANCH   7   8
ATOM      8  C2' N4B d   1       1.682  -3.854  -0.769  0.00  0.00     0.009 C 
BRANCH   8   9
ATOM      9  C3' N4B d   1       2.195  -3.131   0.464  0.00  0.00     0.004 C 
ATOM     10  C4' N4B d   1       3.013  -1.919   0.129  0.00  0.00     0.003 C 
ENDBRANCH   8   9
ENDBRANCH   7   8
ENDBRANCH   1   7
TORSDOF 3
ENDMDL
