MODEL 1
REMARK minimizedAffinity 18.8099194
REMARK minimizedRMSD -1
REMARK  3 active torsions:
REMARK  status: ('A' for Active; 'I' for Inactive)
REMARK    1  A    between atoms: C3'_2  and  C2'_3 
REMARK    2  A    between atoms: C2'_3  and  C1'_4 
REMARK    3  A    between atoms: C1'_4  and  C1_5 
ROOT
ATOM      1  C1  N4B d   1       3.520  -5.106  -2.922  0.00  0.00    -0.075 A 
ATOM      2  C2  N4B d   1       4.563  -5.292  -3.855  0.00  0.00     0.002 A 
ATOM      3  C3  N4B d   1       5.789  -5.744  -3.433  0.00  0.00     0.002 A 
ATOM      4  C4  N4B d   1       6.000  -5.998  -2.086  0.00  0.00    -0.004 A 
ATOM      5  C5  N4B d   1       4.979  -5.841  -1.195  0.00  0.00     0.002 A 
ATOM      6  C6  N4B d   1       3.741  -5.391  -1.605  0.00  0.00     0.002 A 
ENDROOT
BRANCH   1   7
ATOM      7  C1' N4B d   1       2.189  -4.532  -3.323  0.00  0.00     0.057 C 
BRANCH   7   8
ATOM      8  C2' N4B d   1       1.141  -4.922  -2.285  0.00  0.00     0.009 C 
BRANCH   8   9
ATOM      9  C3' N4B d   1       0.458  -3.707  -1.682  0.00  0.00     0.004 C 
ATOM     10  C4' N4B d   1       1.322  -2.990  -0.687  0.00  0.00     0.003 C 
ENDBRANCH   8   9
ENDBRANCH   7   8
ENDBRANCH   1   7
TORSDOF 3
ENDMDL
