MODEL 1
REMARK minimizedAffinity -2.51625967
REMARK minimizedRMSD -1
REMARK  0 active torsions:
REMARK  status: ('A' for Active; 'I' for Inactive)
ROOT
ATOM      1  C   UNL d   1       0.786  -0.193   1.781  0.00  0.00     0.172 C 
ATOM      2  N   UNL d   1      -0.135   0.912   1.655  0.00  0.00    -0.070 N 
ATOM      3  C1  UNL d   1      -0.503   1.763   2.663  0.00  0.00    -0.004 A 
ATOM      4  C2  UNL d   1      -1.394   2.676   2.140  0.00  0.00    -0.047 A 
ATOM      5  C3  UNL d   1      -1.568   2.361   0.771  0.00  0.00    -0.047 A 
ATOM      6  C4  UNL d   1      -0.777   1.265   0.498  0.00  0.00    -0.004 A 
ENDROOT
TORSDOF 0
ENDMDL
