MODEL 1
REMARK minimizedAffinity -1.49358046
REMARK minimizedRMSD -1
REMARK  0 active torsions:
REMARK  status: ('A' for Active; 'I' for Inactive)
ROOT
ATOM      1  C   UNL d   1      -0.713  -0.510  -0.447  0.00  0.00     0.172 C 
ATOM      2  N   UNL d   1      -0.662   0.585   0.493  0.00  0.00    -0.070 N 
ATOM      3  C1  UNL d   1      -1.459   1.698   0.465  0.00  0.00    -0.004 A 
ATOM      4  C2  UNL d   1      -1.101   2.500   1.527  0.00  0.00    -0.047 A 
ATOM      5  C3  UNL d   1      -0.051   1.846   2.216  0.00  0.00    -0.047 A 
ATOM      6  C4  UNL d   1       0.200   0.663   1.555  0.00  0.00    -0.004 A 
ENDROOT
TORSDOF 0
ENDMDL
