MODEL 1
REMARK minimizedAffinity 0.988550901
REMARK minimizedRMSD -1
REMARK  0 active torsions:
REMARK  status: ('A' for Active; 'I' for Inactive)
ROOT
ATOM      1  C   UNL d   1      -0.355   2.218   1.879  0.00  0.00     0.172 C 
ATOM      2  N   UNL d   1       0.022   0.961   1.276  0.00  0.00    -0.070 N 
ATOM      3  C1  UNL d   1       0.938   0.077   1.781  0.00  0.00    -0.004 A 
ATOM      4  C2  UNL d   1       1.012  -0.993   0.916  0.00  0.00    -0.047 A 
ATOM      5  C3  UNL d   1       0.110  -0.743  -0.145  0.00  0.00    -0.047 A 
ATOM      6  C4  UNL d   1      -0.489   0.473   0.103  0.00  0.00    -0.004 A 
ENDROOT
TORSDOF 0
ENDMDL
