MODEL 1
REMARK minimizedAffinity -3.3201263
REMARK minimizedRMSD -1
REMARK  0 active torsions:
REMARK  status: ('A' for Active; 'I' for Inactive)
ROOT
ATOM      1  C   UNL d   1       0.409  -0.343  -0.555  0.00  0.00     0.172 C 
ATOM      2  N   UNL d   1       0.203  -1.756  -0.766  0.00  0.00    -0.070 N 
ATOM      3  C1  UNL d   1      -1.005  -2.364  -0.983  0.00  0.00    -0.004 A 
ATOM      4  C2  UNL d   1      -0.776  -3.714  -1.137  0.00  0.00    -0.047 A 
ATOM      5  C3  UNL d   1       0.617  -3.926  -1.006  0.00  0.00    -0.047 A 
ATOM      6  C4  UNL d   1       1.199  -2.697  -0.777  0.00  0.00    -0.004 A 
ENDROOT
TORSDOF 0
ENDMDL
