MODEL 1
REMARK minimizedAffinity 3.58951187
REMARK minimizedRMSD -1
REMARK  0 active torsions:
REMARK  status: ('A' for Active; 'I' for Inactive)
ROOT
ATOM      1  C   UNL d   1      -5.988   6.000  -5.951  0.00  0.00     0.172 C 
ATOM      2  N   UNL d   1      -5.343   5.127  -4.999  0.00  0.00    -0.070 N 
ATOM      3  C1  UNL d   1      -3.992   4.932  -4.882  0.00  0.00    -0.004 A 
ATOM      4  C2  UNL d   1      -3.783   4.030  -3.861  0.00  0.00    -0.047 A 
ATOM      5  C3  UNL d   1      -5.052   3.669  -3.348  0.00  0.00    -0.047 A 
ATOM      6  C4  UNL d   1      -5.999   4.362  -4.071  0.00  0.00    -0.004 A 
ENDROOT
TORSDOF 0
ENDMDL
