MODEL 1
REMARK minimizedAffinity 1.4735924
REMARK minimizedRMSD -1
REMARK  0 active torsions:
REMARK  status: ('A' for Active; 'I' for Inactive)
ROOT
ATOM      1  C   UNL d   1       0.429   1.062   2.896  0.00  0.00     0.172 C 
ATOM      2  N   UNL d   1      -0.329   1.893   1.991  0.00  0.00    -0.070 N 
ATOM      3  C1  UNL d   1       0.006   2.171   0.692  0.00  0.00    -0.004 A 
ATOM      4  C2  UNL d   1      -0.969   2.994   0.172  0.00  0.00    -0.047 A 
ATOM      5  C3  UNL d   1      -1.923   3.219   1.193  0.00  0.00    -0.047 A 
ATOM      6  C4  UNL d   1      -1.502   2.526   2.308  0.00  0.00    -0.004 A 
ENDROOT
TORSDOF 0
ENDMDL
