MODEL 1
REMARK minimizedAffinity -0.487342358
REMARK minimizedRMSD -1
REMARK  1 active torsions:
REMARK  status: ('A' for Active; 'I' for Inactive)
REMARK    1  A    between atoms: C1_2  and  C2_3 
ROOT
ATOM      1  C2  UNL d   1       4.927   1.879  -1.902  0.00  0.00    -0.077 A 
ATOM      2  C3  UNL d   1       5.142   1.895  -0.517  0.00  0.00     0.002 A 
ATOM      3  C4  UNL d   1       4.284   1.200   0.338  0.00  0.00     0.002 A 
ATOM      4  C5  UNL d   1       3.210   0.482  -0.182  0.00  0.00    -0.004 A 
ATOM      5  C6  UNL d   1       2.987   0.461  -1.558  0.00  0.00     0.002 A 
ATOM      6  C7  UNL d   1       3.842   1.156  -2.415  0.00  0.00     0.002 A 
ENDROOT
BRANCH   1   7
ATOM      7  C1  UNL d   1       5.879   2.587  -2.831  0.00  0.00     0.055 C 
ATOM      8  C   UNL d   1       5.518   4.058  -2.977  0.00  0.00     0.019 C 
ENDBRANCH   1   7
TORSDOF 1
ENDMDL
