MODEL 1
REMARK minimizedAffinity 3.71435976
REMARK minimizedRMSD -1
REMARK  1 active torsions:
REMARK  status: ('A' for Active; 'I' for Inactive)
REMARK    1  A    between atoms: C1_2  and  C2_3 
ROOT
ATOM      1  C2  UNL d   1       4.605   1.496  -1.839  0.00  0.00    -0.077 A 
ATOM      2  C3  UNL d   1       4.736   1.636  -0.450  0.00  0.00     0.002 A 
ATOM      3  C4  UNL d   1       3.852   0.984   0.412  0.00  0.00     0.002 A 
ATOM      4  C5  UNL d   1       2.834   0.185  -0.105  0.00  0.00    -0.004 A 
ATOM      5  C6  UNL d   1       2.695   0.041  -1.484  0.00  0.00     0.002 A 
ATOM      6  C7  UNL d   1       3.576   0.693  -2.348  0.00  0.00     0.002 A 
ENDROOT
BRANCH   1   7
ATOM      7  C1  UNL d   1       5.587   2.158  -2.769  0.00  0.00     0.055 C 
ATOM      8  C   UNL d   1       5.421   3.671  -2.764  0.00  0.00     0.019 C 
ENDBRANCH   1   7
TORSDOF 1
ENDMDL
