MODEL 1
REMARK minimizedAffinity 0.153449938
REMARK minimizedRMSD -1
REMARK  1 active torsions:
REMARK  status: ('A' for Active; 'I' for Inactive)
REMARK    1  A    between atoms: C1_2  and  C2_3 
ROOT
ATOM      1  C2  UNL d   1       3.895   1.403  -1.798  0.00  0.00    -0.077 A 
ATOM      2  C3  UNL d   1       2.728   0.629  -1.879  0.00  0.00     0.002 A 
ATOM      3  C4  UNL d   1       2.056   0.242  -0.718  0.00  0.00     0.002 A 
ATOM      4  C5  UNL d   1       2.539   0.626   0.530  0.00  0.00    -0.004 A 
ATOM      5  C6  UNL d   1       3.700   1.394   0.622  0.00  0.00     0.002 A 
ATOM      6  C7  UNL d   1       4.374   1.781  -0.537  0.00  0.00     0.002 A 
ENDROOT
BRANCH   1   7
ATOM      7  C1  UNL d   1       4.594   1.864  -3.050  0.00  0.00     0.055 C 
ATOM      8  C   UNL d   1       5.656   2.908  -2.738  0.00  0.00     0.019 C 
ENDBRANCH   1   7
TORSDOF 1
ENDMDL
