MODEL 1
REMARK minimizedAffinity 6.26664066
REMARK minimizedRMSD -1
REMARK  1 active torsions:
REMARK  status: ('A' for Active; 'I' for Inactive)
REMARK    1  A    between atoms: C1_2  and  C2_3 
ROOT
ATOM      1  C2  UNL d   1       0.479   2.276  -0.204  0.00  0.00    -0.077 A 
ATOM      2  C3  UNL d   1       0.321   1.188  -1.074  0.00  0.00     0.002 A 
ATOM      3  C4  UNL d   1       1.284   0.178  -1.125  0.00  0.00     0.002 A 
ATOM      4  C5  UNL d   1       2.409   0.244  -0.306  0.00  0.00    -0.004 A 
ATOM      5  C6  UNL d   1       2.577   1.323   0.561  0.00  0.00     0.002 A 
ATOM      6  C7  UNL d   1       1.616   2.334   0.613  0.00  0.00     0.002 A 
ENDROOT
BRANCH   1   7
ATOM      7  C1  UNL d   1      -0.582   3.341  -0.112  0.00  0.00     0.055 C 
ATOM      8  C   UNL d   1      -0.260   4.351   0.980  0.00  0.00     0.019 C 
ENDBRANCH   1   7
TORSDOF 1
ENDMDL
