MODEL 1
REMARK minimizedAffinity 4.91138935
REMARK minimizedRMSD -1
REMARK  1 active torsions:
REMARK  status: ('A' for Active; 'I' for Inactive)
REMARK    1  A    between atoms: C1_2  and  C2_3 
ROOT
ATOM      1  C2  UNL d   1       0.815   2.061  -0.062  0.00  0.00    -0.077 A 
ATOM      2  C3  UNL d   1       0.906   0.956  -0.921  0.00  0.00     0.002 A 
ATOM      3  C4  UNL d   1       1.929   0.020  -0.760  0.00  0.00     0.002 A 
ATOM      4  C5  UNL d   1       2.865   0.176   0.260  0.00  0.00    -0.004 A 
ATOM      5  C6  UNL d   1       2.784   1.272   1.118  0.00  0.00     0.002 A 
ATOM      6  C7  UNL d   1       1.763   2.209   0.958  0.00  0.00     0.002 A 
ENDROOT
BRANCH   1   7
ATOM      7  C1  UNL d   1      -0.317   3.045  -0.202  0.00  0.00     0.055 C 
ATOM      8  C   UNL d   1      -0.232   4.140   0.852  0.00  0.00     0.019 C 
ENDBRANCH   1   7
TORSDOF 1
ENDMDL
