MODEL 1
REMARK minimizedAffinity -4.00505877
REMARK minimizedRMSD -1
REMARK  1 active torsions:
REMARK  status: ('A' for Active; 'I' for Inactive)
REMARK    1  A    between atoms: C1_2  and  C2_3 
ROOT
ATOM      1  C2  UNL d   1      -3.331   0.584  -4.144  0.00  0.00    -0.077 A 
ATOM      2  C3  UNL d   1      -4.491  -0.091  -3.739  0.00  0.00     0.002 A 
ATOM      3  C4  UNL d   1      -5.679   0.051  -4.458  0.00  0.00     0.002 A 
ATOM      4  C5  UNL d   1      -5.717   0.864  -5.590  0.00  0.00    -0.004 A 
ATOM      5  C6  UNL d   1      -4.570   1.541  -6.000  0.00  0.00     0.002 A 
ATOM      6  C7  UNL d   1      -3.382   1.401  -5.281  0.00  0.00     0.002 A 
ENDROOT
BRANCH   1   7
ATOM      7  C1  UNL d   1      -2.036   0.393  -3.398  0.00  0.00     0.055 C 
ATOM      8  C   UNL d   1      -2.129  -0.766  -2.417  0.00  0.00     0.019 C 
ENDBRANCH   1   7
TORSDOF 1
ENDMDL
