MODEL 1
REMARK minimizedAffinity 6.87122154
REMARK minimizedRMSD -1
REMARK  1 active torsions:
REMARK  status: ('A' for Active; 'I' for Inactive)
REMARK    1  A    between atoms: C1_2  and  C2_3 
ROOT
ATOM      1  C2  UNL d   1       4.076   1.186  -1.887  0.00  0.00    -0.077 A 
ATOM      2  C3  UNL d   1       4.579   1.520  -0.622  0.00  0.00     0.002 A 
ATOM      3  C4  UNL d   1       3.926   1.088   0.534  0.00  0.00     0.002 A 
ATOM      4  C5  UNL d   1       2.769   0.318   0.437  0.00  0.00    -0.004 A 
ATOM      5  C6  UNL d   1       2.259  -0.017  -0.817  0.00  0.00     0.002 A 
ATOM      6  C7  UNL d   1       2.910   0.414  -1.974  0.00  0.00     0.002 A 
ENDROOT
BRANCH   1   7
ATOM      7  C1  UNL d   1       4.806   1.609  -3.135  0.00  0.00     0.055 C 
ATOM      8  C   UNL d   1       5.998   2.496  -2.805  0.00  0.00     0.019 C 
ENDBRANCH   1   7
TORSDOF 1
ENDMDL
