MODEL 1
REMARK minimizedAffinity 7.67026901
REMARK minimizedRMSD -1
REMARK  3 active torsions:
REMARK  status: ('A' for Active; 'I' for Inactive)
REMARK    1  A    between atoms: C3'_2  and  C2'_3 
REMARK    2  A    between atoms: C2'_3  and  C1'_4 
REMARK    3  A    between atoms: C1'_4  and  C1_5 
ROOT
ATOM      1  C1  N4B d   1       0.984   0.562   2.398  0.00  0.00    -0.075 A 
ATOM      2  C2  N4B d   1       0.732   1.774   3.079  0.00  0.00     0.002 A 
ATOM      3  C3  N4B d   1      -0.517   2.027   3.590  0.00  0.00     0.002 A 
ATOM      4  C4  N4B d   1      -1.530   1.096   3.417  0.00  0.00    -0.004 A 
ATOM      5  C5  N4B d   1      -1.272  -0.083   2.781  0.00  0.00     0.002 A 
ATOM      6  C6  N4B d   1      -0.020  -0.352   2.265  0.00  0.00     0.002 A 
ENDROOT
BRANCH   1   7
ATOM      7  C1' N4B d   1       2.310   0.278   1.747  0.00  0.00     0.057 C 
BRANCH   7   8
ATOM      8  C2' N4B d   1       2.091  -0.627   0.539  0.00  0.00     0.009 C 
BRANCH   8   9
ATOM      9  C3' N4B d   1       1.977   0.166  -0.752  0.00  0.00     0.004 C 
ATOM     10  C4' N4B d   1       3.065  -0.158  -1.731  0.00  0.00     0.003 C 
ENDBRANCH   8   9
ENDBRANCH   7   8
ENDBRANCH   1   7
TORSDOF 3
ENDMDL
