MODEL 1
REMARK minimizedAffinity 8.3251009
REMARK minimizedRMSD -1
REMARK  3 active torsions:
REMARK  status: ('A' for Active; 'I' for Inactive)
REMARK    1  A    between atoms: C3'_2  and  C2'_3 
REMARK    2  A    between atoms: C2'_3  and  C1'_4 
REMARK    3  A    between atoms: C1'_4  and  C1_5 
ROOT
ATOM      1  C1  N4B d   1       2.633  -0.311   1.758  0.00  0.00    -0.075 A 
ATOM      2  C2  N4B d   1       1.230  -0.277   1.597  0.00  0.00     0.002 A 
ATOM      3  C3  N4B d   1       0.687   0.030   0.373  0.00  0.00     0.002 A 
ATOM      4  C4  N4B d   1       1.522   0.322  -0.694  0.00  0.00    -0.004 A 
ATOM      5  C5  N4B d   1       2.876   0.262  -0.537  0.00  0.00     0.002 A 
ATOM      6  C6  N4B d   1       3.436  -0.048   0.686  0.00  0.00     0.002 A 
ENDROOT
BRANCH   1   7
ATOM      7  C1' N4B d   1       3.272  -0.557   3.097  0.00  0.00     0.057 C 
BRANCH   7   8
ATOM      8  C2' N4B d   1       4.587   0.215   3.173  0.00  0.00     0.009 C 
BRANCH   8   9
ATOM      9  C3' N4B d   1       4.508   1.376   4.149  0.00  0.00     0.004 C 
ATOM     10  C4' N4B d   1       5.725   1.488   5.018  0.00  0.00     0.003 C 
ENDBRANCH   8   9
ENDBRANCH   7   8
ENDBRANCH   1   7
TORSDOF 3
ENDMDL
