MODEL 1
REMARK minimizedAffinity 8.41557121
REMARK minimizedRMSD -1
REMARK  3 active torsions:
REMARK  status: ('A' for Active; 'I' for Inactive)
REMARK    1  A    between atoms: C3'_2  and  C2'_3 
REMARK    2  A    between atoms: C2'_3  and  C1'_4 
REMARK    3  A    between atoms: C1'_4  and  C1_5 
ROOT
ATOM      1  C1  N4B d   1      -5.679   3.251  -0.253  0.00  0.00    -0.075 A 
ATOM      2  C2  N4B d   1      -5.498   4.094  -1.372  0.00  0.00     0.002 A 
ATOM      3  C3  N4B d   1      -5.575   5.457  -1.225  0.00  0.00     0.002 A 
ATOM      4  C4  N4B d   1      -5.849   5.997   0.023  0.00  0.00    -0.004 A 
ATOM      5  C5  N4B d   1      -5.997   5.178   1.103  0.00  0.00     0.002 A 
ATOM      6  C6  N4B d   1      -5.919   3.806   0.970  0.00  0.00     0.002 A 
ENDROOT
BRANCH   1   7
ATOM      7  C1' N4B d   1      -5.689   1.752  -0.381  0.00  0.00     0.057 C 
BRANCH   7   8
ATOM      8  C2' N4B d   1      -4.262   1.229  -0.252  0.00  0.00     0.009 C 
BRANCH   8   9
ATOM      9  C3' N4B d   1      -3.658   1.553   1.103  0.00  0.00     0.004 C 
ATOM     10  C4' N4B d   1      -2.692   0.507   1.574  0.00  0.00     0.003 C 
ENDBRANCH   8   9
ENDBRANCH   7   8
ENDBRANCH   1   7
TORSDOF 3
ENDMDL
