MODEL 1
REMARK minimizedAffinity -1.16644394
REMARK minimizedRMSD -1
REMARK  0 active torsions:
REMARK  status: ('A' for Active; 'I' for Inactive)
ROOT
ATOM      1  C   UNL d   1       1.289  -0.499  -1.500  0.00  0.00     0.124 A 
ATOM      2  C1  UNL d   1       0.302   0.468  -1.638  0.00  0.00     0.062 A 
ATOM      3  C2  UNL d   1      -0.284   1.035  -0.510  0.00  0.00     0.162 A 
ATOM      4  C3  UNL d   1       0.115   0.638   0.766  0.00  0.00    -0.034 A 
ATOM      5  C4  UNL d   1       1.107  -0.336   0.896  0.00  0.00     0.162 A 
ATOM      6  C5  UNL d   1       1.690  -0.900  -0.234  0.00  0.00     0.062 A 
ATOM      7  F   UNL d   1       2.642  -1.834  -0.099  0.00  0.00    -0.097 F 
ATOM      8  F1  UNL d   1       1.514  -0.742   2.108  0.00  0.00    -0.096 F 
ATOM      9  I   UNL d   1      -0.759   1.483   2.455  0.00  0.00    -0.060 I 
ATOM     10  F2  UNL d   1      -1.235   1.968  -0.673  0.00  0.00    -0.096 F 
ATOM     11  F3  UNL d   1      -0.088   0.857  -2.860  0.00  0.00    -0.097 F 
ATOM     12  F4  UNL d   1       1.850  -1.044  -2.587  0.00  0.00    -0.092 F 
ENDROOT
TORSDOF 0
ENDMDL
