MODEL 1
REMARK minimizedAffinity -1.85378993
REMARK minimizedRMSD -1
REMARK  0 active torsions:
REMARK  status: ('A' for Active; 'I' for Inactive)
ROOT
ATOM      1  C   UNL d   1      -1.918  -0.043   0.947  0.00  0.00     0.124 A 
ATOM      2  C1  UNL d   1      -0.816   0.629   1.458  0.00  0.00     0.062 A 
ATOM      3  C2  UNL d   1       0.362   0.704   0.722  0.00  0.00     0.162 A 
ATOM      4  C3  UNL d   1       0.446   0.105  -0.536  0.00  0.00    -0.034 A 
ATOM      5  C4  UNL d   1      -0.666  -0.570  -1.043  0.00  0.00     0.162 A 
ATOM      6  C5  UNL d   1      -1.841  -0.642  -0.303  0.00  0.00     0.062 A 
ATOM      7  F   UNL d   1      -2.904  -1.292  -0.798  0.00  0.00    -0.097 F 
ATOM      8  F1  UNL d   1      -0.620  -1.157  -2.248  0.00  0.00    -0.096 F 
ATOM      9  I   UNL d   1       2.206   0.215  -1.640  0.00  0.00    -0.060 I 
ATOM     10  F2  UNL d   1       1.411   1.361   1.240  0.00  0.00    -0.096 F 
ATOM     11  F3  UNL d   1      -0.887   1.208   2.665  0.00  0.00    -0.097 F 
ATOM     12  F4  UNL d   1      -3.050  -0.115   1.658  0.00  0.00    -0.092 F 
ENDROOT
TORSDOF 0
ENDMDL
