MODEL 1
REMARK minimizedAffinity 1.29978001
REMARK minimizedRMSD -1
REMARK  0 active torsions:
REMARK  status: ('A' for Active; 'I' for Inactive)
ROOT
ATOM      1  C   UNL d   1      -1.183   1.101   2.483  0.00  0.00     0.124 A 
ATOM      2  C1  UNL d   1      -1.501  -0.161   2.000  0.00  0.00     0.062 A 
ATOM      3  C2  UNL d   1      -1.010  -0.583   0.768  0.00  0.00     0.162 A 
ATOM      4  C3  UNL d   1      -0.194   0.258   0.010  0.00  0.00    -0.034 A 
ATOM      5  C4  UNL d   1       0.120   1.526   0.502  0.00  0.00     0.162 A 
ATOM      6  C5  UNL d   1      -0.373   1.943   1.734  0.00  0.00     0.062 A 
ATOM      7  F   UNL d   1      -0.065   3.162   2.199  0.00  0.00    -0.097 F 
ATOM      8  F1  UNL d   1       0.902   2.359  -0.200  0.00  0.00    -0.096 F 
ATOM      9  I   UNL d   1       0.542  -0.370  -1.832  0.00  0.00    -0.060 I 
ATOM     10  F2  UNL d   1      -1.333  -1.807   0.326  0.00  0.00    -0.096 F 
ATOM     11  F3  UNL d   1      -2.284  -0.976   2.722  0.00  0.00    -0.097 F 
ATOM     12  F4  UNL d   1      -1.658   1.505   3.669  0.00  0.00    -0.092 F 
ENDROOT
TORSDOF 0
ENDMDL
