MODEL 1
REMARK minimizedAffinity -1.76732409
REMARK minimizedRMSD -1
REMARK  0 active torsions:
REMARK  status: ('A' for Active; 'I' for Inactive)
ROOT
ATOM      1  C   UNL d   1      -0.075   0.478   1.604  0.00  0.00     0.124 A 
ATOM      2  C1  UNL d   1       1.032  -0.178   1.083  0.00  0.00     0.062 A 
ATOM      3  C2  UNL d   1       1.088  -0.487  -0.273  0.00  0.00     0.162 A 
ATOM      4  C3  UNL d   1       0.035  -0.139  -1.119  0.00  0.00    -0.034 A 
ATOM      5  C4  UNL d   1      -1.076   0.519  -0.587  0.00  0.00     0.162 A 
ATOM      6  C5  UNL d   1      -1.127   0.825   0.769  0.00  0.00     0.062 A 
ATOM      7  F   UNL d   1      -2.197   1.459   1.270  0.00  0.00    -0.097 F 
ATOM      8  F1  UNL d   1      -2.106   0.868  -1.372  0.00  0.00    -0.096 F 
ATOM      9  I   UNL d   1       0.115  -0.599  -3.147  0.00  0.00    -0.060 I 
ATOM     10  F2  UNL d   1       2.170  -1.121  -0.749  0.00  0.00    -0.096 F 
ATOM     11  F3  UNL d   1       2.049  -0.516   1.888  0.00  0.00    -0.097 F 
ATOM     12  F4  UNL d   1      -0.127   0.773   2.909  0.00  0.00    -0.092 F 
ENDROOT
TORSDOF 0
ENDMDL
