MODEL 1
REMARK minimizedAffinity -1.84534168
REMARK minimizedRMSD -1
REMARK  0 active torsions:
REMARK  status: ('A' for Active; 'I' for Inactive)
ROOT
ATOM      1  C   UNL d   1      -0.969  -0.135   0.798  0.00  0.00     0.124 A 
ATOM      2  C1  UNL d   1      -0.067   0.919   0.766  0.00  0.00     0.062 A 
ATOM      3  C2  UNL d   1       0.706   1.145  -0.369  0.00  0.00     0.162 A 
ATOM      4  C3  UNL d   1       0.579   0.315  -1.483  0.00  0.00    -0.034 A 
ATOM      5  C4  UNL d   1      -0.330  -0.744  -1.443  0.00  0.00     0.162 A 
ATOM      6  C5  UNL d   1      -1.100  -0.965  -0.306  0.00  0.00     0.062 A 
ATOM      7  F   UNL d   1      -1.972  -1.984  -0.277  0.00  0.00    -0.097 F 
ATOM      8  F1  UNL d   1      -0.477  -1.561  -2.497  0.00  0.00    -0.096 F 
ATOM      9  I   UNL d   1       1.733   0.649  -3.182  0.00  0.00    -0.060 I 
ATOM     10  F2  UNL d   1       1.570   2.170  -0.372  0.00  0.00    -0.096 F 
ATOM     11  F3  UNL d   1       0.062   1.722   1.833  0.00  0.00    -0.097 F 
ATOM     12  F4  UNL d   1      -1.711  -0.350   1.892  0.00  0.00    -0.092 F 
ENDROOT
TORSDOF 0
ENDMDL
