MODEL 1
REMARK minimizedAffinity -0.832129359
REMARK minimizedRMSD -1
REMARK  0 active torsions:
REMARK  status: ('A' for Active; 'I' for Inactive)
ROOT
ATOM      1  C   UNL d   1      -0.057   0.978   2.009  0.00  0.00     0.124 A 
ATOM      2  C1  UNL d   1      -1.245   0.805   1.312  0.00  0.00     0.062 A 
ATOM      3  C2  UNL d   1      -1.254   0.109   0.107  0.00  0.00     0.162 A 
ATOM      4  C3  UNL d   1      -0.072  -0.420  -0.410  0.00  0.00    -0.034 A 
ATOM      5  C4  UNL d   1       1.119  -0.241   0.296  0.00  0.00     0.162 A 
ATOM      6  C5  UNL d   1       1.123   0.455   1.501  0.00  0.00     0.062 A 
ATOM      7  F   UNL d   1       2.272   0.621   2.173  0.00  0.00    -0.097 F 
ATOM      8  F1  UNL d   1       2.275  -0.737  -0.171  0.00  0.00    -0.096 F 
ATOM      9  I   UNL d   1      -0.081  -1.461  -2.212  0.00  0.00    -0.060 I 
ATOM     10  F2  UNL d   1      -2.417  -0.043  -0.545  0.00  0.00    -0.096 F 
ATOM     11  F3  UNL d   1      -2.387   1.310   1.801  0.00  0.00    -0.097 F 
ATOM     12  F4  UNL d   1      -0.051   1.649   3.168  0.00  0.00    -0.092 F 
ENDROOT
TORSDOF 0
ENDMDL
