MODEL 1
REMARK minimizedAffinity 6.87972021
REMARK minimizedRMSD -1
REMARK  0 active torsions:
REMARK  status: ('A' for Active; 'I' for Inactive)
ROOT
ATOM      1  C   UNL d   1      -0.243   0.364   2.061  0.00  0.00     0.124 A 
ATOM      2  C1  UNL d   1       0.963  -0.074   1.533  0.00  0.00     0.062 A 
ATOM      3  C2  UNL d   1       1.076  -0.342   0.172  0.00  0.00     0.162 A 
ATOM      4  C3  UNL d   1      -0.022  -0.171  -0.672  0.00  0.00    -0.034 A 
ATOM      5  C4  UNL d   1      -1.233   0.268  -0.133  0.00  0.00     0.162 A 
ATOM      6  C5  UNL d   1      -1.340   0.534   1.228  0.00  0.00     0.062 A 
ATOM      7  F   UNL d   1      -2.506   0.957   1.736  0.00  0.00    -0.097 F 
ATOM      8  F1  UNL d   1      -2.308   0.443  -0.916  0.00  0.00    -0.096 F 
ATOM      9  I   UNL d   1       0.142  -0.570  -2.708  0.00  0.00    -0.060 I 
ATOM     10  F2  UNL d   1       2.254  -0.763  -0.311  0.00  0.00    -0.096 F 
ATOM     11  F3  UNL d   1       2.024  -0.241   2.336  0.00  0.00    -0.097 F 
ATOM     12  F4  UNL d   1      -0.349   0.619   3.371  0.00  0.00    -0.092 F 
ENDROOT
TORSDOF 0
ENDMDL
