MODEL 1
REMARK minimizedAffinity -0.219794005
REMARK minimizedRMSD -1
REMARK  0 active torsions:
REMARK  status: ('A' for Active; 'I' for Inactive)
ROOT
ATOM      1  C   UNL d   1       1.054   0.178  -1.851  0.00  0.00     0.124 A 
ATOM      2  C1  UNL d   1       0.191   1.265  -1.839  0.00  0.00     0.062 A 
ATOM      3  C2  UNL d   1      -0.246   1.799  -0.631  0.00  0.00     0.162 A 
ATOM      4  C3  UNL d   1       0.181   1.249   0.578  0.00  0.00    -0.034 A 
ATOM      5  C4  UNL d   1       1.048   0.155   0.558  0.00  0.00     0.162 A 
ATOM      6  C5  UNL d   1       1.482  -0.376  -0.652  0.00  0.00     0.062 A 
ATOM      7  F   UNL d   1       2.316  -1.426  -0.661  0.00  0.00    -0.097 F 
ATOM      8  F1  UNL d   1       1.478  -0.399   1.702  0.00  0.00    -0.096 F 
ATOM      9  I   UNL d   1      -0.470   2.045   2.387  0.00  0.00    -0.060 I 
ATOM     10  F2  UNL d   1      -1.080   2.850  -0.650  0.00  0.00    -0.096 F 
ATOM     11  F3  UNL d   1      -0.224   1.801  -2.996  0.00  0.00    -0.097 F 
ATOM     12  F4  UNL d   1       1.472  -0.335  -3.015  0.00  0.00    -0.092 F 
ENDROOT
TORSDOF 0
ENDMDL
