MODEL 1
REMARK minimizedAffinity -6.12880039
REMARK minimizedRMSD -1
REMARK  2 active torsions:
REMARK  status: ('A' for Active; 'I' for Inactive)
REMARK    1  A    between atoms: C1_2  and  C2_3 
REMARK    2  A    between atoms: C2_3  and  C3_4 
ROOT
ATOM      1  C3  UNL d   1      -1.257   4.713   0.662  0.00  0.00    -0.075 A 
ATOM      2  C4  UNL d   1      -1.975   5.864   0.305  0.00  0.00     0.002 A 
ATOM      3  C5  UNL d   1      -2.864   5.840  -0.771  0.00  0.00     0.002 A 
ATOM      4  C6  UNL d   1      -3.037   4.671  -1.508  0.00  0.00    -0.004 A 
ATOM      5  C7  UNL d   1      -2.317   3.526  -1.173  0.00  0.00     0.002 A 
ATOM      6  C8  UNL d   1      -1.431   3.547  -0.095  0.00  0.00     0.002 A 
ENDROOT
BRANCH   1   7
ATOM      7  C2  UNL d   1      -0.317   4.725   1.843  0.00  0.00     0.056 C 
BRANCH   7   8
ATOM      8  C1  UNL d   1       0.955   5.550   1.619  0.00  0.00     0.007 C 
ATOM      9  C   UNL d   1       1.912   4.918   0.617  0.00  0.00     0.009 C 
ENDBRANCH   7   8
ENDBRANCH   1   7
TORSDOF 2
ENDMDL
