MODEL 1
REMARK minimizedAffinity -5.66350174
REMARK minimizedRMSD -1
REMARK  2 active torsions:
REMARK  status: ('A' for Active; 'I' for Inactive)
REMARK    1  A    between atoms: C1_2  and  C2_3 
REMARK    2  A    between atoms: C2_3  and  C3_4 
ROOT
ATOM      1  C3  UNL d   1       0.315   4.131   1.656  0.00  0.00    -0.075 A 
ATOM      2  C4  UNL d   1       1.150   5.251   1.787  0.00  0.00     0.002 A 
ATOM      3  C5  UNL d   1       2.397   5.281   1.162  0.00  0.00     0.002 A 
ATOM      4  C6  UNL d   1       2.829   4.192   0.408  0.00  0.00    -0.004 A 
ATOM      5  C7  UNL d   1       2.014   3.068   0.285  0.00  0.00     0.002 A 
ATOM      6  C8  UNL d   1       0.764   3.037   0.906  0.00  0.00     0.002 A 
ENDROOT
BRANCH   1   7
ATOM      7  C2  UNL d   1      -1.048   4.104   2.306  0.00  0.00     0.056 C 
BRANCH   7   8
ATOM      8  C1  UNL d   1      -1.963   5.258   1.884  0.00  0.00     0.007 C 
ATOM      9  C   UNL d   1      -2.229   5.297   0.385  0.00  0.00     0.009 C 
ENDBRANCH   7   8
ENDBRANCH   1   7
TORSDOF 2
ENDMDL
