MODEL 1
REMARK minimizedAffinity -3.42700934
REMARK minimizedRMSD -1
REMARK  2 active torsions:
REMARK  status: ('A' for Active; 'I' for Inactive)
REMARK    1  A    between atoms: C1_2  and  C2_3 
REMARK    2  A    between atoms: C2_3  and  C3_4 
ROOT
ATOM      1  C3  UNL d   1       0.040   0.709  -0.637  0.00  0.00    -0.075 A 
ATOM      2  C4  UNL d   1       0.027  -0.124  -1.766  0.00  0.00     0.002 A 
ATOM      3  C5  UNL d   1      -0.311  -1.472  -1.647  0.00  0.00     0.002 A 
ATOM      4  C6  UNL d   1      -0.629  -2.007  -0.401  0.00  0.00    -0.004 A 
ATOM      5  C7  UNL d   1      -0.602  -1.193   0.730  0.00  0.00     0.002 A 
ATOM      6  C8  UNL d   1      -0.269   0.158   0.613  0.00  0.00     0.002 A 
ENDROOT
BRANCH   1   7
ATOM      7  C2  UNL d   1       0.376   2.175  -0.764  0.00  0.00     0.056 C 
BRANCH   7   8
ATOM      8  C1  UNL d   1       1.197   2.730   0.405  0.00  0.00     0.007 C 
ATOM      9  C   UNL d   1       2.502   3.382  -0.033  0.00  0.00     0.009 C 
ENDBRANCH   7   8
ENDBRANCH   1   7
TORSDOF 2
ENDMDL
