MODEL 1
REMARK minimizedAffinity -4.93622541
REMARK minimizedRMSD -1
REMARK  2 active torsions:
REMARK  status: ('A' for Active; 'I' for Inactive)
REMARK    1  A    between atoms: C1_2  and  C2_3 
REMARK    2  A    between atoms: C2_3  and  C3_4 
ROOT
ATOM      1  C3  UNL d   1      -0.443   1.980   0.014  0.00  0.00    -0.075 A 
ATOM      2  C4  UNL d   1      -1.134   1.180   0.936  0.00  0.00     0.002 A 
ATOM      3  C5  UNL d   1      -1.240  -0.197   0.740  0.00  0.00     0.002 A 
ATOM      4  C6  UNL d   1      -0.667  -0.790  -0.383  0.00  0.00    -0.004 A 
ATOM      5  C7  UNL d   1       0.008  -0.003  -1.314  0.00  0.00     0.002 A 
ATOM      6  C8  UNL d   1       0.120   1.375  -1.118  0.00  0.00     0.002 A 
ENDROOT
BRANCH   1   7
ATOM      7  C2  UNL d   1      -0.299   3.467   0.235  0.00  0.00     0.056 C 
BRANCH   7   8
ATOM      8  C1  UNL d   1      -1.553   4.136   0.807  0.00  0.00     0.007 C 
ATOM      9  C   UNL d   1      -1.240   5.266   1.779  0.00  0.00     0.009 C 
ENDBRANCH   7   8
ENDBRANCH   1   7
TORSDOF 2
ENDMDL
