MODEL 1
REMARK minimizedAffinity -4.4751668
REMARK minimizedRMSD -1
REMARK  2 active torsions:
REMARK  status: ('A' for Active; 'I' for Inactive)
REMARK    1  A    between atoms: C1_2  and  C2_3 
REMARK    2  A    between atoms: C2_3  and  C3_4 
ROOT
ATOM      1  C3  UNL d   1      -1.289   1.705  -0.516  0.00  0.00    -0.075 A 
ATOM      2  C4  UNL d   1      -1.229   0.460   0.126  0.00  0.00     0.002 A 
ATOM      3  C5  UNL d   1      -0.390  -0.546  -0.355  0.00  0.00     0.002 A 
ATOM      4  C6  UNL d   1       0.390  -0.324  -1.488  0.00  0.00    -0.004 A 
ATOM      5  C7  UNL d   1       0.326   0.904  -2.144  0.00  0.00     0.002 A 
ATOM      6  C8  UNL d   1      -0.510   1.913  -1.662  0.00  0.00     0.002 A 
ENDROOT
BRANCH   1   7
ATOM      7  C2  UNL d   1      -2.173   2.807   0.016  0.00  0.00     0.056 C 
BRANCH   7   8
ATOM      8  C1  UNL d   1      -1.434   3.839   0.875  0.00  0.00     0.007 C 
ATOM      9  C   UNL d   1      -2.003   5.246   0.745  0.00  0.00     0.009 C 
ENDBRANCH   7   8
ENDBRANCH   1   7
TORSDOF 2
ENDMDL
