MODEL 1
REMARK minimizedAffinity -4.07734346
REMARK minimizedRMSD -1
REMARK  2 active torsions:
REMARK  status: ('A' for Active; 'I' for Inactive)
REMARK    1  A    between atoms: C1_2  and  C2_3 
REMARK    2  A    between atoms: C2_3  and  C3_4 
ROOT
ATOM      1  C3  UNL d   1       2.093   1.815  -0.837  0.00  0.00    -0.075 A 
ATOM      2  C4  UNL d   1       1.871   3.101  -1.352  0.00  0.00     0.002 A 
ATOM      3  C5  UNL d   1       2.571   4.197  -0.848  0.00  0.00     0.002 A 
ATOM      4  C6  UNL d   1       3.492   4.024   0.184  0.00  0.00    -0.004 A 
ATOM      5  C7  UNL d   1       3.708   2.755   0.715  0.00  0.00     0.002 A 
ATOM      6  C8  UNL d   1       3.012   1.655   0.209  0.00  0.00     0.002 A 
ENDROOT
BRANCH   1   7
ATOM      7  C2  UNL d   1       1.361   0.620  -1.399  0.00  0.00     0.056 C 
BRANCH   7   8
ATOM      8  C1  UNL d   1      -0.163   0.699  -1.256  0.00  0.00     0.007 C 
ATOM      9  C   UNL d   1      -0.628   0.752   0.194  0.00  0.00     0.009 C 
ENDBRANCH   7   8
ENDBRANCH   1   7
TORSDOF 2
ENDMDL
