MODEL 1
REMARK minimizedAffinity -5.52483368
REMARK minimizedRMSD -1
REMARK  2 active torsions:
REMARK  status: ('A' for Active; 'I' for Inactive)
REMARK    1  A    between atoms: C1_2  and  C2_3 
REMARK    2  A    between atoms: C2_3  and  C3_4 
ROOT
ATOM      1  C3  UNL d   1      -0.308   1.926  -0.106  0.00  0.00    -0.075 A 
ATOM      2  C4  UNL d   1      -1.223   1.106   0.571  0.00  0.00     0.002 A 
ATOM      3  C5  UNL d   1      -1.337  -0.246   0.247  0.00  0.00     0.002 A 
ATOM      4  C6  UNL d   1      -0.547  -0.793  -0.762  0.00  0.00    -0.004 A 
ATOM      5  C7  UNL d   1       0.354   0.016  -1.452  0.00  0.00     0.002 A 
ATOM      6  C8  UNL d   1       0.473   1.368  -1.127  0.00  0.00     0.002 A 
ENDROOT
BRANCH   1   7
ATOM      7  C2  UNL d   1      -0.158   3.383   0.260  0.00  0.00     0.056 C 
BRANCH   7   8
ATOM      8  C1  UNL d   1      -1.148   3.863   1.328  0.00  0.00     0.007 C 
ATOM      9  C   UNL d   1      -1.717   5.246   1.040  0.00  0.00     0.009 C 
ENDBRANCH   7   8
ENDBRANCH   1   7
TORSDOF 2
ENDMDL
