MODEL 1
REMARK minimizedAffinity -1.72454119
REMARK minimizedRMSD -1
REMARK  2 active torsions:
REMARK  status: ('A' for Active; 'I' for Inactive)
REMARK    1  A    between atoms: C1_2  and  C2_3 
REMARK    2  A    between atoms: C2_3  and  C3_4 
ROOT
ATOM      1  C3  UNL d   1      -0.900   1.240  -0.195  0.00  0.00    -0.075 A 
ATOM      2  C4  UNL d   1      -0.346   0.979  -1.457  0.00  0.00     0.002 A 
ATOM      3  C5  UNL d   1       0.123  -0.296  -1.775  0.00  0.00     0.002 A 
ATOM      4  C6  UNL d   1       0.053  -1.322  -0.834  0.00  0.00    -0.004 A 
ATOM      5  C7  UNL d   1      -0.480  -1.070   0.428  0.00  0.00     0.002 A 
ATOM      6  C8  UNL d   1      -0.954   0.204   0.747  0.00  0.00     0.002 A 
ENDROOT
BRANCH   1   7
ATOM      7  C2  UNL d   1      -1.436   2.610   0.145  0.00  0.00     0.056 C 
BRANCH   7   8
ATOM      8  C1  UNL d   1      -0.488   3.455   1.003  0.00  0.00     0.007 C 
ATOM      9  C   UNL d   1      -1.149   4.701   1.577  0.00  0.00     0.009 C 
ENDBRANCH   7   8
ENDBRANCH   1   7
TORSDOF 2
ENDMDL
