MODEL 1
REMARK minimizedAffinity -4.05451202
REMARK minimizedRMSD -1
REMARK  2 active torsions:
REMARK  status: ('A' for Active; 'I' for Inactive)
REMARK    1  A    between atoms: C1_2  and  C2_3 
REMARK    2  A    between atoms: C2_3  and  C3_4 
ROOT
ATOM      1  C3  UNL d   1      -1.064   2.399   0.551  0.00  0.00    -0.075 A 
ATOM      2  C4  UNL d   1       0.320   2.243   0.389  0.00  0.00     0.002 A 
ATOM      3  C5  UNL d   1       0.897   0.972   0.412  0.00  0.00     0.002 A 
ATOM      4  C6  UNL d   1       0.100  -0.154   0.608  0.00  0.00    -0.004 A 
ATOM      5  C7  UNL d   1      -1.274  -0.009   0.787  0.00  0.00     0.002 A 
ATOM      6  C8  UNL d   1      -1.854   1.261   0.760  0.00  0.00     0.002 A 
ENDROOT
BRANCH   1   7
ATOM      7  C2  UNL d   1      -1.698   3.769   0.498  0.00  0.00     0.056 C 
BRANCH   7   8
ATOM      8  C1  UNL d   1      -1.258   4.704   1.629  0.00  0.00     0.007 C 
ATOM      9  C   UNL d   1      -2.063   5.996   1.687  0.00  0.00     0.009 C 
ENDBRANCH   7   8
ENDBRANCH   1   7
TORSDOF 2
ENDMDL
