MODEL 1
REMARK minimizedAffinity -3.46982813
REMARK minimizedRMSD -1
REMARK  2 active torsions:
REMARK  status: ('A' for Active; 'I' for Inactive)
REMARK    1  A    between atoms: C1_2  and  C2_3 
REMARK    2  A    between atoms: C2_3  and  C3_4 
ROOT
ATOM      1  C3  UNL d   1      -0.262  -0.317   0.127  0.00  0.00    -0.075 A 
ATOM      2  C4  UNL d   1       0.137  -0.508  -1.204  0.00  0.00     0.002 A 
ATOM      3  C5  UNL d   1       0.046   0.535  -2.127  0.00  0.00     0.002 A 
ATOM      4  C6  UNL d   1      -0.455   1.774  -1.735  0.00  0.00    -0.004 A 
ATOM      5  C7  UNL d   1      -0.870   1.970  -0.419  0.00  0.00     0.002 A 
ATOM      6  C8  UNL d   1      -0.775   0.930   0.507  0.00  0.00     0.002 A 
ENDROOT
BRANCH   1   7
ATOM      7  C2  UNL d   1      -0.138  -1.432   1.138  0.00  0.00     0.056 C 
BRANCH   7   8
ATOM      8  C1  UNL d   1      -0.524  -2.812   0.595  0.00  0.00     0.007 C 
ATOM      9  C   UNL d   1      -2.029  -3.005   0.463  0.00  0.00     0.009 C 
ENDBRANCH   7   8
ENDBRANCH   1   7
TORSDOF 2
ENDMDL
