MODEL 1
REMARK minimizedAffinity -3.6850276
REMARK minimizedRMSD -1
REMARK  2 active torsions:
REMARK  status: ('A' for Active; 'I' for Inactive)
REMARK    1  A    between atoms: C1_2  and  C2_3 
REMARK    2  A    between atoms: C2_3  and  C3_4 
ROOT
ATOM      1  C3  UNL d   1      -1.204   1.625  -0.119  0.00  0.00    -0.075 A 
ATOM      2  C4  UNL d   1      -1.342   0.349   0.446  0.00  0.00     0.002 A 
ATOM      3  C5  UNL d   1      -0.669  -0.744  -0.100  0.00  0.00     0.002 A 
ATOM      4  C6  UNL d   1       0.142  -0.578  -1.221  0.00  0.00    -0.004 A 
ATOM      5  C7  UNL d   1       0.273   0.682  -1.801  0.00  0.00     0.002 A 
ATOM      6  C8  UNL d   1      -0.396   1.779  -1.254  0.00  0.00     0.002 A 
ENDROOT
BRANCH   1   7
ATOM      7  C2  UNL d   1      -1.907   2.818   0.485  0.00  0.00     0.056 C 
BRANCH   7   8
ATOM      8  C1  UNL d   1      -0.977   3.992   0.808  0.00  0.00     0.007 C 
ATOM      9  C   UNL d   1      -1.720   5.232   1.287  0.00  0.00     0.009 C 
ENDBRANCH   7   8
ENDBRANCH   1   7
TORSDOF 2
ENDMDL
