MODEL 1
REMARK minimizedAffinity -5.42545033
REMARK minimizedRMSD -1
REMARK  2 active torsions:
REMARK  status: ('A' for Active; 'I' for Inactive)
REMARK    1  A    between atoms: C1_2  and  C2_3 
REMARK    2  A    between atoms: C2_3  and  C3_4 
ROOT
ATOM      1  C3  UNL d   1      -0.511   3.119   0.298  0.00  0.00    -0.075 A 
ATOM      2  C4  UNL d   1      -1.324   3.972   1.058  0.00  0.00     0.002 A 
ATOM      3  C5  UNL d   1      -0.756   4.961   1.862  0.00  0.00     0.002 A 
ATOM      4  C6  UNL d   1       0.628   5.102   1.924  0.00  0.00    -0.004 A 
ATOM      5  C7  UNL d   1       1.446   4.250   1.185  0.00  0.00     0.002 A 
ATOM      6  C8  UNL d   1       0.880   3.262   0.377  0.00  0.00     0.002 A 
ENDROOT
BRANCH   1   7
ATOM      7  C2  UNL d   1      -1.121   2.066  -0.597  0.00  0.00     0.056 C 
BRANCH   7   8
ATOM      8  C1  UNL d   1      -0.119   1.394  -1.541  0.00  0.00     0.007 C 
ATOM      9  C   UNL d   1       0.071  -0.090  -1.259  0.00  0.00     0.009 C 
ENDBRANCH   7   8
ENDBRANCH   1   7
TORSDOF 2
ENDMDL
