MODEL 1
REMARK minimizedAffinity -5.18192577
REMARK minimizedRMSD -1
REMARK  2 active torsions:
REMARK  status: ('A' for Active; 'I' for Inactive)
REMARK    1  A    between atoms: C1_2  and  C2_3 
REMARK    2  A    between atoms: C2_3  and  C3_4 
ROOT
ATOM      1  C3  UNL d   1      -0.065   2.999   0.270  0.00  0.00    -0.075 A 
ATOM      2  C4  UNL d   1       1.281   3.322   0.492  0.00  0.00     0.002 A 
ATOM      3  C5  UNL d   1       1.626   4.393   1.317  0.00  0.00     0.002 A 
ATOM      4  C6  UNL d   1       0.632   5.159   1.922  0.00  0.00    -0.004 A 
ATOM      5  C7  UNL d   1      -0.709   4.857   1.695  0.00  0.00     0.002 A 
ATOM      6  C8  UNL d   1      -1.057   3.784   0.873  0.00  0.00     0.002 A 
ENDROOT
BRANCH   1   7
ATOM      7  C2  UNL d   1      -0.445   1.824  -0.599  0.00  0.00     0.056 C 
BRANCH   7   8
ATOM      8  C1  UNL d   1      -1.416   0.843   0.068  0.00  0.00     0.007 C 
ATOM      9  C   UNL d   1      -0.810  -0.533   0.307  0.00  0.00     0.009 C 
ENDBRANCH   7   8
ENDBRANCH   1   7
TORSDOF 2
ENDMDL
