MODEL 1
REMARK minimizedAffinity -3.76036882
REMARK minimizedRMSD -1
REMARK  2 active torsions:
REMARK  status: ('A' for Active; 'I' for Inactive)
REMARK    1  A    between atoms: C1_2  and  C2_3 
REMARK    2  A    between atoms: C2_3  and  C3_4 
ROOT
ATOM      1  C3  UNL d   1       0.036   0.662   0.522  0.00  0.00    -0.075 A 
ATOM      2  C4  UNL d   1      -0.437   0.605  -0.797  0.00  0.00     0.002 A 
ATOM      3  C5  UNL d   1      -0.252   1.684  -1.663  0.00  0.00     0.002 A 
ATOM      4  C6  UNL d   1       0.398   2.833  -1.219  0.00  0.00    -0.004 A 
ATOM      5  C7  UNL d   1       0.857   2.907   0.094  0.00  0.00     0.002 A 
ATOM      6  C8  UNL d   1       0.677   1.828   0.961  0.00  0.00     0.002 A 
ENDROOT
BRANCH   1   7
ATOM      7  C2  UNL d   1      -0.135  -0.513   1.455  0.00  0.00     0.056 C 
BRANCH   7   8
ATOM      8  C1  UNL d   1      -1.545  -1.113   1.451  0.00  0.00     0.007 C 
ATOM      9  C   UNL d   1      -1.637  -2.423   0.680  0.00  0.00     0.009 C 
ENDBRANCH   7   8
ENDBRANCH   1   7
TORSDOF 2
ENDMDL
