MODEL 1
REMARK minimizedAffinity 2.11250615
REMARK minimizedRMSD -1
REMARK  2 active torsions:
REMARK  status: ('A' for Active; 'I' for Inactive)
REMARK    1  A    between atoms: C2'_3  and  C1'_4 
REMARK    2  A    between atoms: C1'_4  and  C1_5 
ROOT
ATOM      1  C1  I4B d   1       1.276  -2.498   0.382  0.00  0.00    -0.075 A 
ATOM      2  C2  I4B d   1       2.082  -1.931  -0.573  0.00  0.00     0.003 A 
ATOM      3  C3  I4B d   1       1.582  -0.903  -1.409  0.00  0.00     0.002 A 
ATOM      4  C4  I4B d   1       0.264  -0.511  -1.290  0.00  0.00    -0.004 A 
ATOM      5  C5  I4B d   1      -0.545  -1.071  -0.305  0.00  0.00     0.002 A 
ATOM      6  C6  I4B d   1      -0.033  -2.062   0.544  0.00  0.00     0.003 A 
ENDROOT
BRANCH   1   7
ATOM      7  C1' I4B d   1       1.826  -3.604   1.225  0.00  0.00     0.060 C 
BRANCH   7   8
ATOM      8  C2' I4B d   1       1.007  -4.850   0.955  0.00  0.00    -0.013 C 
ATOM      9  C4' I4B d   1       1.463  -6.000   1.813  0.00  0.00     0.013 C 
ATOM     10  C3' I4B d   1      -0.434  -4.521   1.211  0.00  0.00     0.013 C 
ENDBRANCH   7   8
ENDBRANCH   1   7
TORSDOF 2
ENDMDL
