MODEL 1
REMARK minimizedAffinity 2.37021852
REMARK minimizedRMSD -1
REMARK  2 active torsions:
REMARK  status: ('A' for Active; 'I' for Inactive)
REMARK    1  A    between atoms: C2'_3  and  C1'_4 
REMARK    2  A    between atoms: C1'_4  and  C1_5 
ROOT
ATOM      1  C1  I4B d   1       0.826  -2.664   0.127  0.00  0.00    -0.075 A 
ATOM      2  C2  I4B d   1      -0.504  -2.389   0.319  0.00  0.00     0.003 A 
ATOM      3  C3  I4B d   1      -1.331  -3.310   1.007  0.00  0.00     0.002 A 
ATOM      4  C4  I4B d   1      -0.800  -4.509   1.437  0.00  0.00    -0.004 A 
ATOM      5  C5  I4B d   1       0.554  -4.777   1.261  0.00  0.00     0.002 A 
ATOM      6  C6  I4B d   1       1.376  -3.843   0.613  0.00  0.00     0.003 A 
ENDROOT
BRANCH   1   7
ATOM      7  C1' I4B d   1       1.663  -1.683  -0.633  0.00  0.00     0.060 C 
BRANCH   7   8
ATOM      8  C2' I4B d   1       0.729  -0.716  -1.331  0.00  0.00    -0.013 C 
ATOM      9  C4' I4B d   1       1.358   0.646  -1.468  0.00  0.00     0.013 C 
ATOM     10  C3' I4B d   1       0.386  -1.291  -2.673  0.00  0.00     0.013 C 
ENDBRANCH   7   8
ENDBRANCH   1   7
TORSDOF 2
ENDMDL
