MODEL 1
REMARK minimizedAffinity 0.987376034
REMARK minimizedRMSD -1
REMARK  2 active torsions:
REMARK  status: ('A' for Active; 'I' for Inactive)
REMARK    1  A    between atoms: C2'_3  and  C1'_4 
REMARK    2  A    between atoms: C1'_4  and  C1_5 
ROOT
ATOM      1  C1  I4B d   1       0.940  -2.661   0.357  0.00  0.00    -0.075 A 
ATOM      2  C2  I4B d   1      -0.424  -2.520   0.410  0.00  0.00     0.003 A 
ATOM      3  C3  I4B d   1      -1.226  -3.549   0.961  0.00  0.00     0.002 A 
ATOM      4  C4  I4B d   1      -0.630  -4.714   1.399  0.00  0.00    -0.004 A 
ATOM      5  C5  I4B d   1       0.755  -4.845   1.367  0.00  0.00     0.002 A 
ATOM      6  C6  I4B d   1       1.547  -3.807   0.854  0.00  0.00     0.003 A 
ENDROOT
BRANCH   1   7
ATOM      7  C1' I4B d   1       1.754  -1.569  -0.262  0.00  0.00     0.060 C 
BRANCH   7   8
ATOM      8  C2' I4B d   1       0.804  -0.617  -0.960  0.00  0.00    -0.013 C 
ATOM      9  C4' I4B d   1       1.184   0.817  -0.706  0.00  0.00     0.013 C 
ATOM     10  C3' I4B d   1       0.828  -0.932  -2.426  0.00  0.00     0.013 C 
ENDBRANCH   7   8
ENDBRANCH   1   7
TORSDOF 2
ENDMDL
