MODEL 1
REMARK minimizedAffinity 13.3653975
REMARK minimizedRMSD -1
REMARK  2 active torsions:
REMARK  status: ('A' for Active; 'I' for Inactive)
REMARK    1  A    between atoms: C2'_3  and  C1'_4 
REMARK    2  A    between atoms: C1'_4  and  C1_5 
ROOT
ATOM      1  C1  I4B d   1      -3.372   1.477   3.808  0.00  0.00    -0.075 A 
ATOM      2  C2  I4B d   1      -2.225   0.799   4.134  0.00  0.00     0.003 A 
ATOM      3  C3  I4B d   1      -2.096  -0.576   3.820  0.00  0.00     0.002 A 
ATOM      4  C4  I4B d   1      -3.152  -1.240   3.230  0.00  0.00    -0.004 A 
ATOM      5  C5  I4B d   1      -4.306  -0.545   2.878  0.00  0.00     0.002 A 
ATOM      6  C6  I4B d   1      -4.412   0.825   3.158  0.00  0.00     0.003 A 
ENDROOT
BRANCH   1   7
ATOM      7  C1' I4B d   1      -3.487   2.921   4.183  0.00  0.00     0.060 C 
BRANCH   7   8
ATOM      8  C2' I4B d   1      -3.041   3.749   2.996  0.00  0.00    -0.013 C 
ATOM      9  C4' I4B d   1      -3.832   3.405   1.762  0.00  0.00     0.013 C 
ATOM     10  C3' I4B d   1      -3.200   5.196   3.355  0.00  0.00     0.013 C 
ENDBRANCH   7   8
ENDBRANCH   1   7
TORSDOF 2
ENDMDL
