MODEL 1
REMARK minimizedAffinity 0.336949468
REMARK minimizedRMSD -1
REMARK  2 active torsions:
REMARK  status: ('A' for Active; 'I' for Inactive)
REMARK    1  A    between atoms: C2'_3  and  C1'_4 
REMARK    2  A    between atoms: C1'_4  and  C1_5 
ROOT
ATOM      1  C1  I4B d   1       1.215  -2.475   0.514  0.00  0.00    -0.075 A 
ATOM      2  C2  I4B d   1       2.096  -1.424   0.468  0.00  0.00     0.003 A 
ATOM      3  C3  I4B d   1       1.823  -0.300  -0.349  0.00  0.00     0.002 A 
ATOM      4  C4  I4B d   1       0.690  -0.292  -1.137  0.00  0.00    -0.004 A 
ATOM      5  C5  I4B d   1      -0.214  -1.348  -1.071  0.00  0.00     0.002 A 
ATOM      6  C6  I4B d   1       0.044  -2.442  -0.232  0.00  0.00     0.003 A 
ENDROOT
BRANCH   1   7
ATOM      7  C1' I4B d   1       1.551  -3.661   1.362  0.00  0.00     0.060 C 
BRANCH   7   8
ATOM      8  C2' I4B d   1       0.575  -4.769   1.023  0.00  0.00    -0.013 C 
ATOM      9  C4' I4B d   1       0.837  -5.998   1.853  0.00  0.00     0.013 C 
ATOM     10  C3' I4B d   1      -0.813  -4.248   1.249  0.00  0.00     0.013 C 
ENDBRANCH   7   8
ENDBRANCH   1   7
TORSDOF 2
ENDMDL
