MODEL 1
REMARK minimizedAffinity 5.90118742
REMARK minimizedRMSD -1
REMARK  2 active torsions:
REMARK  status: ('A' for Active; 'I' for Inactive)
REMARK    1  A    between atoms: C2'_3  and  C1'_4 
REMARK    2  A    between atoms: C1'_4  and  C1_5 
ROOT
ATOM      1  C1  I4B d   1       0.809  -3.684   0.763  0.00  0.00    -0.075 A 
ATOM      2  C2  I4B d   1       1.504  -4.812   1.123  0.00  0.00     0.003 A 
ATOM      3  C3  I4B d   1       0.810  -5.999   1.460  0.00  0.00     0.002 A 
ATOM      4  C4  I4B d   1      -0.570  -5.999   1.473  0.00  0.00    -0.004 A 
ATOM      5  C5  I4B d   1      -1.272  -4.861   1.086  0.00  0.00     0.002 A 
ATOM      6  C6  I4B d   1      -0.579  -3.700   0.716  0.00  0.00     0.003 A 
ENDROOT
BRANCH   1   7
ATOM      7  C1' I4B d   1       1.573  -2.438   0.444  0.00  0.00     0.060 C 
BRANCH   7   8
ATOM      8  C2' I4B d   1       0.574  -1.318   0.235  0.00  0.00    -0.013 C 
ATOM      9  C4' I4B d   1       1.269   0.004   0.044  0.00  0.00     0.013 C 
ATOM     10  C3' I4B d   1      -0.267  -1.665  -0.956  0.00  0.00     0.013 C 
ENDBRANCH   7   8
ENDBRANCH   1   7
TORSDOF 2
ENDMDL
