MODEL 1
REMARK minimizedAffinity 2.87135887
REMARK minimizedRMSD -1
REMARK  2 active torsions:
REMARK  status: ('A' for Active; 'I' for Inactive)
REMARK    1  A    between atoms: C2'_3  and  C1'_4 
REMARK    2  A    between atoms: C1'_4  and  C1_5 
ROOT
ATOM      1  C1  I4B d   1       1.760   1.095  -3.945  0.00  0.00    -0.075 A 
ATOM      2  C2  I4B d   1       1.795   0.003  -3.114  0.00  0.00     0.003 A 
ATOM      3  C3  I4B d   1       1.113   0.030  -1.873  0.00  0.00     0.002 A 
ATOM      4  C4  I4B d   1       0.456   1.180  -1.483  0.00  0.00    -0.004 A 
ATOM      5  C5  I4B d   1       0.403   2.277  -2.338  0.00  0.00     0.002 A 
ATOM      6  C6  I4B d   1       1.049   2.231  -3.582  0.00  0.00     0.003 A 
ENDROOT
BRANCH   1   7
ATOM      7  C1' I4B d   1       2.519   1.044  -5.234  0.00  0.00     0.060 C 
BRANCH   7   8
ATOM      8  C2' I4B d   1       3.807   1.820  -5.048  0.00  0.00    -0.013 C 
ATOM      9  C4' I4B d   1       5.009   0.943  -5.279  0.00  0.00     0.013 C 
ATOM     10  C3' I4B d   1       3.791   2.979  -5.999  0.00  0.00     0.013 C 
ENDBRANCH   7   8
ENDBRANCH   1   7
TORSDOF 2
ENDMDL
