MODEL 1
REMARK minimizedAffinity 3.70973897
REMARK minimizedRMSD -1
REMARK  2 active torsions:
REMARK  status: ('A' for Active; 'I' for Inactive)
REMARK    1  A    between atoms: C2'_3  and  C1'_4 
REMARK    2  A    between atoms: C1'_4  and  C1_5 
ROOT
ATOM      1  C1  I4B d   1       0.897  -0.249  -2.631  0.00  0.00    -0.075 A 
ATOM      2  C2  I4B d   1       1.564  -0.138  -3.825  0.00  0.00     0.003 A 
ATOM      3  C3  I4B d   1       1.682   1.122  -4.461  0.00  0.00     0.002 A 
ATOM      4  C4  I4B d   1       1.079   2.228  -3.896  0.00  0.00    -0.004 A 
ATOM      5  C5  I4B d   1       0.423   2.117  -2.674  0.00  0.00     0.002 A 
ATOM      6  C6  I4B d   1       0.342   0.874  -2.030  0.00  0.00     0.003 A 
ENDROOT
BRANCH   1   7
ATOM      7  C1' I4B d   1       0.762  -1.600  -2.004  0.00  0.00     0.060 C 
BRANCH   7   8
ATOM      8  C2' I4B d   1       1.093  -1.466  -0.531  0.00  0.00    -0.013 C 
ATOM      9  C4' I4B d   1       1.698  -0.121  -0.228  0.00  0.00     0.013 C 
ATOM     10  C3' I4B d   1      -0.171  -1.679   0.248  0.00  0.00     0.013 C 
ENDBRANCH   7   8
ENDBRANCH   1   7
TORSDOF 2
ENDMDL
