MODEL 1
REMARK minimizedAffinity 0.0799705982
REMARK minimizedRMSD -1
REMARK  2 active torsions:
REMARK  status: ('A' for Active; 'I' for Inactive)
REMARK    1  A    between atoms: C2'_3  and  C1'_4 
REMARK    2  A    between atoms: C1'_4  and  C1_5 
ROOT
ATOM      1  C1  I4B d   1      -4.130   2.547   5.176  0.00  0.00    -0.075 A 
ATOM      2  C2  I4B d   1      -4.669   3.503   6.000  0.00  0.00     0.003 A 
ATOM      3  C3  I4B d   1      -4.844   4.829   5.535  0.00  0.00     0.002 A 
ATOM      4  C4  I4B d   1      -4.421   5.165   4.265  0.00  0.00    -0.004 A 
ATOM      5  C5  I4B d   1      -3.895   4.189   3.423  0.00  0.00     0.002 A 
ATOM      6  C6  I4B d   1      -3.760   2.869   3.876  0.00  0.00     0.003 A 
ENDROOT
BRANCH   1   7
ATOM      7  C1' I4B d   1      -3.929   1.165   5.711  0.00  0.00     0.060 C 
BRANCH   7   8
ATOM      8  C2' I4B d   1      -3.690   0.239   4.535  0.00  0.00    -0.013 C 
ATOM      9  C4' I4B d   1      -2.698  -0.839   4.882  0.00  0.00     0.013 C 
ATOM     10  C3' I4B d   1      -5.010  -0.348   4.132  0.00  0.00     0.013 C 
ENDBRANCH   7   8
ENDBRANCH   1   7
TORSDOF 2
ENDMDL
