MODEL 1
REMARK minimizedAffinity 2.01308155
REMARK minimizedRMSD -1
REMARK  2 active torsions:
REMARK  status: ('A' for Active; 'I' for Inactive)
REMARK    1  A    between atoms: C2'_3  and  C1'_4 
REMARK    2  A    between atoms: C1'_4  and  C1_5 
ROOT
ATOM      1  C1  I4B d   1       3.385   0.373  -4.429  0.00  0.00    -0.075 A 
ATOM      2  C2  I4B d   1       3.660   1.162  -5.519  0.00  0.00     0.003 A 
ATOM      3  C3  I4B d   1       4.989   1.571  -5.785  0.00  0.00     0.002 A 
ATOM      4  C4  I4B d   1       5.998   1.213  -4.915  0.00  0.00    -0.004 A 
ATOM      5  C5  I4B d   1       5.721   0.395  -3.823  0.00  0.00     0.002 A 
ATOM      6  C6  I4B d   1       4.409  -0.038  -3.585  0.00  0.00     0.003 A 
ENDROOT
BRANCH   1   7
ATOM      7  C1' I4B d   1       1.966  -0.013  -4.158  0.00  0.00     0.060 C 
BRANCH   7   8
ATOM      8  C2' I4B d   1       1.941  -0.843  -2.891  0.00  0.00    -0.013 C 
ATOM      9  C4' I4B d   1       1.075  -0.203  -1.837  0.00  0.00     0.013 C 
ATOM     10  C3' I4B d   1       1.442  -2.212  -3.243  0.00  0.00     0.013 C 
ENDBRANCH   7   8
ENDBRANCH   1   7
TORSDOF 2
ENDMDL
