MODEL 1
REMARK minimizedAffinity -0.885221899
REMARK minimizedRMSD -1
REMARK  2 active torsions:
REMARK  status: ('A' for Active; 'I' for Inactive)
REMARK    1  A    between atoms: C2'_3  and  C1'_4 
REMARK    2  A    between atoms: C1'_4  and  C1_5 
ROOT
ATOM      1  C1  I4B d   1      -3.911   3.466   5.299  0.00  0.00    -0.075 A 
ATOM      2  C2  I4B d   1      -4.823   4.214   6.000  0.00  0.00     0.003 A 
ATOM      3  C3  I4B d   1      -5.210   5.492   5.528  0.00  0.00     0.002 A 
ATOM      4  C4  I4B d   1      -4.626   6.000   4.386  0.00  0.00    -0.004 A 
ATOM      5  C5  I4B d   1      -3.719   5.230   3.663  0.00  0.00     0.002 A 
ATOM      6  C6  I4B d   1      -3.368   3.950   4.116  0.00  0.00     0.003 A 
ENDROOT
BRANCH   1   7
ATOM      7  C1' I4B d   1      -3.500   2.135   5.843  0.00  0.00     0.060 C 
BRANCH   7   8
ATOM      8  C2' I4B d   1      -4.291   1.068   5.114  0.00  0.00    -0.013 C 
ATOM      9  C4' I4B d   1      -3.736  -0.305   5.388  0.00  0.00     0.013 C 
ATOM     10  C3' I4B d   1      -5.721   1.171   5.553  0.00  0.00     0.013 C 
ENDBRANCH   7   8
ENDBRANCH   1   7
TORSDOF 2
ENDMDL
