MODEL 1
REMARK minimizedAffinity 9.11996078
REMARK minimizedRMSD -1
REMARK  2 active torsions:
REMARK  status: ('A' for Active; 'I' for Inactive)
REMARK    1  A    between atoms: C2'_3  and  C1'_4 
REMARK    2  A    between atoms: C1'_4  and  C1_5 
ROOT
ATOM      1  C1  I4B d   1       0.984   0.589  -2.008  0.00  0.00    -0.075 A 
ATOM      2  C2  I4B d   1       0.676  -0.720  -1.735  0.00  0.00     0.003 A 
ATOM      3  C3  I4B d   1       0.969  -1.733  -2.680  0.00  0.00     0.002 A 
ATOM      4  C4  I4B d   1       1.520  -1.388  -3.897  0.00  0.00    -0.004 A 
ATOM      5  C5  I4B d   1       1.853  -0.063  -4.162  0.00  0.00     0.002 A 
ATOM      6  C6  I4B d   1       1.595   0.931  -3.207  0.00  0.00     0.003 A 
ENDROOT
BRANCH   1   7
ATOM      7  C1' I4B d   1       0.631   1.638  -1.001  0.00  0.00     0.060 C 
BRANCH   7   8
ATOM      8  C2' I4B d   1       1.861   1.911  -0.160  0.00  0.00    -0.013 C 
ATOM      9  C4' I4B d   1       2.846   2.776  -0.900  0.00  0.00     0.013 C 
ATOM     10  C3' I4B d   1       1.415   2.565   1.114  0.00  0.00     0.013 C 
ENDBRANCH   7   8
ENDBRANCH   1   7
TORSDOF 2
ENDMDL
