MODEL 1
REMARK minimizedAffinity -1.89811552
REMARK minimizedRMSD -1
REMARK  0 active torsions:
REMARK  status: ('A' for Active; 'I' for Inactive)
ROOT
ATOM      1  C1  BNZ d   1       1.148   0.716  -3.324  0.00  0.00     0.000 A 
ATOM      2  C2  BNZ d   1       0.356   1.751  -2.901  0.00  0.00     0.000 A 
ATOM      3  C3  BNZ d   1      -1.003   1.615  -2.849  0.00  0.00     0.000 A 
ATOM      4  C4  BNZ d   1      -1.570   0.462  -3.257  0.00  0.00     0.000 A 
ATOM      5  C5  BNZ d   1      -0.786  -0.587  -3.695  0.00  0.00     0.000 A 
ATOM      6  C6  BNZ d   1       0.584  -0.461  -3.709  0.00  0.00     0.000 A 
ENDROOT
TORSDOF 0
ENDMDL
