MODEL 1
REMARK minimizedAffinity 4.41323805
REMARK minimizedRMSD -1
REMARK  0 active torsions:
REMARK  status: ('A' for Active; 'I' for Inactive)
ROOT
ATOM      1  C1  BNZ d   1       1.138  -5.956   3.000  0.00  0.00     0.000 A 
ATOM      2  C2  BNZ d   1      -0.231  -5.999   2.994  0.00  0.00     0.000 A 
ATOM      3  C3  BNZ d   1      -0.929  -5.880   1.824  0.00  0.00     0.000 A 
ATOM      4  C4  BNZ d   1      -0.260  -5.677   0.671  0.00  0.00     0.000 A 
ATOM      5  C5  BNZ d   1       1.119  -5.621   0.663  0.00  0.00     0.000 A 
ATOM      6  C6  BNZ d   1       1.820  -5.781   1.836  0.00  0.00     0.000 A 
ENDROOT
TORSDOF 0
ENDMDL
