MODEL 1
REMARK minimizedAffinity -1.36169636
REMARK minimizedRMSD -1
REMARK  0 active torsions:
REMARK  status: ('A' for Active; 'I' for Inactive)
ROOT
ATOM      1  C1  BNZ d   1      -4.749   0.753   4.573  0.00  0.00     0.000 A 
ATOM      2  C2  BNZ d   1      -3.684   0.300   5.305  0.00  0.00     0.000 A 
ATOM      3  C3  BNZ d   1      -3.760  -0.877   5.997  0.00  0.00     0.000 A 
ATOM      4  C4  BNZ d   1      -4.913  -1.577   5.989  0.00  0.00     0.000 A 
ATOM      5  C5  BNZ d   1      -5.998  -1.129   5.263  0.00  0.00     0.000 A 
ATOM      6  C6  BNZ d   1      -5.905   0.036   4.536  0.00  0.00     0.000 A 
ENDROOT
TORSDOF 0
ENDMDL
