MODEL 1
REMARK minimizedAffinity 4.50467539
REMARK minimizedRMSD -1
REMARK  0 active torsions:
REMARK  status: ('A' for Active; 'I' for Inactive)
ROOT
ATOM      1  C1  BNZ d   1       3.752   0.337  -3.750  0.00  0.00     0.000 A 
ATOM      2  C2  BNZ d   1       2.786   0.880  -2.945  0.00  0.00     0.000 A 
ATOM      3  C3  BNZ d   1       2.064   0.094  -2.091  0.00  0.00     0.000 A 
ATOM      4  C4  BNZ d   1       2.280  -1.237  -2.072  0.00  0.00     0.000 A 
ATOM      5  C5  BNZ d   1       3.244  -1.800  -2.884  0.00  0.00     0.000 A 
ATOM      6  C6  BNZ d   1       3.996  -1.001  -3.714  0.00  0.00     0.000 A 
ENDROOT
TORSDOF 0
ENDMDL
