MODEL 1
REMARK minimizedAffinity 2.07399321
REMARK minimizedRMSD -1
REMARK  0 active torsions:
REMARK  status: ('A' for Active; 'I' for Inactive)
ROOT
ATOM      1  C1  BNZ d   1       1.009  -6.000   2.620  0.00  0.00     0.000 A 
ATOM      2  C2  BNZ d   1      -0.344  -5.792   2.629  0.00  0.00     0.000 A 
ATOM      3  C3  BNZ d   1      -1.029  -5.594   1.462  0.00  0.00     0.000 A 
ATOM      4  C4  BNZ d   1      -0.355  -5.564   0.295  0.00  0.00     0.000 A 
ATOM      5  C5  BNZ d   1       1.011  -5.762   0.271  0.00  0.00     0.000 A 
ATOM      6  C6  BNZ d   1       1.692  -6.000   1.443  0.00  0.00     0.000 A 
ENDROOT
TORSDOF 0
ENDMDL
