MODEL 1
REMARK minimizedAffinity 0.924829066
REMARK minimizedRMSD -1
REMARK  0 active torsions:
REMARK  status: ('A' for Active; 'I' for Inactive)
ROOT
ATOM      1  C1  BNZ d   1       1.937   4.876  -5.999  0.00  0.00     0.000 A 
ATOM      2  C2  BNZ d   1       1.820   3.733  -5.254  0.00  0.00     0.000 A 
ATOM      3  C3  BNZ d   1       1.012   3.694  -4.153  0.00  0.00     0.000 A 
ATOM      4  C4  BNZ d   1       0.354   4.809  -3.774  0.00  0.00     0.000 A 
ATOM      5  C5  BNZ d   1       0.468   5.972  -4.509  0.00  0.00     0.000 A 
ATOM      6  C6  BNZ d   1       1.252   5.996  -5.639  0.00  0.00     0.000 A 
ENDROOT
TORSDOF 0
ENDMDL
