MODEL 1
REMARK minimizedAffinity -0.689112306
REMARK minimizedRMSD -1
REMARK  0 active torsions:
REMARK  status: ('A' for Active; 'I' for Inactive)
ROOT
ATOM      1  C1  BNZ d   1      -3.615   1.030   5.898  0.00  0.00     0.000 A 
ATOM      2  C2  BNZ d   1      -4.802   1.708   5.818  0.00  0.00     0.000 A 
ATOM      3  C3  BNZ d   1      -5.993   1.039   5.849  0.00  0.00     0.000 A 
ATOM      4  C4  BNZ d   1      -5.996  -0.308   5.919  0.00  0.00     0.000 A 
ATOM      5  C5  BNZ d   1      -4.807  -1.006   5.991  0.00  0.00     0.000 A 
ATOM      6  C6  BNZ d   1      -3.610  -0.327   5.999  0.00  0.00     0.000 A 
ENDROOT
TORSDOF 0
ENDMDL
