MODEL 1
REMARK minimizedAffinity 8.64272213
REMARK minimizedRMSD -1
REMARK  0 active torsions:
REMARK  status: ('A' for Active; 'I' for Inactive)
ROOT
ATOM      1  C1  BNZ d   1       1.767  -3.956   2.231  0.00  0.00     0.000 A 
ATOM      2  C2  BNZ d   1       0.441  -3.967   2.576  0.00  0.00     0.000 A 
ATOM      3  C3  BNZ d   1      -0.371  -5.000   2.200  0.00  0.00     0.000 A 
ATOM      4  C4  BNZ d   1       0.132  -5.999   1.448  0.00  0.00     0.000 A 
ATOM      5  C5  BNZ d   1       1.464  -5.998   1.084  0.00  0.00     0.000 A 
ATOM      6  C6  BNZ d   1       2.288  -4.977   1.497  0.00  0.00     0.000 A 
ENDROOT
TORSDOF 0
ENDMDL
