MODEL 1
REMARK minimizedAffinity 0.771895468
REMARK minimizedRMSD -1
REMARK  0 active torsions:
REMARK  status: ('A' for Active; 'I' for Inactive)
ROOT
ATOM      1  C1  BNZ d   1      -5.607   3.717   5.997  0.00  0.00     0.000 A 
ATOM      2  C2  BNZ d   1      -4.284   3.362   5.995  0.00  0.00     0.000 A 
ATOM      3  C3  BNZ d   1      -3.304   4.315   5.986  0.00  0.00     0.000 A 
ATOM      4  C4  BNZ d   1      -3.647   5.619   5.940  0.00  0.00     0.000 A 
ATOM      5  C5  BNZ d   1      -4.977   5.992   5.932  0.00  0.00     0.000 A 
ATOM      6  C6  BNZ d   1      -5.960   5.031   5.980  0.00  0.00     0.000 A 
ENDROOT
TORSDOF 0
ENDMDL
