MODEL 1
REMARK minimizedAffinity 2.58045363
REMARK minimizedRMSD -1
REMARK  0 active torsions:
REMARK  status: ('A' for Active; 'I' for Inactive)
ROOT
ATOM      1  C1  BNZ d   1       1.165  -5.998   1.852  0.00  0.00     0.000 A 
ATOM      2  C2  BNZ d   1       0.426  -5.999   0.699  0.00  0.00     0.000 A 
ATOM      3  C3  BNZ d   1      -0.940  -5.975   0.743  0.00  0.00     0.000 A 
ATOM      4  C4  BNZ d   1      -1.565  -5.991   1.938  0.00  0.00     0.000 A 
ATOM      5  C5  BNZ d   1      -0.835  -6.000   3.110  0.00  0.00     0.000 A 
ATOM      6  C6  BNZ d   1       0.541  -5.984   3.061  0.00  0.00     0.000 A 
ENDROOT
TORSDOF 0
ENDMDL
