MODEL 1
REMARK minimizedAffinity -1.35395217
REMARK minimizedRMSD -1
REMARK  0 active torsions:
REMARK  status: ('A' for Active; 'I' for Inactive)
ROOT
ATOM      1  C1  BNZ d   1      -3.200  -0.950  -0.504  0.00  0.00     0.000 A 
ATOM      2  C2  BNZ d   1      -2.201  -0.026  -0.345  0.00  0.00     0.000 A 
ATOM      3  C3  BNZ d   1      -2.384   1.073   0.447  0.00  0.00     0.000 A 
ATOM      4  C4  BNZ d   1      -3.577   1.268   1.045  0.00  0.00     0.000 A 
ATOM      5  C5  BNZ d   1      -4.597   0.351   0.887  0.00  0.00     0.000 A 
ATOM      6  C6  BNZ d   1      -4.396  -0.775   0.121  0.00  0.00     0.000 A 
ENDROOT
TORSDOF 0
ENDMDL
