MODEL 1
REMARK minimizedAffinity 0.720915973
REMARK minimizedRMSD -1
REMARK  0 active torsions:
REMARK  status: ('A' for Active; 'I' for Inactive)
ROOT
ATOM      1  C1  BNZ d   1       0.838  -6.000   0.893  0.00  0.00     0.000 A 
ATOM      2  C2  BNZ d   1      -0.364  -5.999   0.237  0.00  0.00     0.000 A 
ATOM      3  C3  BNZ d   1      -1.541  -5.973   0.933  0.00  0.00     0.000 A 
ATOM      4  C4  BNZ d   1      -1.514  -5.989   2.281  0.00  0.00     0.000 A 
ATOM      5  C5  BNZ d   1      -0.310  -6.000   2.957  0.00  0.00     0.000 A 
ATOM      6  C6  BNZ d   1       0.872  -5.986   2.253  0.00  0.00     0.000 A 
ENDROOT
TORSDOF 0
ENDMDL
