MODEL 1
REMARK minimizedAffinity 5.47336102
REMARK minimizedRMSD -1
REMARK  0 active torsions:
REMARK  status: ('A' for Active; 'I' for Inactive)
ROOT
ATOM      1  C1  BNZ d   1       2.501   2.193  -4.593  0.00  0.00     0.000 A 
ATOM      2  C2  BNZ d   1       3.411   1.190  -4.791  0.00  0.00     0.000 A 
ATOM      3  C3  BNZ d   1       3.547   0.178  -3.882  0.00  0.00     0.000 A 
ATOM      4  C4  BNZ d   1       2.802   0.193  -2.758  0.00  0.00     0.000 A 
ATOM      5  C5  BNZ d   1       1.886   1.203  -2.539  0.00  0.00     0.000 A 
ATOM      6  C6  BNZ d   1       1.725   2.198  -3.475  0.00  0.00     0.000 A 
ENDROOT
TORSDOF 0
ENDMDL
