MODEL 1
REMARK minimizedAffinity -0.584445119
REMARK minimizedRMSD -1
REMARK  0 active torsions:
REMARK  status: ('A' for Active; 'I' for Inactive)
ROOT
ATOM      1  C1  BNZ d   1      -1.755   1.140  -4.922  0.00  0.00     0.000 A 
ATOM      2  C2  BNZ d   1      -0.716   1.851  -4.381  0.00  0.00     0.000 A 
ATOM      3  C3  BNZ d   1      -0.357   1.679  -3.073  0.00  0.00     0.000 A 
ATOM      4  C4  BNZ d   1      -1.060   0.828  -2.299  0.00  0.00     0.000 A 
ATOM      5  C5  BNZ d   1      -2.115   0.111  -2.827  0.00  0.00     0.000 A 
ATOM      6  C6  BNZ d   1      -2.450   0.258  -4.154  0.00  0.00     0.000 A 
ENDROOT
TORSDOF 0
ENDMDL
