MODEL 1
REMARK minimizedAffinity 7.23673248
REMARK minimizedRMSD -1
REMARK  0 active torsions:
REMARK  status: ('A' for Active; 'I' for Inactive)
ROOT
ATOM      1  C1  BNZ d   1      -2.742   1.168  -3.353  0.00  0.00     0.000 A 
ATOM      2  C2  BNZ d   1      -2.312   0.474  -2.253  0.00  0.00     0.000 A 
ATOM      3  C3  BNZ d   1      -1.205   0.878  -1.560  0.00  0.00     0.000 A 
ATOM      4  C4  BNZ d   1      -0.508   1.950  -1.989  0.00  0.00     0.000 A 
ATOM      5  C5  BNZ d   1      -0.923   2.654  -3.102  0.00  0.00     0.000 A 
ATOM      6  C6  BNZ d   1      -2.060   2.268  -3.775  0.00  0.00     0.000 A 
ENDROOT
TORSDOF 0
ENDMDL
