MODEL 1
REMARK minimizedAffinity 6.51926041
REMARK minimizedRMSD -1
REMARK  0 active torsions:
REMARK  status: ('A' for Active; 'I' for Inactive)
ROOT
ATOM      1  C1  BNZ d   1      -3.846   4.184   4.526  0.00  0.00     0.000 A 
ATOM      2  C2  BNZ d   1      -3.875   5.429   5.095  0.00  0.00     0.000 A 
ATOM      3  C3  BNZ d   1      -4.942   5.830   5.849  0.00  0.00     0.000 A 
ATOM      4  C4  BNZ d   1      -5.996   5.002   6.000  0.00  0.00     0.000 A 
ATOM      5  C5  BNZ d   1      -5.986   3.746   5.425  0.00  0.00     0.000 A 
ATOM      6  C6  BNZ d   1      -4.893   3.331   4.699  0.00  0.00     0.000 A 
ENDROOT
TORSDOF 0
ENDMDL
