MODEL 1
REMARK minimizedAffinity 5.23089266
REMARK minimizedRMSD -1
REMARK  0 active torsions:
REMARK  status: ('A' for Active; 'I' for Inactive)
ROOT
ATOM      1  C1  BNZ d   1      -4.723   2.206   4.832  0.00  0.00     0.000 A 
ATOM      2  C2  BNZ d   1      -4.940   1.514   5.994  0.00  0.00     0.000 A 
ATOM      3  C3  BNZ d   1      -5.559   0.295   5.978  0.00  0.00     0.000 A 
ATOM      4  C4  BNZ d   1      -5.995  -0.211   4.806  0.00  0.00     0.000 A 
ATOM      5  C5  BNZ d   1      -5.791   0.478   3.627  0.00  0.00     0.000 A 
ATOM      6  C6  BNZ d   1      -5.134   1.687   3.643  0.00  0.00     0.000 A 
ENDROOT
TORSDOF 0
ENDMDL
