MODEL 1
REMARK minimizedAffinity 4.1571064
REMARK minimizedRMSD -1
REMARK  0 active torsions:
REMARK  status: ('A' for Active; 'I' for Inactive)
ROOT
ATOM      1  C1  BNZ d   1       3.385   2.640  -4.994  0.00  0.00     0.000 A 
ATOM      2  C2  BNZ d   1       3.883   1.638  -4.203  0.00  0.00     0.000 A 
ATOM      3  C3  BNZ d   1       3.314   1.354  -2.993  0.00  0.00     0.000 A 
ATOM      4  C4  BNZ d   1       2.276   2.096  -2.558  0.00  0.00     0.000 A 
ATOM      5  C5  BNZ d   1       1.769   3.115  -3.339  0.00  0.00     0.000 A 
ATOM      6  C6  BNZ d   1       2.319   3.373  -4.573  0.00  0.00     0.000 A 
ENDROOT
TORSDOF 0
ENDMDL
