MODEL 1
REMARK minimizedAffinity 3.12352109
REMARK minimizedRMSD -1
REMARK  0 active torsions:
REMARK  status: ('A' for Active; 'I' for Inactive)
ROOT
ATOM      1  C   UNL d   1       1.762   0.669   2.300  0.00  0.00     0.172 C 
ATOM      2  N   UNL d   1       2.219  -0.509   2.999  0.00  0.00    -0.070 N 
ATOM      3  C1  UNL d   1       1.766  -0.942   4.216  0.00  0.00    -0.004 A 
ATOM      4  C2  UNL d   1       2.449  -2.095   4.536  0.00  0.00    -0.047 A 
ATOM      5  C3  UNL d   1       3.345  -2.365   3.474  0.00  0.00    -0.047 A 
ATOM      6  C4  UNL d   1       3.182  -1.367   2.536  0.00  0.00    -0.004 A 
ENDROOT
TORSDOF 0
ENDMDL
