MODEL 1
REMARK minimizedAffinity 3.95423698
REMARK minimizedRMSD -1
REMARK  0 active torsions:
REMARK  status: ('A' for Active; 'I' for Inactive)
ROOT
ATOM      1  C   UNL d   1       1.600  -2.644   4.673  0.00  0.00     0.172 C 
ATOM      2  N   UNL d   1       1.409  -3.971   5.208  0.00  0.00    -0.070 N 
ATOM      3  C1  UNL d   1       0.202  -4.554   5.486  0.00  0.00    -0.004 A 
ATOM      4  C2  UNL d   1       0.446  -5.817   5.979  0.00  0.00    -0.047 A 
ATOM      5  C3  UNL d   1       1.849  -6.000   5.999  0.00  0.00    -0.047 A 
ATOM      6  C4  UNL d   1       2.421  -4.842   5.517  0.00  0.00    -0.004 A 
ENDROOT
TORSDOF 0
ENDMDL
