MODEL 1
REMARK minimizedAffinity -0.00019227645
REMARK minimizedRMSD -1
REMARK  0 active torsions:
REMARK  status: ('A' for Active; 'I' for Inactive)
ROOT
ATOM      1  C   UNL d   1       3.890  -2.536   5.997  0.00  0.00     0.172 C 
ATOM      2  N   UNL d   1       3.390  -1.852   4.828  0.00  0.00    -0.070 N 
ATOM      3  C1  UNL d   1       2.071  -1.615   4.545  0.00  0.00    -0.004 A 
ATOM      4  C2  UNL d   1       2.012  -0.939   3.345  0.00  0.00    -0.047 A 
ATOM      5  C3  UNL d   1       3.341  -0.764   2.891  0.00  0.00    -0.047 A 
ATOM      6  C4  UNL d   1       4.174  -1.339   3.828  0.00  0.00    -0.004 A 
ENDROOT
TORSDOF 0
ENDMDL
