MODEL 1
REMARK minimizedAffinity 7.79652023
REMARK minimizedRMSD -1
REMARK  0 active torsions:
REMARK  status: ('A' for Active; 'I' for Inactive)
ROOT
ATOM      1  C   UNL d   1      -2.323   2.582   0.776  0.00  0.00     0.172 C 
ATOM      2  N   UNL d   1      -3.640   2.853   1.301  0.00  0.00    -0.070 N 
ATOM      3  C1  UNL d   1      -3.917   3.339   2.551  0.00  0.00    -0.004 A 
ATOM      4  C2  UNL d   1      -5.285   3.458   2.664  0.00  0.00    -0.047 A 
ATOM      5  C3  UNL d   1      -5.851   3.027   1.440  0.00  0.00    -0.047 A 
ATOM      6  C4  UNL d   1      -4.810   2.658   0.615  0.00  0.00    -0.004 A 
ENDROOT
TORSDOF 0
ENDMDL
