MODEL 1
REMARK minimizedAffinity 4.43866968
REMARK minimizedRMSD -1
REMARK  0 active torsions:
REMARK  status: ('A' for Active; 'I' for Inactive)
ROOT
ATOM      1  C   UNL d   1       1.864  -0.479   2.249  0.00  0.00     0.172 C 
ATOM      2  N   UNL d   1       2.467  -1.497   3.076  0.00  0.00    -0.070 N 
ATOM      3  C1  UNL d   1       3.779  -1.885   3.036  0.00  0.00    -0.004 A 
ATOM      4  C2  UNL d   1       3.955  -2.877   3.976  0.00  0.00    -0.047 A 
ATOM      5  C3  UNL d   1       2.705  -3.093   4.603  0.00  0.00    -0.047 A 
ATOM      6  C4  UNL d   1       1.801  -2.226   4.026  0.00  0.00    -0.004 A 
ENDROOT
TORSDOF 0
ENDMDL
