MODEL 1
REMARK minimizedAffinity 4.14786768
REMARK minimizedRMSD -1
REMARK  0 active torsions:
REMARK  status: ('A' for Active; 'I' for Inactive)
ROOT
ATOM      1  C   UNL d   1      -3.475  -1.216  -4.126  0.00  0.00     0.172 C 
ATOM      2  N   UNL d   1      -4.272  -2.311  -4.625  0.00  0.00    -0.070 N 
ATOM      3  C1  UNL d   1      -4.416  -2.660  -5.941  0.00  0.00    -0.004 A 
ATOM      4  C2  UNL d   1      -5.253  -3.754  -5.999  0.00  0.00    -0.047 A 
ATOM      5  C3  UNL d   1      -5.626  -4.073  -4.672  0.00  0.00    -0.047 A 
ATOM      6  C4  UNL d   1      -5.005  -3.164  -3.841  0.00  0.00    -0.004 A 
ENDROOT
TORSDOF 0
ENDMDL
