MODEL 1
REMARK minimizedAffinity 8.25589466
REMARK minimizedRMSD -1
REMARK  0 active torsions:
REMARK  status: ('A' for Active; 'I' for Inactive)
ROOT
ATOM      1  C   UNL d   1      -2.069  -4.381  -0.542  0.00  0.00     0.172 C 
ATOM      2  N   UNL d   1      -1.356  -3.140  -0.737  0.00  0.00    -0.070 N 
ATOM      3  C1  UNL d   1      -1.930  -1.907  -0.898  0.00  0.00    -0.004 A 
ATOM      4  C2  UNL d   1      -0.916  -0.987  -1.054  0.00  0.00    -0.047 A 
ATOM      5  C3  UNL d   1       0.309  -1.691  -0.985  0.00  0.00    -0.047 A 
ATOM      6  C4  UNL d   1       0.007  -3.022  -0.789  0.00  0.00    -0.004 A 
ENDROOT
TORSDOF 0
ENDMDL
