MODEL 1
REMARK minimizedAffinity -2.44800019
REMARK minimizedRMSD -1
REMARK  0 active torsions:
REMARK  status: ('A' for Active; 'I' for Inactive)
ROOT
ATOM      1  C   UNL d   1      -1.142   0.995   2.783  0.00  0.00     0.172 C 
ATOM      2  N   UNL d   1      -0.538   0.539   1.552  0.00  0.00    -0.070 N 
ATOM      3  C1  UNL d   1       0.791   0.270   1.367  0.00  0.00    -0.004 A 
ATOM      4  C2  UNL d   1       0.962  -0.138   0.062  0.00  0.00    -0.047 A 
ATOM      5  C3  UNL d   1      -0.310  -0.112  -0.559  0.00  0.00    -0.047 A 
ATOM      6  C4  UNL d   1      -1.220   0.311   0.386  0.00  0.00    -0.004 A 
ENDROOT
TORSDOF 0
ENDMDL
