MODEL 1
REMARK minimizedAffinity -2.3893497
REMARK minimizedRMSD -1
REMARK  0 active torsions:
REMARK  status: ('A' for Active; 'I' for Inactive)
ROOT
ATOM      1  C   UNL d   1      -1.514   0.979   2.044  0.00  0.00     0.172 C 
ATOM      2  N   UNL d   1      -0.771   0.344   0.980  0.00  0.00    -0.070 N 
ATOM      3  C1  UNL d   1      -1.309  -0.199  -0.155  0.00  0.00    -0.004 A 
ATOM      4  C2  UNL d   1      -0.274  -0.702  -0.914  0.00  0.00    -0.047 A 
ATOM      5  C3  UNL d   1       0.927  -0.452  -0.210  0.00  0.00    -0.047 A 
ATOM      6  C4  UNL d   1       0.591   0.197   0.960  0.00  0.00    -0.004 A 
ENDROOT
TORSDOF 0
ENDMDL
