MODEL 1
REMARK minimizedAffinity -4.05993938
REMARK minimizedRMSD -1
REMARK  0 active torsions:
REMARK  status: ('A' for Active; 'I' for Inactive)
ROOT
ATOM      1  C   UNL d   1       0.446  -0.059  -0.852  0.00  0.00     0.172 C 
ATOM      2  N   UNL d   1      -0.131   0.496   0.350  0.00  0.00    -0.070 N 
ATOM      3  C1  UNL d   1       0.539   0.741   1.518  0.00  0.00    -0.004 A 
ATOM      4  C2  UNL d   1      -0.361   1.270   2.419  0.00  0.00    -0.047 A 
ATOM      5  C3  UNL d   1      -1.616   1.344   1.769  0.00  0.00    -0.047 A 
ATOM      6  C4  UNL d   1      -1.445   0.858   0.489  0.00  0.00    -0.004 A 
ENDROOT
TORSDOF 0
ENDMDL
