MODEL 1
REMARK minimizedAffinity -3.49578881
REMARK minimizedRMSD -1
REMARK  0 active torsions:
REMARK  status: ('A' for Active; 'I' for Inactive)
ROOT
ATOM      1  C   UNL d   1       0.551  -0.069  -1.284  0.00  0.00     0.172 C 
ATOM      2  N   UNL d   1      -0.149   0.328  -0.086  0.00  0.00    -0.070 N 
ATOM      3  C1  UNL d   1       0.293   1.246   0.830  0.00  0.00    -0.004 A 
ATOM      4  C2  UNL d   1      -0.658   1.342   1.823  0.00  0.00    -0.047 A 
ATOM      5  C3  UNL d   1      -1.707   0.451   1.493  0.00  0.00    -0.047 A 
ATOM      6  C4  UNL d   1      -1.366  -0.163   0.307  0.00  0.00    -0.004 A 
ENDROOT
TORSDOF 0
ENDMDL
