MODEL 1
REMARK minimizedAffinity 0.0960712656
REMARK minimizedRMSD -1
REMARK  0 active torsions:
REMARK  status: ('A' for Active; 'I' for Inactive)
ROOT
ATOM      1  C   UNL d   1      -1.322   0.418   1.919  0.00  0.00     0.172 C 
ATOM      2  N   UNL d   1      -0.768   0.053   0.637  0.00  0.00    -0.070 N 
ATOM      3  C1  UNL d   1      -1.485  -0.178  -0.506  0.00  0.00    -0.004 A 
ATOM      4  C2  UNL d   1      -0.593  -0.498  -1.507  0.00  0.00    -0.047 A 
ATOM      5  C3  UNL d   1       0.705  -0.458  -0.946  0.00  0.00    -0.047 A 
ATOM      6  C4  UNL d   1       0.568  -0.115   0.383  0.00  0.00    -0.004 A 
ENDROOT
TORSDOF 0
ENDMDL
