MODEL 1
REMARK minimizedAffinity -2.05085182
REMARK minimizedRMSD -1
REMARK  0 active torsions:
REMARK  status: ('A' for Active; 'I' for Inactive)
ROOT
ATOM      1  C   UNL d   1       1.802  -0.256   1.982  0.00  0.00     0.172 C 
ATOM      2  N   UNL d   1       0.946  -0.101   0.830  0.00  0.00    -0.070 N 
ATOM      3  C1  UNL d   1       1.154  -0.665  -0.401  0.00  0.00    -0.004 A 
ATOM      4  C2  UNL d   1       0.117  -0.278  -1.223  0.00  0.00    -0.047 A 
ATOM      5  C3  UNL d   1      -0.743   0.547  -0.460  0.00  0.00    -0.047 A 
ATOM      6  C4  UNL d   1      -0.206   0.640   0.806  0.00  0.00    -0.004 A 
ENDROOT
TORSDOF 0
ENDMDL
