MODEL 1
REMARK minimizedAffinity -2.55703664
REMARK minimizedRMSD -1
REMARK  0 active torsions:
REMARK  status: ('A' for Active; 'I' for Inactive)
ROOT
ATOM      1  C   UNL d   1      -2.461  -0.896   3.674  0.00  0.00     0.172 C 
ATOM      2  N   UNL d   1      -1.771  -0.009   2.767  0.00  0.00    -0.070 N 
ATOM      3  C1  UNL d   1      -1.714  -0.145   1.406  0.00  0.00    -0.004 A 
ATOM      4  C2  UNL d   1      -0.965   0.900   0.909  0.00  0.00    -0.047 A 
ATOM      5  C3  UNL d   1      -0.558   1.691   2.009  0.00  0.00    -0.047 A 
ATOM      6  C4  UNL d   1      -1.071   1.106   3.147  0.00  0.00    -0.004 A 
ENDROOT
TORSDOF 0
ENDMDL
