MODEL 1
REMARK minimizedAffinity -3.01882505
REMARK minimizedRMSD -1
REMARK  0 active torsions:
REMARK  status: ('A' for Active; 'I' for Inactive)
ROOT
ATOM      1  C   UNL d   1       0.250   0.007  -0.798  0.00  0.00     0.172 C 
ATOM      2  N   UNL d   1      -0.335   0.434   0.451  0.00  0.00    -0.070 N 
ATOM      3  C1  UNL d   1       0.235   1.302   1.344  0.00  0.00    -0.004 A 
ATOM      4  C2  UNL d   1      -0.636   1.452   2.401  0.00  0.00    -0.047 A 
ATOM      5  C3  UNL d   1      -1.768   0.646   2.135  0.00  0.00    -0.047 A 
ATOM      6  C4  UNL d   1      -1.555   0.027   0.922  0.00  0.00    -0.004 A 
ENDROOT
TORSDOF 0
ENDMDL
