MODEL 1
REMARK minimizedAffinity -3.709589
REMARK minimizedRMSD -1
REMARK  0 active torsions:
REMARK  status: ('A' for Active; 'I' for Inactive)
ROOT
ATOM      1  C   UNL d   1       0.391  -0.390  -0.700  0.00  0.00     0.172 C 
ATOM      2  N   UNL d   1      -0.119   0.326   0.446  0.00  0.00    -0.070 N 
ATOM      3  C1  UNL d   1      -1.379   0.849   0.565  0.00  0.00    -0.004 A 
ATOM      4  C2  UNL d   1      -1.471   1.451   1.801  0.00  0.00    -0.047 A 
ATOM      5  C3  UNL d   1      -0.223   1.284   2.447  0.00  0.00    -0.047 A 
ATOM      6  C4  UNL d   1       0.596   0.585   1.586  0.00  0.00    -0.004 A 
ENDROOT
TORSDOF 0
ENDMDL
