MODEL 1
REMARK minimizedAffinity -3.76664829
REMARK minimizedRMSD -1
REMARK  0 active torsions:
REMARK  status: ('A' for Active; 'I' for Inactive)
ROOT
ATOM      1  C   UNL d   1       0.271  -0.097  -1.088  0.00  0.00     0.172 C 
ATOM      2  N   UNL d   1      -0.242   0.214   0.226  0.00  0.00    -0.070 N 
ATOM      3  C1  UNL d   1       0.434   0.887   1.208  0.00  0.00    -0.004 A 
ATOM      4  C2  UNL d   1      -0.396   0.979   2.304  0.00  0.00    -0.047 A 
ATOM      5  C3  UNL d   1      -1.613   0.339   1.969  0.00  0.00    -0.047 A 
ATOM      6  C4  UNL d   1      -1.490  -0.126   0.677  0.00  0.00    -0.004 A 
ENDROOT
TORSDOF 0
ENDMDL
