MODEL 1
REMARK minimizedAffinity -2.96180654
REMARK minimizedRMSD -1
REMARK  1 active torsions:
REMARK  status: ('A' for Active; 'I' for Inactive)
REMARK    1  A    between atoms: N_2  and  C1_3 
ROOT
ATOM      1  C1  UNL d   1       0.086  -0.202   0.172  0.00  0.00     0.143 A 
ATOM      2  C2  UNL d   1       0.692   0.676   1.077  0.00  0.00    -0.057 A 
ATOM      3  C3  UNL d   1       0.630   0.451   2.458  0.00  0.00     0.033 A 
ATOM      4  C4  UNL d   1      -0.066  -0.643   2.960  0.00  0.00    -0.042 A 
ATOM      5  C5  UNL d   1      -0.697  -1.515   2.080  0.00  0.00     0.033 A 
ATOM      6  C6  UNL d   1      -0.626  -1.289   0.702  0.00  0.00    -0.057 A 
ENDROOT
BRANCH   1   7
ATOM      7  N   UNL d   1       0.028   0.020  -1.207  0.00  0.00    -0.732 N 
ATOM      8  C   UNL d   1       0.551  -0.961  -2.134  0.00  0.00     0.284 C 
ATOM      9  H3  UNL d   1      -0.853   0.437  -1.496  0.00  0.00     0.395 HD
ENDBRANCH   1   7
TORSDOF 1
ENDMDL
