MODEL 1
REMARK minimizedAffinity -4.33361769
REMARK minimizedRMSD -1
REMARK  1 active torsions:
REMARK  status: ('A' for Active; 'I' for Inactive)
REMARK    1  A    between atoms: N_2  and  C1_3 
ROOT
ATOM      1  C1  UNL d   1       0.476   0.216  -0.921  0.00  0.00     0.143 A 
ATOM      2  C2  UNL d   1       1.408   0.899  -0.132  0.00  0.00    -0.057 A 
ATOM      3  C3  UNL d   1       1.313   0.902   1.265  0.00  0.00     0.033 A 
ATOM      4  C4  UNL d   1       0.265   0.243   1.899  0.00  0.00    -0.042 A 
ATOM      5  C5  UNL d   1      -0.687  -0.423   1.134  0.00  0.00     0.033 A 
ATOM      6  C6  UNL d   1      -0.583  -0.427  -0.261  0.00  0.00    -0.057 A 
ENDROOT
BRANCH   1   7
ATOM      7  N   UNL d   1       0.460   0.258  -2.317  0.00  0.00    -0.732 N 
ATOM      8  C   UNL d   1       0.820  -0.909  -3.094  0.00  0.00     0.284 C 
ATOM      9  H3  UNL d   1      -0.342   0.768  -2.681  0.00  0.00     0.395 HD
ENDBRANCH   1   7
TORSDOF 1
ENDMDL
