MODEL 1
REMARK minimizedAffinity -3.53322673
REMARK minimizedRMSD -1
REMARK  1 active torsions:
REMARK  status: ('A' for Active; 'I' for Inactive)
REMARK    1  A    between atoms: N_2  and  C1_3 
ROOT
ATOM      1  C1  UNL d   1       1.143  -0.344  -1.717  0.00  0.00     0.143 A 
ATOM      2  C2  UNL d   1       0.964  -1.539  -2.422  0.00  0.00    -0.057 A 
ATOM      3  C3  UNL d   1       1.874  -1.946  -3.405  0.00  0.00     0.033 A 
ATOM      4  C4  UNL d   1       2.968  -1.148  -3.722  0.00  0.00    -0.042 A 
ATOM      5  C5  UNL d   1       3.153   0.056  -3.051  0.00  0.00     0.033 A 
ATOM      6  C6  UNL d   1       2.244   0.454  -2.066  0.00  0.00    -0.057 A 
ENDROOT
BRANCH   1   7
ATOM      7  N   UNL d   1       0.221   0.163  -0.798  0.00  0.00    -0.732 N 
ATOM      8  C   UNL d   1       0.663   0.953   0.330  0.00  0.00     0.284 C 
ATOM      9  H3  UNL d   1      -0.622   0.514  -1.248  0.00  0.00     0.395 HD
ENDBRANCH   1   7
TORSDOF 1
ENDMDL
