MODEL 1
REMARK minimizedAffinity -3.6453886
REMARK minimizedRMSD -1
REMARK  1 active torsions:
REMARK  status: ('A' for Active; 'I' for Inactive)
REMARK    1  A    between atoms: N_2  and  C1_3 
ROOT
ATOM      1  C1  UNL d   1      -0.752   0.038   1.122  0.00  0.00     0.143 A 
ATOM      2  C2  UNL d   1      -1.919   0.253   0.382  0.00  0.00    -0.057 A 
ATOM      3  C3  UNL d   1      -1.867   0.715  -0.939  0.00  0.00     0.033 A 
ATOM      4  C4  UNL d   1      -0.642   0.998  -1.535  0.00  0.00    -0.042 A 
ATOM      5  C5  UNL d   1       0.530   0.815  -0.809  0.00  0.00     0.033 A 
ATOM      6  C6  UNL d   1       0.471   0.347   0.507  0.00  0.00    -0.057 A 
ENDROOT
BRANCH   1   7
ATOM      7  N   UNL d   1      -0.742  -0.326   2.471  0.00  0.00    -0.732 N 
ATOM      8  C   UNL d   1      -0.493   0.662   3.499  0.00  0.00     0.284 C 
ATOM      9  H3  UNL d   1      -1.480  -0.988   2.700  0.00  0.00     0.395 HD
ENDBRANCH   1   7
TORSDOF 1
ENDMDL
