MODEL 1
REMARK minimizedAffinity -4.29968309
REMARK minimizedRMSD -1
REMARK  1 active torsions:
REMARK  status: ('A' for Active; 'I' for Inactive)
REMARK    1  A    between atoms: N_2  and  C1_3 
ROOT
ATOM      1  C1  UNL d   1       0.310   0.596  -1.463  0.00  0.00     0.143 A 
ATOM      2  C2  UNL d   1      -0.640  -0.228  -0.848  0.00  0.00    -0.057 A 
ATOM      3  C3  UNL d   1      -0.820  -0.218   0.541  0.00  0.00     0.033 A 
ATOM      4  C4  UNL d   1      -0.029   0.597   1.344  0.00  0.00    -0.042 A 
ATOM      5  C5  UNL d   1       0.938   1.405   0.758  0.00  0.00     0.033 A 
ATOM      6  C6  UNL d   1       1.108   1.396  -0.630  0.00  0.00    -0.057 A 
ENDROOT
BRANCH   1   7
ATOM      7  N   UNL d   1       0.604   0.559  -2.828  0.00  0.00    -0.732 N 
ATOM      8  C   UNL d   1       1.961   0.742  -3.295  0.00  0.00     0.284 C 
ATOM      9  H3  UNL d   1       0.091  -0.172  -3.316  0.00  0.00     0.395 HD
ENDBRANCH   1   7
TORSDOF 1
ENDMDL
