MODEL 1
REMARK minimizedAffinity -3.70379353
REMARK minimizedRMSD -1
REMARK  1 active torsions:
REMARK  status: ('A' for Active; 'I' for Inactive)
REMARK    1  A    between atoms: N_2  and  C1_3 
ROOT
ATOM      1  C1  UNL d   1      -0.438   0.934  -1.448  0.00  0.00     0.143 A 
ATOM      2  C2  UNL d   1      -1.419   0.749  -0.468  0.00  0.00    -0.057 A 
ATOM      3  C3  UNL d   1      -1.109   0.831   0.895  0.00  0.00     0.033 A 
ATOM      4  C4  UNL d   1       0.199   1.073   1.303  0.00  0.00    -0.042 A 
ATOM      5  C5  UNL d   1       1.195   1.235   0.346  0.00  0.00     0.033 A 
ATOM      6  C6  UNL d   1       0.877   1.158  -1.013  0.00  0.00    -0.057 A 
ENDROOT
BRANCH   1   7
ATOM      7  N   UNL d   1      -0.665   0.767  -2.817  0.00  0.00    -0.732 N 
ATOM      8  C   UNL d   1      -0.098  -0.361  -3.525  0.00  0.00     0.284 C 
ATOM      9  H3  UNL d   1      -1.623   0.985  -3.081  0.00  0.00     0.395 HD
ENDBRANCH   1   7
TORSDOF 1
ENDMDL
