MODEL 1
REMARK minimizedAffinity 3.59468222
REMARK minimizedRMSD -1
REMARK  1 active torsions:
REMARK  status: ('A' for Active; 'I' for Inactive)
REMARK    1  A    between atoms: N_2  and  C1_3 
ROOT
ATOM      1  C1  UNL d   1       1.620  -0.070   2.923  0.00  0.00     0.143 A 
ATOM      2  C2  UNL d   1       1.000   1.070   2.400  0.00  0.00    -0.057 A 
ATOM      3  C3  UNL d   1      -0.390   1.227   2.447  0.00  0.00     0.033 A 
ATOM      4  C4  UNL d   1      -1.191   0.230   2.994  0.00  0.00    -0.042 A 
ATOM      5  C5  UNL d   1      -0.598  -0.923   3.497  0.00  0.00     0.033 A 
ATOM      6  C6  UNL d   1       0.791  -1.071   3.454  0.00  0.00    -0.057 A 
ENDROOT
BRANCH   1   7
ATOM      7  N   UNL d   1       2.989  -0.328   2.818  0.00  0.00    -0.732 N 
ATOM      8  C   UNL d   1       3.743   0.147   1.678  0.00  0.00     0.284 C 
ATOM      9  H3  UNL d   1       3.472  -0.229   3.708  0.00  0.00     0.395 HD
ENDBRANCH   1   7
TORSDOF 1
ENDMDL
