MODEL 1
REMARK minimizedAffinity 2.66446924
REMARK minimizedRMSD -1
REMARK  1 active torsions:
REMARK  status: ('A' for Active; 'I' for Inactive)
REMARK    1  A    between atoms: N_2  and  C1_3 
ROOT
ATOM      1  C1  UNL d   1      -3.387   1.524   1.898  0.00  0.00     0.143 A 
ATOM      2  C2  UNL d   1      -2.920   1.541   0.579  0.00  0.00    -0.057 A 
ATOM      3  C3  UNL d   1      -3.162   0.471  -0.291  0.00  0.00     0.033 A 
ATOM      4  C4  UNL d   1      -3.853  -0.652   0.153  0.00  0.00    -0.042 A 
ATOM      5  C5  UNL d   1      -4.304  -0.702   1.467  0.00  0.00     0.033 A 
ATOM      6  C6  UNL d   1      -4.065   0.373   2.329  0.00  0.00    -0.057 A 
ENDROOT
BRANCH   1   7
ATOM      7  N   UNL d   1      -3.094   2.513   2.840  0.00  0.00    -0.732 N 
ATOM      8  C   UNL d   1      -3.672   2.462   4.166  0.00  0.00     0.284 C 
ATOM      9  H3  UNL d   1      -2.114   2.786   2.824  0.00  0.00     0.395 HD
ENDBRANCH   1   7
TORSDOF 1
ENDMDL
