MODEL 1
REMARK minimizedAffinity -3.91143775
REMARK minimizedRMSD -1
REMARK  1 active torsions:
REMARK  status: ('A' for Active; 'I' for Inactive)
REMARK    1  A    between atoms: N_2  and  C1_3 
ROOT
ATOM      1  C1  UNL d   1      -0.009   0.047   0.095  0.00  0.00     0.143 A 
ATOM      2  C2  UNL d   1       0.995   0.512   0.951  0.00  0.00    -0.057 A 
ATOM      3  C3  UNL d   1       0.904   0.341   2.338  0.00  0.00     0.033 A 
ATOM      4  C4  UNL d   1      -0.211  -0.275   2.897  0.00  0.00    -0.042 A 
ATOM      5  C5  UNL d   1      -1.233  -0.722   2.067  0.00  0.00     0.033 A 
ATOM      6  C6  UNL d   1      -1.133  -0.554   0.683  0.00  0.00    -0.057 A 
ENDROOT
BRANCH   1   7
ATOM      7  N   UNL d   1      -0.023   0.275  -1.283  0.00  0.00    -0.732 N 
ATOM      8  C   UNL d   1       0.505  -0.713  -2.199  0.00  0.00     0.284 C 
ATOM      9  H3  UNL d   1      -0.887   0.712  -1.596  0.00  0.00     0.395 HD
ENDBRANCH   1   7
TORSDOF 1
ENDMDL
