MODEL 1
REMARK minimizedAffinity -4.00192642
REMARK minimizedRMSD -1
REMARK  1 active torsions:
REMARK  status: ('A' for Active; 'I' for Inactive)
REMARK    1  A    between atoms: N_2  and  C1_3 
ROOT
ATOM      1  C1  UNL d   1       1.840   0.221  -3.009  0.00  0.00     0.143 A 
ATOM      2  C2  UNL d   1       2.448  -0.750  -3.812  0.00  0.00    -0.057 A 
ATOM      3  C3  UNL d   1       3.573  -0.450  -4.589  0.00  0.00     0.033 A 
ATOM      4  C4  UNL d   1       4.094   0.840  -4.600  0.00  0.00    -0.042 A 
ATOM      5  C5  UNL d   1       3.491   1.828  -3.829  0.00  0.00     0.033 A 
ATOM      6  C6  UNL d   1       2.372   1.519  -3.050  0.00  0.00    -0.057 A 
ENDROOT
BRANCH   1   7
ATOM      7  N   UNL d   1       0.661   0.009  -2.290  0.00  0.00    -0.732 N 
ATOM      8  C   UNL d   1       0.376   0.779  -1.099  0.00  0.00     0.284 C 
ATOM      9  H3  UNL d   1      -0.143  -0.132  -2.897  0.00  0.00     0.395 HD
ENDBRANCH   1   7
TORSDOF 1
ENDMDL
