MODEL 1
REMARK minimizedAffinity -2.75287962
REMARK minimizedRMSD -1
REMARK  1 active torsions:
REMARK  status: ('A' for Active; 'I' for Inactive)
REMARK    1  A    between atoms: N_2  and  C1_3 
ROOT
ATOM      1  C1  UNL d   1       0.313   0.276   0.443  0.00  0.00     0.143 A 
ATOM      2  C2  UNL d   1       1.700   0.389   0.594  0.00  0.00    -0.057 A 
ATOM      3  C3  UNL d   1       2.281   0.562   1.856  0.00  0.00     0.033 A 
ATOM      4  C4  UNL d   1       1.481   0.655   2.990  0.00  0.00    -0.042 A 
ATOM      5  C5  UNL d   1       0.099   0.572   2.861  0.00  0.00     0.033 A 
ATOM      6  C6  UNL d   1      -0.475   0.392   1.599  0.00  0.00    -0.057 A 
ENDROOT
BRANCH   1   7
ATOM      7  N   UNL d   1      -0.331   0.202  -0.794  0.00  0.00    -0.732 N 
ATOM      8  C   UNL d   1      -1.598   0.867  -1.006  0.00  0.00     0.284 C 
ATOM      9  H3  UNL d   1       0.317   0.283  -1.575  0.00  0.00     0.395 HD
ENDBRANCH   1   7
TORSDOF 1
ENDMDL
