MODEL 1
REMARK minimizedAffinity -4.65536261
REMARK minimizedRMSD -1
REMARK  1 active torsions:
REMARK  status: ('A' for Active; 'I' for Inactive)
REMARK    1  A    between atoms: N_2  and  C1_3 
ROOT
ATOM      1  C1  UNL d   1       0.034   0.344   0.104  0.00  0.00     0.143 A 
ATOM      2  C2  UNL d   1      -1.255  -0.162   0.303  0.00  0.00    -0.057 A 
ATOM      3  C3  UNL d   1      -1.706  -0.521   1.579  0.00  0.00     0.033 A 
ATOM      4  C4  UNL d   1      -0.861  -0.408   2.679  0.00  0.00    -0.042 A 
ATOM      5  C5  UNL d   1       0.433   0.069   2.501  0.00  0.00     0.033 A 
ATOM      6  C6  UNL d   1       0.874   0.432   1.225  0.00  0.00    -0.057 A 
ENDROOT
BRANCH   1   7
ATOM      7  N   UNL d   1       0.573   0.626  -1.153  0.00  0.00    -0.732 N 
ATOM      8  C   UNL d   1       0.870  -0.441  -2.084  0.00  0.00     0.284 C 
ATOM      9  H3  UNL d   1       0.150   1.446  -1.582  0.00  0.00     0.395 HD
ENDBRANCH   1   7
TORSDOF 1
ENDMDL
