MODEL 1
REMARK minimizedAffinity 9.98809528
REMARK minimizedRMSD -1
REMARK  0 active torsions:
REMARK  status: ('A' for Active; 'I' for Inactive)
ROOT
ATOM      1  C4' PXY d   1      -4.893   3.860   6.000  0.00  0.00     0.077 C 
ATOM      2  C1' PXY d   1      -4.480  -0.968   2.848  0.00  0.00     0.077 C 
ATOM      3  C1  PXY d   1      -4.579   0.293   3.683  0.00  0.00    -0.082 A 
ATOM      4  C2  PXY d   1      -5.697   1.001   3.669  0.00  0.00     0.003 A 
ATOM      5  C3  PXY d   1      -5.792   2.161   4.393  0.00  0.00     0.003 A 
ATOM      6  C4  PXY d   1      -4.751   2.574   5.180  0.00  0.00    -0.082 A 
ATOM      7  C5  PXY d   1      -3.611   1.852   5.208  0.00  0.00     0.003 A 
ATOM      8  C6  PXY d   1      -3.519   0.699   4.434  0.00  0.00     0.003 A 
ENDROOT
TORSDOF 0
ENDMDL
