MODEL 1
REMARK minimizedAffinity -2.08399415
REMARK minimizedRMSD -1
REMARK  0 active torsions:
REMARK  status: ('A' for Active; 'I' for Inactive)
ROOT
ATOM      1  C4' PXY d   1      -0.669  -4.125  -3.503  0.00  0.00     0.077 C 
ATOM      2  C1' PXY d   1      -5.865  -4.552  -5.999  0.00  0.00     0.077 C 
ATOM      3  C1  PXY d   1      -4.508  -4.440  -5.332  0.00  0.00    -0.082 A 
ATOM      4  C2  PXY d   1      -3.493  -3.917  -6.000  0.00  0.00     0.003 A 
ATOM      5  C3  PXY d   1      -2.251  -3.838  -5.424  0.00  0.00     0.003 A 
ATOM      6  C4  PXY d   1      -2.059  -4.249  -4.132  0.00  0.00    -0.082 A 
ATOM      7  C5  PXY d   1      -3.093  -4.774  -3.441  0.00  0.00     0.003 A 
ATOM      8  C6  PXY d   1      -4.335  -4.884  -4.058  0.00  0.00     0.003 A 
ENDROOT
TORSDOF 0
ENDMDL
