MODEL 1
REMARK minimizedAffinity 15.2399101
REMARK minimizedRMSD -1
REMARK  0 active torsions:
REMARK  status: ('A' for Active; 'I' for Inactive)
ROOT
ATOM      1  C4' PXY d   1       1.499  -6.000  -2.624  0.00  0.00     0.077 C 
ATOM      2  C1' PXY d   1       2.946  -0.671  -0.913  0.00  0.00     0.077 C 
ATOM      3  C1  PXY d   1       2.575  -2.074  -1.354  0.00  0.00    -0.082 A 
ATOM      4  C2  PXY d   1       1.978  -2.256  -2.521  0.00  0.00     0.003 A 
ATOM      5  C3  PXY d   1       1.608  -3.514  -2.921  0.00  0.00     0.003 A 
ATOM      6  C4  PXY d   1       1.899  -4.603  -2.143  0.00  0.00    -0.082 A 
ATOM      7  C5  PXY d   1       2.518  -4.426  -0.956  0.00  0.00     0.003 A 
ATOM      8  C6  PXY d   1       2.849  -3.136  -0.550  0.00  0.00     0.003 A 
ENDROOT
TORSDOF 0
ENDMDL
