MODEL 1
REMARK minimizedAffinity 15.837368
REMARK minimizedRMSD -1
REMARK  0 active torsions:
REMARK  status: ('A' for Active; 'I' for Inactive)
ROOT
ATOM      1  C4' PXY d   1       1.080  -2.211  -1.874  0.00  0.00     0.077 C 
ATOM      2  C1' PXY d   1       4.648   1.952  -0.042  0.00  0.00     0.077 C 
ATOM      3  C1  PXY d   1       3.721   0.851  -0.518  0.00  0.00    -0.082 A 
ATOM      4  C2  PXY d   1       2.887   1.085  -1.519  0.00  0.00     0.003 A 
ATOM      5  C3  PXY d   1       2.019   0.111  -1.940  0.00  0.00     0.003 A 
ATOM      6  C4  PXY d   1       2.041  -1.132  -1.367  0.00  0.00    -0.082 A 
ATOM      7  C5  PXY d   1       2.896  -1.382  -0.352  0.00  0.00     0.003 A 
ATOM      8  C6  PXY d   1       3.740  -0.367   0.088  0.00  0.00     0.003 A 
ENDROOT
TORSDOF 0
ENDMDL
