MODEL 1
REMARK minimizedAffinity 9.37312603
REMARK minimizedRMSD -1
REMARK  0 active torsions:
REMARK  status: ('A' for Active; 'I' for Inactive)
ROOT
ATOM      1  C4' PXY d   1      -0.001  -4.605  -2.743  0.00  0.00     0.077 C 
ATOM      2  C1' PXY d   1      -2.179   0.696  -3.498  0.00  0.00     0.077 C 
ATOM      3  C1  PXY d   1      -1.620  -0.699  -3.298  0.00  0.00    -0.082 A 
ATOM      4  C2  PXY d   1      -0.371  -0.851  -2.888  0.00  0.00     0.003 A 
ATOM      5  C3  PXY d   1       0.160  -2.105  -2.733  0.00  0.00     0.003 A 
ATOM      6  C4  PXY d   1      -0.611  -3.216  -2.949  0.00  0.00    -0.082 A 
ATOM      7  C5  PXY d   1      -1.889  -3.069  -3.358  0.00  0.00     0.003 A 
ATOM      8  C6  PXY d   1      -2.397  -1.788  -3.549  0.00  0.00     0.003 A 
ENDROOT
TORSDOF 0
ENDMDL
