MODEL 1
REMARK minimizedAffinity 12.8738718
REMARK minimizedRMSD -1
REMARK  0 active torsions:
REMARK  status: ('A' for Active; 'I' for Inactive)
ROOT
ATOM      1  C4' PXY d   1      -5.771  -3.353  -6.000  0.00  0.00     0.077 C 
ATOM      2  C1' PXY d   1      -0.875  -3.593  -2.936  0.00  0.00     0.077 C 
ATOM      3  C1  PXY d   1      -2.155  -3.519  -3.745  0.00  0.00    -0.082 A 
ATOM      4  C2  PXY d   1      -3.241  -4.137  -3.310  0.00  0.00     0.003 A 
ATOM      5  C3  PXY d   1      -4.398  -4.107  -4.045  0.00  0.00     0.003 A 
ATOM      6  C4  PXY d   1      -4.459  -3.393  -5.211  0.00  0.00    -0.082 A 
ATOM      7  C5  PXY d   1      -3.359  -2.751  -5.657  0.00  0.00     0.003 A 
ATOM      8  C6  PXY d   1      -2.182  -2.828  -4.917  0.00  0.00     0.003 A 
ENDROOT
TORSDOF 0
ENDMDL
