MODEL 1
REMARK minimizedAffinity 9.25495625
REMARK minimizedRMSD -1
REMARK  0 active torsions:
REMARK  status: ('A' for Active; 'I' for Inactive)
ROOT
ATOM      1  C4' PXY d   1      -5.617  -1.734   2.061  0.00  0.00     0.077 C 
ATOM      2  C1' PXY d   1      -0.640   1.019   3.097  0.00  0.00     0.077 C 
ATOM      3  C1  PXY d   1      -1.943   0.290   2.836  0.00  0.00    -0.082 A 
ATOM      4  C2  PXY d   1      -2.439   0.255   1.610  0.00  0.00     0.003 A 
ATOM      5  C3  PXY d   1      -3.632  -0.373   1.362  0.00  0.00     0.003 A 
ATOM      6  C4  PXY d   1      -4.299  -1.017   2.369  0.00  0.00    -0.082 A 
ATOM      7  C5  PXY d   1      -3.795  -0.995   3.621  0.00  0.00     0.003 A 
ATOM      8  C6  PXY d   1      -2.603  -0.317   3.860  0.00  0.00     0.003 A 
ENDROOT
TORSDOF 0
ENDMDL
