MODEL 1
REMARK minimizedAffinity 11.8292856
REMARK minimizedRMSD -1
REMARK  0 active torsions:
REMARK  status: ('A' for Active; 'I' for Inactive)
ROOT
ATOM      1  C4' PXY d   1      -0.323  -3.989  -3.304  0.00  0.00     0.077 C 
ATOM      2  C1' PXY d   1      -5.325  -2.925  -6.000  0.00  0.00     0.077 C 
ATOM      3  C1  PXY d   1      -4.007  -3.206  -5.304  0.00  0.00    -0.082 A 
ATOM      4  C2  PXY d   1      -4.008  -3.679  -4.069  0.00  0.00     0.003 A 
ATOM      5  C3  PXY d   1      -2.825  -3.908  -3.414  0.00  0.00     0.003 A 
ATOM      6  C4  PXY d   1      -1.630  -3.700  -4.048  0.00  0.00    -0.082 A 
ATOM      7  C5  PXY d   1      -1.621  -3.227  -5.313  0.00  0.00     0.003 A 
ATOM      8  C6  PXY d   1      -2.832  -2.962  -5.946  0.00  0.00     0.003 A 
ENDROOT
TORSDOF 0
ENDMDL
