MODEL 1
REMARK minimizedAffinity 10.1350269
REMARK minimizedRMSD -1
REMARK  0 active torsions:
REMARK  status: ('A' for Active; 'I' for Inactive)
ROOT
ATOM      1  C4' PXY d   1      -3.880   4.141  -6.000  0.00  0.00     0.077 C 
ATOM      2  C1' PXY d   1       0.849   1.422  -4.088  0.00  0.00     0.077 C 
ATOM      3  C1  PXY d   1      -0.392   2.141  -4.578  0.00  0.00    -0.082 A 
ATOM      4  C2  PXY d   1      -1.138   1.591  -5.522  0.00  0.00     0.003 A 
ATOM      5  C3  PXY d   1      -2.245   2.242  -6.000  0.00  0.00     0.003 A 
ATOM      6  C4  PXY d   1      -2.624   3.446  -5.468  0.00  0.00    -0.082 A 
ATOM      7  C5  PXY d   1      -1.874   4.010  -4.497  0.00  0.00     0.003 A 
ATOM      8  C6  PXY d   1      -0.730   3.351  -4.055  0.00  0.00     0.003 A 
ENDROOT
TORSDOF 0
ENDMDL
