MODEL 1
REMARK minimizedAffinity 17.6552639
REMARK minimizedRMSD -1
REMARK  0 active torsions:
REMARK  status: ('A' for Active; 'I' for Inactive)
ROOT
ATOM      1  C4' PXY d   1      -1.509   1.451   2.715  0.00  0.00     0.077 C 
ATOM      2  C1' PXY d   1      -6.000  -2.151   2.190  0.00  0.00     0.077 C 
ATOM      3  C1  PXY d   1      -4.824  -1.206   2.340  0.00  0.00    -0.082 A 
ATOM      4  C2  PXY d   1      -4.460  -0.447   1.320  0.00  0.00     0.003 A 
ATOM      5  C3  PXY d   1      -3.379   0.390   1.429  0.00  0.00     0.003 A 
ATOM      6  C4  PXY d   1      -2.696   0.489   2.611  0.00  0.00    -0.082 A 
ATOM      7  C5  PXY d   1      -3.067  -0.275   3.660  0.00  0.00     0.003 A 
ATOM      8  C6  PXY d   1      -4.142  -1.148   3.516  0.00  0.00     0.003 A 
ENDROOT
TORSDOF 0
ENDMDL
