MODEL 1
REMARK minimizedAffinity 10.3703232
REMARK minimizedRMSD -1
REMARK  0 active torsions:
REMARK  status: ('A' for Active; 'I' for Inactive)
ROOT
ATOM      1  C4' PXY d   1      -4.678  -1.098   1.882  0.00  0.00     0.077 C 
ATOM      2  C1' PXY d   1       0.583   0.906   3.195  0.00  0.00     0.077 C 
ATOM      3  C1  PXY d   1      -0.802   0.392   2.855  0.00  0.00    -0.082 A 
ATOM      4  C2  PXY d   1      -1.026  -0.912   2.819  0.00  0.00     0.003 A 
ATOM      5  C3  PXY d   1      -2.264  -1.395   2.482  0.00  0.00     0.003 A 
ATOM      6  C4  PXY d   1      -3.298  -0.534   2.230  0.00  0.00    -0.082 A 
ATOM      7  C5  PXY d   1      -3.081   0.798   2.275  0.00  0.00     0.003 A 
ATOM      8  C6  PXY d   1      -1.806   1.267   2.579  0.00  0.00     0.003 A 
ENDROOT
TORSDOF 0
ENDMDL
