MODEL 1
REMARK minimizedAffinity 3.76546526
REMARK minimizedRMSD -1
REMARK  0 active torsions:
REMARK  status: ('A' for Active; 'I' for Inactive)
ROOT
ATOM      1  C4' PXY d   1      -0.357  -4.310  -3.372  0.00  0.00     0.077 C 
ATOM      2  C1' PXY d   1      -5.435  -3.458  -5.999  0.00  0.00     0.077 C 
ATOM      3  C1  PXY d   1      -4.109  -3.682  -5.298  0.00  0.00    -0.082 A 
ATOM      4  C2  PXY d   1      -2.985  -3.317  -5.893  0.00  0.00     0.003 A 
ATOM      5  C3  PXY d   1      -1.776  -3.541  -5.288  0.00  0.00     0.003 A 
ATOM      6  C4  PXY d   1      -1.719  -4.096  -4.037  0.00  0.00    -0.082 A 
ATOM      7  C5  PXY d   1      -2.862  -4.461  -3.419  0.00  0.00     0.003 A 
ATOM      8  C6  PXY d   1      -4.077  -4.263  -4.069  0.00  0.00     0.003 A 
ENDROOT
TORSDOF 0
ENDMDL
