MODEL 1
REMARK minimizedAffinity 4.30733728
REMARK minimizedRMSD -1
REMARK  0 active torsions:
REMARK  status: ('A' for Active; 'I' for Inactive)
ROOT
ATOM      1  C4' PXY d   1      -0.679  -4.315  -3.822  0.00  0.00     0.077 C 
ATOM      2  C1' PXY d   1      -5.998  -3.695  -5.999  0.00  0.00     0.077 C 
ATOM      3  C1  PXY d   1      -4.598  -3.854  -5.440  0.00  0.00    -0.082 A 
ATOM      4  C2  PXY d   1      -4.395  -4.649  -4.402  0.00  0.00     0.003 A 
ATOM      5  C3  PXY d   1      -3.141  -4.780  -3.863  0.00  0.00     0.003 A 
ATOM      6  C4  PXY d   1      -2.075  -4.131  -4.426  0.00  0.00    -0.082 A 
ATOM      7  C5  PXY d   1      -2.272  -3.327  -5.492  0.00  0.00     0.003 A 
ATOM      8  C6  PXY d   1      -3.559  -3.175  -5.998  0.00  0.00     0.003 A 
ENDROOT
TORSDOF 0
ENDMDL
