MODEL 1
REMARK minimizedAffinity 4.74387169
REMARK minimizedRMSD -1
REMARK  0 active torsions:
REMARK  status: ('A' for Active; 'I' for Inactive)
ROOT
ATOM      1  C4' PXY d   1      -0.956  -4.595  -3.744  0.00  0.00     0.077 C 
ATOM      2  C1' PXY d   1      -5.996  -2.878  -5.995  0.00  0.00     0.077 C 
ATOM      3  C1  PXY d   1      -4.680  -3.338  -5.399  0.00  0.00    -0.082 A 
ATOM      4  C2  PXY d   1      -3.705  -2.463  -5.211  0.00  0.00     0.003 A 
ATOM      5  C3  PXY d   1      -2.498  -2.869  -4.703  0.00  0.00     0.003 A 
ATOM      6  C4  PXY d   1      -2.304  -4.173  -4.334  0.00  0.00    -0.082 A 
ATOM      7  C5  PXY d   1      -3.298  -5.069  -4.513  0.00  0.00     0.003 A 
ATOM      8  C6  PXY d   1      -4.501  -4.646  -5.068  0.00  0.00     0.003 A 
ENDROOT
TORSDOF 0
ENDMDL
