MODEL 1
REMARK minimizedAffinity 10.4621897
REMARK minimizedRMSD -1
REMARK  0 active torsions:
REMARK  status: ('A' for Active; 'I' for Inactive)
ROOT
ATOM      1  C4' PXY d   1       1.861   1.160   3.108  0.00  0.00     0.077 C 
ATOM      2  C1' PXY d   1      -3.809   0.143   2.622  0.00  0.00     0.077 C 
ATOM      3  C1  PXY d   1      -2.321   0.399   2.757  0.00  0.00    -0.082 A 
ATOM      4  C2  PXY d   1      -1.852   1.627   2.607  0.00  0.00     0.003 A 
ATOM      5  C3  PXY d   1      -0.506   1.871   2.694  0.00  0.00     0.003 A 
ATOM      6  C4  PXY d   1       0.365   0.856   2.990  0.00  0.00    -0.082 A 
ATOM      7  C5  PXY d   1      -0.107  -0.398   3.155  0.00  0.00     0.003 A 
ATOM      8  C6  PXY d   1      -1.473  -0.632   3.022  0.00  0.00     0.003 A 
ENDROOT
TORSDOF 0
ENDMDL
