MODEL 1
REMARK minimizedAffinity -0.885426462
REMARK minimizedRMSD -1
REMARK  0 active torsions:
REMARK  status: ('A' for Active; 'I' for Inactive)
ROOT
ATOM      1  C4' PXY d   1      -5.551  -3.824  -5.999  0.00  0.00     0.077 C 
ATOM      2  C1' PXY d   1      -0.399  -4.460  -3.457  0.00  0.00     0.077 C 
ATOM      3  C1  PXY d   1      -1.756  -4.301  -4.115  0.00  0.00    -0.082 A 
ATOM      4  C2  PXY d   1      -1.828  -3.984  -5.397  0.00  0.00     0.003 A 
ATOM      5  C3  PXY d   1      -3.046  -3.804  -6.000  0.00  0.00     0.003 A 
ATOM      6  C4  PXY d   1      -4.203  -4.005  -5.296  0.00  0.00    -0.082 A 
ATOM      7  C5  PXY d   1      -4.138  -4.339  -3.990  0.00  0.00     0.003 A 
ATOM      8  C6  PXY d   1      -2.892  -4.476  -3.386  0.00  0.00     0.003 A 
ENDROOT
TORSDOF 0
ENDMDL
