MODEL 1
REMARK minimizedAffinity 7.45660305
REMARK minimizedRMSD -1
REMARK  0 active torsions:
REMARK  status: ('A' for Active; 'I' for Inactive)
ROOT
ATOM      1  C4' PXY d   1      -5.999  -3.744  -5.998  0.00  0.00     0.077 C 
ATOM      2  C1' PXY d   1      -1.120  -3.135  -2.958  0.00  0.00     0.077 C 
ATOM      3  C1  PXY d   1      -2.400  -3.307  -3.751  0.00  0.00    -0.082 A 
ATOM      4  C2  PXY d   1      -2.621  -2.545  -4.810  0.00  0.00     0.003 A 
ATOM      5  C3  PXY d   1      -3.789  -2.666  -5.520  0.00  0.00     0.003 A 
ATOM      6  C4  PXY d   1      -4.716  -3.612  -5.173  0.00  0.00    -0.082 A 
ATOM      7  C5  PXY d   1      -4.493  -4.400  -4.101  0.00  0.00     0.003 A 
ATOM      8  C6  PXY d   1      -3.320  -4.234  -3.369  0.00  0.00     0.003 A 
ENDROOT
TORSDOF 0
ENDMDL
