MODEL 1
REMARK minimizedAffinity -1.16320276
REMARK minimizedRMSD -1
REMARK  0 active torsions:
REMARK  status: ('A' for Active; 'I' for Inactive)
ROOT
ATOM      1  C4' PXY d   1       0.009  -4.486  -3.478  0.00  0.00     0.077 C 
ATOM      2  C1' PXY d   1      -5.427  -4.343  -5.437  0.00  0.00     0.077 C 
ATOM      3  C1  PXY d   1      -4.006  -4.380  -4.911  0.00  0.00    -0.082 A 
ATOM      4  C2  PXY d   1      -3.015  -3.943  -5.672  0.00  0.00     0.003 A 
ATOM      5  C3  PXY d   1      -1.720  -3.999  -5.224  0.00  0.00     0.003 A 
ATOM      6  C4  PXY d   1      -1.442  -4.458  -3.965  0.00  0.00    -0.082 A 
ATOM      7  C5  PXY d   1      -2.449  -4.896  -3.179  0.00  0.00     0.003 A 
ATOM      8  C6  PXY d   1      -3.752  -4.869  -3.667  0.00  0.00     0.003 A 
ENDROOT
TORSDOF 0
ENDMDL
