MODEL 1
REMARK minimizedAffinity 0.708663166
REMARK minimizedRMSD -1
REMARK  0 active torsions:
REMARK  status: ('A' for Active; 'I' for Inactive)
ROOT
ATOM      1  C4' PXY d   1      -0.247  -4.527  -3.551  0.00  0.00     0.077 C 
ATOM      2  C1' PXY d   1       4.393  -3.121  -0.403  0.00  0.00     0.077 C 
ATOM      3  C1  PXY d   1       3.184  -3.496  -1.237  0.00  0.00    -0.082 A 
ATOM      4  C2  PXY d   1       2.096  -2.744  -1.187  0.00  0.00     0.003 A 
ATOM      5  C3  PXY d   1       0.983  -3.087  -1.911  0.00  0.00     0.003 A 
ATOM      6  C4  PXY d   1       1.001  -4.181  -2.734  0.00  0.00    -0.082 A 
ATOM      7  C5  PXY d   1       2.110  -4.947  -2.797  0.00  0.00     0.003 A 
ATOM      8  C6  PXY d   1       3.216  -4.606  -2.024  0.00  0.00     0.003 A 
ENDROOT
TORSDOF 0
ENDMDL
