MODEL 1
REMARK minimizedAffinity -5.18216467
REMARK minimizedRMSD -1
REMARK  0 active torsions:
REMARK  status: ('A' for Active; 'I' for Inactive)
ROOT
ATOM      1  N1  IND d   1       0.335   0.694  -0.990  0.00  0.00    -0.196 N 
ATOM      2  C2  IND d   1      -0.930   0.215  -1.187  0.00  0.00     0.054 A 
ATOM      3  C3  IND d   1      -1.322  -0.528  -0.128  0.00  0.00    -0.031 A 
ATOM      4  C4  IND d   1      -0.087  -1.007   2.080  0.00  0.00     0.051 A 
ATOM      5  C5  IND d   1       1.112  -0.814   2.707  0.00  0.00    -0.031 A 
ATOM      6  C6  IND d   1       2.133  -0.092   2.124  0.00  0.00     0.015 A 
ATOM      7  C7  IND d   1       1.988   0.477   0.890  0.00  0.00    -0.016 A 
ATOM      8  C8  IND d   1       0.774   0.277   0.247  0.00  0.00    -0.047 A 
ATOM      9  C9  IND d   1      -0.250  -0.490   0.816  0.00  0.00    -0.096 A 
ATOM     10  HN1 IND d   1       0.781   1.175  -1.546  0.00  0.00     0.298 HD
ENDROOT
TORSDOF 0
ENDMDL
