MODEL 1
REMARK minimizedAffinity -4.87920523
REMARK minimizedRMSD -1
REMARK  0 active torsions:
REMARK  status: ('A' for Active; 'I' for Inactive)
ROOT
ATOM      1  N1  IND d   1      -0.816  -0.514   0.138  0.00  0.00    -0.196 N 
ATOM      2  C2  IND d   1      -1.678  -0.432   1.195  0.00  0.00     0.054 A 
ATOM      3  C3  IND d   1      -1.012  -0.602   2.359  0.00  0.00    -0.031 A 
ATOM      4  C4  IND d   1       1.509  -0.927   2.769  0.00  0.00     0.051 A 
ATOM      5  C5  IND d   1       2.693  -1.105   2.110  0.00  0.00    -0.031 A 
ATOM      6  C6  IND d   1       2.770  -1.093   0.732  0.00  0.00     0.015 A 
ATOM      7  C7  IND d   1       1.662  -0.889  -0.041  0.00  0.00    -0.016 A 
ATOM      8  C8  IND d   1       0.457  -0.715   0.624  0.00  0.00    -0.047 A 
ATOM      9  C9  IND d   1       0.366  -0.769   2.021  0.00  0.00    -0.096 A 
ATOM     10  HN1 IND d   1      -1.033  -0.451  -0.692  0.00  0.00     0.298 HD
ENDROOT
TORSDOF 0
ENDMDL
