MODEL 1
REMARK minimizedAffinity -2.54884005
REMARK minimizedRMSD -1
REMARK  0 active torsions:
REMARK  status: ('A' for Active; 'I' for Inactive)
ROOT
ATOM      1  N1  IND d   1       1.169  -1.297  -0.480  0.00  0.00    -0.196 N 
ATOM      2  C2  IND d   1       0.427  -0.651  -1.428  0.00  0.00     0.054 A 
ATOM      3  C3  IND d   1      -0.653  -0.066  -0.863  0.00  0.00    -0.031 A 
ATOM      4  C4  IND d   1      -1.345   0.043   1.614  0.00  0.00     0.051 A 
ATOM      5  C5  IND d   1      -1.002  -0.428   2.850  0.00  0.00    -0.031 A 
ATOM      6  C6  IND d   1       0.106  -1.228   3.044  0.00  0.00     0.015 A 
ATOM      7  C7  IND d   1       0.922  -1.577   2.006  0.00  0.00    -0.016 A 
ATOM      8  C8  IND d   1       0.573  -1.106   0.748  0.00  0.00    -0.047 A 
ATOM      9  C9  IND d   1      -0.574  -0.330   0.539  0.00  0.00    -0.096 A 
ATOM     10  HN1 IND d   1       1.887  -1.748  -0.625  0.00  0.00     0.298 HD
ENDROOT
TORSDOF 0
ENDMDL
