MODEL 1
REMARK minimizedAffinity -5.05729342
REMARK minimizedRMSD -1
REMARK  0 active torsions:
REMARK  status: ('A' for Active; 'I' for Inactive)
ROOT
ATOM      1  N1  IND d   1       0.491  -0.441  -1.457  0.00  0.00    -0.196 N 
ATOM      2  C2  IND d   1      -0.755   0.014  -1.127  0.00  0.00     0.054 A 
ATOM      3  C3  IND d   1      -0.991  -0.175   0.190  0.00  0.00    -0.031 A 
ATOM      4  C4  IND d   1       0.563  -1.119   2.012  0.00  0.00     0.051 A 
ATOM      5  C5  IND d   1       1.788  -1.700   2.188  0.00  0.00    -0.031 A 
ATOM      6  C6  IND d   1       2.661  -1.892   1.137  0.00  0.00     0.015 A 
ATOM      7  C7  IND d   1       2.346  -1.499  -0.132  0.00  0.00    -0.016 A 
ATOM      8  C8  IND d   1       1.101  -0.915  -0.316  0.00  0.00    -0.047 A 
ATOM      9  C9  IND d   1       0.193  -0.756   0.739  0.00  0.00    -0.096 A 
ATOM     10  HN1 IND d   1       0.836  -0.433  -2.244  0.00  0.00     0.298 HD
ENDROOT
TORSDOF 0
ENDMDL
