MODEL 1
REMARK minimizedAffinity -5.08507824
REMARK minimizedRMSD -1
REMARK  0 active torsions:
REMARK  status: ('A' for Active; 'I' for Inactive)
ROOT
ATOM      1  N1  IND d   1       1.257  -1.607  -1.498  0.00  0.00    -0.196 N 
ATOM      2  C2  IND d   1       0.049  -1.081  -1.862  0.00  0.00     0.054 A 
ATOM      3  C3  IND d   1      -0.554  -0.507  -0.796  0.00  0.00    -0.031 A 
ATOM      4  C4  IND d   1       0.307  -0.224   1.613  0.00  0.00     0.051 A 
ATOM      5  C5  IND d   1       1.342  -0.572   2.435  0.00  0.00    -0.031 A 
ATOM      6  C6  IND d   1       2.425  -1.295   1.978  0.00  0.00     0.015 A 
ATOM      7  C7  IND d   1       2.519  -1.689   0.673  0.00  0.00    -0.016 A 
ATOM      8  C8  IND d   1       1.466  -1.344  -0.163  0.00  0.00    -0.047 A 
ATOM      9  C9  IND d   1       0.345  -0.647   0.306  0.00  0.00    -0.096 A 
ATOM     10  HN1 IND d   1       1.796  -2.031  -2.017  0.00  0.00     0.298 HD
ENDROOT
TORSDOF 0
ENDMDL
