MODEL 1
REMARK minimizedAffinity -4.98143959
REMARK minimizedRMSD -1
REMARK  0 active torsions:
REMARK  status: ('A' for Active; 'I' for Inactive)
ROOT
ATOM      1  C1  BNZ d   1      -1.228  -0.207   0.572  0.00  0.00     0.000 A 
ATOM      2  C2  BNZ d   1      -2.473   0.215   0.953  0.00  0.00     0.000 A 
ATOM      3  C3  BNZ d   1      -2.897   0.069   2.245  0.00  0.00     0.000 A 
ATOM      4  C4  BNZ d   1      -2.092  -0.534   3.143  0.00  0.00     0.000 A 
ATOM      5  C5  BNZ d   1      -0.836  -0.973   2.772  0.00  0.00     0.000 A 
ATOM      6  C6  BNZ d   1      -0.398  -0.790   1.480  0.00  0.00     0.000 A 
ENDROOT
TORSDOF 0
ENDMDL
