MODEL 1
REMARK minimizedAffinity -3.35442472
REMARK minimizedRMSD -1
REMARK  0 active torsions:
REMARK  status: ('A' for Active; 'I' for Inactive)
ROOT
ATOM      1  C1  BNZ d   1       0.953   0.453   1.932  0.00  0.00     0.000 A 
ATOM      2  C2  BNZ d   1       1.621   0.708   0.764  0.00  0.00     0.000 A 
ATOM      3  C3  BNZ d   1       1.309   0.033  -0.383  0.00  0.00     0.000 A 
ATOM      4  C4  BNZ d   1       0.357  -0.922  -0.351  0.00  0.00     0.000 A 
ATOM      5  C5  BNZ d   1      -0.319  -1.198   0.820  0.00  0.00     0.000 A 
ATOM      6  C6  BNZ d   1      -0.029  -0.489   1.964  0.00  0.00     0.000 A 
ENDROOT
TORSDOF 0
ENDMDL
