MODEL 1
REMARK minimizedAffinity -3.51234317
REMARK minimizedRMSD -1
REMARK  0 active torsions:
REMARK  status: ('A' for Active; 'I' for Inactive)
ROOT
ATOM      1  C1  BNZ d   1      -1.491  -0.087   1.433  0.00  0.00     0.000 A 
ATOM      2  C2  BNZ d   1      -0.858  -0.196   0.224  0.00  0.00     0.000 A 
ATOM      3  C3  BNZ d   1       0.504  -0.292   0.153  0.00  0.00     0.000 A 
ATOM      4  C4  BNZ d   1       1.233  -0.238   1.286  0.00  0.00     0.000 A 
ATOM      5  C5  BNZ d   1       0.609  -0.119   2.513  0.00  0.00     0.000 A 
ATOM      6  C6  BNZ d   1      -0.764  -0.062   2.583  0.00  0.00     0.000 A 
ENDROOT
TORSDOF 0
ENDMDL
