MODEL 1
REMARK minimizedAffinity -3.02280927
REMARK minimizedRMSD -1
REMARK  0 active torsions:
REMARK  status: ('A' for Active; 'I' for Inactive)
ROOT
ATOM      1  C1  BNZ d   1      -1.726  -0.092   1.884  0.00  0.00     0.000 A 
ATOM      2  C2  BNZ d   1      -1.116  -0.069   0.658  0.00  0.00     0.000 A 
ATOM      3  C3  BNZ d   1       0.161  -0.532   0.503  0.00  0.00     0.000 A 
ATOM      4  C4  BNZ d   1       0.840  -0.978   1.579  0.00  0.00     0.000 A 
ATOM      5  C5  BNZ d   1       0.242  -0.999   2.824  0.00  0.00     0.000 A 
ATOM      6  C6  BNZ d   1      -1.057  -0.568   2.969  0.00  0.00     0.000 A 
ENDROOT
TORSDOF 0
ENDMDL
