MODEL 1
REMARK minimizedAffinity -2.82505012
REMARK minimizedRMSD -1
REMARK  0 active torsions:
REMARK  status: ('A' for Active; 'I' for Inactive)
ROOT
ATOM      1  C1  BNZ d   1       1.621  -1.080   0.738  0.00  0.00     0.000 A 
ATOM      2  C2  BNZ d   1       1.356  -1.161  -0.603  0.00  0.00     0.000 A 
ATOM      3  C3  BNZ d   1       0.226  -0.599  -1.129  0.00  0.00     0.000 A 
ATOM      4  C4  BNZ d   1      -0.656   0.007  -0.308  0.00  0.00     0.000 A 
ATOM      5  C5  BNZ d   1      -0.408   0.089   1.047  0.00  0.00     0.000 A 
ATOM      6  C6  BNZ d   1       0.749  -0.444   1.567  0.00  0.00     0.000 A 
ENDROOT
TORSDOF 0
ENDMDL
