MODEL 1
REMARK minimizedAffinity -1.32475698
REMARK minimizedRMSD -1
REMARK  0 active torsions:
REMARK  status: ('A' for Active; 'I' for Inactive)
ROOT
ATOM      1  C1  BNZ d   1       0.586   0.872   3.045  0.00  0.00     0.000 A 
ATOM      2  C2  BNZ d   1       1.234   1.311   1.921  0.00  0.00     0.000 A 
ATOM      3  C3  BNZ d   1       1.280   0.540   0.794  0.00  0.00     0.000 A 
ATOM      4  C4  BNZ d   1       0.713  -0.684   0.804  0.00  0.00     0.000 A 
ATOM      5  C5  BNZ d   1       0.064  -1.145   1.932  0.00  0.00     0.000 A 
ATOM      6  C6  BNZ d   1      -0.013  -0.350   3.053  0.00  0.00     0.000 A 
ENDROOT
TORSDOF 0
ENDMDL
