MODEL 1
REMARK minimizedAffinity -1.80499494
REMARK minimizedRMSD -1
REMARK  0 active torsions:
REMARK  status: ('A' for Active; 'I' for Inactive)
ROOT
ATOM      1  C1  BNZ d   1       0.265  -0.074   1.418  0.00  0.00     0.000 A 
ATOM      2  C2  BNZ d   1      -0.008   0.145   2.742  0.00  0.00     0.000 A 
ATOM      3  C3  BNZ d   1      -1.294   0.307   3.174  0.00  0.00     0.000 A 
ATOM      4  C4  BNZ d   1      -2.302   0.289   2.278  0.00  0.00     0.000 A 
ATOM      5  C5  BNZ d   1      -2.043   0.079   0.938  0.00  0.00     0.000 A 
ATOM      6  C6  BNZ d   1      -0.750  -0.123   0.512  0.00  0.00     0.000 A 
ENDROOT
TORSDOF 0
ENDMDL
