MODEL 1
REMARK minimizedAffinity -2.71050119
REMARK minimizedRMSD -1
REMARK  0 active torsions:
REMARK  status: ('A' for Active; 'I' for Inactive)
ROOT
ATOM      1  C1  BNZ d   1       1.172   0.119   0.046  0.00  0.00     0.000 A 
ATOM      2  C2  BNZ d   1       1.439   0.011   1.385  0.00  0.00     0.000 A 
ATOM      3  C3  BNZ d   1       0.426   0.018   2.303  0.00  0.00     0.000 A 
ATOM      4  C4  BNZ d   1      -0.847   0.173   1.885  0.00  0.00     0.000 A 
ATOM      5  C5  BNZ d   1      -1.131   0.293   0.539  0.00  0.00     0.000 A 
ATOM      6  C6  BNZ d   1      -0.112   0.246  -0.385  0.00  0.00     0.000 A 
ENDROOT
TORSDOF 0
ENDMDL
