MODEL 1
REMARK minimizedAffinity -2.97281766
REMARK minimizedRMSD -1
REMARK  0 active torsions:
REMARK  status: ('A' for Active; 'I' for Inactive)
ROOT
ATOM      1  C1  BNZ d   1       1.354  -0.004   0.754  0.00  0.00     0.000 A 
ATOM      2  C2  BNZ d   1       0.408  -0.459   1.633  0.00  0.00     0.000 A 
ATOM      3  C3  BNZ d   1      -0.900  -0.581   1.253  0.00  0.00     0.000 A 
ATOM      4  C4  BNZ d   1      -1.266  -0.211   0.010  0.00  0.00     0.000 A 
ATOM      5  C5  BNZ d   1      -0.326   0.259  -0.886  0.00  0.00     0.000 A 
ATOM      6  C6  BNZ d   1       0.996   0.344  -0.513  0.00  0.00     0.000 A 
ENDROOT
TORSDOF 0
ENDMDL
