MODEL 1
REMARK minimizedAffinity -2.45691395
REMARK minimizedRMSD -1
REMARK  0 active torsions:
REMARK  status: ('A' for Active; 'I' for Inactive)
ROOT
ATOM      1  C1  BNZ d   1       1.254   0.059   1.060  0.00  0.00     0.000 A 
ATOM      2  C2  BNZ d   1       1.515   0.163  -0.281  0.00  0.00     0.000 A 
ATOM      3  C3  BNZ d   1       0.497   0.282  -1.185  0.00  0.00     0.000 A 
ATOM      4  C4  BNZ d   1      -0.780   0.257  -0.752  0.00  0.00     0.000 A 
ATOM      5  C5  BNZ d   1      -1.060   0.144   0.595  0.00  0.00     0.000 A 
ATOM      6  C6  BNZ d   1      -0.032   0.063   1.506  0.00  0.00     0.000 A 
ENDROOT
TORSDOF 0
ENDMDL
