MODEL 1
REMARK minimizedAffinity -2.01525998
REMARK minimizedRMSD -1
REMARK  0 active torsions:
REMARK  status: ('A' for Active; 'I' for Inactive)
ROOT
ATOM      1  C1  BNZ d   1      -0.313  -1.257  -2.528  0.00  0.00     0.000 A 
ATOM      2  C2  BNZ d   1      -0.021  -2.304  -3.360  0.00  0.00     0.000 A 
ATOM      3  C3  BNZ d   1       1.115  -2.297  -4.121  0.00  0.00     0.000 A 
ATOM      4  C4  BNZ d   1       1.935  -1.227  -4.079  0.00  0.00     0.000 A 
ATOM      5  C5  BNZ d   1       1.648  -0.159  -3.253  0.00  0.00     0.000 A 
ATOM      6  C6  BNZ d   1       0.525  -0.187  -2.459  0.00  0.00     0.000 A 
ENDROOT
TORSDOF 0
ENDMDL
