MODEL 1
REMARK minimizedAffinity -3.73293304
REMARK minimizedRMSD -1
REMARK  0 active torsions:
REMARK  status: ('A' for Active; 'I' for Inactive)
ROOT
ATOM      1  C1  BNZ d   1      -0.472  -0.330   1.647  0.00  0.00     0.000 A 
ATOM      2  C2  BNZ d   1      -1.194  -0.352   0.483  0.00  0.00     0.000 A 
ATOM      3  C3  BNZ d   1      -0.631   0.045  -0.698  0.00  0.00     0.000 A 
ATOM      4  C4  BNZ d   1       0.638   0.501  -0.707  0.00  0.00     0.000 A 
ATOM      5  C5  BNZ d   1       1.376   0.539   0.459  0.00  0.00     0.000 A 
ATOM      6  C6  BNZ d   1       0.819   0.101   1.639  0.00  0.00     0.000 A 
ENDROOT
TORSDOF 0
ENDMDL
