MODEL 1
REMARK minimizedAffinity -3.37779665
REMARK minimizedRMSD -1
REMARK  0 active torsions:
REMARK  status: ('A' for Active; 'I' for Inactive)
ROOT
ATOM      1  C1  BNZ d   1       2.675   0.308  -3.513  0.00  0.00     0.000 A 
ATOM      2  C2  BNZ d   1       1.399   0.230  -3.021  0.00  0.00     0.000 A 
ATOM      3  C3  BNZ d   1       0.689  -0.935  -3.102  0.00  0.00     0.000 A 
ATOM      4  C4  BNZ d   1       1.238  -2.006  -3.708  0.00  0.00     0.000 A 
ATOM      5  C5  BNZ d   1       2.520  -1.941  -4.217  0.00  0.00     0.000 A 
ATOM      6  C6  BNZ d   1       3.247  -0.778  -4.100  0.00  0.00     0.000 A 
ENDROOT
TORSDOF 0
ENDMDL
