MODEL 1
REMARK minimizedAffinity -5.0173521
REMARK minimizedRMSD -1
REMARK  0 active torsions:
REMARK  status: ('A' for Active; 'I' for Inactive)
ROOT
ATOM      1  C1  BNZ d   1       0.847   0.198   1.283  0.00  0.00     0.000 A 
ATOM      2  C2  BNZ d   1       0.298   0.398   2.522  0.00  0.00     0.000 A 
ATOM      3  C3  BNZ d   1      -0.616  -0.480   3.033  0.00  0.00     0.000 A 
ATOM      4  C4  BNZ d   1      -1.012  -1.533   2.289  0.00  0.00     0.000 A 
ATOM      5  C5  BNZ d   1      -0.475  -1.744   1.035  0.00  0.00     0.000 A 
ATOM      6  C6  BNZ d   1       0.474  -0.880   0.539  0.00  0.00     0.000 A 
ENDROOT
TORSDOF 0
ENDMDL
