MODEL 1
REMARK minimizedAffinity -3.26157928
REMARK minimizedRMSD -1
REMARK  0 active torsions:
REMARK  status: ('A' for Active; 'I' for Inactive)
ROOT
ATOM      1  C1  BNZ d   1       0.826  -1.235  -3.014  0.00  0.00     0.000 A 
ATOM      2  C2  BNZ d   1       0.668  -1.649  -1.718  0.00  0.00     0.000 A 
ATOM      3  C3  BNZ d   1       0.346  -0.759  -0.733  0.00  0.00     0.000 A 
ATOM      4  C4  BNZ d   1       0.221   0.549  -1.036  0.00  0.00     0.000 A 
ATOM      5  C5  BNZ d   1       0.387   0.984  -2.336  0.00  0.00     0.000 A 
ATOM      6  C6  BNZ d   1       0.673   0.079  -3.332  0.00  0.00     0.000 A 
ENDROOT
TORSDOF 0
ENDMDL
