MODEL 1
REMARK minimizedAffinity -1.66751862
REMARK minimizedRMSD -1
REMARK  0 active torsions:
REMARK  status: ('A' for Active; 'I' for Inactive)
ROOT
ATOM      1  C1  BNZ d   1       0.685  -0.072   1.262  0.00  0.00     0.000 A 
ATOM      2  C2  BNZ d   1       1.132  -0.042  -0.032  0.00  0.00     0.000 A 
ATOM      3  C3  BNZ d   1       0.287   0.279  -1.058  0.00  0.00     0.000 A 
ATOM      4  C4  BNZ d   1      -1.011   0.529  -0.793  0.00  0.00     0.000 A 
ATOM      5  C5  BNZ d   1      -1.480   0.493   0.505  0.00  0.00     0.000 A 
ATOM      6  C6  BNZ d   1      -0.617   0.209   1.539  0.00  0.00     0.000 A 
ENDROOT
TORSDOF 0
ENDMDL
