MODEL 1
REMARK minimizedAffinity -4.83416224
REMARK minimizedRMSD -1
REMARK  0 active torsions:
REMARK  status: ('A' for Active; 'I' for Inactive)
ROOT
ATOM      1  C1  BNZ d   1       0.390   0.401  -0.200  0.00  0.00     0.000 A 
ATOM      2  C2  BNZ d   1       0.924   0.208   1.047  0.00  0.00     0.000 A 
ATOM      3  C3  BNZ d   1       0.135  -0.179   2.094  0.00  0.00     0.000 A 
ATOM      4  C4  BNZ d   1      -1.191  -0.332   1.903  0.00  0.00     0.000 A 
ATOM      5  C5  BNZ d   1      -1.746  -0.131   0.655  0.00  0.00     0.000 A 
ATOM      6  C6  BNZ d   1      -0.942   0.220  -0.406  0.00  0.00     0.000 A 
ENDROOT
TORSDOF 0
ENDMDL
