MODEL 1
REMARK minimizedAffinity -3.65833759
REMARK minimizedRMSD -1
REMARK  0 active torsions:
REMARK  status: ('A' for Active; 'I' for Inactive)
ROOT
ATOM      1  C1  BNZ d   1      -0.245  -0.222   0.126  0.00  0.00     0.000 A 
ATOM      2  C2  BNZ d   1      -0.921   0.074   1.279  0.00  0.00     0.000 A 
ATOM      3  C3  BNZ d   1      -0.300  -0.005   2.494  0.00  0.00     0.000 A 
ATOM      4  C4  BNZ d   1       0.983  -0.417   2.558  0.00  0.00     0.000 A 
ATOM      5  C5  BNZ d   1       1.675  -0.728   1.405  0.00  0.00     0.000 A 
ATOM      6  C6  BNZ d   1       1.059  -0.610   0.180  0.00  0.00     0.000 A 
ENDROOT
TORSDOF 0
ENDMDL
