MODEL 1
REMARK minimizedAffinity -2.30685472
REMARK minimizedRMSD -1
REMARK  0 active torsions:
REMARK  status: ('A' for Active; 'I' for Inactive)
ROOT
ATOM      1  C   UNL d   1      -0.842  -2.356   0.456  0.00  0.00     0.172 C 
ATOM      2  N   UNL d   1      -0.466  -1.004   0.116  0.00  0.00    -0.070 N 
ATOM      3  C1  UNL d   1       0.254  -0.629  -0.987  0.00  0.00    -0.004 A 
ATOM      4  C2  UNL d   1       0.401   0.741  -0.949  0.00  0.00    -0.047 A 
ATOM      5  C3  UNL d   1      -0.252   1.205   0.217  0.00  0.00    -0.047 A 
ATOM      6  C4  UNL d   1      -0.780   0.104   0.858  0.00  0.00    -0.004 A 
ENDROOT
TORSDOF 0
ENDMDL
