MODEL 1
REMARK minimizedAffinity -2.61690235
REMARK minimizedRMSD -1
REMARK  0 active torsions:
REMARK  status: ('A' for Active; 'I' for Inactive)
ROOT
ATOM      1  C   UNL d   1       0.366  -0.150   0.442  0.00  0.00     0.172 C 
ATOM      2  N   UNL d   1       1.107   1.080   0.286  0.00  0.00    -0.070 N 
ATOM      3  C1  UNL d   1       0.837   2.064  -0.627  0.00  0.00    -0.004 A 
ATOM      4  C2  UNL d   1       1.767   3.066  -0.454  0.00  0.00    -0.047 A 
ATOM      5  C3  UNL d   1       2.626   2.670   0.599  0.00  0.00    -0.047 A 
ATOM      6  C4  UNL d   1       2.194   1.437   1.039  0.00  0.00    -0.004 A 
ENDROOT
TORSDOF 0
ENDMDL
