MODEL 1
REMARK minimizedAffinity -2.52377677
REMARK minimizedRMSD -1
REMARK  0 active torsions:
REMARK  status: ('A' for Active; 'I' for Inactive)
ROOT
ATOM      1  C   UNL d   1       0.255   2.359  -0.407  0.00  0.00     0.172 C 
ATOM      2  N   UNL d   1       0.407   0.930  -0.554  0.00  0.00    -0.070 N 
ATOM      3  C1  UNL d   1       0.313   0.009   0.455  0.00  0.00    -0.004 A 
ATOM      4  C2  UNL d   1       0.519  -1.239  -0.092  0.00  0.00    -0.047 A 
ATOM      5  C3  UNL d   1       0.746  -1.061  -1.478  0.00  0.00    -0.047 A 
ATOM      6  C4  UNL d   1       0.671   0.291  -1.736  0.00  0.00    -0.004 A 
ENDROOT
TORSDOF 0
ENDMDL
