MODEL 1
REMARK minimizedAffinity -3.65721154
REMARK minimizedRMSD -1
REMARK  0 active torsions:
REMARK  status: ('A' for Active; 'I' for Inactive)
ROOT
ATOM      1  C   UNL d   1       0.625  -2.562   0.363  0.00  0.00     0.172 C 
ATOM      2  N   UNL d   1       0.300  -1.229  -0.087  0.00  0.00    -0.070 N 
ATOM      3  C1  UNL d   1       0.413  -0.770  -1.372  0.00  0.00    -0.004 A 
ATOM      4  C2  UNL d   1       0.007   0.547  -1.388  0.00  0.00    -0.047 A 
ATOM      5  C3  UNL d   1      -0.362   0.891  -0.066  0.00  0.00    -0.047 A 
ATOM      6  C4  UNL d   1      -0.171  -0.226   0.719  0.00  0.00    -0.004 A 
ENDROOT
TORSDOF 0
ENDMDL
