MODEL 1
REMARK minimizedAffinity -3.49948668
REMARK minimizedRMSD -1
REMARK  0 active torsions:
REMARK  status: ('A' for Active; 'I' for Inactive)
ROOT
ATOM      1  C   UNL d   1       0.216   0.826  -0.249  0.00  0.00     0.172 C 
ATOM      2  N   UNL d   1      -0.025  -0.574   0.011  0.00  0.00    -0.070 N 
ATOM      3  C1  UNL d   1       0.764  -1.611  -0.410  0.00  0.00    -0.004 A 
ATOM      4  C2  UNL d   1       0.197  -2.783   0.042  0.00  0.00    -0.047 A 
ATOM      5  C3  UNL d   1      -0.974  -2.438   0.758  0.00  0.00    -0.047 A 
ATOM      6  C4  UNL d   1      -1.087  -1.064   0.724  0.00  0.00    -0.004 A 
ENDROOT
TORSDOF 0
ENDMDL
