MODEL 1
REMARK minimizedAffinity -4.43140984
REMARK minimizedRMSD -1
REMARK  0 active torsions:
REMARK  status: ('A' for Active; 'I' for Inactive)
ROOT
ATOM      1  C   UNL d   1       0.261   0.495  -0.609  0.00  0.00     0.172 C 
ATOM      2  N   UNL d   1       0.310  -0.942  -0.475  0.00  0.00    -0.070 N 
ATOM      3  C1  UNL d   1       0.483  -1.834  -1.500  0.00  0.00    -0.004 A 
ATOM      4  C2  UNL d   1       0.473  -3.102  -0.962  0.00  0.00    -0.047 A 
ATOM      5  C3  UNL d   1       0.287  -2.969   0.434  0.00  0.00    -0.047 A 
ATOM      6  C4  UNL d   1       0.189  -1.621   0.708  0.00  0.00    -0.004 A 
ENDROOT
TORSDOF 0
ENDMDL
