MODEL 1
REMARK minimizedAffinity -2.25547481
REMARK minimizedRMSD -1
REMARK  0 active torsions:
REMARK  status: ('A' for Active; 'I' for Inactive)
ROOT
ATOM      1  C   UNL d   1       1.853   3.674   0.613  0.00  0.00     0.172 C 
ATOM      2  N   UNL d   1       1.061   2.532   0.222  0.00  0.00    -0.070 N 
ATOM      3  C1  UNL d   1       0.928   1.371   0.936  0.00  0.00    -0.004 A 
ATOM      4  C2  UNL d   1       0.092   0.534   0.228  0.00  0.00    -0.047 A 
ATOM      5  C3  UNL d   1      -0.288   1.215  -0.952  0.00  0.00    -0.047 A 
ATOM      6  C4  UNL d   1       0.326   2.449  -0.931  0.00  0.00    -0.004 A 
ENDROOT
TORSDOF 0
ENDMDL
