MODEL 1
REMARK minimizedAffinity -3.57923889
REMARK minimizedRMSD -1
REMARK  0 active torsions:
REMARK  status: ('A' for Active; 'I' for Inactive)
ROOT
ATOM      1  C   UNL d   1       0.413   0.956  -0.063  0.00  0.00     0.172 C 
ATOM      2  N   UNL d   1       0.096  -0.442   0.110  0.00  0.00    -0.070 N 
ATOM      3  C1  UNL d   1       0.678  -1.482  -0.565  0.00  0.00    -0.004 A 
ATOM      4  C2  UNL d   1       0.103  -2.651  -0.116  0.00  0.00    -0.047 A 
ATOM      5  C3  UNL d   1      -0.858  -2.302   0.862  0.00  0.00    -0.047 A 
ATOM      6  C4  UNL d   1      -0.842  -0.928   0.982  0.00  0.00    -0.004 A 
ENDROOT
TORSDOF 0
ENDMDL
