MODEL 1
REMARK minimizedAffinity -2.39628053
REMARK minimizedRMSD -1
REMARK  0 active torsions:
REMARK  status: ('A' for Active; 'I' for Inactive)
ROOT
ATOM      1  C   UNL d   1       0.017  -2.950   0.572  0.00  0.00     0.172 C 
ATOM      2  N   UNL d   1       0.088  -1.539   0.269  0.00  0.00    -0.070 N 
ATOM      3  C1  UNL d   1      -0.402  -0.529   1.053  0.00  0.00    -0.004 A 
ATOM      4  C2  UNL d   1      -0.137   0.665   0.417  0.00  0.00    -0.047 A 
ATOM      5  C3  UNL d   1       0.534   0.361  -0.791  0.00  0.00    -0.047 A 
ATOM      6  C4  UNL d   1       0.660  -1.011  -0.857  0.00  0.00    -0.004 A 
ENDROOT
TORSDOF 0
ENDMDL
