MODEL 1
REMARK minimizedAffinity -3.34986448
REMARK minimizedRMSD -1
REMARK  0 active torsions:
REMARK  status: ('A' for Active; 'I' for Inactive)
ROOT
ATOM      1  C   UNL d   1       0.011   1.032   0.149  0.00  0.00     0.172 C 
ATOM      2  N   UNL d   1      -0.283  -0.370   0.330  0.00  0.00    -0.070 N 
ATOM      3  C1  UNL d   1       0.418  -1.410  -0.221  0.00  0.00    -0.004 A 
ATOM      4  C2  UNL d   1      -0.176  -2.583   0.190  0.00  0.00    -0.047 A 
ATOM      5  C3  UNL d   1      -1.272  -2.237   1.016  0.00  0.00    -0.047 A 
ATOM      6  C4  UNL d   1      -1.315  -0.860   1.085  0.00  0.00    -0.004 A 
ENDROOT
TORSDOF 0
ENDMDL
