MODEL 1
REMARK minimizedAffinity -3.16679525
REMARK minimizedRMSD -1
REMARK  0 active torsions:
REMARK  status: ('A' for Active; 'I' for Inactive)
ROOT
ATOM      1  C   UNL d   1       1.811   2.644   0.079  0.00  0.00     0.172 C 
ATOM      2  N   UNL d   1       0.862   1.565   0.224  0.00  0.00    -0.070 N 
ATOM      3  C1  UNL d   1      -0.370   1.501  -0.370  0.00  0.00    -0.004 A 
ATOM      4  C2  UNL d   1      -0.964   0.319   0.017  0.00  0.00    -0.047 A 
ATOM      5  C3  UNL d   1      -0.058  -0.349   0.874  0.00  0.00    -0.047 A 
ATOM      6  C4  UNL d   1       1.064   0.444   0.985  0.00  0.00    -0.004 A 
ENDROOT
TORSDOF 0
ENDMDL
