MODEL 1
REMARK minimizedAffinity -2.5613308
REMARK minimizedRMSD -1
REMARK  0 active torsions:
REMARK  status: ('A' for Active; 'I' for Inactive)
ROOT
ATOM      1  C   UNL d   1      -0.971  -2.771   0.709  0.00  0.00     0.172 C 
ATOM      2  N   UNL d   1      -0.472  -1.416   0.691  0.00  0.00    -0.070 N 
ATOM      3  C1  UNL d   1      -1.200  -0.301   0.370  0.00  0.00    -0.004 A 
ATOM      4  C2  UNL d   1      -0.366   0.791   0.473  0.00  0.00    -0.047 A 
ATOM      5  C3  UNL d   1       0.907   0.317   0.868  0.00  0.00    -0.047 A 
ATOM      6  C4  UNL d   1       0.813  -1.053   0.996  0.00  0.00    -0.004 A 
ENDROOT
TORSDOF 0
ENDMDL
