MODEL 1
REMARK minimizedAffinity -3.14823318
REMARK minimizedRMSD -1
REMARK  0 active torsions:
REMARK  status: ('A' for Active; 'I' for Inactive)
ROOT
ATOM      1  C   UNL d   1       0.072   1.238  -0.577  0.00  0.00     0.172 C 
ATOM      2  N   UNL d   1       0.001  -0.121  -0.095  0.00  0.00    -0.070 N 
ATOM      3  C1  UNL d   1      -1.032  -0.660   0.624  0.00  0.00    -0.004 A 
ATOM      4  C2  UNL d   1      -0.719  -1.976   0.890  0.00  0.00    -0.047 A 
ATOM      5  C3  UNL d   1       0.546  -2.236   0.311  0.00  0.00    -0.047 A 
ATOM      6  C4  UNL d   1       0.969  -1.071  -0.292  0.00  0.00    -0.004 A 
ENDROOT
TORSDOF 0
ENDMDL
