MODEL 1
REMARK minimizedAffinity -2.63624549
REMARK minimizedRMSD -1
REMARK  0 active torsions:
REMARK  status: ('A' for Active; 'I' for Inactive)
ROOT
ATOM      1  C   UNL d   1       0.687   1.894   0.284  0.00  0.00     0.172 C 
ATOM      2  N   UNL d   1       0.466   3.221   0.809  0.00  0.00    -0.070 N 
ATOM      3  C1  UNL d   1      -0.753   3.768   1.109  0.00  0.00    -0.004 A 
ATOM      4  C2  UNL d   1      -0.538   5.044   1.583  0.00  0.00    -0.047 A 
ATOM      5  C3  UNL d   1       0.858   5.273   1.565  0.00  0.00    -0.047 A 
ATOM      6  C4  UNL d   1       1.456   4.128   1.082  0.00  0.00    -0.004 A 
ENDROOT
TORSDOF 0
ENDMDL
