MODEL 1
REMARK minimizedAffinity -2.39539289
REMARK minimizedRMSD -1
REMARK  0 active torsions:
REMARK  status: ('A' for Active; 'I' for Inactive)
ROOT
ATOM      1  O1  BZF d   1      -0.819   0.598  -0.550  0.00  0.00    -0.204 OA
ATOM      2  C2  BZF d   1       0.124   0.145   0.352  0.00  0.00     0.174 A 
ATOM      3  C3  BZF d   1       1.157   1.007   0.438  0.00  0.00    -0.012 A 
ATOM      4  C3A BZF d   1       0.796   2.111  -0.397  0.00  0.00    -0.107 A 
ATOM      5  C4  BZF d   1       1.408   3.291  -0.710  0.00  0.00     0.055 A 
ATOM      6  C5  BZF d   1       0.823   4.119  -1.615  0.00  0.00    -0.016 A 
ATOM      7  C6  BZF d   1      -0.369   3.797  -2.229  0.00  0.00     0.022 A 
ATOM      8  C7  BZF d   1      -1.016   2.640  -1.947  0.00  0.00     0.029 A 
ATOM      9  C7A BZF d   1      -0.444   1.817  -1.009  0.00  0.00     0.058 A 
ENDROOT
TORSDOF 0
ENDMDL
