MODEL 1
REMARK minimizedAffinity 2.0135603
REMARK minimizedRMSD -1
REMARK  0 active torsions:
REMARK  status: ('A' for Active; 'I' for Inactive)
ROOT
ATOM      1  O1  BZF d   1       0.637   0.586  -0.430  0.00  0.00    -0.204 OA
ATOM      2  C2  BZF d   1      -0.653   0.841  -0.854  0.00  0.00     0.174 A 
ATOM      3  C3  BZF d   1      -1.549   0.208  -0.070  0.00  0.00    -0.012 A 
ATOM      4  C3A BZF d   1      -0.774  -0.411   0.962  0.00  0.00    -0.107 A 
ATOM      5  C4  BZF d   1      -1.096  -1.170   2.050  0.00  0.00     0.055 A 
ATOM      6  C5  BZF d   1      -0.098  -1.682   2.818  0.00  0.00    -0.016 A 
ATOM      7  C6  BZF d   1       1.231  -1.458   2.524  0.00  0.00     0.022 A 
ATOM      8  C7  BZF d   1       1.600  -0.707   1.458  0.00  0.00     0.029 A 
ATOM      9  C7A BZF d   1       0.593  -0.162   0.699  0.00  0.00     0.058 A 
ENDROOT
TORSDOF 0
ENDMDL
