MODEL 1
REMARK minimizedAffinity -2.12655425
REMARK minimizedRMSD -1
REMARK  0 active torsions:
REMARK  status: ('A' for Active; 'I' for Inactive)
ROOT
ATOM      1  O1  BZF d   1       2.312  -0.301   1.898  0.00  0.00    -0.204 OA
ATOM      2  C2  BZF d   1       1.260   0.254   2.601  0.00  0.00     0.174 A 
ATOM      3  C3  BZF d   1       0.209   0.484   1.787  0.00  0.00    -0.012 A 
ATOM      4  C3A BZF d   1       0.598  -0.039   0.514  0.00  0.00    -0.107 A 
ATOM      5  C4  BZF d   1      -0.026  -0.121  -0.698  0.00  0.00     0.055 A 
ATOM      6  C5  BZF d   1       0.657  -0.623  -1.760  0.00  0.00    -0.016 A 
ATOM      7  C6  BZF d   1       1.964  -1.048  -1.648  0.00  0.00     0.022 A 
ATOM      8  C7  BZF d   1       2.624  -0.991  -0.465  0.00  0.00     0.029 A 
ATOM      9  C7A BZF d   1       1.926  -0.514   0.617  0.00  0.00     0.058 A 
ENDROOT
TORSDOF 0
ENDMDL
