MODEL 1
REMARK minimizedAffinity -4.9059515
REMARK minimizedRMSD -1
REMARK  0 active torsions:
REMARK  status: ('A' for Active; 'I' for Inactive)
ROOT
ATOM      1  O1  BZF d   1      -0.599  -0.367  -0.723  0.00  0.00    -0.204 OA
ATOM      2  C2  BZF d   1       0.184  -0.729  -1.802  0.00  0.00     0.174 A 
ATOM      3  C3  BZF d   1       1.460  -0.939  -1.420  0.00  0.00    -0.012 A 
ATOM      4  C3A BZF d   1       1.457  -0.782   0.002  0.00  0.00    -0.107 A 
ATOM      5  C4  BZF d   1       2.425  -0.883   0.960  0.00  0.00     0.055 A 
ATOM      6  C5  BZF d   1       2.110  -0.597   2.251  0.00  0.00    -0.016 A 
ATOM      7  C6  BZF d   1       0.840  -0.203   2.618  0.00  0.00     0.022 A 
ATOM      8  C7  BZF d   1      -0.155  -0.093   1.704  0.00  0.00     0.029 A 
ATOM      9  C7A BZF d   1       0.152  -0.413   0.404  0.00  0.00     0.058 A 
ENDROOT
TORSDOF 0
ENDMDL
