MODEL 1
REMARK minimizedAffinity -4.89065361
REMARK minimizedRMSD -1
REMARK  0 active torsions:
REMARK  status: ('A' for Active; 'I' for Inactive)
ROOT
ATOM      1  O1  BZF d   1      -2.417  -0.910  -0.164  0.00  0.00    -0.204 OA
ATOM      2  C2  BZF d   1      -3.062  -0.959   1.057  0.00  0.00     0.174 A 
ATOM      3  C3  BZF d   1      -2.209  -0.669   2.061  0.00  0.00    -0.012 A 
ATOM      4  C3A BZF d   1      -0.974  -0.333   1.420  0.00  0.00    -0.107 A 
ATOM      5  C4  BZF d   1       0.248   0.059   1.885  0.00  0.00     0.055 A 
ATOM      6  C5  BZF d   1       1.265   0.238   1.001  0.00  0.00    -0.016 A 
ATOM      7  C6  BZF d   1       1.096   0.029  -0.352  0.00  0.00     0.022 A 
ATOM      8  C7  BZF d   1      -0.100  -0.356  -0.861  0.00  0.00     0.029 A 
ATOM      9  C7A BZF d   1      -1.138  -0.505   0.026  0.00  0.00     0.058 A 
ENDROOT
TORSDOF 0
ENDMDL
