MODEL 1
REMARK minimizedAffinity -1.40107548
REMARK minimizedRMSD -1
REMARK  0 active torsions:
REMARK  status: ('A' for Active; 'I' for Inactive)
ROOT
ATOM      1  O1  BZF d   1       0.217   1.392   0.446  0.00  0.00    -0.204 OA
ATOM      2  C2  BZF d   1       0.016   0.104  -0.012  0.00  0.00     0.174 A 
ATOM      3  C3  BZF d   1      -0.376   0.111  -1.303  0.00  0.00    -0.012 A 
ATOM      4  C3A BZF d   1      -0.334   1.484  -1.701  0.00  0.00    -0.107 A 
ATOM      5  C4  BZF d   1      -0.599   2.130  -2.875  0.00  0.00     0.055 A 
ATOM      6  C5  BZF d   1      -0.532   3.487  -2.913  0.00  0.00    -0.016 A 
ATOM      7  C6  BZF d   1      -0.209   4.229  -1.796  0.00  0.00     0.022 A 
ATOM      8  C7  BZF d   1       0.067   3.633  -0.610  0.00  0.00     0.029 A 
ATOM      9  C7A BZF d   1       0.032   2.260  -0.577  0.00  0.00     0.058 A 
ENDROOT
TORSDOF 0
ENDMDL
