MODEL 1
REMARK minimizedAffinity -5.16493464
REMARK minimizedRMSD -1
REMARK  0 active torsions:
REMARK  status: ('A' for Active; 'I' for Inactive)
ROOT
ATOM      1  O1  BZF d   1       0.321   0.499  -0.288  0.00  0.00    -0.204 OA
ATOM      2  C2  BZF d   1       0.420   0.207   1.058  0.00  0.00     0.174 A 
ATOM      3  C3  BZF d   1      -0.713  -0.371   1.507  0.00  0.00    -0.012 A 
ATOM      4  C3A BZF d   1      -1.538  -0.529   0.349  0.00  0.00    -0.107 A 
ATOM      5  C4  BZF d   1      -2.781  -1.057   0.147  0.00  0.00     0.055 A 
ATOM      6  C5  BZF d   1      -3.333  -0.992  -1.093  0.00  0.00    -0.016 A 
ATOM      7  C6  BZF d   1      -2.674  -0.403  -2.151  0.00  0.00     0.022 A 
ATOM      8  C7  BZF d   1      -1.437   0.130  -2.001  0.00  0.00     0.029 A 
ATOM      9  C7A BZF d   1      -0.863   0.037  -0.757  0.00  0.00     0.058 A 
ENDROOT
TORSDOF 0
ENDMDL
