MODEL 1
REMARK minimizedAffinity -5.26502466
REMARK minimizedRMSD -1
REMARK  0 active torsions:
REMARK  status: ('A' for Active; 'I' for Inactive)
ROOT
ATOM      1  O1  BZF d   1       0.479  -0.750   3.030  0.00  0.00    -0.204 OA
ATOM      2  C2  BZF d   1       1.801  -0.510   2.705  0.00  0.00     0.174 A 
ATOM      3  C3  BZF d   1       1.963  -0.459   1.367  0.00  0.00    -0.012 A 
ATOM      4  C3A BZF d   1       0.646  -0.589   0.823  0.00  0.00    -0.107 A 
ATOM      5  C4  BZF d   1       0.152  -0.597  -0.450  0.00  0.00     0.055 A 
ATOM      6  C5  BZF d   1      -1.175  -0.817  -0.643  0.00  0.00    -0.016 A 
ATOM      7  C6  BZF d   1      -2.035  -1.038   0.413  0.00  0.00     0.022 A 
ATOM      8  C7  BZF d   1      -1.593  -1.036   1.694  0.00  0.00     0.029 A 
ATOM      9  C7A BZF d   1      -0.258  -0.780   1.894  0.00  0.00     0.058 A 
ENDROOT
TORSDOF 0
ENDMDL
