MODEL 1
REMARK minimizedAffinity -1.36843717
REMARK minimizedRMSD -1
REMARK  0 active torsions:
REMARK  status: ('A' for Active; 'I' for Inactive)
ROOT
ATOM      1  O1  BZF d   1      -2.771  -0.899  -1.690  0.00  0.00    -0.204 OA
ATOM      2  C2  BZF d   1      -3.708  -1.550  -0.911  0.00  0.00     0.174 A 
ATOM      3  C3  BZF d   1      -3.309  -1.597   0.377  0.00  0.00    -0.012 A 
ATOM      4  C3A BZF d   1      -2.088  -0.853   0.420  0.00  0.00    -0.107 A 
ATOM      5  C4  BZF d   1      -1.221  -0.530   1.424  0.00  0.00     0.055 A 
ATOM      6  C5  BZF d   1      -0.082   0.147   1.120  0.00  0.00    -0.016 A 
ATOM      7  C6  BZF d   1       0.224   0.510  -0.175  0.00  0.00     0.022 A 
ATOM      8  C7  BZF d   1      -0.608   0.215  -1.204  0.00  0.00     0.029 A 
ATOM      9  C7A BZF d   1      -1.775  -0.439  -0.896  0.00  0.00     0.058 A 
ENDROOT
TORSDOF 0
ENDMDL
