MODEL 1
REMARK minimizedAffinity -1.27828574
REMARK minimizedRMSD -1
REMARK  0 active torsions:
REMARK  status: ('A' for Active; 'I' for Inactive)
ROOT
ATOM      1  O1  BZF d   1      -0.890  -0.363  -1.169  0.00  0.00    -0.204 OA
ATOM      2  C2  BZF d   1      -1.667   0.355  -0.281  0.00  0.00     0.174 A 
ATOM      3  C3  BZF d   1      -0.979   0.621   0.848  0.00  0.00    -0.012 A 
ATOM      4  C3A BZF d   1       0.338   0.112   0.616  0.00  0.00    -0.107 A 
ATOM      5  C4  BZF d   1       1.481   0.090   1.363  0.00  0.00     0.055 A 
ATOM      6  C5  BZF d   1       2.576  -0.549   0.875  0.00  0.00    -0.016 A 
ATOM      7  C6  BZF d   1       2.562  -1.180  -0.352  0.00  0.00     0.022 A 
ATOM      8  C7  BZF d   1       1.453  -1.181  -1.131  0.00  0.00     0.029 A 
ATOM      9  C7A BZF d   1       0.355  -0.508  -0.655  0.00  0.00     0.058 A 
ENDROOT
TORSDOF 0
ENDMDL
