MODEL 1
REMARK minimizedAffinity 3.47430539
REMARK minimizedRMSD -1
REMARK  0 active torsions:
REMARK  status: ('A' for Active; 'I' for Inactive)
ROOT
ATOM      1  O1  BZF d   1      -0.818  -0.561   1.571  0.00  0.00    -0.204 OA
ATOM      2  C2  BZF d   1      -0.133  -1.184   2.596  0.00  0.00     0.174 A 
ATOM      3  C3  BZF d   1       1.081  -1.597   2.178  0.00  0.00    -0.012 A 
ATOM      4  C3A BZF d   1       1.196  -1.127   0.832  0.00  0.00    -0.107 A 
ATOM      5  C4  BZF d   1       2.181  -1.210  -0.111  0.00  0.00     0.055 A 
ATOM      6  C5  BZF d   1       1.950  -0.709  -1.353  0.00  0.00    -0.016 A 
ATOM      7  C6  BZF d   1       0.746  -0.124  -1.688  0.00  0.00     0.022 A 
ATOM      8  C7  BZF d   1      -0.259  -0.015  -0.785  0.00  0.00     0.029 A 
ATOM      9  C7A BZF d   1      -0.017  -0.490   0.480  0.00  0.00     0.058 A 
ENDROOT
TORSDOF 0
ENDMDL
