MODEL 1
REMARK minimizedAffinity -2.15848947
REMARK minimizedRMSD -1
REMARK  0 active torsions:
REMARK  status: ('A' for Active; 'I' for Inactive)
ROOT
ATOM      1  O1  BZF d   1       1.194   0.126  -2.432  0.00  0.00    -0.204 OA
ATOM      2  C2  BZF d   1       0.257  -0.644  -1.771  0.00  0.00     0.174 A 
ATOM      3  C3  BZF d   1      -0.852   0.076  -1.504  0.00  0.00    -0.012 A 
ATOM      4  C3A BZF d   1      -0.628   1.351  -2.113  0.00  0.00    -0.107 A 
ATOM      5  C4  BZF d   1      -1.374   2.491  -2.206  0.00  0.00     0.055 A 
ATOM      6  C5  BZF d   1      -0.836   3.586  -2.806  0.00  0.00    -0.016 A 
ATOM      7  C6  BZF d   1       0.445   3.577  -3.317  0.00  0.00     0.022 A 
ATOM      8  C7  BZF d   1       1.222   2.468  -3.252  0.00  0.00     0.029 A 
ATOM      9  C7A BZF d   1       0.669   1.350  -2.677  0.00  0.00     0.058 A 
ENDROOT
TORSDOF 0
ENDMDL
