MODEL 1
REMARK minimizedAffinity -0.552418172
REMARK minimizedRMSD -1
REMARK  0 active torsions:
REMARK  status: ('A' for Active; 'I' for Inactive)
ROOT
ATOM      1  N1  IND d   1      -0.364  -1.321   0.255  0.00  0.00    -0.196 N 
ATOM      2  C2  IND d   1      -0.750  -0.365   1.152  0.00  0.00     0.054 A 
ATOM      3  C3  IND d   1      -0.289   0.848   0.774  0.00  0.00    -0.031 A 
ATOM      4  C4  IND d   1       1.034   1.511  -1.333  0.00  0.00     0.051 A 
ATOM      5  C5  IND d   1       1.651   0.978  -2.429  0.00  0.00    -0.031 A 
ATOM      6  C6  IND d   1       1.625  -0.376  -2.694  0.00  0.00     0.015 A 
ATOM      7  C7  IND d   1       0.968  -1.250  -1.874  0.00  0.00    -0.016 A 
ATOM      8  C8  IND d   1       0.347  -0.713  -0.756  0.00  0.00    -0.047 A 
ATOM      9  C9  IND d   1       0.406   0.655  -0.459  0.00  0.00    -0.096 A 
ATOM     10  HN1 IND d   1      -0.535  -2.162   0.313  0.00  0.00     0.298 HD
ENDROOT
TORSDOF 0
ENDMDL
