MODEL 1
REMARK minimizedAffinity -1.2400341
REMARK minimizedRMSD -1
REMARK  0 active torsions:
REMARK  status: ('A' for Active; 'I' for Inactive)
ROOT
ATOM      1  N1  IND d   1       0.593   0.618   0.292  0.00  0.00    -0.196 N 
ATOM      2  C2  IND d   1      -0.679   0.191   0.029  0.00  0.00     0.054 A 
ATOM      3  C3  IND d   1      -0.746  -0.355  -1.205  0.00  0.00    -0.031 A 
ATOM      4  C4  IND d   1       1.130  -0.744  -2.926  0.00  0.00     0.051 A 
ATOM      5  C5  IND d   1       2.453  -0.489  -3.153  0.00  0.00    -0.031 A 
ATOM      6  C6  IND d   1       3.241   0.159  -2.223  0.00  0.00     0.015 A 
ATOM      7  C7  IND d   1       2.734   0.567  -1.022  0.00  0.00    -0.016 A 
ATOM      8  C8  IND d   1       1.389   0.317  -0.791  0.00  0.00    -0.047 A 
ATOM      9  C9  IND d   1       0.575  -0.302  -1.748  0.00  0.00    -0.096 A 
ATOM     10  HN1 IND d   1       0.852   1.010   1.012  0.00  0.00     0.298 HD
ENDROOT
TORSDOF 0
ENDMDL
