MODEL 1
REMARK minimizedAffinity -1.8245399
REMARK minimizedRMSD -1
REMARK  0 active torsions:
REMARK  status: ('A' for Active; 'I' for Inactive)
ROOT
ATOM      1  N1  IND d   1      -3.835   1.994  -5.945  0.00  0.00    -0.196 N 
ATOM      2  C2  IND d   1      -5.114   1.517  -5.868  0.00  0.00     0.054 A 
ATOM      3  C3  IND d   1      -5.995   2.540  -5.801  0.00  0.00    -0.031 A 
ATOM      4  C4  IND d   1      -5.567   5.076  -5.905  0.00  0.00     0.051 A 
ATOM      5  C5  IND d   1      -4.558   5.998  -5.937  0.00  0.00    -0.031 A 
ATOM      6  C6  IND d   1      -3.230   5.625  -5.978  0.00  0.00     0.015 A 
ATOM      7  C7  IND d   1      -2.860   4.310  -5.999  0.00  0.00    -0.016 A 
ATOM      8  C8  IND d   1      -3.882   3.371  -5.959  0.00  0.00    -0.047 A 
ATOM      9  C9  IND d   1      -5.229   3.744  -5.874  0.00  0.00    -0.096 A 
ATOM     10  HN1 IND d   1      -3.122   1.515  -5.979  0.00  0.00     0.298 HD
ENDROOT
TORSDOF 0
ENDMDL
