MODEL 1
REMARK minimizedAffinity -3.23081183
REMARK minimizedRMSD -1
REMARK  0 active torsions:
REMARK  status: ('A' for Active; 'I' for Inactive)
ROOT
ATOM      1  N1  IND d   1       0.568  -2.260   0.239  0.00  0.00    -0.196 N 
ATOM      2  C2  IND d   1       0.108  -1.675   1.386  0.00  0.00     0.054 A 
ATOM      3  C3  IND d   1       0.205  -0.329   1.299  0.00  0.00    -0.031 A 
ATOM      4  C4  IND d   1       0.995   1.130  -0.669  0.00  0.00     0.051 A 
ATOM      5  C5  IND d   1       1.546   1.049  -1.917  0.00  0.00    -0.031 A 
ATOM      6  C6  IND d   1       1.801  -0.164  -2.524  0.00  0.00     0.015 A 
ATOM      7  C7  IND d   1       1.504  -1.346  -1.906  0.00  0.00    -0.016 A 
ATOM      8  C8  IND d   1       0.951  -1.267  -0.636  0.00  0.00    -0.047 A 
ATOM      9  C9  IND d   1       0.729  -0.040   0.002  0.00  0.00    -0.096 A 
ATOM     10  HN1 IND d   1       0.611  -3.105   0.090  0.00  0.00     0.298 HD
ENDROOT
TORSDOF 0
ENDMDL
