MODEL 1
REMARK minimizedAffinity -1.91247928
REMARK minimizedRMSD -1
REMARK  0 active torsions:
REMARK  status: ('A' for Active; 'I' for Inactive)
ROOT
ATOM      1  N1  IND d   1       0.531   0.130   1.179  0.00  0.00    -0.196 N 
ATOM      2  C2  IND d   1      -0.819   0.039   1.373  0.00  0.00     0.054 A 
ATOM      3  C3  IND d   1      -1.462  -0.015   0.185  0.00  0.00    -0.031 A 
ATOM      4  C4  IND d   1      -0.493  -0.071  -2.199  0.00  0.00     0.051 A 
ATOM      5  C5  IND d   1       0.685   0.027  -2.886  0.00  0.00    -0.031 A 
ATOM      6  C6  IND d   1       1.897   0.163  -2.239  0.00  0.00     0.015 A 
ATOM      7  C7  IND d   1       1.977   0.197  -0.876  0.00  0.00    -0.016 A 
ATOM      8  C8  IND d   1       0.782   0.105  -0.176  0.00  0.00    -0.047 A 
ATOM      9  C9  IND d   1      -0.454   0.009  -0.827  0.00  0.00    -0.096 A 
ATOM     10  HN1 IND d   1       1.124   0.193   1.798  0.00  0.00     0.298 HD
ENDROOT
TORSDOF 0
ENDMDL
