MODEL 1
REMARK minimizedAffinity -3.89155746
REMARK minimizedRMSD -1
REMARK  0 active torsions:
REMARK  status: ('A' for Active; 'I' for Inactive)
ROOT
ATOM      1  N1  IND d   1      -0.551  -1.026  -0.481  0.00  0.00    -0.196 N 
ATOM      2  C2  IND d   1      -0.769  -0.447   0.738  0.00  0.00     0.054 A 
ATOM      3  C3  IND d   1       0.191   0.467   1.002  0.00  0.00    -0.031 A 
ATOM      4  C4  IND d   1       2.156   1.247  -0.467  0.00  0.00     0.051 A 
ATOM      5  C5  IND d   1       2.788   0.984  -1.650  0.00  0.00    -0.031 A 
ATOM      6  C6  IND d   1       2.328   0.019  -2.523  0.00  0.00     0.015 A 
ATOM      7  C7  IND d   1       1.208  -0.713  -2.249  0.00  0.00    -0.016 A 
ATOM      8  C8  IND d   1       0.568  -0.453  -1.045  0.00  0.00    -0.047 A 
ATOM      9  C9  IND d   1       1.054   0.495  -0.136  0.00  0.00    -0.096 A 
ATOM     10  HN1 IND d   1      -1.032  -1.644  -0.836  0.00  0.00     0.298 HD
ENDROOT
TORSDOF 0
ENDMDL
