MODEL 1
REMARK minimizedAffinity -4.25779581
REMARK minimizedRMSD -1
REMARK  0 active torsions:
REMARK  status: ('A' for Active; 'I' for Inactive)
ROOT
ATOM      1  N1  IND d   1       1.468  -1.512  -2.496  0.00  0.00    -0.196 N 
ATOM      2  C2  IND d   1       2.069  -0.452  -3.116  0.00  0.00     0.054 A 
ATOM      3  C3  IND d   1       1.985   0.654  -2.344  0.00  0.00    -0.031 A 
ATOM      4  C4  IND d   1       0.996   0.930   0.017  0.00  0.00     0.051 A 
ATOM      5  C5  IND d   1       0.303   0.252   0.980  0.00  0.00    -0.031 A 
ATOM      6  C6  IND d   1      -0.042  -1.076   0.832  0.00  0.00     0.015 A 
ATOM      7  C7  IND d   1       0.305  -1.782  -0.285  0.00  0.00    -0.016 A 
ATOM      8  C8  IND d   1       1.003  -1.095  -1.268  0.00  0.00    -0.047 A 
ATOM      9  C9  IND d   1       1.319   0.264  -1.142  0.00  0.00    -0.096 A 
ATOM     10  HN1 IND d   1       1.393  -2.305  -2.819  0.00  0.00     0.298 HD
ENDROOT
TORSDOF 0
ENDMDL
