MODEL 1
REMARK minimizedAffinity -4.15808964
REMARK minimizedRMSD -1
REMARK  0 active torsions:
REMARK  status: ('A' for Active; 'I' for Inactive)
ROOT
ATOM      1  N1  IND d   1       1.331   0.272   0.994  0.00  0.00    -0.196 N 
ATOM      2  C2  IND d   1       0.101  -0.009   1.521  0.00  0.00     0.054 A 
ATOM      3  C3  IND d   1      -0.783  -0.277   0.534  0.00  0.00    -0.031 A 
ATOM      4  C4  IND d   1      -0.405  -0.413  -2.008  0.00  0.00     0.051 A 
ATOM      5  C5  IND d   1       0.543  -0.200  -2.969  0.00  0.00    -0.031 A 
ATOM      6  C6  IND d   1       1.829   0.186  -2.652  0.00  0.00     0.015 A 
ATOM      7  C7  IND d   1       2.220   0.363  -1.355  0.00  0.00    -0.016 A 
ATOM      8  C8  IND d   1       1.258   0.155  -0.377  0.00  0.00    -0.047 A 
ATOM      9  C9  IND d   1      -0.061  -0.195  -0.695  0.00  0.00    -0.096 A 
ATOM     10  HN1 IND d   1       2.032   0.486   1.443  0.00  0.00     0.298 HD
ENDROOT
TORSDOF 0
ENDMDL
