MODEL 1
REMARK minimizedAffinity -4.22388697
REMARK minimizedRMSD -1
REMARK  0 active torsions:
REMARK  status: ('A' for Active; 'I' for Inactive)
ROOT
ATOM      1  N1  IND d   1      -1.584   0.073   0.495  0.00  0.00    -0.196 N 
ATOM      2  C2  IND d   1      -1.010   0.056   1.736  0.00  0.00     0.054 A 
ATOM      3  C3  IND d   1       0.335   0.155   1.633  0.00  0.00    -0.031 A 
ATOM      4  C4  IND d   1       1.797   0.460  -0.464  0.00  0.00     0.051 A 
ATOM      5  C5  IND d   1       1.729   0.497  -1.828  0.00  0.00    -0.031 A 
ATOM      6  C6  IND d   1       0.529   0.395  -2.502  0.00  0.00     0.015 A 
ATOM      7  C7  IND d   1      -0.655   0.264  -1.832  0.00  0.00    -0.016 A 
ATOM      8  C8  IND d   1      -0.589   0.219  -0.446  0.00  0.00    -0.047 A 
ATOM      9  C9  IND d   1       0.630   0.279   0.241  0.00  0.00    -0.096 A 
ATOM     10  HN1 IND d   1      -2.425   0.005   0.331  0.00  0.00     0.298 HD
ENDROOT
TORSDOF 0
ENDMDL
