MODEL 1
REMARK minimizedAffinity -3.02421355
REMARK minimizedRMSD -1
REMARK  0 active torsions:
REMARK  status: ('A' for Active; 'I' for Inactive)
ROOT
ATOM      1  N1  IND d   1       0.503  -0.626  -2.342  0.00  0.00    -0.196 N 
ATOM      2  C2  IND d   1       1.455   0.283  -2.709  0.00  0.00     0.054 A 
ATOM      3  C3  IND d   1       1.878   0.983  -1.632  0.00  0.00    -0.031 A 
ATOM      4  C4  IND d   1       1.216   0.732   0.843  0.00  0.00     0.051 A 
ATOM      5  C5  IND d   1       0.355   0.061   1.665  0.00  0.00    -0.031 A 
ATOM      6  C6  IND d   1      -0.516  -0.895   1.185  0.00  0.00     0.015 A 
ATOM      7  C7  IND d   1      -0.551  -1.224  -0.141  0.00  0.00    -0.016 A 
ATOM      8  C8  IND d   1       0.316  -0.540  -0.980  0.00  0.00    -0.047 A 
ATOM      9  C9  IND d   1       1.173   0.461  -0.504  0.00  0.00    -0.096 A 
ATOM     10  HN1 IND d   1       0.089  -1.161  -2.873  0.00  0.00     0.298 HD
ENDROOT
TORSDOF 0
ENDMDL
