MODEL 1
REMARK minimizedAffinity -4.33051252
REMARK minimizedRMSD -1
REMARK  0 active torsions:
REMARK  status: ('A' for Active; 'I' for Inactive)
ROOT
ATOM      1  N1  IND d   1       0.631  -2.417   0.396  0.00  0.00    -0.196 N 
ATOM      2  C2  IND d   1      -0.106  -1.596   1.202  0.00  0.00     0.054 A 
ATOM      3  C3  IND d   1       0.134  -0.300   0.899  0.00  0.00    -0.031 A 
ATOM      4  C4  IND d   1       1.619   0.699  -0.950  0.00  0.00     0.051 A 
ATOM      5  C5  IND d   1       2.518   0.347  -1.917  0.00  0.00    -0.031 A 
ATOM      6  C6  IND d   1       2.838  -0.971  -2.170  0.00  0.00     0.015 A 
ATOM      7  C7  IND d   1       2.261  -1.991  -1.469  0.00  0.00    -0.016 A 
ATOM      8  C8  IND d   1       1.353  -1.637  -0.482  0.00  0.00    -0.047 A 
ATOM      9  C9  IND d   1       1.056  -0.299  -0.192  0.00  0.00    -0.096 A 
ATOM     10  HN1 IND d   1       0.642  -3.276   0.430  0.00  0.00     0.298 HD
ENDROOT
TORSDOF 0
ENDMDL
