MODEL 1
REMARK minimizedAffinity -2.91427875
REMARK minimizedRMSD -1
REMARK  0 active torsions:
REMARK  status: ('A' for Active; 'I' for Inactive)
ROOT
ATOM      1  N1  IND d   1      -1.608  -0.243  -0.150  0.00  0.00    -0.196 N 
ATOM      2  C2  IND d   1      -1.288  -0.217   1.179  0.00  0.00     0.054 A 
ATOM      3  C3  IND d   1       0.020   0.082   1.342  0.00  0.00    -0.031 A 
ATOM      4  C4  IND d   1       1.797   0.667  -0.426  0.00  0.00     0.051 A 
ATOM      5  C5  IND d   1       1.990   0.739  -1.777  0.00  0.00    -0.031 A 
ATOM      6  C6  IND d   1       0.972   0.484  -2.673  0.00  0.00     0.015 A 
ATOM      7  C7  IND d   1      -0.285   0.158  -2.249  0.00  0.00    -0.016 A 
ATOM      8  C8  IND d   1      -0.483   0.078  -0.878  0.00  0.00    -0.047 A 
ATOM      9  C9  IND d   1       0.557   0.293   0.036  0.00  0.00    -0.096 A 
ATOM     10  HN1 IND d   1      -2.381  -0.429  -0.477  0.00  0.00     0.298 HD
ENDROOT
TORSDOF 0
ENDMDL
