MODEL 1
REMARK minimizedAffinity -3.8156817
REMARK minimizedRMSD -1
REMARK  0 active torsions:
REMARK  status: ('A' for Active; 'I' for Inactive)
ROOT
ATOM      1  N1  IND d   1       0.140  -2.475   0.094  0.00  0.00    -0.196 N 
ATOM      2  C2  IND d   1      -0.255  -1.793   1.211  0.00  0.00     0.054 A 
ATOM      3  C3  IND d   1      -0.042  -0.467   1.052  0.00  0.00    -0.031 A 
ATOM      4  C4  IND d   1       0.850   0.812  -0.996  0.00  0.00     0.051 A 
ATOM      5  C5  IND d   1       1.377   0.618  -2.242  0.00  0.00    -0.031 A 
ATOM      6  C6  IND d   1       1.519  -0.643  -2.785  0.00  0.00     0.015 A 
ATOM      7  C7  IND d   1       1.127  -1.760  -2.103  0.00  0.00    -0.016 A 
ATOM      8  C8  IND d   1       0.598  -1.567  -0.835  0.00  0.00    -0.047 A 
ATOM      9  C9  IND d   1       0.491  -0.293  -0.262  0.00  0.00    -0.096 A 
ATOM     10  HN1 IND d   1       0.108  -3.328  -0.010  0.00  0.00     0.298 HD
ENDROOT
TORSDOF 0
ENDMDL
