MODEL 1
REMARK minimizedAffinity -3.74672008
REMARK minimizedRMSD -1
REMARK  0 active torsions:
REMARK  status: ('A' for Active; 'I' for Inactive)
ROOT
ATOM      1  N1  IND d   1       0.050   0.788   0.921  0.00  0.00    -0.196 N 
ATOM      2  C2  IND d   1      -0.892  -0.174   1.157  0.00  0.00     0.054 A 
ATOM      3  C3  IND d   1      -0.903  -1.078   0.151  0.00  0.00    -0.031 A 
ATOM      4  C4  IND d   1       0.607  -1.230  -1.928  0.00  0.00     0.051 A 
ATOM      5  C5  IND d   1       1.591  -0.558  -2.596  0.00  0.00    -0.031 A 
ATOM      6  C6  IND d   1       2.126   0.620  -2.115  0.00  0.00     0.015 A 
ATOM      7  C7  IND d   1       1.701   1.166  -0.936  0.00  0.00    -0.016 A 
ATOM      8  C8  IND d   1       0.696   0.489  -0.259  0.00  0.00    -0.047 A 
ATOM      9  C9  IND d   1       0.120  -0.684  -0.764  0.00  0.00    -0.096 A 
ATOM     10  HN1 IND d   1       0.213   1.466   1.424  0.00  0.00     0.298 HD
ENDROOT
TORSDOF 0
ENDMDL
