MODEL 1
REMARK minimizedAffinity -3.21757269
REMARK minimizedRMSD -1
REMARK  0 active torsions:
REMARK  status: ('A' for Active; 'I' for Inactive)
ROOT
ATOM      1  N1  IND d   1       1.983   1.318  -1.069  0.00  0.00    -0.196 N 
ATOM      2  C2  IND d   1       1.135   1.550  -0.022  0.00  0.00     0.054 A 
ATOM      3  C3  IND d   1       0.299   0.501   0.147  0.00  0.00    -0.031 A 
ATOM      4  C4  IND d   1       0.214  -1.742  -1.113  0.00  0.00     0.051 A 
ATOM      5  C5  IND d   1       0.766  -2.404  -2.174  0.00  0.00    -0.031 A 
ATOM      6  C6  IND d   1       1.775  -1.848  -2.934  0.00  0.00     0.015 A 
ATOM      7  C7  IND d   1       2.279  -0.609  -2.654  0.00  0.00    -0.016 A 
ATOM      8  C8  IND d   1       1.715   0.068  -1.582  0.00  0.00    -0.047 A 
ATOM      9  C9  IND d   1       0.662  -0.473  -0.833  0.00  0.00    -0.096 A 
ATOM     10  HN1 IND d   1       2.583   1.862  -1.358  0.00  0.00     0.298 HD
ENDROOT
TORSDOF 0
ENDMDL
