MODEL 1
REMARK minimizedAffinity -3.71456075
REMARK minimizedRMSD -1
REMARK  0 active torsions:
REMARK  status: ('A' for Active; 'I' for Inactive)
ROOT
ATOM      1  N1  IND d   1       0.361   1.076  -1.354  0.00  0.00    -0.196 N 
ATOM      2  C2  IND d   1       0.916   0.574  -2.498  0.00  0.00     0.054 A 
ATOM      3  C3  IND d   1       1.091  -0.762  -2.389  0.00  0.00    -0.031 A 
ATOM      4  C4  IND d   1       0.445  -2.344  -0.464  0.00  0.00     0.051 A 
ATOM      5  C5  IND d   1      -0.055  -2.346   0.808  0.00  0.00    -0.031 A 
ATOM      6  C6  IND d   1      -0.452  -1.183   1.436  0.00  0.00     0.015 A 
ATOM      7  C7  IND d   1      -0.375   0.028   0.808  0.00  0.00    -0.016 A 
ATOM      8  C8  IND d   1       0.139   0.034  -0.481  0.00  0.00    -0.047 A 
ATOM      9  C9  IND d   1       0.584  -1.137  -1.107  0.00  0.00    -0.096 A 
ATOM     10  HN1 IND d   1       0.182   1.904  -1.204  0.00  0.00     0.298 HD
ENDROOT
TORSDOF 0
ENDMDL
