MODEL 1
REMARK minimizedAffinity -3.69532967
REMARK minimizedRMSD -1
REMARK  0 active torsions:
REMARK  status: ('A' for Active; 'I' for Inactive)
ROOT
ATOM      1  N1  IND d   1      -0.393  -1.679   0.523  0.00  0.00    -0.196 N 
ATOM      2  C2  IND d   1      -0.715  -0.356   0.647  0.00  0.00     0.054 A 
ATOM      3  C3  IND d   1      -0.250   0.343  -0.413  0.00  0.00    -0.031 A 
ATOM      4  C4  IND d   1       0.976  -0.498  -2.515  0.00  0.00     0.051 A 
ATOM      5  C5  IND d   1       1.526  -1.622  -3.064  0.00  0.00    -0.031 A 
ATOM      6  C6  IND d   1       1.460  -2.848  -2.434  0.00  0.00     0.015 A 
ATOM      7  C7  IND d   1       0.830  -2.998  -1.232  0.00  0.00    -0.016 A 
ATOM      8  C8  IND d   1       0.277  -1.857  -0.668  0.00  0.00    -0.047 A 
ATOM      9  C9  IND d   1       0.377  -0.602  -1.282  0.00  0.00    -0.096 A 
ATOM     10  HN1 IND d   1      -0.578  -2.296   1.093  0.00  0.00     0.298 HD
ENDROOT
TORSDOF 0
ENDMDL
