MODEL 1
REMARK minimizedAffinity -4.45280838
REMARK minimizedRMSD -1
REMARK  0 active torsions:
REMARK  status: ('A' for Active; 'I' for Inactive)
ROOT
ATOM      1  N1  IND d   1      -0.695  -0.954   0.640  0.00  0.00    -0.196 N 
ATOM      2  C2  IND d   1      -0.796   0.404   0.758  0.00  0.00     0.054 A 
ATOM      3  C3  IND d   1       0.018   1.016  -0.131  0.00  0.00    -0.031 A 
ATOM      4  C4  IND d   1       1.528  -0.015  -1.944  0.00  0.00     0.051 A 
ATOM      5  C5  IND d   1       1.981  -1.216  -2.414  0.00  0.00    -0.031 A 
ATOM      6  C6  IND d   1       1.554  -2.415  -1.881  0.00  0.00     0.015 A 
ATOM      7  C7  IND d   1       0.646  -2.458  -0.861  0.00  0.00    -0.016 A 
ATOM      8  C8  IND d   1       0.189  -1.241  -0.377  0.00  0.00    -0.047 A 
ATOM      9  C9  IND d   1       0.651  -0.020  -0.885  0.00  0.00    -0.096 A 
ATOM     10  HN1 IND d   1      -1.114  -1.532   1.120  0.00  0.00     0.298 HD
ENDROOT
TORSDOF 0
ENDMDL
