MODEL 1
REMARK minimizedAffinity 4.41808844
REMARK minimizedRMSD -1
REMARK  1 active torsions:
REMARK  status: ('A' for Active; 'I' for Inactive)
REMARK    1  A    between atoms: N_2  and  C1_3 
ROOT
ATOM      1  C1  UNL d   1       1.283  -0.515   0.812  0.00  0.00     0.143 A 
ATOM      2  C2  UNL d   1       2.597  -0.789   1.206  0.00  0.00    -0.057 A 
ATOM      3  C3  UNL d   1       3.687  -0.397   0.419  0.00  0.00     0.033 A 
ATOM      4  C4  UNL d   1       3.480   0.251  -0.794  0.00  0.00    -0.042 A 
ATOM      5  C5  UNL d   1       2.182   0.511  -1.217  0.00  0.00     0.033 A 
ATOM      6  C6  UNL d   1       1.097   0.124  -0.424  0.00  0.00    -0.057 A 
ENDROOT
BRANCH   1   7
ATOM      7  N   UNL d   1       0.155  -0.965   1.502  0.00  0.00    -0.732 N 
ATOM      8  C   UNL d   1      -0.488  -2.208   1.132  0.00  0.00     0.284 C 
ATOM      9  H3  UNL d   1       0.229  -0.819   2.506  0.00  0.00     0.395 HD
ENDBRANCH   1   7
TORSDOF 1
ENDMDL
