MODEL 1
REMARK minimizedAffinity 12.2443209
REMARK minimizedRMSD -1
REMARK  1 active torsions:
REMARK  status: ('A' for Active; 'I' for Inactive)
REMARK    1  A    between atoms: N_2  and  C1_3 
ROOT
ATOM      1  C1  UNL d   1       1.179  -3.110  -1.756  0.00  0.00     0.143 A 
ATOM      2  C2  UNL d   1       0.655  -2.214  -2.694  0.00  0.00    -0.057 A 
ATOM      3  C3  UNL d   1       0.434  -0.870  -2.370  0.00  0.00     0.033 A 
ATOM      4  C4  UNL d   1       0.709  -0.403  -1.089  0.00  0.00    -0.042 A 
ATOM      5  C5  UNL d   1       1.207  -1.281  -0.133  0.00  0.00     0.033 A 
ATOM      6  C6  UNL d   1       1.431  -2.621  -0.464  0.00  0.00    -0.057 A 
ENDROOT
BRANCH   1   7
ATOM      7  N   UNL d   1       1.328  -4.480  -1.987  0.00  0.00    -0.732 N 
ATOM      8  C   UNL d   1       1.958  -4.958  -3.199  0.00  0.00     0.284 C 
ATOM      9  H3  UNL d   1       1.600  -4.988  -1.149  0.00  0.00     0.395 HD
ENDBRANCH   1   7
TORSDOF 1
ENDMDL
