MODEL 1
REMARK minimizedAffinity -3.36339521
REMARK minimizedRMSD -1
REMARK  1 active torsions:
REMARK  status: ('A' for Active; 'I' for Inactive)
REMARK    1  A    between atoms: N_2  and  C1_3 
ROOT
ATOM      1  C1  UNL d   1      -0.076  -0.875   0.461  0.00  0.00     0.143 A 
ATOM      2  C2  UNL d   1      -0.351   0.450   0.815  0.00  0.00    -0.057 A 
ATOM      3  C3  UNL d   1      -1.455   1.129   0.284  0.00  0.00     0.033 A 
ATOM      4  C4  UNL d   1      -2.288   0.502  -0.637  0.00  0.00    -0.042 A 
ATOM      5  C5  UNL d   1      -2.019  -0.806  -1.022  0.00  0.00     0.033 A 
ATOM      6  C6  UNL d   1      -0.919  -1.482  -0.483  0.00  0.00    -0.057 A 
ENDROOT
BRANCH   1   7
ATOM      7  N   UNL d   1       1.061  -1.572   0.879  0.00  0.00    -0.732 N 
ATOM      8  C   UNL d   1       1.065  -3.018   0.921  0.00  0.00     0.284 C 
ATOM      9  H3  UNL d   1       1.921  -1.164   0.519  0.00  0.00     0.395 HD
ENDBRANCH   1   7
TORSDOF 1
ENDMDL
