MODEL 1
REMARK minimizedAffinity 6.62893677
REMARK minimizedRMSD -1
REMARK  1 active torsions:
REMARK  status: ('A' for Active; 'I' for Inactive)
REMARK    1  A    between atoms: N_2  and  C1_3 
ROOT
ATOM      1  C1  UNL d   1      -1.080  -3.666  -3.298  0.00  0.00     0.143 A 
ATOM      2  C2  UNL d   1      -1.945  -3.372  -2.239  0.00  0.00    -0.057 A 
ATOM      3  C3  UNL d   1      -2.700  -4.375  -1.618  0.00  0.00     0.033 A 
ATOM      4  C4  UNL d   1      -2.624  -5.689  -2.067  0.00  0.00    -0.042 A 
ATOM      5  C5  UNL d   1      -1.789  -6.000  -3.135  0.00  0.00     0.033 A 
ATOM      6  C6  UNL d   1      -1.033  -4.995  -3.746  0.00  0.00    -0.057 A 
ENDROOT
BRANCH   1   7
ATOM      7  N   UNL d   1      -0.378  -2.697  -4.021  0.00  0.00    -0.732 N 
ATOM      8  C   UNL d   1       0.099  -1.495  -3.372  0.00  0.00     0.284 C 
ATOM      9  H3  UNL d   1       0.283  -3.106  -4.677  0.00  0.00     0.395 HD
ENDBRANCH   1   7
TORSDOF 1
ENDMDL
