MODEL 1
REMARK minimizedAffinity 0.736287415
REMARK minimizedRMSD -1
REMARK  1 active torsions:
REMARK  status: ('A' for Active; 'I' for Inactive)
REMARK    1  A    between atoms: N_2  and  C1_3 
ROOT
ATOM      1  C1  UNL d   1       2.625  -1.323   0.543  0.00  0.00     0.143 A 
ATOM      2  C2  UNL d   1       2.366  -2.666   0.246  0.00  0.00    -0.057 A 
ATOM      3  C3  UNL d   1       1.056  -3.150   0.157  0.00  0.00     0.033 A 
ATOM      4  C4  UNL d   1      -0.023  -2.304   0.392  0.00  0.00    -0.042 A 
ATOM      5  C5  UNL d   1       0.211  -0.972   0.713  0.00  0.00     0.033 A 
ATOM      6  C6  UNL d   1       1.522  -0.492   0.795  0.00  0.00    -0.057 A 
ENDROOT
BRANCH   1   7
ATOM      7  N   UNL d   1       3.906  -0.804   0.743  0.00  0.00    -0.732 N 
ATOM      8  C   UNL d   1       4.239  -0.117   1.973  0.00  0.00     0.284 C 
ATOM      9  H3  UNL d   1       4.635  -1.427   0.404  0.00  0.00     0.395 HD
ENDBRANCH   1   7
TORSDOF 1
ENDMDL
