MODEL 1
REMARK minimizedAffinity 4.75953436
REMARK minimizedRMSD -1
REMARK  1 active torsions:
REMARK  status: ('A' for Active; 'I' for Inactive)
REMARK    1  A    between atoms: N_2  and  C1_3 
ROOT
ATOM      1  C1  UNL d   1      -0.877   4.095  -4.181  0.00  0.00     0.143 A 
ATOM      2  C2  UNL d   1       0.121   4.702  -3.412  0.00  0.00    -0.057 A 
ATOM      3  C3  UNL d   1       0.336   4.333  -2.078  0.00  0.00     0.033 A 
ATOM      4  C4  UNL d   1      -0.465   3.366  -1.480  0.00  0.00    -0.042 A 
ATOM      5  C5  UNL d   1      -1.480   2.767  -2.218  0.00  0.00     0.033 A 
ATOM      6  C6  UNL d   1      -1.686   3.136  -3.551  0.00  0.00    -0.057 A 
ENDROOT
BRANCH   1   7
ATOM      7  N   UNL d   1      -1.205   4.488  -5.481  0.00  0.00    -0.732 N 
ATOM      8  C   UNL d   1      -2.587   4.576  -5.898  0.00  0.00     0.284 C 
ATOM      9  H3  UNL d   1      -0.620   5.251  -5.814  0.00  0.00     0.395 HD
ENDBRANCH   1   7
TORSDOF 1
ENDMDL
