MODEL 1
REMARK minimizedAffinity 5.07598734
REMARK minimizedRMSD -1
REMARK  1 active torsions:
REMARK  status: ('A' for Active; 'I' for Inactive)
REMARK    1  A    between atoms: N_2  and  C1_3 
ROOT
ATOM      1  C1  UNL d   1       0.114   1.591  -0.209  0.00  0.00     0.143 A 
ATOM      2  C2  UNL d   1      -0.877   2.444  -0.706  0.00  0.00    -0.057 A 
ATOM      3  C3  UNL d   1      -0.549   3.588  -1.444  0.00  0.00     0.033 A 
ATOM      4  C4  UNL d   1       0.783   3.915  -1.674  0.00  0.00    -0.042 A 
ATOM      5  C5  UNL d   1       1.786   3.095  -1.169  0.00  0.00     0.033 A 
ATOM      6  C6  UNL d   1       1.451   1.951  -0.438  0.00  0.00    -0.057 A 
ENDROOT
BRANCH   1   7
ATOM      7  N   UNL d   1      -0.145   0.494   0.615  0.00  0.00    -0.732 N 
ATOM      8  C   UNL d   1      -0.254  -0.837   0.058  0.00  0.00     0.284 C 
ATOM      9  H3  UNL d   1       0.368   0.537   1.492  0.00  0.00     0.395 HD
ENDBRANCH   1   7
TORSDOF 1
ENDMDL
