MODEL 1
REMARK minimizedAffinity 7.55645418
REMARK minimizedRMSD -1
REMARK  1 active torsions:
REMARK  status: ('A' for Active; 'I' for Inactive)
REMARK    1  A    between atoms: N_2  and  C1_3 
ROOT
ATOM      1  C1  UNL d   1       1.018  -0.750   1.932  0.00  0.00     0.143 A 
ATOM      2  C2  UNL d   1       1.126  -2.099   1.578  0.00  0.00    -0.057 A 
ATOM      3  C3  UNL d   1       0.000  -2.845   1.206  0.00  0.00     0.033 A 
ATOM      4  C4  UNL d   1      -1.262  -2.259   1.211  0.00  0.00    -0.042 A 
ATOM      5  C5  UNL d   1      -1.396  -0.926   1.583  0.00  0.00     0.033 A 
ATOM      6  C6  UNL d   1      -0.267  -0.186   1.947  0.00  0.00    -0.057 A 
ENDROOT
BRANCH   1   7
ATOM      7  N   UNL d   1       2.085   0.017   2.405  0.00  0.00    -0.732 N 
ATOM      8  C   UNL d   1       3.452  -0.380   2.144  0.00  0.00     0.284 C 
ATOM      9  H3  UNL d   1       1.917   1.016   2.311  0.00  0.00     0.395 HD
ENDBRANCH   1   7
TORSDOF 1
ENDMDL
