MODEL 1
REMARK minimizedAffinity -1.82155919
REMARK minimizedRMSD -1
REMARK  1 active torsions:
REMARK  status: ('A' for Active; 'I' for Inactive)
REMARK    1  A    between atoms: N_2  and  C1_3 
ROOT
ATOM      1  C1  UNL d   1      -4.413  -5.254   0.591  0.00  0.00     0.143 A 
ATOM      2  C2  UNL d   1      -3.468  -4.558  -0.170  0.00  0.00    -0.057 A 
ATOM      3  C3  UNL d   1      -3.526  -4.550  -1.569  0.00  0.00     0.033 A 
ATOM      4  C4  UNL d   1      -4.516  -5.266  -2.234  0.00  0.00    -0.042 A 
ATOM      5  C5  UNL d   1      -5.450  -5.986  -1.498  0.00  0.00     0.033 A 
ATOM      6  C6  UNL d   1      -5.391  -5.984  -0.101  0.00  0.00    -0.057 A 
ENDROOT
BRANCH   1   7
ATOM      7  N   UNL d   1      -4.351  -5.381   1.981  0.00  0.00    -0.732 N 
ATOM      8  C   UNL d   1      -5.436  -5.999   2.714  0.00  0.00     0.284 C 
ATOM      9  H3  UNL d   1      -3.425  -5.648   2.306  0.00  0.00     0.395 HD
ENDBRANCH   1   7
TORSDOF 1
ENDMDL
