MODEL 1
REMARK minimizedAffinity -4.41944265
REMARK minimizedRMSD -1
REMARK  0 active torsions:
REMARK  status: ('A' for Active; 'I' for Inactive)
ROOT
ATOM      1  C2' OXE d   1       3.382  -1.041   0.670  0.00  0.00     0.078 C 
ATOM      2  C1' OXE d   1       1.956   1.350   0.310  0.00  0.00     0.078 C 
ATOM      3  C1  OXE d   1       1.250   0.055  -0.008  0.00  0.00    -0.078 A 
ATOM      4  C2  OXE d   1       1.971  -1.107   0.126  0.00  0.00    -0.078 A 
ATOM      5  C3  OXE d   1       1.351  -2.333  -0.101  0.00  0.00     0.003 A 
ATOM      6  C4  OXE d   1       0.049  -2.384  -0.614  0.00  0.00    -0.002 A 
ATOM      7  C5  OXE d   1      -0.689  -1.210  -0.796  0.00  0.00    -0.002 A 
ATOM      8  C6  OXE d   1      -0.119   0.013  -0.459  0.00  0.00     0.003 A 
ENDROOT
TORSDOF 0
ENDMDL
