MODEL 1
REMARK minimizedAffinity -5.25950575
REMARK minimizedRMSD -1
REMARK  0 active torsions:
REMARK  status: ('A' for Active; 'I' for Inactive)
ROOT
ATOM      1  C2' OXE d   1      -0.396   0.809  -0.472  0.00  0.00     0.078 C 
ATOM      2  C1' OXE d   1       2.027   2.038   0.236  0.00  0.00     0.078 C 
ATOM      3  C1  OXE d   1       1.945   0.535   0.336  0.00  0.00    -0.078 A 
ATOM      4  C2  OXE d   1       0.741  -0.054   0.033  0.00  0.00    -0.078 A 
ATOM      5  C3  OXE d   1       0.627  -1.441   0.056  0.00  0.00     0.003 A 
ATOM      6  C4  OXE d   1       1.680  -2.231   0.533  0.00  0.00    -0.002 A 
ATOM      7  C5  OXE d   1       2.902  -1.647   0.885  0.00  0.00    -0.002 A 
ATOM      8  C6  OXE d   1       3.064  -0.273   0.752  0.00  0.00     0.003 A 
ENDROOT
TORSDOF 0
ENDMDL
