MODEL 1
REMARK minimizedAffinity -4.78590059
REMARK minimizedRMSD -1
REMARK  0 active torsions:
REMARK  status: ('A' for Active; 'I' for Inactive)
ROOT
ATOM      1  C2' OXE d   1       0.688  -2.223  -0.110  0.00  0.00     0.078 C 
ATOM      2  C1' OXE d   1      -0.431   0.341   0.123  0.00  0.00     0.078 C 
ATOM      3  C1  OXE d   1       1.071   0.234   0.027  0.00  0.00    -0.078 A 
ATOM      4  C2  OXE d   1       1.612  -1.027  -0.040  0.00  0.00    -0.078 A 
ATOM      5  C3  OXE d   1       2.988  -1.180  -0.185  0.00  0.00     0.003 A 
ATOM      6  C4  OXE d   1       3.837  -0.069  -0.109  0.00  0.00    -0.002 A 
ATOM      7  C5  OXE d   1       3.308   1.222  -0.001  0.00  0.00    -0.002 A 
ATOM      8  C6  OXE d   1       1.929   1.394   0.025  0.00  0.00     0.003 A 
ENDROOT
TORSDOF 0
ENDMDL
