MODEL 1
REMARK minimizedAffinity -3.61274338
REMARK minimizedRMSD -1
REMARK  0 active torsions:
REMARK  status: ('A' for Active; 'I' for Inactive)
ROOT
ATOM      1  C2' OXE d   1       1.064  -1.793  -0.195  0.00  0.00     0.078 C 
ATOM      2  C1' OXE d   1      -0.208   0.680   0.190  0.00  0.00     0.078 C 
ATOM      3  C1  OXE d   1       1.300   0.663   0.146  0.00  0.00    -0.078 A 
ATOM      4  C2  OXE d   1       1.915  -0.557   0.004  0.00  0.00    -0.078 A 
ATOM      5  C3  OXE d   1       3.301  -0.623  -0.097  0.00  0.00     0.003 A 
ATOM      6  C4  OXE d   1       4.081   0.523   0.098  0.00  0.00    -0.002 A 
ATOM      7  C5  OXE d   1       3.476   1.771   0.284  0.00  0.00    -0.002 A 
ATOM      8  C6  OXE d   1       2.089   1.864   0.268  0.00  0.00     0.003 A 
ENDROOT
TORSDOF 0
ENDMDL
