MODEL 1
REMARK minimizedAffinity -5.1983676
REMARK minimizedRMSD -1
REMARK  0 active torsions:
REMARK  status: ('A' for Active; 'I' for Inactive)
ROOT
ATOM      1  C2' OXE d   1      -0.537  -2.510  -1.512  0.00  0.00     0.078 C 
ATOM      2  C1' OXE d   1      -1.247  -0.052  -0.357  0.00  0.00     0.078 C 
ATOM      3  C1  OXE d   1       0.143  -0.577  -0.096  0.00  0.00    -0.078 A 
ATOM      4  C2  OXE d   1       0.466  -1.802  -0.627  0.00  0.00    -0.078 A 
ATOM      5  C3  OXE d   1       1.753  -2.307  -0.462  0.00  0.00     0.003 A 
ATOM      6  C4  OXE d   1       2.671  -1.650   0.366  0.00  0.00    -0.002 A 
ATOM      7  C5  OXE d   1       2.348  -0.420   0.949  0.00  0.00    -0.002 A 
ATOM      8  C6  OXE d   1       1.106   0.150   0.693  0.00  0.00     0.003 A 
ENDROOT
TORSDOF 0
ENDMDL
