MODEL 1
REMARK minimizedAffinity -4.51177263
REMARK minimizedRMSD -1
REMARK  0 active torsions:
REMARK  status: ('A' for Active; 'I' for Inactive)
ROOT
ATOM      1  C2' OXE d   1       0.008  -1.910  -0.499  0.00  0.00     0.078 C 
ATOM      2  C1' OXE d   1      -0.629   0.809  -0.209  0.00  0.00     0.078 C 
ATOM      3  C1  OXE d   1       0.828   0.437  -0.332  0.00  0.00    -0.078 A 
ATOM      4  C2  OXE d   1       1.133  -0.900  -0.427  0.00  0.00    -0.078 A 
ATOM      5  C3  OXE d   1       2.457  -1.294  -0.597  0.00  0.00     0.003 A 
ATOM      6  C4  OXE d   1       3.492  -0.354  -0.519  0.00  0.00    -0.002 A 
ATOM      7  C5  OXE d   1       3.205   1.008  -0.384  0.00  0.00    -0.002 A 
ATOM      8  C6  OXE d   1       1.879   1.424  -0.332  0.00  0.00     0.003 A 
ENDROOT
TORSDOF 0
ENDMDL
