MODEL 1
REMARK minimizedAffinity -3.7875278
REMARK minimizedRMSD -1
REMARK  0 active torsions:
REMARK  status: ('A' for Active; 'I' for Inactive)
ROOT
ATOM      1  C2' OXE d   1      -0.245  -0.183   0.991  0.00  0.00     0.078 C 
ATOM      2  C1' OXE d   1      -1.363   0.784  -1.395  0.00  0.00     0.078 C 
ATOM      3  C1  OXE d   1      -2.229   0.789  -0.160  0.00  0.00    -0.078 A 
ATOM      4  C2  OXE d   1      -1.689   0.271   0.993  0.00  0.00    -0.078 A 
ATOM      5  C3  OXE d   1      -2.425   0.303   2.174  0.00  0.00     0.003 A 
ATOM      6  C4  OXE d   1      -3.763   0.715   2.164  0.00  0.00    -0.002 A 
ATOM      7  C5  OXE d   1      -4.345   1.209   0.992  0.00  0.00    -0.002 A 
ATOM      8  C6  OXE d   1      -3.580   1.293  -0.166  0.00  0.00     0.003 A 
ENDROOT
TORSDOF 0
ENDMDL
