MODEL 1
REMARK minimizedAffinity -0.791504264
REMARK minimizedRMSD -1
REMARK  1 active torsions:
REMARK  status: ('A' for Active; 'I' for Inactive)
REMARK    1  A    between atoms: C1_2  and  C2_3 
ROOT
ATOM      1  C2  UNL d   1      -2.459  -0.018   2.014  0.00  0.00    -0.077 A 
ATOM      2  C3  UNL d   1      -2.324   1.092   1.168  0.00  0.00     0.002 A 
ATOM      3  C4  UNL d   1      -3.115   1.208   0.024  0.00  0.00     0.002 A 
ATOM      4  C5  UNL d   1      -4.050   0.221  -0.282  0.00  0.00    -0.004 A 
ATOM      5  C6  UNL d   1      -4.190  -0.887   0.552  0.00  0.00     0.002 A 
ATOM      6  C7  UNL d   1      -3.400  -1.006   1.695  0.00  0.00     0.002 A 
ENDROOT
BRANCH   1   7
ATOM      7  C1  UNL d   1      -1.641  -0.121   3.275  0.00  0.00     0.055 C 
ATOM      8  C   UNL d   1      -2.531  -0.239   4.504  0.00  0.00     0.019 C 
ENDBRANCH   1   7
TORSDOF 1
ENDMDL
