MODEL 1
REMARK minimizedAffinity 0.0636647046
REMARK minimizedRMSD -1
REMARK  1 active torsions:
REMARK  status: ('A' for Active; 'I' for Inactive)
REMARK    1  A    between atoms: C1_2  and  C2_3 
ROOT
ATOM      1  C2  UNL d   1      -4.267  -1.385   1.560  0.00  0.00    -0.077 A 
ATOM      2  C3  UNL d   1      -3.158  -1.575   0.724  0.00  0.00     0.002 A 
ATOM      3  C4  UNL d   1      -1.883  -1.192   1.144  0.00  0.00     0.002 A 
ATOM      4  C5  UNL d   1      -1.704  -0.620   2.402  0.00  0.00    -0.004 A 
ATOM      5  C6  UNL d   1      -2.801  -0.425   3.240  0.00  0.00     0.002 A 
ATOM      6  C7  UNL d   1      -4.077  -0.806   2.821  0.00  0.00     0.002 A 
ENDROOT
BRANCH   1   7
ATOM      7  C1  UNL d   1      -5.636  -1.842   1.129  0.00  0.00     0.055 C 
ATOM      8  C   UNL d   1      -5.998  -1.290  -0.242  0.00  0.00     0.019 C 
ENDBRANCH   1   7
TORSDOF 1
ENDMDL
