MODEL 1
REMARK minimizedAffinity -5.18436098
REMARK minimizedRMSD -1
REMARK  1 active torsions:
REMARK  status: ('A' for Active; 'I' for Inactive)
REMARK    1  A    between atoms: C1_2  and  C2_3 
ROOT
ATOM      1  C2  UNL d   1       2.565  -0.045  -4.087  0.00  0.00    -0.077 A 
ATOM      2  C3  UNL d   1       2.999   0.701  -5.192  0.00  0.00     0.002 A 
ATOM      3  C4  UNL d   1       4.289   0.530  -5.697  0.00  0.00     0.002 A 
ATOM      4  C5  UNL d   1       5.154  -0.390  -5.107  0.00  0.00    -0.004 A 
ATOM      5  C6  UNL d   1       4.732  -1.135  -4.006  0.00  0.00     0.002 A 
ATOM      6  C7  UNL d   1       3.443  -0.964  -3.499  0.00  0.00     0.002 A 
ENDROOT
BRANCH   1   7
ATOM      7  C1  UNL d   1       1.157   0.103  -3.572  0.00  0.00     0.055 C 
ATOM      8  C   UNL d   1       0.988   1.395  -2.785  0.00  0.00     0.019 C 
ENDBRANCH   1   7
TORSDOF 1
ENDMDL
