MODEL 1
REMARK minimizedAffinity -0.0565714091
REMARK minimizedRMSD -1
REMARK  1 active torsions:
REMARK  status: ('A' for Active; 'I' for Inactive)
REMARK    1  A    between atoms: C1_2  and  C2_3 
ROOT
ATOM      1  C2  UNL d   1       4.993   1.174   3.585  0.00  0.00    -0.077 A 
ATOM      2  C3  UNL d   1       4.168   0.121   3.168  0.00  0.00     0.002 A 
ATOM      3  C4  UNL d   1       4.259  -1.132   3.776  0.00  0.00     0.002 A 
ATOM      4  C5  UNL d   1       5.172  -1.343   4.807  0.00  0.00    -0.004 A 
ATOM      5  C6  UNL d   1       5.999  -0.303   5.228  0.00  0.00     0.002 A 
ATOM      6  C7  UNL d   1       5.910   0.951   4.621  0.00  0.00     0.002 A 
ENDROOT
BRANCH   1   7
ATOM      7  C1  UNL d   1       4.862   2.540   2.964  0.00  0.00     0.055 C 
ATOM      8  C   UNL d   1       3.756   2.569   1.919  0.00  0.00     0.019 C 
ENDBRANCH   1   7
TORSDOF 1
ENDMDL
