MODEL 1
REMARK minimizedAffinity -2.46584129
REMARK minimizedRMSD -1
REMARK  1 active torsions:
REMARK  status: ('A' for Active; 'I' for Inactive)
REMARK    1  A    between atoms: C1_2  and  C2_3 
ROOT
ATOM      1  C2  UNL d   1      -2.706   0.769   1.141  0.00  0.00    -0.077 A 
ATOM      2  C3  UNL d   1      -3.378   1.274   2.264  0.00  0.00     0.002 A 
ATOM      3  C4  UNL d   1      -3.624   0.453   3.367  0.00  0.00     0.002 A 
ATOM      4  C5  UNL d   1      -3.198  -0.873   3.359  0.00  0.00    -0.004 A 
ATOM      5  C6  UNL d   1      -2.531  -1.384   2.247  0.00  0.00     0.002 A 
ATOM      6  C7  UNL d   1      -2.286  -0.567   1.143  0.00  0.00     0.002 A 
ENDROOT
BRANCH   1   7
ATOM      7  C1  UNL d   1      -2.397   1.666  -0.029  0.00  0.00     0.055 C 
ATOM      8  C   UNL d   1      -3.569   2.581  -0.351  0.00  0.00     0.019 C 
ENDBRANCH   1   7
TORSDOF 1
ENDMDL
