MODEL 1
REMARK minimizedAffinity 4.50026941
REMARK minimizedRMSD -1
REMARK  1 active torsions:
REMARK  status: ('A' for Active; 'I' for Inactive)
REMARK    1  A    between atoms: C1_2  and  C2_3 
ROOT
ATOM      1  C2  UNL d   1      -3.487  -0.139   1.582  0.00  0.00    -0.077 A 
ATOM      2  C3  UNL d   1      -2.620   0.469   2.501  0.00  0.00     0.002 A 
ATOM      3  C4  UNL d   1      -2.700   0.157   3.860  0.00  0.00     0.002 A 
ATOM      4  C5  UNL d   1      -3.641  -0.767   4.310  0.00  0.00    -0.004 A 
ATOM      5  C6  UNL d   1      -4.509  -1.375   3.403  0.00  0.00     0.002 A 
ATOM      6  C7  UNL d   1      -4.431  -1.063   2.045  0.00  0.00     0.002 A 
ENDROOT
BRANCH   1   7
ATOM      7  C1  UNL d   1      -3.370   0.160   0.110  0.00  0.00     0.055 C 
ATOM      8  C   UNL d   1      -2.810   1.555  -0.129  0.00  0.00     0.019 C 
ENDBRANCH   1   7
TORSDOF 1
ENDMDL
