MODEL 1
REMARK minimizedAffinity 5.57723427
REMARK minimizedRMSD -1
REMARK  1 active torsions:
REMARK  status: ('A' for Active; 'I' for Inactive)
REMARK    1  A    between atoms: C1_2  and  C2_3 
ROOT
ATOM      1  C2  UNL d   1      -2.876   0.734   1.352  0.00  0.00    -0.077 A 
ATOM      2  C3  UNL d   1      -2.677   1.489   2.517  0.00  0.00     0.002 A 
ATOM      3  C4  UNL d   1      -2.870   0.913   3.774  0.00  0.00     0.002 A 
ATOM      4  C5  UNL d   1      -3.259  -0.420   3.878  0.00  0.00    -0.004 A 
ATOM      5  C6  UNL d   1      -3.461  -1.179   2.726  0.00  0.00     0.002 A 
ATOM      6  C7  UNL d   1      -3.270  -0.605   1.469  0.00  0.00     0.002 A 
ENDROOT
BRANCH   1   7
ATOM      7  C1  UNL d   1      -2.621   1.340  -0.003  0.00  0.00     0.055 C 
ATOM      8  C   UNL d   1      -1.938   0.347  -0.933  0.00  0.00     0.019 C 
ENDBRANCH   1   7
TORSDOF 1
ENDMDL
