MODEL 1
REMARK minimizedAffinity 9.04939461
REMARK minimizedRMSD -1
REMARK  1 active torsions:
REMARK  status: ('A' for Active; 'I' for Inactive)
REMARK    1  A    between atoms: C1_2  and  C2_3 
ROOT
ATOM      1  C2  UNL d   1       4.495   0.248   2.628  0.00  0.00    -0.077 A 
ATOM      2  C3  UNL d   1       3.786   1.439   2.421  0.00  0.00     0.002 A 
ATOM      3  C4  UNL d   1       4.181   2.616   3.061  0.00  0.00     0.002 A 
ATOM      4  C5  UNL d   1       5.287   2.613   3.908  0.00  0.00    -0.004 A 
ATOM      5  C6  UNL d   1       5.998   1.433   4.121  0.00  0.00     0.002 A 
ATOM      6  C7  UNL d   1       5.604   0.255   3.484  0.00  0.00     0.002 A 
ENDROOT
BRANCH   1   7
ATOM      7  C1  UNL d   1       4.101  -1.011   1.900  0.00  0.00     0.055 C 
ATOM      8  C   UNL d   1       3.305  -1.945   2.801  0.00  0.00     0.019 C 
ENDBRANCH   1   7
TORSDOF 1
ENDMDL
