MODEL 1
REMARK minimizedAffinity -3.56136942
REMARK minimizedRMSD -1
REMARK  1 active torsions:
REMARK  status: ('A' for Active; 'I' for Inactive)
REMARK    1  A    between atoms: C1_2  and  C2_3 
ROOT
ATOM      1  C2  UNL d   1      -2.639  -0.780   1.336  0.00  0.00    -0.077 A 
ATOM      2  C3  UNL d   1      -2.176   0.517   1.075  0.00  0.00     0.002 A 
ATOM      3  C4  UNL d   1      -2.270   1.510   2.052  0.00  0.00     0.002 A 
ATOM      4  C5  UNL d   1      -2.823   1.215   3.297  0.00  0.00    -0.004 A 
ATOM      5  C6  UNL d   1      -3.288  -0.071   3.565  0.00  0.00     0.002 A 
ATOM      6  C7  UNL d   1      -3.196  -1.065   2.589  0.00  0.00     0.002 A 
ENDROOT
BRANCH   1   7
ATOM      7  C1  UNL d   1      -2.494  -1.865   0.301  0.00  0.00     0.055 C 
ATOM      8  C   UNL d   1      -1.037  -2.263   0.117  0.00  0.00     0.019 C 
ENDBRANCH   1   7
TORSDOF 1
ENDMDL
