MODEL 1
REMARK minimizedAffinity 0.414118767
REMARK minimizedRMSD -1
REMARK  1 active torsions:
REMARK  status: ('A' for Active; 'I' for Inactive)
REMARK    1  A    between atoms: C1_2  and  C2_3 
ROOT
ATOM      1  C2  UNL d   1      -2.919   0.526   2.654  0.00  0.00    -0.077 A 
ATOM      2  C3  UNL d   1      -2.350   0.791   1.400  0.00  0.00     0.002 A 
ATOM      3  C4  UNL d   1      -2.940   0.293   0.237  0.00  0.00     0.002 A 
ATOM      4  C5  UNL d   1      -4.103  -0.470   0.316  0.00  0.00    -0.004 A 
ATOM      5  C6  UNL d   1      -4.675  -0.741   1.558  0.00  0.00     0.002 A 
ATOM      6  C7  UNL d   1      -4.086  -0.245   2.722  0.00  0.00     0.002 A 
ENDROOT
BRANCH   1   7
ATOM      7  C1  UNL d   1      -2.312   1.104   3.905  0.00  0.00     0.055 C 
ATOM      8  C   UNL d   1      -3.114   2.294   4.411  0.00  0.00     0.019 C 
ENDBRANCH   1   7
TORSDOF 1
ENDMDL
