MODEL 1
REMARK minimizedAffinity 4.36294889
REMARK minimizedRMSD -1
REMARK  1 active torsions:
REMARK  status: ('A' for Active; 'I' for Inactive)
REMARK    1  A    between atoms: C1_2  and  C2_3 
ROOT
ATOM      1  C2  UNL d   1       4.924   2.086   3.381  0.00  0.00    -0.077 A 
ATOM      2  C3  UNL d   1       4.520   0.817   2.944  0.00  0.00     0.002 A 
ATOM      3  C4  UNL d   1       4.855  -0.322   3.679  0.00  0.00     0.002 A 
ATOM      4  C5  UNL d   1       5.590  -0.203   4.856  0.00  0.00    -0.004 A 
ATOM      5  C6  UNL d   1       5.998   1.055   5.298  0.00  0.00     0.002 A 
ATOM      6  C7  UNL d   1       5.666   2.195   4.564  0.00  0.00     0.002 A 
ENDROOT
BRANCH   1   7
ATOM      7  C1  UNL d   1       4.523   3.320   2.616  0.00  0.00     0.055 C 
ATOM      8  C   UNL d   1       3.240   3.091   1.829  0.00  0.00     0.019 C 
ENDBRANCH   1   7
TORSDOF 1
ENDMDL
