MODEL 1
REMARK minimizedAffinity 1.96187246
REMARK minimizedRMSD -1
REMARK  1 active torsions:
REMARK  status: ('A' for Active; 'I' for Inactive)
REMARK    1  A    between atoms: C1_2  and  C2_3 
ROOT
ATOM      1  C2  UNL d   1      -3.847  -0.756   1.257  0.00  0.00    -0.077 A 
ATOM      2  C3  UNL d   1      -5.212  -0.469   1.400  0.00  0.00     0.002 A 
ATOM      3  C4  UNL d   1      -5.999  -0.206   0.277  0.00  0.00     0.002 A 
ATOM      4  C5  UNL d   1      -5.432  -0.231  -0.995  0.00  0.00    -0.004 A 
ATOM      5  C6  UNL d   1      -4.075  -0.513  -1.147  0.00  0.00     0.002 A 
ATOM      6  C7  UNL d   1      -3.286  -0.775  -0.026  0.00  0.00     0.002 A 
ENDROOT
BRANCH   1   7
ATOM      7  C1  UNL d   1      -3.006  -1.088   2.462  0.00  0.00     0.055 C 
ATOM      8  C   UNL d   1      -3.841  -1.093   3.735  0.00  0.00     0.019 C 
ENDBRANCH   1   7
TORSDOF 1
ENDMDL
