MODEL 1
REMARK minimizedAffinity 2.70251274
REMARK minimizedRMSD -1
REMARK  1 active torsions:
REMARK  status: ('A' for Active; 'I' for Inactive)
REMARK    1  A    between atoms: C1_2  and  C2_3 
ROOT
ATOM      1  C2  UNL d   1       4.234   2.884  -5.656  0.00  0.00    -0.077 A 
ATOM      2  C3  UNL d   1       3.456   1.766  -5.990  0.00  0.00     0.002 A 
ATOM      3  C4  UNL d   1       3.942   0.476  -5.769  0.00  0.00     0.002 A 
ATOM      4  C5  UNL d   1       5.205   0.291  -5.210  0.00  0.00    -0.004 A 
ATOM      5  C6  UNL d   1       5.987   1.397  -4.876  0.00  0.00     0.002 A 
ATOM      6  C7  UNL d   1       5.503   2.687  -5.097  0.00  0.00     0.002 A 
ENDROOT
BRANCH   1   7
ATOM      7  C1  UNL d   1       3.692   4.276  -5.848  0.00  0.00     0.055 C 
ATOM      8  C   UNL d   1       2.170   4.279  -5.869  0.00  0.00     0.019 C 
ENDBRANCH   1   7
TORSDOF 1
ENDMDL
