MODEL 1
REMARK minimizedAffinity 1.64159822
REMARK minimizedRMSD -1
REMARK  3 active torsions:
REMARK  status: ('A' for Active; 'I' for Inactive)
REMARK    1  A    between atoms: C3'_2  and  C2'_3 
REMARK    2  A    between atoms: C2'_3  and  C1'_4 
REMARK    3  A    between atoms: C1'_4  and  C1_5 
ROOT
ATOM      1  C1  N4B d   1       0.159  -1.500   3.411  0.00  0.00    -0.075 A 
ATOM      2  C2  N4B d   1      -1.251  -1.447   3.353  0.00  0.00     0.002 A 
ATOM      3  C3  N4B d   1      -1.870  -0.705   2.377  0.00  0.00     0.002 A 
ATOM      4  C4  N4B d   1      -1.104   0.005   1.465  0.00  0.00    -0.004 A 
ATOM      5  C5  N4B d   1       0.258  -0.073   1.512  0.00  0.00     0.002 A 
ATOM      6  C6  N4B d   1       0.893  -0.818   2.485  0.00  0.00     0.002 A 
ENDROOT
BRANCH   1   7
ATOM      7  C1' N4B d   1       0.881  -2.228   4.512  0.00  0.00     0.057 C 
BRANCH   7   8
ATOM      8  C2' N4B d   1       2.362  -1.863   4.466  0.00  0.00     0.009 C 
BRANCH   8   9
ATOM      9  C3' N4B d   1       2.997  -1.888   5.846  0.00  0.00     0.004 C 
ATOM     10  C4' N4B d   1       4.009  -2.983   6.000  0.00  0.00     0.003 C 
ENDBRANCH   8   9
ENDBRANCH   7   8
ENDBRANCH   1   7
TORSDOF 3
ENDMDL
