MODEL 1
REMARK minimizedAffinity -0.459536165
REMARK minimizedRMSD -1
REMARK  3 active torsions:
REMARK  status: ('A' for Active; 'I' for Inactive)
REMARK    1  A    between atoms: C3'_2  and  C2'_3 
REMARK    2  A    between atoms: C2'_3  and  C1'_4 
REMARK    3  A    between atoms: C1'_4  and  C1_5 
ROOT
ATOM      1  C1  N4B d   1       0.046  -0.657   2.568  0.00  0.00    -0.075 A 
ATOM      2  C2  N4B d   1      -0.978  -1.406   3.189  0.00  0.00     0.002 A 
ATOM      3  C3  N4B d   1      -0.662  -2.334   4.151  0.00  0.00     0.002 A 
ATOM      4  C4  N4B d   1       0.665  -2.544   4.493  0.00  0.00    -0.004 A 
ATOM      5  C5  N4B d   1       1.646  -1.799   3.906  0.00  0.00     0.002 A 
ATOM      6  C6  N4B d   1       1.344  -0.860   2.941  0.00  0.00     0.002 A 
ENDROOT
BRANCH   1   7
ATOM      7  C1' N4B d   1      -0.242   0.308   1.451  0.00  0.00     0.057 C 
BRANCH   7   8
ATOM      8  C2' N4B d   1      -1.626   0.014   0.880  0.00  0.00     0.009 C 
BRANCH   8   9
ATOM      9  C3' N4B d   1      -1.551  -0.787  -0.409  0.00  0.00     0.004 C 
ATOM     10  C4' N4B d   1      -2.353  -0.177  -1.520  0.00  0.00     0.003 C 
ENDBRANCH   8   9
ENDBRANCH   7   8
ENDBRANCH   1   7
TORSDOF 3
ENDMDL
