MODEL 1
REMARK minimizedAffinity 3.52106142
REMARK minimizedRMSD -1
REMARK  3 active torsions:
REMARK  status: ('A' for Active; 'I' for Inactive)
REMARK    1  A    between atoms: C3'_2  and  C2'_3 
REMARK    2  A    between atoms: C2'_3  and  C1'_4 
REMARK    3  A    between atoms: C1'_4  and  C1_5 
ROOT
ATOM      1  C1  N4B d   1       1.462  -2.377   3.902  0.00  0.00    -0.075 A 
ATOM      2  C2  N4B d   1       0.079  -2.661   3.923  0.00  0.00     0.002 A 
ATOM      3  C3  N4B d   1      -0.777  -1.968   3.104  0.00  0.00     0.002 A 
ATOM      4  C4  N4B d   1      -0.279  -0.977   2.272  0.00  0.00    -0.004 A 
ATOM      5  C5  N4B d   1       1.062  -0.726   2.238  0.00  0.00     0.002 A 
ATOM      6  C6  N4B d   1       1.935  -1.418   3.053  0.00  0.00     0.002 A 
ENDROOT
BRANCH   1   7
ATOM      7  C1' N4B d   1       2.426  -3.049   4.841  0.00  0.00     0.057 C 
BRANCH   7   8
ATOM      8  C2' N4B d   1       3.717  -3.365   4.092  0.00  0.00     0.009 C 
BRANCH   8   9
ATOM      9  C3' N4B d   1       4.947  -3.102   4.945  0.00  0.00     0.004 C 
ATOM     10  C4' N4B d   1       5.294  -4.259   5.834  0.00  0.00     0.003 C 
ENDBRANCH   8   9
ENDBRANCH   7   8
ENDBRANCH   1   7
TORSDOF 3
ENDMDL
