MODEL 1
REMARK minimizedAffinity 0.494988084
REMARK minimizedRMSD -1
REMARK  3 active torsions:
REMARK  status: ('A' for Active; 'I' for Inactive)
REMARK    1  A    between atoms: C3'_2  and  C2'_3 
REMARK    2  A    between atoms: C2'_3  and  C1'_4 
REMARK    3  A    between atoms: C1'_4  and  C1_5 
ROOT
ATOM      1  C1  N4B d   1       0.597  -0.676   2.299  0.00  0.00    -0.075 A 
ATOM      2  C2  N4B d   1       0.210   0.394   1.463  0.00  0.00     0.002 A 
ATOM      3  C3  N4B d   1      -1.117   0.724   1.339  0.00  0.00     0.002 A 
ATOM      4  C4  N4B d   1      -2.073  -0.010   2.024  0.00  0.00    -0.004 A 
ATOM      5  C5  N4B d   1      -1.690  -1.027   2.849  0.00  0.00     0.002 A 
ATOM      6  C6  N4B d   1      -0.359  -1.367   2.987  0.00  0.00     0.002 A 
ENDROOT
BRANCH   1   7
ATOM      7  C1' N4B d   1       2.028  -1.129   2.400  0.00  0.00     0.057 C 
BRANCH   7   8
ATOM      8  C2' N4B d   1       2.438  -1.169   3.869  0.00  0.00     0.009 C 
BRANCH   8   9
ATOM      9  C3' N4B d   1       1.468  -1.982   4.708  0.00  0.00     0.004 C 
ATOM     10  C4' N4B d   1       1.111  -1.308   5.999  0.00  0.00     0.003 C 
ENDBRANCH   8   9
ENDBRANCH   7   8
ENDBRANCH   1   7
TORSDOF 3
ENDMDL
