MODEL 1
REMARK minimizedAffinity 3.58241367
REMARK minimizedRMSD -1
REMARK  3 active torsions:
REMARK  status: ('A' for Active; 'I' for Inactive)
REMARK    1  A    between atoms: C3'_2  and  C2'_3 
REMARK    2  A    between atoms: C2'_3  and  C1'_4 
REMARK    3  A    between atoms: C1'_4  and  C1_5 
ROOT
ATOM      1  C1  N4B d   1      -0.743  -3.947  -4.604  0.00  0.00    -0.075 A 
ATOM      2  C2  N4B d   1      -0.248  -5.019  -5.379  0.00  0.00     0.002 A 
ATOM      3  C3  N4B d   1       0.512  -5.999  -4.789  0.00  0.00     0.002 A 
ATOM      4  C4  N4B d   1       0.804  -5.919  -3.435  0.00  0.00    -0.004 A 
ATOM      5  C5  N4B d   1       0.300  -4.894  -2.689  0.00  0.00     0.002 A 
ATOM      6  C6  N4B d   1      -0.468  -3.904  -3.268  0.00  0.00     0.002 A 
ENDROOT
BRANCH   1   7
ATOM      7  C1' N4B d   1      -1.506  -2.807  -5.221  0.00  0.00     0.057 C 
BRANCH   7   8
ATOM      8  C2' N4B d   1      -1.776  -1.750  -4.155  0.00  0.00     0.009 C 
BRANCH   8   9
ATOM      9  C3' N4B d   1      -1.778  -0.346  -4.735  0.00  0.00     0.004 C 
ATOM     10  C4' N4B d   1      -0.518   0.409  -4.436  0.00  0.00     0.003 C 
ENDBRANCH   8   9
ENDBRANCH   7   8
ENDBRANCH   1   7
TORSDOF 3
ENDMDL
