MODEL 1
REMARK minimizedAffinity -3.69834232
REMARK minimizedRMSD -1
REMARK  0 active torsions:
REMARK  status: ('A' for Active; 'I' for Inactive)
ROOT
ATOM      1  C   UNL d   1       2.395  -2.140   0.294  0.00  0.00     0.172 C 
ATOM      2  N   UNL d   1       1.300  -1.489   0.974  0.00  0.00    -0.070 N 
ATOM      3  C1  UNL d   1       0.388  -0.647   0.395  0.00  0.00    -0.004 A 
ATOM      4  C2  UNL d   1      -0.491  -0.238   1.376  0.00  0.00    -0.047 A 
ATOM      5  C3  UNL d   1      -0.092  -0.854   2.586  0.00  0.00    -0.047 A 
ATOM      6  C4  UNL d   1       1.019  -1.623   2.309  0.00  0.00    -0.004 A 
ENDROOT
TORSDOF 0
ENDMDL
