MODEL 1
REMARK minimizedAffinity -2.0183084
REMARK minimizedRMSD -1
REMARK  0 active torsions:
REMARK  status: ('A' for Active; 'I' for Inactive)
ROOT
ATOM      1  C   UNL d   1       1.585  -1.630   1.941  0.00  0.00     0.172 C 
ATOM      2  N   UNL d   1       0.859  -2.686   2.607  0.00  0.00    -0.070 N 
ATOM      3  C1  UNL d   1       1.209  -4.010   2.617  0.00  0.00    -0.004 A 
ATOM      4  C2  UNL d   1       0.265  -4.690   3.358  0.00  0.00    -0.047 A 
ATOM      5  C3  UNL d   1      -0.684  -3.741   3.806  0.00  0.00    -0.047 A 
ATOM      6  C4  UNL d   1      -0.292  -2.509   3.327  0.00  0.00    -0.004 A 
ENDROOT
TORSDOF 0
ENDMDL
