MODEL 1
REMARK minimizedAffinity -2.57380486
REMARK minimizedRMSD -1
REMARK  0 active torsions:
REMARK  status: ('A' for Active; 'I' for Inactive)
ROOT
ATOM      1  C   UNL d   1       1.177   0.057   3.006  0.00  0.00     0.172 C 
ATOM      2  N   UNL d   1       0.496  -0.084   1.740  0.00  0.00    -0.070 N 
ATOM      3  C1  UNL d   1       1.099  -0.161   0.514  0.00  0.00    -0.004 A 
ATOM      4  C2  UNL d   1       0.109  -0.289  -0.436  0.00  0.00    -0.047 A 
ATOM      5  C3  UNL d   1      -1.132  -0.289   0.243  0.00  0.00    -0.047 A 
ATOM      6  C4  UNL d   1      -0.864  -0.161   1.589  0.00  0.00    -0.004 A 
ENDROOT
TORSDOF 0
ENDMDL
