MODEL 1
REMARK minimizedAffinity -3.80782986
REMARK minimizedRMSD -1
REMARK  0 active torsions:
REMARK  status: ('A' for Active; 'I' for Inactive)
ROOT
ATOM      1  C   UNL d   1      -1.286  -0.641   0.411  0.00  0.00     0.172 C 
ATOM      2  N   UNL d   1       0.023  -0.666   1.021  0.00  0.00    -0.070 N 
ATOM      3  C1  UNL d   1       1.214  -0.524   0.360  0.00  0.00    -0.004 A 
ATOM      4  C2  UNL d   1       2.226  -0.605   1.292  0.00  0.00    -0.047 A 
ATOM      5  C3  UNL d   1       1.622  -0.803   2.557  0.00  0.00    -0.047 A 
ATOM      6  C4  UNL d   1       0.258  -0.837   2.359  0.00  0.00    -0.004 A 
ENDROOT
TORSDOF 0
ENDMDL
