MODEL 1
REMARK minimizedAffinity -3.16439557
REMARK minimizedRMSD -1
REMARK  0 active torsions:
REMARK  status: ('A' for Active; 'I' for Inactive)
ROOT
ATOM      1  C   UNL d   1       1.766  -1.248  -0.602  0.00  0.00     0.172 C 
ATOM      2  N   UNL d   1       1.096  -0.806   0.599  0.00  0.00    -0.070 N 
ATOM      3  C1  UNL d   1      -0.242  -0.538   0.714  0.00  0.00    -0.004 A 
ATOM      4  C2  UNL d   1      -0.484  -0.146   2.013  0.00  0.00    -0.047 A 
ATOM      5  C3  UNL d   1       0.752  -0.178   2.702  0.00  0.00    -0.047 A 
ATOM      6  C4  UNL d   1       1.713  -0.590   1.803  0.00  0.00    -0.004 A 
ENDROOT
TORSDOF 0
ENDMDL
