MODEL 1
REMARK minimizedAffinity -5.39974403
REMARK minimizedRMSD -1
REMARK  1 active torsions:
REMARK  status: ('A' for Active; 'I' for Inactive)
REMARK    1  A    between atoms: C3_4  and  O_7 
ROOT
ATOM      1  C   UNL d   1      -1.160   0.055   1.007  0.00  0.00    -0.033 A 
ATOM      2  C1  UNL d   1      -1.474   1.168   1.790  0.00  0.00     0.039 A 
ATOM      3  C2  UNL d   1      -2.804   1.446   2.110  0.00  0.00    -0.080 A 
ATOM      4  C3  UNL d   1      -3.810   0.605   1.641  0.00  0.00     0.150 A 
ATOM      5  C4  UNL d   1      -3.504  -0.507   0.864  0.00  0.00    -0.007 A 
ATOM      6  C5  UNL d   1      -2.175  -0.783   0.545  0.00  0.00     0.039 A 
ENDROOT
BRANCH   4   7
ATOM      7  O   UNL d   1      -5.123   0.839   1.923  0.00  0.00    -0.526 OA
ATOM      8  H5  UNL d   1      -5.185   1.657   2.444  0.00  0.00     0.418 HD
ENDBRANCH   4   7
TORSDOF 1
ENDMDL
