MODEL 1
REMARK minimizedAffinity -4.32315397
REMARK minimizedRMSD -1
REMARK  1 active torsions:
REMARK  status: ('A' for Active; 'I' for Inactive)
REMARK    1  A    between atoms: C3_4  and  O_7 
ROOT
ATOM      1  C   UNL d   1       0.191  -1.071  -0.565  0.00  0.00    -0.033 A 
ATOM      2  C1  UNL d   1       1.303  -0.301  -0.219  0.00  0.00     0.039 A 
ATOM      3  C2  UNL d   1       2.545  -0.565  -0.800  0.00  0.00    -0.080 A 
ATOM      4  C3  UNL d   1       2.661  -1.599  -1.725  0.00  0.00     0.150 A 
ATOM      5  C4  UNL d   1       1.556  -2.368  -2.077  0.00  0.00    -0.007 A 
ATOM      6  C5  UNL d   1       0.317  -2.103  -1.495  0.00  0.00     0.039 A 
ENDROOT
BRANCH   4   7
ATOM      7  O   UNL d   1       3.853  -1.897  -2.315  0.00  0.00    -0.526 OA
ATOM      8  H5  UNL d   1       4.532  -1.303  -1.954  0.00  0.00     0.418 HD
ENDBRANCH   4   7
TORSDOF 1
ENDMDL
