MODEL 1
REMARK minimizedAffinity -4.37519169
REMARK minimizedRMSD -1
REMARK  1 active torsions:
REMARK  status: ('A' for Active; 'I' for Inactive)
REMARK    1  A    between atoms: C3_4  and  O_7 
ROOT
ATOM      1  C   UNL d   1      -0.836  -0.629   0.779  0.00  0.00    -0.033 A 
ATOM      2  C1  UNL d   1      -1.190  -1.528  -0.229  0.00  0.00     0.039 A 
ATOM      3  C2  UNL d   1      -0.200  -2.127  -1.012  0.00  0.00    -0.080 A 
ATOM      4  C3  UNL d   1       1.137  -1.820  -0.775  0.00  0.00     0.150 A 
ATOM      5  C4  UNL d   1       1.497  -0.929   0.230  0.00  0.00    -0.007 A 
ATOM      6  C5  UNL d   1       0.507  -0.331   1.010  0.00  0.00     0.039 A 
ENDROOT
BRANCH   4   7
ATOM      7  O   UNL d   1       2.137  -2.376  -1.516  0.00  0.00    -0.526 OA
ATOM      8  H5  UNL d   1       1.738  -2.949  -2.192  0.00  0.00     0.418 HD
ENDBRANCH   4   7
TORSDOF 1
ENDMDL
