MODEL 1
REMARK minimizedAffinity -4.24253273
REMARK minimizedRMSD -1
REMARK  1 active torsions:
REMARK  status: ('A' for Active; 'I' for Inactive)
REMARK    1  A    between atoms: C3_4  and  O_7 
ROOT
ATOM      1  C   UNL d   1      -2.053   0.799   3.311  0.00  0.00    -0.033 A 
ATOM      2  C1  UNL d   1      -2.720   1.060   2.112  0.00  0.00     0.039 A 
ATOM      3  C2  UNL d   1      -2.271   0.485   0.922  0.00  0.00    -0.080 A 
ATOM      4  C3  UNL d   1      -1.157  -0.349   0.943  0.00  0.00     0.150 A 
ATOM      5  C4  UNL d   1      -0.490  -0.617   2.134  0.00  0.00    -0.007 A 
ATOM      6  C5  UNL d   1      -0.939  -0.041   3.322  0.00  0.00     0.039 A 
ENDROOT
BRANCH   4   7
ATOM      7  O   UNL d   1      -0.679  -0.930  -0.194  0.00  0.00    -0.526 OA
ATOM      8  H5  UNL d   1      -1.222  -0.632  -0.943  0.00  0.00     0.418 HD
ENDBRANCH   4   7
TORSDOF 1
ENDMDL
