MODEL 1
REMARK minimizedAffinity -4.32214594
REMARK minimizedRMSD -1
REMARK  1 active torsions:
REMARK  status: ('A' for Active; 'I' for Inactive)
REMARK    1  A    between atoms: C3_4  and  O_7 
ROOT
ATOM      1  C   UNL d   1      -2.828   0.356   1.485  0.00  0.00    -0.033 A 
ATOM      2  C1  UNL d   1      -3.587  -0.393   0.584  0.00  0.00     0.039 A 
ATOM      3  C2  UNL d   1      -2.999  -1.442  -0.124  0.00  0.00    -0.080 A 
ATOM      4  C3  UNL d   1      -1.652  -1.732   0.077  0.00  0.00     0.150 A 
ATOM      5  C4  UNL d   1      -0.891  -0.993   0.976  0.00  0.00    -0.007 A 
ATOM      6  C5  UNL d   1      -1.480   0.056   1.682  0.00  0.00     0.039 A 
ENDROOT
BRANCH   4   7
ATOM      7  O   UNL d   1      -1.033  -2.744  -0.594  0.00  0.00    -0.526 OA
ATOM      8  H5  UNL d   1      -1.675  -3.148  -1.201  0.00  0.00     0.418 HD
ENDBRANCH   4   7
TORSDOF 1
ENDMDL
