MODEL 1
REMARK minimizedAffinity -2.28968692
REMARK minimizedRMSD -1
REMARK  1 active torsions:
REMARK  status: ('A' for Active; 'I' for Inactive)
REMARK    1  A    between atoms: C3_4  and  O_7 
ROOT
ATOM      1  C   UNL d   1      -2.981   0.518   1.334  0.00  0.00    -0.033 A 
ATOM      2  C1  UNL d   1      -2.076   0.001   2.263  0.00  0.00     0.039 A 
ATOM      3  C2  UNL d   1      -1.086  -0.894   1.853  0.00  0.00    -0.080 A 
ATOM      4  C3  UNL d   1      -1.012  -1.264   0.513  0.00  0.00     0.150 A 
ATOM      5  C4  UNL d   1      -1.908  -0.751  -0.419  0.00  0.00    -0.007 A 
ATOM      6  C5  UNL d   1      -2.896   0.143  -0.007  0.00  0.00     0.039 A 
ENDROOT
BRANCH   4   7
ATOM      7  O   UNL d   1      -0.067  -2.139   0.067  0.00  0.00    -0.526 OA
ATOM      8  H5  UNL d   1       0.464  -2.433   0.826  0.00  0.00     0.418 HD
ENDBRANCH   4   7
TORSDOF 1
ENDMDL
