MODEL 1
REMARK minimizedAffinity -3.63026524
REMARK minimizedRMSD -1
REMARK  0 active torsions:
REMARK  status: ('A' for Active; 'I' for Inactive)
ROOT
ATOM      1  C4' PXY d   1       2.962  -0.662   0.557  0.00  0.00     0.077 C 
ATOM      2  C1' PXY d   1      -1.877   2.173   1.956  0.00  0.00     0.077 C 
ATOM      3  C1  PXY d   1      -0.605   1.439   1.581  0.00  0.00    -0.082 A 
ATOM      4  C2  PXY d   1      -0.525   0.132   1.767  0.00  0.00     0.003 A 
ATOM      5  C3  PXY d   1       0.629  -0.543   1.463  0.00  0.00     0.003 A 
ATOM      6  C4  PXY d   1       1.694   0.119   0.913  0.00  0.00    -0.082 A 
ATOM      7  C5  PXY d   1       1.616   1.451   0.710  0.00  0.00     0.003 A 
ATOM      8  C6  PXY d   1       0.451   2.124   1.064  0.00  0.00     0.003 A 
ENDROOT
TORSDOF 0
ENDMDL
