MODEL 1
REMARK minimizedAffinity 1.48299885
REMARK minimizedRMSD -1
REMARK  0 active torsions:
REMARK  status: ('A' for Active; 'I' for Inactive)
ROOT
ATOM      1  C4' PXY d   1      -3.207   2.341   3.575  0.00  0.00     0.077 C 
ATOM      2  C1' PXY d   1       1.130   0.860   0.052  0.00  0.00     0.077 C 
ATOM      3  C1  PXY d   1      -0.001   1.259   0.980  0.00  0.00    -0.082 A 
ATOM      4  C2  PXY d   1      -0.844   0.337   1.417  0.00  0.00     0.003 A 
ATOM      5  C3  PXY d   1      -1.891   0.686   2.231  0.00  0.00     0.003 A 
ATOM      6  C4  PXY d   1      -2.045   1.982   2.644  0.00  0.00    -0.082 A 
ATOM      7  C5  PXY d   1      -1.183   2.926   2.211  0.00  0.00     0.003 A 
ATOM      8  C6  PXY d   1      -0.152   2.559   1.352  0.00  0.00     0.003 A 
ENDROOT
TORSDOF 0
ENDMDL
