MODEL 1
REMARK minimizedAffinity -0.843944073
REMARK minimizedRMSD -1
REMARK  0 active torsions:
REMARK  status: ('A' for Active; 'I' for Inactive)
ROOT
ATOM      1  C4' PXY d   1      -3.942   1.457   3.411  0.00  0.00     0.077 C 
ATOM      2  C1' PXY d   1       1.180   1.894   0.767  0.00  0.00     0.077 C 
ATOM      3  C1  PXY d   1      -0.164   1.767   1.456  0.00  0.00    -0.082 A 
ATOM      4  C2  PXY d   1      -0.862   2.856   1.736  0.00  0.00     0.003 A 
ATOM      5  C3  PXY d   1      -2.065   2.762   2.387  0.00  0.00     0.003 A 
ATOM      6  C4  PXY d   1      -2.584   1.536   2.708  0.00  0.00    -0.082 A 
ATOM      7  C5  PXY d   1      -1.884   0.420   2.416  0.00  0.00     0.003 A 
ATOM      8  C6  PXY d   1      -0.646   0.540   1.792  0.00  0.00     0.003 A 
ENDROOT
TORSDOF 0
ENDMDL
