MODEL 1
REMARK minimizedAffinity 6.05383873
REMARK minimizedRMSD -1
REMARK  0 active torsions:
REMARK  status: ('A' for Active; 'I' for Inactive)
ROOT
ATOM      1  C4' PXY d   1       0.121   1.413   0.084  0.00  0.00     0.077 C 
ATOM      2  C1' PXY d   1      -3.569   2.321   4.441  0.00  0.00     0.077 C 
ATOM      3  C1  PXY d   1      -2.596   2.073   3.305  0.00  0.00    -0.082 A 
ATOM      4  C2  PXY d   1      -2.293   3.059   2.476  0.00  0.00     0.003 A 
ATOM      5  C3  PXY d   1      -1.440   2.843   1.424  0.00  0.00     0.003 A 
ATOM      6  C4  PXY d   1      -0.849   1.620   1.251  0.00  0.00    -0.082 A 
ATOM      7  C5  PXY d   1      -1.144   0.612   2.099  0.00  0.00     0.003 A 
ATOM      8  C6  PXY d   1      -2.045   0.840   3.135  0.00  0.00     0.003 A 
ENDROOT
TORSDOF 0
ENDMDL
