MODEL 1
REMARK minimizedAffinity 6.67912912
REMARK minimizedRMSD -1
REMARK  0 active torsions:
REMARK  status: ('A' for Active; 'I' for Inactive)
ROOT
ATOM      1  C4' PXY d   1      -3.486   1.063   3.131  0.00  0.00     0.077 C 
ATOM      2  C1' PXY d   1       1.212   2.401   0.040  0.00  0.00     0.077 C 
ATOM      3  C1  PXY d   1      -0.015   2.039   0.853  0.00  0.00    -0.082 A 
ATOM      4  C2  PXY d   1      -1.168   2.635   0.599  0.00  0.00     0.003 A 
ATOM      5  C3  PXY d   1      -2.280   2.343   1.346  0.00  0.00     0.003 A 
ATOM      6  C4  PXY d   1      -2.224   1.391   2.328  0.00  0.00    -0.082 A 
ATOM      7  C5  PXY d   1      -1.053   0.770   2.587  0.00  0.00     0.003 A 
ATOM      8  C6  PXY d   1       0.074   1.111   1.845  0.00  0.00     0.003 A 
ENDROOT
TORSDOF 0
ENDMDL
