MODEL 1
REMARK minimizedAffinity -4.88813734
REMARK minimizedRMSD -1
REMARK  0 active torsions:
REMARK  status: ('A' for Active; 'I' for Inactive)
ROOT
ATOM      1  C4' PXY d   1       1.160   2.451   0.484  0.00  0.00     0.077 C 
ATOM      2  C1' PXY d   1      -3.867   1.567   3.198  0.00  0.00     0.077 C 
ATOM      3  C1  PXY d   1      -2.554   1.808   2.479  0.00  0.00    -0.082 A 
ATOM      4  C2  PXY d   1      -1.641   0.851   2.446  0.00  0.00     0.003 A 
ATOM      5  C3  PXY d   1      -0.436   1.063   1.828  0.00  0.00     0.003 A 
ATOM      6  C4  PXY d   1      -0.184   2.249   1.191  0.00  0.00    -0.082 A 
ATOM      7  C5  PXY d   1      -1.114   3.227   1.211  0.00  0.00     0.003 A 
ATOM      8  C6  PXY d   1      -2.315   3.006   1.880  0.00  0.00     0.003 A 
ENDROOT
TORSDOF 0
ENDMDL
