MODEL 1
REMARK minimizedAffinity -3.0847156
REMARK minimizedRMSD -1
REMARK  0 active torsions:
REMARK  status: ('A' for Active; 'I' for Inactive)
ROOT
ATOM      1  C4' PXY d   1      -3.306   1.896   3.408  0.00  0.00     0.077 C 
ATOM      2  C1' PXY d   1       1.471   0.220   0.619  0.00  0.00     0.077 C 
ATOM      3  C1  PXY d   1       0.212   0.649   1.346  0.00  0.00    -0.082 A 
ATOM      4  C2  PXY d   1       0.047   1.920   1.674  0.00  0.00     0.003 A 
ATOM      5  C3  PXY d   1      -1.071   2.320   2.360  0.00  0.00     0.003 A 
ATOM      6  C4  PXY d   1      -2.055   1.419   2.665  0.00  0.00    -0.082 A 
ATOM      7  C5  PXY d   1      -1.900   0.122   2.324  0.00  0.00     0.003 A 
ATOM      8  C6  PXY d   1      -0.738  -0.271   1.665  0.00  0.00     0.003 A 
ENDROOT
TORSDOF 0
ENDMDL
