MODEL 1
REMARK minimizedAffinity 1.6675061
REMARK minimizedRMSD -1
REMARK  0 active torsions:
REMARK  status: ('A' for Active; 'I' for Inactive)
ROOT
ATOM      1  C4' PXY d   1      -2.642   2.557   2.187  0.00  0.00     0.077 C 
ATOM      2  C1' PXY d   1       1.800  -0.715   0.461  0.00  0.00     0.077 C 
ATOM      3  C1  PXY d   1       0.644   0.152   0.919  0.00  0.00    -0.082 A 
ATOM      4  C2  PXY d   1      -0.549  -0.391   1.100  0.00  0.00     0.003 A 
ATOM      5  C3  PXY d   1      -1.613   0.384   1.483  0.00  0.00     0.003 A 
ATOM      6  C4  PXY d   1      -1.443   1.719   1.734  0.00  0.00    -0.082 A 
ATOM      7  C5  PXY d   1      -0.227   2.279   1.562  0.00  0.00     0.003 A 
ATOM      8  C6  PXY d   1       0.831   1.482   1.133  0.00  0.00     0.003 A 
ENDROOT
TORSDOF 0
ENDMDL
