MODEL 1
REMARK minimizedAffinity -1.60191798
REMARK minimizedRMSD -1
REMARK  0 active torsions:
REMARK  status: ('A' for Active; 'I' for Inactive)
ROOT
ATOM      1  C4' PXY d   1      -3.958   1.875   3.262  0.00  0.00     0.077 C 
ATOM      2  C1' PXY d   1       1.125   0.750   0.750  0.00  0.00     0.077 C 
ATOM      3  C1  PXY d   1      -0.213   1.034   1.404  0.00  0.00    -0.082 A 
ATOM      4  C2  PXY d   1      -0.530   2.276   1.732  0.00  0.00     0.003 A 
ATOM      5  C3  PXY d   1      -1.722   2.546   2.353  0.00  0.00     0.003 A 
ATOM      6  C4  PXY d   1      -2.622   1.543   2.592  0.00  0.00    -0.082 A 
ATOM      7  C5  PXY d   1      -2.311   0.275   2.250  0.00  0.00     0.003 A 
ATOM      8  C6  PXY d   1      -1.078   0.015   1.658  0.00  0.00     0.003 A 
ENDROOT
TORSDOF 0
ENDMDL
