MODEL 1
REMARK minimizedAffinity 2.75983477
REMARK minimizedRMSD -1
REMARK  0 active torsions:
REMARK  status: ('A' for Active; 'I' for Inactive)
ROOT
ATOM      1  C4' PXY d   1      -4.342   0.790   3.905  0.00  0.00     0.077 C 
ATOM      2  C1' PXY d   1       0.495   1.770   0.896  0.00  0.00     0.077 C 
ATOM      3  C1  PXY d   1      -0.773   1.500   1.682  0.00  0.00    -0.082 A 
ATOM      4  C2  PXY d   1      -1.624   2.488   1.909  0.00  0.00     0.003 A 
ATOM      5  C3  PXY d   1      -2.760   2.269   2.645  0.00  0.00     0.003 A 
ATOM      6  C4  PXY d   1      -3.054   1.014   3.109  0.00  0.00    -0.082 A 
ATOM      7  C5  PXY d   1      -2.196  -0.001   2.872  0.00  0.00     0.003 A 
ATOM      8  C6  PXY d   1      -1.028   0.251   2.158  0.00  0.00     0.003 A 
ENDROOT
TORSDOF 0
ENDMDL
