MODEL 1
REMARK minimizedAffinity 9.58470821
REMARK minimizedRMSD -1
REMARK  0 active torsions:
REMARK  status: ('A' for Active; 'I' for Inactive)
ROOT
ATOM      1  C4' PXY d   1      -3.762  -0.903   4.124  0.00  0.00     0.077 C 
ATOM      2  C1' PXY d   1      -2.457   4.024   1.397  0.00  0.00     0.077 C 
ATOM      3  C1  PXY d   1      -2.807   2.739   2.121  0.00  0.00    -0.082 A 
ATOM      4  C2  PXY d   1      -1.996   1.697   2.032  0.00  0.00     0.003 A 
ATOM      5  C3  PXY d   1      -2.313   0.517   2.654  0.00  0.00     0.003 A 
ATOM      6  C4  PXY d   1      -3.445   0.418   3.418  0.00  0.00    -0.082 A 
ATOM      7  C5  PXY d   1      -4.271   1.480   3.522  0.00  0.00     0.003 A 
ATOM      8  C6  PXY d   1      -3.953   2.656   2.850  0.00  0.00     0.003 A 
ENDROOT
TORSDOF 0
ENDMDL
