MODEL 1
REMARK minimizedAffinity 4.89069366
REMARK minimizedRMSD -1
REMARK  0 active torsions:
REMARK  status: ('A' for Active; 'I' for Inactive)
ROOT
ATOM      1  C4' PXY d   1      -5.215  -1.577   0.488  0.00  0.00     0.077 C 
ATOM      2  C1' PXY d   1      -2.887  -2.159  -4.771  0.00  0.00     0.077 C 
ATOM      3  C1  PXY d   1      -3.495  -1.994  -3.392  0.00  0.00    -0.082 A 
ATOM      4  C2  PXY d   1      -3.559  -3.034  -2.576  0.00  0.00     0.003 A 
ATOM      5  C3  PXY d   1      -4.135  -2.909  -1.338  0.00  0.00     0.003 A 
ATOM      6  C4  PXY d   1      -4.601  -1.696  -0.910  0.00  0.00    -0.082 A 
ATOM      7  C5  PXY d   1      -4.530  -0.627  -1.732  0.00  0.00     0.003 A 
ATOM      8  C6  PXY d   1      -3.979  -0.784  -3.000  0.00  0.00     0.003 A 
ENDROOT
TORSDOF 0
ENDMDL
