MODEL 1
REMARK minimizedAffinity -0.808453262
REMARK minimizedRMSD -1
REMARK  0 active torsions:
REMARK  status: ('A' for Active; 'I' for Inactive)
ROOT
ATOM      1  C4' PXY d   1      -3.508   1.642   3.311  0.00  0.00     0.077 C 
ATOM      2  C1' PXY d   1       1.310   0.634   0.279  0.00  0.00     0.077 C 
ATOM      3  C1  PXY d   1       0.041   0.889   1.068  0.00  0.00    -0.082 A 
ATOM      4  C2  PXY d   1      -0.181   2.088   1.581  0.00  0.00     0.003 A 
ATOM      5  C3  PXY d   1      -1.309   2.327   2.324  0.00  0.00     0.003 A 
ATOM      6  C4  PXY d   1      -2.244   1.342   2.499  0.00  0.00    -0.082 A 
ATOM      7  C5  PXY d   1      -2.030   0.119   1.970  0.00  0.00     0.003 A 
ATOM      8  C6  PXY d   1      -0.860  -0.114   1.254  0.00  0.00     0.003 A 
ENDROOT
TORSDOF 0
ENDMDL
