MODEL 1
REMARK minimizedAffinity 0.532343924
REMARK minimizedRMSD -1
REMARK  0 active torsions:
REMARK  status: ('A' for Active; 'I' for Inactive)
ROOT
ATOM      1  C4' PXY d   1      -2.248   2.461   1.930  0.00  0.00     0.077 C 
ATOM      2  C1' PXY d   1       2.424  -0.666   0.584  0.00  0.00     0.077 C 
ATOM      3  C1  PXY d   1       1.191   0.146   0.930  0.00  0.00    -0.082 A 
ATOM      4  C2  PXY d   1       1.321   1.417   1.273  0.00  0.00     0.003 A 
ATOM      5  C3  PXY d   1       0.220   2.157   1.620  0.00  0.00     0.003 A 
ATOM      6  C4  PXY d   1      -1.032   1.605   1.564  0.00  0.00    -0.082 A 
ATOM      7  C5  PXY d   1      -1.173   0.312   1.205  0.00  0.00     0.003 A 
ATOM      8  C6  PXY d   1      -0.039  -0.434   0.896  0.00  0.00     0.003 A 
ENDROOT
TORSDOF 0
ENDMDL
