MODEL 1
REMARK minimizedAffinity 6.7743392
REMARK minimizedRMSD -1
REMARK  0 active torsions:
REMARK  status: ('A' for Active; 'I' for Inactive)
ROOT
ATOM      1  C4' PXY d   1      -2.034  -1.505   3.204  0.00  0.00     0.077 C 
ATOM      2  C1' PXY d   1       1.579   2.421   0.980  0.00  0.00     0.077 C 
ATOM      3  C1  PXY d   1       0.640   1.382   1.561  0.00  0.00    -0.082 A 
ATOM      4  C2  PXY d   1      -0.664   1.605   1.559  0.00  0.00     0.003 A 
ATOM      5  C3  PXY d   1      -1.524   0.691   2.110  0.00  0.00     0.003 A 
ATOM      6  C4  PXY d   1      -1.049  -0.488   2.619  0.00  0.00    -0.082 A 
ATOM      7  C5  PXY d   1       0.279  -0.728   2.614  0.00  0.00     0.003 A 
ATOM      8  C6  PXY d   1       1.139   0.232   2.088  0.00  0.00     0.003 A 
ENDROOT
TORSDOF 0
ENDMDL
