MODEL 1
REMARK minimizedAffinity 3.53114367
REMARK minimizedRMSD -1
REMARK  0 active torsions:
REMARK  status: ('A' for Active; 'I' for Inactive)
ROOT
ATOM      1  C4' PXY d   1       1.883  -0.068   1.041  0.00  0.00     0.077 C 
ATOM      2  C1' PXY d   1      -3.145   2.326   2.588  0.00  0.00     0.077 C 
ATOM      3  C1  PXY d   1      -1.829   1.688   2.190  0.00  0.00    -0.082 A 
ATOM      4  C2  PXY d   1      -0.831   2.451   1.774  0.00  0.00     0.003 A 
ATOM      5  C3  PXY d   1       0.355   1.888   1.380  0.00  0.00     0.003 A 
ATOM      6  C4  PXY d   1       0.540   0.533   1.462  0.00  0.00    -0.082 A 
ATOM      7  C5  PXY d   1      -0.470  -0.251   1.894  0.00  0.00     0.003 A 
ATOM      8  C6  PXY d   1      -1.680   0.337   2.251  0.00  0.00     0.003 A 
ENDROOT
TORSDOF 0
ENDMDL
