MODEL 1
REMARK minimizedAffinity 4.63708019
REMARK minimizedRMSD -1
REMARK  0 active torsions:
REMARK  status: ('A' for Active; 'I' for Inactive)
ROOT
ATOM      1  C4' PXY d   1      -2.625   2.513   2.103  0.00  0.00     0.077 C 
ATOM      2  C1' PXY d   1       2.261  -0.366   0.982  0.00  0.00     0.077 C 
ATOM      3  C1  PXY d   1       0.987   0.400   1.278  0.00  0.00    -0.082 A 
ATOM      4  C2  PXY d   1      -0.086  -0.252   1.696  0.00  0.00     0.003 A 
ATOM      5  C3  PXY d   1      -1.256   0.421   1.938  0.00  0.00     0.003 A 
ATOM      6  C4  PXY d   1      -1.314   1.782   1.801  0.00  0.00    -0.082 A 
ATOM      7  C5  PXY d   1      -0.221   2.456   1.384  0.00  0.00     0.003 A 
ATOM      8  C6  PXY d   1       0.946   1.749   1.105  0.00  0.00     0.003 A 
ENDROOT
TORSDOF 0
ENDMDL
