MODEL 1
REMARK minimizedAffinity -2.10577607
REMARK minimizedRMSD -1
REMARK  0 active torsions:
REMARK  status: ('A' for Active; 'I' for Inactive)
ROOT
ATOM      1  C4' PXY d   1      -4.229   0.859   2.927  0.00  0.00     0.077 C 
ATOM      2  C1' PXY d   1       1.116   0.553   0.745  0.00  0.00     0.077 C 
ATOM      3  C1  PXY d   1      -0.286   0.620   1.318  0.00  0.00    -0.082 A 
ATOM      4  C2  PXY d   1      -1.052   1.666   1.054  0.00  0.00     0.003 A 
ATOM      5  C3  PXY d   1      -2.310   1.758   1.590  0.00  0.00     0.003 A 
ATOM      6  C4  PXY d   1      -2.810   0.744   2.362  0.00  0.00    -0.082 A 
ATOM      7  C5  PXY d   1      -2.040  -0.332   2.628  0.00  0.00     0.003 A 
ATOM      8  C6  PXY d   1      -0.750  -0.387   2.108  0.00  0.00     0.003 A 
ENDROOT
TORSDOF 0
ENDMDL
