MODEL 1
REMARK minimizedAffinity 1.15334618
REMARK minimizedRMSD -1
REMARK  0 active torsions:
REMARK  status: ('A' for Active; 'I' for Inactive)
ROOT
ATOM      1  C4' PXY d   1       1.109   3.013   1.093  0.00  0.00     0.077 C 
ATOM      2  C1' PXY d   1      -3.709   1.610   3.964  0.00  0.00     0.077 C 
ATOM      3  C1  PXY d   1      -2.452   1.981   3.200  0.00  0.00    -0.082 A 
ATOM      4  C2  PXY d   1      -1.289   1.470   3.568  0.00  0.00     0.003 A 
ATOM      5  C3  PXY d   1      -0.138   1.820   2.909  0.00  0.00     0.003 A 
ATOM      6  C4  PXY d   1      -0.187   2.659   1.829  0.00  0.00    -0.082 A 
ATOM      7  C5  PXY d   1      -1.372   3.176   1.441  0.00  0.00     0.003 A 
ATOM      8  C6  PXY d   1      -2.522   2.841   2.149  0.00  0.00     0.003 A 
ENDROOT
TORSDOF 0
ENDMDL
