MODEL 1
REMARK minimizedAffinity 3.41231465
REMARK minimizedRMSD -1
REMARK  0 active torsions:
REMARK  status: ('A' for Active; 'I' for Inactive)
ROOT
ATOM      1  C4' PXY d   1      -5.993   0.380  -0.686  0.00  0.00     0.077 C 
ATOM      2  C1' PXY d   1      -3.260  -2.823   3.274  0.00  0.00     0.077 C 
ATOM      3  C1  PXY d   1      -3.986  -1.992   2.235  0.00  0.00    -0.082 A 
ATOM      4  C2  PXY d   1      -3.306  -1.138   1.488  0.00  0.00     0.003 A 
ATOM      5  C3  PXY d   1      -3.951  -0.356   0.566  0.00  0.00     0.003 A 
ATOM      6  C4  PXY d   1      -5.300  -0.486   0.369  0.00  0.00    -0.082 A 
ATOM      7  C5  PXY d   1      -6.000  -1.363   1.120  0.00  0.00     0.003 A 
ATOM      8  C6  PXY d   1      -5.332  -2.118   2.080  0.00  0.00     0.003 A 
ENDROOT
TORSDOF 0
ENDMDL
