MODEL 1
REMARK minimizedAffinity 9.05241013
REMARK minimizedRMSD -1
REMARK  0 active torsions:
REMARK  status: ('A' for Active; 'I' for Inactive)
ROOT
ATOM      1  C4' PXY d   1       1.728   1.880   1.507  0.00  0.00     0.077 C 
ATOM      2  C1' PXY d   1       0.437   4.860  -3.275  0.00  0.00     0.077 C 
ATOM      3  C1  PXY d   1       0.763   4.075  -2.019  0.00  0.00    -0.082 A 
ATOM      4  C2  PXY d   1       1.872   4.344  -1.350  0.00  0.00     0.003 A 
ATOM      5  C3  PXY d   1       2.198   3.623  -0.230  0.00  0.00     0.003 A 
ATOM      6  C4  PXY d   1       1.354   2.653   0.239  0.00  0.00    -0.082 A 
ATOM      7  C5  PXY d   1       0.215   2.380  -0.432  0.00  0.00     0.003 A 
ATOM      8  C6  PXY d   1      -0.078   3.095  -1.590  0.00  0.00     0.003 A 
ENDROOT
TORSDOF 0
ENDMDL
