MODEL 1
REMARK minimizedAffinity 7.15880442
REMARK minimizedRMSD -1
REMARK  0 active torsions:
REMARK  status: ('A' for Active; 'I' for Inactive)
ROOT
ATOM      1  C4' PXY d   1      -2.228   6.000  -2.884  0.00  0.00     0.077 C 
ATOM      2  C1' PXY d   1       1.133   2.002  -0.408  0.00  0.00     0.077 C 
ATOM      3  C1  PXY d   1       0.260   3.060  -1.054  0.00  0.00    -0.082 A 
ATOM      4  C2  PXY d   1      -1.031   2.827  -1.226  0.00  0.00     0.003 A 
ATOM      5  C3  PXY d   1      -1.829   3.759  -1.837  0.00  0.00     0.003 A 
ATOM      6  C4  PXY d   1      -1.311   4.965  -2.228  0.00  0.00    -0.082 A 
ATOM      7  C5  PXY d   1       0.004   5.214  -2.047  0.00  0.00     0.003 A 
ATOM      8  C6  PXY d   1       0.805   4.238  -1.462  0.00  0.00     0.003 A 
ENDROOT
TORSDOF 0
ENDMDL
