MODEL 1
REMARK minimizedAffinity 6.96587086
REMARK minimizedRMSD -1
REMARK  0 active torsions:
REMARK  status: ('A' for Active; 'I' for Inactive)
ROOT
ATOM      1  C4' PXY d   1       2.588   1.899   1.378  0.00  0.00     0.077 C 
ATOM      2  C1' PXY d   1      -0.961   4.198  -2.564  0.00  0.00     0.077 C 
ATOM      3  C1  PXY d   1      -0.040   3.595  -1.521  0.00  0.00    -0.082 A 
ATOM      4  C2  PXY d   1       1.270   3.730  -1.650  0.00  0.00     0.003 A 
ATOM      5  C3  PXY d   1       2.118   3.164  -0.733  0.00  0.00     0.003 A 
ATOM      6  C4  PXY d   1       1.619   2.498   0.355  0.00  0.00    -0.082 A 
ATOM      7  C5  PXY d   1       0.284   2.366   0.498  0.00  0.00     0.003 A 
ATOM      8  C6  PXY d   1      -0.560   2.912  -0.465  0.00  0.00     0.003 A 
ENDROOT
TORSDOF 0
ENDMDL
