MODEL 1
REMARK minimizedAffinity -0.412634492
REMARK minimizedRMSD -1
REMARK  0 active torsions:
REMARK  status: ('A' for Active; 'I' for Inactive)
ROOT
ATOM      1  C4' PXY d   1       0.031   3.856  -1.985  0.00  0.00     0.077 C 
ATOM      2  C1' PXY d   1       2.082   3.124   3.370  0.00  0.00     0.077 C 
ATOM      3  C1  PXY d   1       1.548   3.329   1.966  0.00  0.00    -0.082 A 
ATOM      4  C2  PXY d   1       0.596   2.533   1.506  0.00  0.00     0.003 A 
ATOM      5  C3  PXY d   1       0.125   2.683   0.227  0.00  0.00     0.003 A 
ATOM      6  C4  PXY d   1       0.594   3.692  -0.570  0.00  0.00    -0.082 A 
ATOM      7  C5  PXY d   1       1.557   4.515  -0.105  0.00  0.00     0.003 A 
ATOM      8  C6  PXY d   1       2.052   4.320   1.182  0.00  0.00     0.003 A 
ENDROOT
TORSDOF 0
ENDMDL
