MODEL 1
REMARK minimizedAffinity 6.12813044
REMARK minimizedRMSD -1
REMARK  0 active torsions:
REMARK  status: ('A' for Active; 'I' for Inactive)
ROOT
ATOM      1  C4' PXY d   1       6.000  -5.627  -3.031  0.00  0.00     0.077 C 
ATOM      2  C1' PXY d   1       3.596  -0.373  -3.190  0.00  0.00     0.077 C 
ATOM      3  C1  PXY d   1       4.214  -1.756  -3.149  0.00  0.00    -0.082 A 
ATOM      4  C2  PXY d   1       5.412  -1.921  -2.611  0.00  0.00     0.003 A 
ATOM      5  C3  PXY d   1       6.000  -3.160  -2.595  0.00  0.00     0.003 A 
ATOM      6  C4  PXY d   1       5.333  -4.250  -3.085  0.00  0.00    -0.082 A 
ATOM      7  C5  PXY d   1       4.106  -4.092  -3.626  0.00  0.00     0.003 A 
ATOM      8  C6  PXY d   1       3.544  -2.819  -3.670  0.00  0.00     0.003 A 
ENDROOT
TORSDOF 0
ENDMDL
