MODEL 1
REMARK minimizedAffinity -0.82341069
REMARK minimizedRMSD -1
REMARK  0 active torsions:
REMARK  status: ('A' for Active; 'I' for Inactive)
ROOT
ATOM      1  C4' PXY d   1       6.000  -4.184  -5.252  0.00  0.00     0.077 C 
ATOM      2  C1' PXY d   1       3.347  -1.255  -1.033  0.00  0.00     0.077 C 
ATOM      3  C1  PXY d   1       4.050  -2.029  -2.130  0.00  0.00    -0.082 A 
ATOM      4  C2  PXY d   1       4.114  -1.522  -3.351  0.00  0.00     0.003 A 
ATOM      5  C3  PXY d   1       4.717  -2.224  -4.363  0.00  0.00     0.003 A 
ATOM      6  C4  PXY d   1       5.308  -3.433  -4.111  0.00  0.00    -0.082 A 
ATOM      7  C5  PXY d   1       5.257  -3.952  -2.866  0.00  0.00     0.003 A 
ATOM      8  C6  PXY d   1       4.603  -3.243  -1.862  0.00  0.00     0.003 A 
ENDROOT
TORSDOF 0
ENDMDL
