MODEL 1
REMARK minimizedAffinity -3.15660477
REMARK minimizedRMSD -1
REMARK  0 active torsions:
REMARK  status: ('A' for Active; 'I' for Inactive)
ROOT
ATOM      1  C4' PXY d   1       2.644   4.106   0.748  0.00  0.00     0.077 C 
ATOM      2  C1' PXY d   1      -1.858   1.297  -1.545  0.00  0.00     0.077 C 
ATOM      3  C1  PXY d   1      -0.674   2.039  -0.955  0.00  0.00    -0.082 A 
ATOM      4  C2  PXY d   1      -0.135   1.615   0.176  0.00  0.00     0.003 A 
ATOM      5  C3  PXY d   1       0.916   2.292   0.740  0.00  0.00     0.003 A 
ATOM      6  C4  PXY d   1       1.454   3.383   0.112  0.00  0.00    -0.082 A 
ATOM      7  C5  PXY d   1       0.917   3.815  -1.049  0.00  0.00     0.003 A 
ATOM      8  C6  PXY d   1      -0.176   3.138  -1.583  0.00  0.00     0.003 A 
ENDROOT
TORSDOF 0
ENDMDL
