MODEL 1
REMARK minimizedAffinity 5.7528286
REMARK minimizedRMSD -1
REMARK  0 active torsions:
REMARK  status: ('A' for Active; 'I' for Inactive)
ROOT
ATOM      1  C4' PXY d   1       3.521  -5.992  -3.715  0.00  0.00     0.077 C 
ATOM      2  C1' PXY d   1       4.718  -1.763   0.039  0.00  0.00     0.077 C 
ATOM      3  C1  PXY d   1       4.412  -2.880  -0.939  0.00  0.00    -0.082 A 
ATOM      4  C2  PXY d   1       3.956  -2.586  -2.146  0.00  0.00     0.003 A 
ATOM      5  C3  PXY d   1       3.644  -3.585  -3.032  0.00  0.00     0.003 A 
ATOM      6  C4  PXY d   1       3.852  -4.897  -2.698  0.00  0.00    -0.082 A 
ATOM      7  C5  PXY d   1       4.327  -5.204  -1.472  0.00  0.00     0.003 A 
ATOM      8  C6  PXY d   1       4.598  -4.177  -0.573  0.00  0.00     0.003 A 
ENDROOT
TORSDOF 0
ENDMDL
