MODEL 1
REMARK minimizedAffinity 5.45515442
REMARK minimizedRMSD -1
REMARK  0 active torsions:
REMARK  status: ('A' for Active; 'I' for Inactive)
ROOT
ATOM      1  C4' PXY d   1       4.866  -5.994  -4.196  0.00  0.00     0.077 C 
ATOM      2  C1' PXY d   1       3.531  -1.816  -0.430  0.00  0.00     0.077 C 
ATOM      3  C1  PXY d   1       3.889  -2.918  -1.409  0.00  0.00    -0.082 A 
ATOM      4  C2  PXY d   1       3.806  -2.689  -2.709  0.00  0.00     0.003 A 
ATOM      5  C3  PXY d   1       4.095  -3.684  -3.608  0.00  0.00     0.003 A 
ATOM      6  C4  PXY d   1       4.524  -4.909  -3.171  0.00  0.00    -0.082 A 
ATOM      7  C5  PXY d   1       4.621  -5.146  -1.846  0.00  0.00     0.003 A 
ATOM      8  C6  PXY d   1       4.284  -4.136  -0.950  0.00  0.00     0.003 A 
ENDROOT
TORSDOF 0
ENDMDL
