MODEL 1
REMARK minimizedAffinity 2.03341556
REMARK minimizedRMSD -1
REMARK  0 active torsions:
REMARK  status: ('A' for Active; 'I' for Inactive)
ROOT
ATOM      1  C4' PXY d   1       0.549   1.779   2.083  0.00  0.00     0.077 C 
ATOM      2  C1' PXY d   1       0.547   5.290  -2.509  0.00  0.00     0.077 C 
ATOM      3  C1  PXY d   1       0.535   4.365  -1.307  0.00  0.00    -0.082 A 
ATOM      4  C2  PXY d   1       1.348   4.603  -0.291  0.00  0.00     0.003 A 
ATOM      5  C3  PXY d   1       1.373   3.759   0.789  0.00  0.00     0.003 A 
ATOM      6  C4  PXY d   1       0.520   2.691   0.854  0.00  0.00    -0.082 A 
ATOM      7  C5  PXY d   1      -0.320   2.447  -0.174  0.00  0.00     0.003 A 
ATOM      8  C6  PXY d   1      -0.301   3.293  -1.280  0.00  0.00     0.003 A 
ENDROOT
TORSDOF 0
ENDMDL
