MODEL 1
REMARK minimizedAffinity 7.06312037
REMARK minimizedRMSD -1
REMARK  0 active torsions:
REMARK  status: ('A' for Active; 'I' for Inactive)
ROOT
ATOM      1  C4' PXY d   1       0.104  -1.478   4.937  0.00  0.00     0.077 C 
ATOM      2  C1' PXY d   1       5.241  -4.127   4.869  0.00  0.00     0.077 C 
ATOM      3  C1  PXY d   1       3.898  -3.425   4.876  0.00  0.00    -0.082 A 
ATOM      4  C2  PXY d   1       3.174  -3.411   5.984  0.00  0.00     0.003 A 
ATOM      5  C3  PXY d   1       1.942  -2.808   6.000  0.00  0.00     0.003 A 
ATOM      6  C4  PXY d   1       1.471  -2.167   4.886  0.00  0.00    -0.082 A 
ATOM      7  C5  PXY d   1       2.208  -2.168   3.755  0.00  0.00     0.003 A 
ATOM      8  C6  PXY d   1       3.437  -2.821   3.748  0.00  0.00     0.003 A 
ENDROOT
TORSDOF 0
ENDMDL
