MODEL 1
REMARK minimizedAffinity 4.6203742
REMARK minimizedRMSD -1
REMARK  0 active torsions:
REMARK  status: ('A' for Active; 'I' for Inactive)
ROOT
ATOM      1  C4' PXY d   1       1.956  -3.830   1.016  0.00  0.00     0.077 C 
ATOM      2  C1' PXY d   1       4.447  -5.418  -3.952  0.00  0.00     0.077 C 
ATOM      3  C1  PXY d   1       3.782  -5.005  -2.654  0.00  0.00    -0.082 A 
ATOM      4  C2  PXY d   1       4.359  -4.097  -1.883  0.00  0.00     0.003 A 
ATOM      5  C3  PXY d   1       3.787  -3.736  -0.691  0.00  0.00     0.003 A 
ATOM      6  C4  PXY d   1       2.586  -4.270  -0.308  0.00  0.00    -0.082 A 
ATOM      7  C5  PXY d   1       1.986  -5.189  -1.093  0.00  0.00     0.003 A 
ATOM      8  C6  PXY d   1       2.603  -5.573  -2.280  0.00  0.00     0.003 A 
ENDROOT
TORSDOF 0
ENDMDL
