MODEL 1
REMARK minimizedAffinity -4.03036499
REMARK minimizedRMSD -1
REMARK  1 active torsions:
REMARK  status: ('A' for Active; 'I' for Inactive)
REMARK    1  A    between atoms: C1_2  and  C2_3 
ROOT
ATOM      1  C2  UNL d   1      -1.524   0.685   0.999  0.00  0.00    -0.073 A 
ATOM      2  C3  UNL d   1      -0.767  -0.376   0.488  0.00  0.00    -0.002 A 
ATOM      3  C4  UNL d   1       0.354  -0.123  -0.303  0.00  0.00     0.004 A 
ATOM      4  C5  UNL d   1       0.735   1.189  -0.584  0.00  0.00    -0.004 A 
ATOM      5  C6  UNL d   1      -0.002   2.262  -0.072  0.00  0.00    -0.075 A 
ATOM      6  C7  UNL d   1       0.392   3.679  -0.367  0.00  0.00     0.076 C 
ATOM      7  C8  UNL d   1      -1.129   2.000   0.719  0.00  0.00     0.001 A 
ENDROOT
BRANCH   1   8
ATOM      8  C1  UNL d   1      -2.732   0.417   1.859  0.00  0.00     0.053 C 
ATOM      9  C   UNL d   1      -2.500  -0.731   2.828  0.00  0.00     0.018 C 
ENDBRANCH   1   8
TORSDOF 1
ENDMDL
