MODEL 1
REMARK minimizedAffinity -2.59100676
REMARK minimizedRMSD -1
REMARK  1 active torsions:
REMARK  status: ('A' for Active; 'I' for Inactive)
REMARK    1  A    between atoms: C1_2  and  C2_3 
ROOT
ATOM      1  C2  UNL d   1      -0.186  -1.779  -0.986  0.00  0.00    -0.073 A 
ATOM      2  C3  UNL d   1      -1.095  -1.546  -2.025  0.00  0.00    -0.002 A 
ATOM      3  C4  UNL d   1      -1.214  -2.456  -3.075  0.00  0.00     0.004 A 
ATOM      4  C5  UNL d   1      -0.432  -3.611  -3.095  0.00  0.00    -0.004 A 
ATOM      5  C6  UNL d   1       0.474  -3.867  -2.061  0.00  0.00    -0.075 A 
ATOM      6  C7  UNL d   1       1.324  -5.104  -2.069  0.00  0.00     0.076 C 
ATOM      7  C8  UNL d   1       0.589  -2.947  -1.011  0.00  0.00     0.001 A 
ENDROOT
BRANCH   1   8
ATOM      8  C1  UNL d   1      -0.059  -0.801   0.153  0.00  0.00     0.053 C 
ATOM      9  C   UNL d   1      -0.456   0.608  -0.257  0.00  0.00     0.018 C 
ENDBRANCH   1   8
TORSDOF 1
ENDMDL
