MODEL 1
REMARK minimizedAffinity -2.00766039
REMARK minimizedRMSD -1
REMARK  1 active torsions:
REMARK  status: ('A' for Active; 'I' for Inactive)
REMARK    1  A    between atoms: C1_2  and  C2_3 
ROOT
ATOM      1  C2  UNL d   1      -1.508  -2.565   1.854  0.00  0.00    -0.073 A 
ATOM      2  C3  UNL d   1      -1.952  -3.567   0.985  0.00  0.00    -0.002 A 
ATOM      3  C4  UNL d   1      -1.578  -3.551  -0.360  0.00  0.00     0.004 A 
ATOM      4  C5  UNL d   1      -0.754  -2.537  -0.846  0.00  0.00    -0.004 A 
ATOM      5  C6  UNL d   1      -0.290  -1.532   0.009  0.00  0.00    -0.075 A 
ATOM      6  C7  UNL d   1       0.596  -0.433  -0.499  0.00  0.00     0.076 C 
ATOM      7  C8  UNL d   1      -0.672  -1.554   1.358  0.00  0.00     0.001 A 
ENDROOT
BRANCH   1   8
ATOM      8  C1  UNL d   1      -1.903  -2.582   3.308  0.00  0.00     0.053 C 
ATOM      9  C   UNL d   1      -3.141  -1.739   3.573  0.00  0.00     0.018 C 
ENDBRANCH   1   8
TORSDOF 1
ENDMDL
