MODEL 1
REMARK minimizedAffinity -3.3953135
REMARK minimizedRMSD -1
REMARK  1 active torsions:
REMARK  status: ('A' for Active; 'I' for Inactive)
REMARK    1  A    between atoms: C1_2  and  C2_3 
ROOT
ATOM      1  C2  UNL d   1      -0.290  -1.225  -0.271  0.00  0.00    -0.073 A 
ATOM      2  C3  UNL d   1       1.052  -1.094   0.103  0.00  0.00    -0.002 A 
ATOM      3  C4  UNL d   1       1.496   0.066   0.740  0.00  0.00     0.004 A 
ATOM      4  C5  UNL d   1       0.603   1.101   1.016  0.00  0.00    -0.004 A 
ATOM      5  C6  UNL d   1      -0.745   0.983   0.661  0.00  0.00    -0.075 A 
ATOM      6  C7  UNL d   1      -1.718   2.089   0.949  0.00  0.00     0.076 C 
ATOM      7  C8  UNL d   1      -1.182  -0.183   0.019  0.00  0.00     0.001 A 
ENDROOT
BRANCH   1   8
ATOM      8  C1  UNL d   1      -0.775  -2.478  -0.954  0.00  0.00     0.053 C 
ATOM      9  C   UNL d   1      -2.085  -2.253  -1.693  0.00  0.00     0.018 C 
ENDBRANCH   1   8
TORSDOF 1
ENDMDL
