MODEL 1
REMARK minimizedAffinity 9.82035828
REMARK minimizedRMSD -1
REMARK  1 active torsions:
REMARK  status: ('A' for Active; 'I' for Inactive)
REMARK    1  A    between atoms: C1_2  and  C2_3 
ROOT
ATOM      1  C2  UNL d   1       3.579   1.979  -3.291  0.00  0.00    -0.073 A 
ATOM      2  C3  UNL d   1       4.229   1.503  -4.435  0.00  0.00    -0.002 A 
ATOM      3  C4  UNL d   1       5.364   2.153  -4.923  0.00  0.00     0.004 A 
ATOM      4  C5  UNL d   1       5.863   3.279  -4.269  0.00  0.00    -0.004 A 
ATOM      5  C6  UNL d   1       5.234   3.763  -3.118  0.00  0.00    -0.075 A 
ATOM      6  C7  UNL d   1       5.757   4.975  -2.404  0.00  0.00     0.076 C 
ATOM      7  C8  UNL d   1       4.093   3.107  -2.636  0.00  0.00     0.001 A 
ENDROOT
BRANCH   1   8
ATOM      8  C1  UNL d   1       2.357   1.277  -2.758  0.00  0.00     0.053 C 
ATOM      9  C   UNL d   1       1.752   2.009  -1.570  0.00  0.00     0.018 C 
ENDBRANCH   1   8
TORSDOF 1
ENDMDL
