MODEL 1
REMARK minimizedAffinity -3.83489609
REMARK minimizedRMSD -1
REMARK  1 active torsions:
REMARK  status: ('A' for Active; 'I' for Inactive)
REMARK    1  A    between atoms: C1_2  and  C2_3 
ROOT
ATOM      1  C2  UNL d   1      -0.126   1.607   0.020  0.00  0.00    -0.073 A 
ATOM      2  C3  UNL d   1       0.128   2.323  -1.155  0.00  0.00    -0.002 A 
ATOM      3  C4  UNL d   1       0.760   3.566  -1.100  0.00  0.00     0.004 A 
ATOM      4  C5  UNL d   1       1.151   4.101   0.128  0.00  0.00    -0.004 A 
ATOM      5  C6  UNL d   1       0.916   3.395   1.312  0.00  0.00    -0.075 A 
ATOM      6  C7  UNL d   1       1.328   3.958   2.640  0.00  0.00     0.076 C 
ATOM      7  C8  UNL d   1       0.278   2.149   1.248  0.00  0.00     0.001 A 
ENDROOT
BRANCH   1   8
ATOM      8  C1  UNL d   1      -0.803   0.262  -0.035  0.00  0.00     0.053 C 
ATOM      9  C   UNL d   1       0.031  -0.824   0.627  0.00  0.00     0.018 C 
ENDBRANCH   1   8
TORSDOF 1
ENDMDL
