MODEL 1
REMARK minimizedAffinity -2.44631815
REMARK minimizedRMSD -1
REMARK  1 active torsions:
REMARK  status: ('A' for Active; 'I' for Inactive)
REMARK    1  A    between atoms: C1_2  and  C2_3 
ROOT
ATOM      1  C2  UNL d   1       1.110   2.460  -4.828  0.00  0.00    -0.073 A 
ATOM      2  C3  UNL d   1       1.417   1.588  -5.879  0.00  0.00    -0.002 A 
ATOM      3  C4  UNL d   1       2.701   1.055  -6.000  0.00  0.00     0.004 A 
ATOM      4  C5  UNL d   1       3.687   1.381  -5.069  0.00  0.00    -0.004 A 
ATOM      5  C6  UNL d   1       3.397   2.241  -4.005  0.00  0.00    -0.075 A 
ATOM      6  C7  UNL d   1       4.447   2.604  -2.997  0.00  0.00     0.076 C 
ATOM      7  C8  UNL d   1       2.106   2.775  -3.892  0.00  0.00     0.001 A 
ENDROOT
BRANCH   1   8
ATOM      8  C1  UNL d   1      -0.277   3.033  -4.690  0.00  0.00     0.053 C 
ATOM      9  C   UNL d   1      -1.047   2.985  -6.000  0.00  0.00     0.018 C 
ENDBRANCH   1   8
TORSDOF 1
ENDMDL
