MODEL 1
REMARK minimizedAffinity 0.678476095
REMARK minimizedRMSD -1
REMARK  1 active torsions:
REMARK  status: ('A' for Active; 'I' for Inactive)
REMARK    1  A    between atoms: C1_2  and  C2_3 
ROOT
ATOM      1  C2  UNL d   1       0.974   2.651  -5.950  0.00  0.00    -0.073 A 
ATOM      2  C3  UNL d   1       0.731   1.274  -6.000  0.00  0.00    -0.002 A 
ATOM      3  C4  UNL d   1       1.791   0.368  -5.947  0.00  0.00     0.004 A 
ATOM      4  C5  UNL d   1       3.103   0.828  -5.838  0.00  0.00    -0.004 A 
ATOM      5  C6  UNL d   1       3.366   2.200  -5.775  0.00  0.00    -0.075 A 
ATOM      6  C7  UNL d   1       4.772   2.712  -5.660  0.00  0.00     0.076 C 
ATOM      7  C8  UNL d   1       2.296   3.104  -5.831  0.00  0.00     0.001 A 
ENDROOT
BRANCH   1   8
ATOM      8  C1  UNL d   1      -0.168   3.633  -5.999  0.00  0.00     0.053 C 
ATOM      9  C   UNL d   1      -1.468   3.020  -5.502  0.00  0.00     0.018 C 
ENDBRANCH   1   8
TORSDOF 1
ENDMDL
