MODEL 1
REMARK minimizedAffinity -3.8069942
REMARK minimizedRMSD -1
REMARK  0 active torsions:
REMARK  status: ('A' for Active; 'I' for Inactive)
ROOT
ATOM      1  C   UNL d   1      -0.091   2.235   1.624  0.00  0.00     0.020 A 
ATOM      2  C1  UNL d   1       1.253   2.587   1.507  0.00  0.00     0.020 A 
ATOM      3  C2  UNL d   1       2.119   1.796   0.749  0.00  0.00     0.034 A 
ATOM      4  C3  UNL d   1       1.642   0.649   0.104  0.00  0.00     0.017 A 
ATOM      5  C4  UNL d   1       0.293   0.296   0.222  0.00  0.00     0.017 A 
ATOM      6  C5  UNL d   1      -0.570   1.092   0.982  0.00  0.00     0.034 A 
ATOM      7 Cl   UNL d   1      -0.369  -1.104  -0.545  0.00  0.00    -0.070 Cl
ATOM      8 Cl1  UNL d   1       2.769  -0.282  -0.817  0.00  0.00    -0.070 Cl
ENDROOT
TORSDOF 0
ENDMDL
