MODEL 1
REMARK minimizedAffinity -4.15700245
REMARK minimizedRMSD -1
REMARK  0 active torsions:
REMARK  status: ('A' for Active; 'I' for Inactive)
ROOT
ATOM      1  C   UNL d   1       2.769   1.117   0.070  0.00  0.00     0.020 A 
ATOM      2  C1  UNL d   1       2.363   2.116   0.954  0.00  0.00     0.020 A 
ATOM      3  C2  UNL d   1       1.051   2.135   1.432  0.00  0.00     0.034 A 
ATOM      4  C3  UNL d   1       0.140   1.153   1.026  0.00  0.00     0.017 A 
ATOM      5  C4  UNL d   1       0.548   0.150   0.139  0.00  0.00     0.017 A 
ATOM      6  C5  UNL d   1       1.863   0.136  -0.337  0.00  0.00     0.034 A 
ATOM      7 Cl   UNL d   1      -0.518  -1.095  -0.407  0.00  0.00    -0.070 Cl
ATOM      8 Cl1  UNL d   1      -1.466   1.237   1.657  0.00  0.00    -0.070 Cl
ENDROOT
TORSDOF 0
ENDMDL
