MODEL 1
REMARK minimizedAffinity -3.89168382
REMARK minimizedRMSD -1
REMARK  0 active torsions:
REMARK  status: ('A' for Active; 'I' for Inactive)
ROOT
ATOM      1  C   UNL d   1       1.903   2.574   1.454  0.00  0.00     0.020 A 
ATOM      2  C1  UNL d   1       3.009   2.191   0.697  0.00  0.00     0.020 A 
ATOM      3  C2  UNL d   1       2.976   1.003  -0.036  0.00  0.00     0.034 A 
ATOM      4  C3  UNL d   1       1.834   0.194  -0.014  0.00  0.00     0.017 A 
ATOM      5  C4  UNL d   1       0.724   0.580   0.746  0.00  0.00     0.017 A 
ATOM      6  C5  UNL d   1       0.763   1.770   1.479  0.00  0.00     0.034 A 
ATOM      7 Cl   UNL d   1      -0.721  -0.365   0.823  0.00  0.00    -0.070 Cl
ATOM      8 Cl1  UNL d   1       1.861  -1.261  -0.946  0.00  0.00    -0.070 Cl
ENDROOT
TORSDOF 0
ENDMDL
