MODEL 1
REMARK minimizedAffinity -2.85311055
REMARK minimizedRMSD -1
REMARK  0 active torsions:
REMARK  status: ('A' for Active; 'I' for Inactive)
ROOT
ATOM      1  C   UNL d   1       1.359   2.069   1.347  0.00  0.00     0.020 A 
ATOM      2  C1  UNL d   1       1.522   2.026  -0.037  0.00  0.00     0.020 A 
ATOM      3  C2  UNL d   1       0.735   1.167  -0.807  0.00  0.00     0.034 A 
ATOM      4  C3  UNL d   1      -0.219   0.348  -0.193  0.00  0.00     0.017 A 
ATOM      5  C4  UNL d   1      -0.382   0.391   1.196  0.00  0.00     0.017 A 
ATOM      6  C5  UNL d   1       0.409   1.253   1.962  0.00  0.00     0.034 A 
ATOM      7 Cl   UNL d   1      -1.539  -0.590   2.025  0.00  0.00    -0.070 Cl
ATOM      8 Cl1  UNL d   1      -1.158  -0.690  -1.207  0.00  0.00    -0.070 Cl
ENDROOT
TORSDOF 0
ENDMDL
