MODEL 1
REMARK minimizedAffinity -3.20064759
REMARK minimizedRMSD -1
REMARK  0 active torsions:
REMARK  status: ('A' for Active; 'I' for Inactive)
ROOT
ATOM      1  C   UNL d   1       0.497  -1.619  -0.576  0.00  0.00     0.020 A 
ATOM      2  C1  UNL d   1       1.611  -0.798  -0.745  0.00  0.00     0.020 A 
ATOM      3  C2  UNL d   1       1.675   0.435  -0.093  0.00  0.00     0.034 A 
ATOM      4  C3  UNL d   1       0.623   0.850   0.732  0.00  0.00     0.017 A 
ATOM      5  C4  UNL d   1      -0.495   0.025   0.901  0.00  0.00     0.017 A 
ATOM      6  C5  UNL d   1      -0.554  -1.209   0.245  0.00  0.00     0.034 A 
ATOM      7 Cl   UNL d   1      -1.832   0.469   1.902  0.00  0.00    -0.070 Cl
ATOM      8 Cl1  UNL d   1       0.769   2.386   1.508  0.00  0.00    -0.070 Cl
ENDROOT
TORSDOF 0
ENDMDL
