MODEL 1
REMARK minimizedAffinity -5.24377918
REMARK minimizedRMSD -1
REMARK  0 active torsions:
REMARK  status: ('A' for Active; 'I' for Inactive)
ROOT
ATOM      1  C   UNL d   1       1.974   2.579   1.311  0.00  0.00     0.020 A 
ATOM      2  C1  UNL d   1       2.566   1.956   0.213  0.00  0.00     0.020 A 
ATOM      3  C2  UNL d   1       1.981   0.817  -0.344  0.00  0.00     0.034 A 
ATOM      4  C3  UNL d   1       0.800   0.297   0.197  0.00  0.00     0.017 A 
ATOM      5  C4  UNL d   1       0.206   0.922   1.299  0.00  0.00     0.017 A 
ATOM      6  C5  UNL d   1       0.796   2.063   1.853  0.00  0.00     0.034 A 
ATOM      7 Cl   UNL d   1      -1.252   0.339   2.022  0.00  0.00    -0.070 Cl
ATOM      8 Cl1  UNL d   1       0.131  -1.115  -0.542  0.00  0.00    -0.070 Cl
ENDROOT
TORSDOF 0
ENDMDL
