MODEL 1
REMARK minimizedAffinity -5.13046646
REMARK minimizedRMSD -1
REMARK  0 active torsions:
REMARK  status: ('A' for Active; 'I' for Inactive)
ROOT
ATOM      1  C   UNL d   1       3.088   0.873  -0.248  0.00  0.00     0.020 A 
ATOM      2  C1  UNL d   1       2.889   2.009   0.537  0.00  0.00     0.020 A 
ATOM      3  C2  UNL d   1       1.633   2.264   1.090  0.00  0.00     0.034 A 
ATOM      4  C3  UNL d   1       0.570   1.383   0.859  0.00  0.00     0.017 A 
ATOM      5  C4  UNL d   1       0.770   0.244   0.071  0.00  0.00     0.017 A 
ATOM      6  C5  UNL d   1       2.031  -0.007  -0.480  0.00  0.00     0.034 A 
ATOM      7 Cl   UNL d   1      -0.492  -0.890  -0.259  0.00  0.00    -0.070 Cl
ATOM      8 Cl1  UNL d   1      -0.957   1.760   1.574  0.00  0.00    -0.070 Cl
ENDROOT
TORSDOF 0
ENDMDL
