MODEL 1
REMARK minimizedAffinity -3.21102023
REMARK minimizedRMSD -1
REMARK  0 active torsions:
REMARK  status: ('A' for Active; 'I' for Inactive)
ROOT
ATOM      1  C   UNL d   1       2.441  -0.527  -0.260  0.00  0.00     0.020 A 
ATOM      2  C1  UNL d   1       2.264  -1.539  -1.203  0.00  0.00     0.020 A 
ATOM      3  C2  UNL d   1       0.978  -1.985  -1.515  0.00  0.00     0.034 A 
ATOM      4  C3  UNL d   1      -0.136  -1.420  -0.884  0.00  0.00     0.017 A 
ATOM      5  C4  UNL d   1       0.043  -0.405   0.063  0.00  0.00     0.017 A 
ATOM      6  C5  UNL d   1       1.333   0.038   0.372  0.00  0.00     0.034 A 
ATOM      7 Cl   UNL d   1      -1.283   0.341   0.883  0.00  0.00    -0.070 Cl
ATOM      8 Cl1  UNL d   1      -1.696  -2.021  -1.319  0.00  0.00    -0.070 Cl
ENDROOT
TORSDOF 0
ENDMDL
