MODEL 1
REMARK minimizedAffinity -5.8955617
REMARK minimizedRMSD -1
REMARK  0 active torsions:
REMARK  status: ('A' for Active; 'I' for Inactive)
ROOT
ATOM      1  C   UNL d   1       1.867   2.339   1.424  0.00  0.00     0.020 A 
ATOM      2  C1  UNL d   1       2.475   1.747   0.318  0.00  0.00     0.020 A 
ATOM      3  C2  UNL d   1       1.853   0.679  -0.332  0.00  0.00     0.034 A 
ATOM      4  C3  UNL d   1       0.619   0.200   0.123  0.00  0.00     0.017 A 
ATOM      5  C4  UNL d   1       0.009   0.795   1.234  0.00  0.00     0.017 A 
ATOM      6  C5  UNL d   1       0.637   1.864   1.881  0.00  0.00     0.034 A 
ATOM      7 Cl   UNL d   1      -1.512   0.260   1.854  0.00  0.00    -0.070 Cl
ATOM      8 Cl1  UNL d   1      -0.094  -1.123  -0.729  0.00  0.00    -0.070 Cl
ENDROOT
TORSDOF 0
ENDMDL
