MODEL 1
REMARK minimizedAffinity -5.37564659
REMARK minimizedRMSD -1
REMARK  0 active torsions:
REMARK  status: ('A' for Active; 'I' for Inactive)
ROOT
ATOM      1  C   UNL d   1       3.271   2.193   0.213  0.00  0.00     0.020 A 
ATOM      2  C1  UNL d   1       2.335   2.726   1.098  0.00  0.00     0.020 A 
ATOM      3  C2  UNL d   1       1.225   1.969   1.479  0.00  0.00     0.034 A 
ATOM      4  C3  UNL d   1       1.048   0.676   0.975  0.00  0.00     0.017 A 
ATOM      5  C4  UNL d   1       1.988   0.142   0.086  0.00  0.00     0.017 A 
ATOM      6  C5  UNL d   1       3.098   0.904  -0.292  0.00  0.00     0.034 A 
ATOM      7 Cl   UNL d   1       1.838  -1.447  -0.578  0.00  0.00    -0.070 Cl
ATOM      8 Cl1  UNL d   1      -0.348  -0.203   1.490  0.00  0.00    -0.070 Cl
ENDROOT
TORSDOF 0
ENDMDL
