MODEL 1
REMARK minimizedAffinity -3.48317647
REMARK minimizedRMSD -1
REMARK  0 active torsions:
REMARK  status: ('A' for Active; 'I' for Inactive)
ROOT
ATOM      1  C   UNL d   1      -1.007  -0.160   0.691  0.00  0.00     0.020 A 
ATOM      2  C1  UNL d   1      -0.650   0.873   1.556  0.00  0.00     0.020 A 
ATOM      3  C2  UNL d   1       0.681   1.290   1.634  0.00  0.00     0.034 A 
ATOM      4  C3  UNL d   1       1.659   0.674   0.844  0.00  0.00     0.017 A 
ATOM      5  C4  UNL d   1       1.299  -0.363  -0.024  0.00  0.00     0.017 A 
ATOM      6  C5  UNL d   1      -0.035  -0.777  -0.098  0.00  0.00     0.034 A 
ATOM      7 Cl   UNL d   1       2.449  -1.171  -1.030  0.00  0.00    -0.070 Cl
ATOM      8 Cl1  UNL d   1       3.284   1.241   0.991  0.00  0.00    -0.070 Cl
ENDROOT
TORSDOF 0
ENDMDL
