MODEL 1
REMARK minimizedAffinity -6.12597895
REMARK minimizedRMSD -1
REMARK  0 active torsions:
REMARK  status: ('A' for Active; 'I' for Inactive)
ROOT
ATOM      1  C   UNL d   1       1.840   2.885   1.666  0.00  0.00     0.020 A 
ATOM      2  C1  UNL d   1       2.876   2.603   0.777  0.00  0.00     0.020 A 
ATOM      3  C2  UNL d   1       2.871   1.406   0.057  0.00  0.00     0.034 A 
ATOM      4  C3  UNL d   1       1.829   0.487   0.225  0.00  0.00     0.017 A 
ATOM      5  C4  UNL d   1       0.790   0.771   1.118  0.00  0.00     0.017 A 
ATOM      6  C5  UNL d   1       0.799   1.971   1.837  0.00  0.00     0.034 A 
ATOM      7 Cl   UNL d   1      -0.530  -0.314   1.379  0.00  0.00    -0.070 Cl
ATOM      8 Cl1  UNL d   1       1.888  -0.972  -0.698  0.00  0.00    -0.070 Cl
ENDROOT
TORSDOF 0
ENDMDL
