MODEL 1
REMARK minimizedAffinity -5.30430317
REMARK minimizedRMSD -1
REMARK  0 active torsions:
REMARK  status: ('A' for Active; 'I' for Inactive)
ROOT
ATOM      1  C   UNL d   1       2.901   2.244   0.767  0.00  0.00     0.020 A 
ATOM      2  C1  UNL d   1       1.924   2.891   1.523  0.00  0.00     0.020 A 
ATOM      3  C2  UNL d   1       0.656   2.322   1.659  0.00  0.00     0.034 A 
ATOM      4  C3  UNL d   1       0.362   1.102   1.038  0.00  0.00     0.017 A 
ATOM      5  C4  UNL d   1       1.343   0.454   0.280  0.00  0.00     0.017 A 
ATOM      6  C5  UNL d   1       2.611   1.028   0.147  0.00  0.00     0.034 A 
ATOM      7 Cl   UNL d   1       1.054  -1.053  -0.516  0.00  0.00    -0.070 Cl
ATOM      8 Cl1  UNL d   1      -1.227   0.456   1.249  0.00  0.00    -0.070 Cl
ENDROOT
TORSDOF 0
ENDMDL
