MODEL 1
REMARK minimizedAffinity -3.28286076
REMARK minimizedRMSD -1
REMARK  0 active torsions:
REMARK  status: ('A' for Active; 'I' for Inactive)
ROOT
ATOM      1  C   UNL d   1       3.251   2.064   0.361  0.00  0.00     0.020 A 
ATOM      2  C1  UNL d   1       2.111   2.655   0.905  0.00  0.00     0.020 A 
ATOM      3  C2  UNL d   1       0.884   1.990   0.845  0.00  0.00     0.034 A 
ATOM      4  C3  UNL d   1       0.794   0.732   0.239  0.00  0.00     0.017 A 
ATOM      5  C4  UNL d   1       1.939   0.140  -0.307  0.00  0.00     0.017 A 
ATOM      6  C5  UNL d   1       3.165   0.810  -0.244  0.00  0.00     0.034 A 
ATOM      7 Cl   UNL d   1       1.906  -1.410  -1.071  0.00  0.00    -0.070 Cl
ATOM      8 Cl1  UNL d   1      -0.755  -0.032   0.200  0.00  0.00    -0.070 Cl
ENDROOT
TORSDOF 0
ENDMDL
