MODEL 1
REMARK minimizedAffinity -3.2327776
REMARK minimizedRMSD -1
REMARK  0 active torsions:
REMARK  status: ('A' for Active; 'I' for Inactive)
ROOT
ATOM      1  C   UNL d   1       0.506  -1.401  -0.580  0.00  0.00     0.020 A 
ATOM      2  C1  UNL d   1      -0.432  -0.905   0.324  0.00  0.00     0.020 A 
ATOM      3  C2  UNL d   1      -0.140   0.231   1.081  0.00  0.00     0.034 A 
ATOM      4  C3  UNL d   1       1.094   0.876   0.935  0.00  0.00     0.017 A 
ATOM      5  C4  UNL d   1       2.035   0.377   0.027  0.00  0.00     0.017 A 
ATOM      6  C5  UNL d   1       1.737  -0.761  -0.728  0.00  0.00     0.034 A 
ATOM      7 Cl   UNL d   1       3.579   1.118  -0.208  0.00  0.00    -0.070 Cl
ATOM      8 Cl1  UNL d   1       1.388   2.276   1.903  0.00  0.00    -0.070 Cl
ENDROOT
TORSDOF 0
ENDMDL
