MODEL 1
REMARK minimizedAffinity -0.928019702
REMARK minimizedRMSD -1
REMARK  0 active torsions:
REMARK  status: ('A' for Active; 'I' for Inactive)
ROOT
ATOM      1  C   UNL d   1      -0.109   1.616   2.216  0.00  0.00     0.020 A 
ATOM      2  C1  UNL d   1      -1.417   1.141   2.132  0.00  0.00     0.020 A 
ATOM      3  C2  UNL d   1      -1.759   0.209   1.149  0.00  0.00     0.034 A 
ATOM      4  C3  UNL d   1      -0.792  -0.250   0.247  0.00  0.00     0.017 A 
ATOM      5  C4  UNL d   1       0.520   0.228   0.333  0.00  0.00     0.017 A 
ATOM      6  C5  UNL d   1       0.857   1.161   1.319  0.00  0.00     0.034 A 
ATOM      7 Cl   UNL d   1       1.768  -0.292  -0.745  0.00  0.00    -0.070 Cl
ATOM      8 Cl1  UNL d   1      -1.286  -1.402  -0.942  0.00  0.00    -0.070 Cl
ENDROOT
TORSDOF 0
ENDMDL
