MODEL 1
REMARK minimizedAffinity -2.49970174
REMARK minimizedRMSD -1
REMARK  0 active torsions:
REMARK  status: ('A' for Active; 'I' for Inactive)
ROOT
ATOM      1  C   UNL d   1       0.471  -1.870  -0.653  0.00  0.00     0.020 A 
ATOM      2  C1  UNL d   1      -0.580  -1.239   0.011  0.00  0.00     0.020 A 
ATOM      3  C2  UNL d   1      -0.332  -0.114   0.800  0.00  0.00     0.034 A 
ATOM      4  C3  UNL d   1       0.969   0.384   0.927  0.00  0.00     0.017 A 
ATOM      5  C4  UNL d   1       2.024  -0.250   0.260  0.00  0.00     0.017 A 
ATOM      6  C5  UNL d   1       1.770  -1.377  -0.529  0.00  0.00     0.034 A 
ATOM      7 Cl   UNL d   1       3.657   0.305   0.369  0.00  0.00    -0.070 Cl
ATOM      8 Cl1  UNL d   1       1.203   1.779   1.918  0.00  0.00    -0.070 Cl
ENDROOT
TORSDOF 0
ENDMDL
