MODEL 1
REMARK minimizedAffinity 6.38896036
REMARK minimizedRMSD -1
REMARK  0 active torsions:
REMARK  status: ('A' for Active; 'I' for Inactive)
ROOT
ATOM      1  C   UNL d   1       1.423  -1.135  -1.161  0.00  0.00     0.020 A 
ATOM      2  C1  UNL d   1       1.941  -0.855  -2.425  0.00  0.00     0.020 A 
ATOM      3  C2  UNL d   1       2.864   0.180  -2.588  0.00  0.00     0.034 A 
ATOM      4  C3  UNL d   1       3.272   0.939  -1.485  0.00  0.00     0.017 A 
ATOM      5  C4  UNL d   1       2.752   0.657  -0.217  0.00  0.00     0.017 A 
ATOM      6  C5  UNL d   1       1.827  -0.380  -0.060  0.00  0.00     0.034 A 
ATOM      7 Cl   UNL d   1       3.208   1.550   1.191  0.00  0.00    -0.070 Cl
ATOM      8 Cl1  UNL d   1       4.418   2.203  -1.760  0.00  0.00    -0.070 Cl
ENDROOT
TORSDOF 0
ENDMDL
