MODEL 1
REMARK minimizedAffinity 10.7798357
REMARK minimizedRMSD -1
REMARK  1 active torsions:
REMARK  status: ('A' for Active; 'I' for Inactive)
REMARK    1  A    between atoms: C1_2  and  C2_3 
ROOT
ATOM      1  C2  UNL d   1       1.950   1.652  -1.176  0.00  0.00    -0.081 A 
ATOM      2  C3  UNL d   1       1.751   0.476  -0.443  0.00  0.00     0.006 A 
ATOM      3  C4  UNL d   1       1.362   0.534   0.897  0.00  0.00     0.002 A 
ATOM      4  C5  UNL d   1       1.158   1.767   1.525  0.00  0.00    -0.080 A 
ATOM      5  C6  UNL d   1       0.711   1.843   2.954  0.00  0.00     0.076 C 
ATOM      6  C7  UNL d   1       1.374   2.943   0.798  0.00  0.00     0.002 A 
ATOM      7  C8  UNL d   1       1.764   2.886  -0.542  0.00  0.00     0.006 A 
ENDROOT
BRANCH   1   8
ATOM      8  C1  UNL d   1       2.307   1.592  -2.639  0.00  0.00     0.054 C 
ATOM      9  C   UNL d   1       1.266   2.304  -3.492  0.00  0.00     0.018 C 
ENDBRANCH   1   8
TORSDOF 1
ENDMDL
