MODEL 1
REMARK minimizedAffinity 17.8303947
REMARK minimizedRMSD -1
REMARK  1 active torsions:
REMARK  status: ('A' for Active; 'I' for Inactive)
REMARK    1  A    between atoms: C1_2  and  C2_3 
ROOT
ATOM      1  C2  UNL d   1      -0.656  -1.522   3.396  0.00  0.00    -0.081 A 
ATOM      2  C3  UNL d   1       0.493  -0.766   3.136  0.00  0.00     0.006 A 
ATOM      3  C4  UNL d   1       0.712   0.441   3.804  0.00  0.00     0.002 A 
ATOM      4  C5  UNL d   1      -0.209   0.908   4.747  0.00  0.00    -0.080 A 
ATOM      5  C6  UNL d   1       0.029   2.187   5.493  0.00  0.00     0.076 C 
ATOM      6  C7  UNL d   1      -1.366   0.161   4.994  0.00  0.00     0.002 A 
ATOM      7  C8  UNL d   1      -1.586  -1.046   4.326  0.00  0.00     0.006 A 
ENDROOT
BRANCH   1   8
ATOM      8  C1  UNL d   1      -0.864  -2.856   2.725  0.00  0.00     0.054 C 
ATOM      9  C   UNL d   1      -1.184  -3.943   3.741  0.00  0.00     0.018 C 
ENDBRANCH   1   8
TORSDOF 1
ENDMDL
