MODEL 1
REMARK minimizedAffinity 18.8432617
REMARK minimizedRMSD -1
REMARK  1 active torsions:
REMARK  status: ('A' for Active; 'I' for Inactive)
REMARK    1  A    between atoms: C1_2  and  C2_3 
ROOT
ATOM      1  C2  UNL d   1      -0.890  -1.860   3.415  0.00  0.00    -0.081 A 
ATOM      2  C3  UNL d   1      -2.099  -1.497   4.021  0.00  0.00     0.006 A 
ATOM      3  C4  UNL d   1      -2.959  -2.474   4.527  0.00  0.00     0.002 A 
ATOM      4  C5  UNL d   1      -2.621  -3.829   4.444  0.00  0.00    -0.080 A 
ATOM      5  C6  UNL d   1      -3.521  -4.886   5.011  0.00  0.00     0.076 C 
ATOM      6  C7  UNL d   1      -1.421  -4.193   3.824  0.00  0.00     0.002 A 
ATOM      7  C8  UNL d   1      -0.561  -3.216   3.317  0.00  0.00     0.006 A 
ENDROOT
BRANCH   1   8
ATOM      8  C1  UNL d   1       0.070  -0.805   2.926  0.00  0.00     0.054 C 
ATOM      9  C   UNL d   1       0.645  -0.001   4.084  0.00  0.00     0.018 C 
ENDBRANCH   1   8
TORSDOF 1
ENDMDL
