MODEL 1
REMARK minimizedAffinity 26.4516888
REMARK minimizedRMSD -1
REMARK  1 active torsions:
REMARK  status: ('A' for Active; 'I' for Inactive)
REMARK    1  A    between atoms: C1_2  and  C2_3 
ROOT
ATOM      1  C2  UNL d   1       4.974   2.062  -2.983  0.00  0.00    -0.081 A 
ATOM      2  C3  UNL d   1       4.648   3.407  -2.771  0.00  0.00     0.006 A 
ATOM      3  C4  UNL d   1       4.988   4.376  -3.718  0.00  0.00     0.002 A 
ATOM      4  C5  UNL d   1       5.652   4.015  -4.895  0.00  0.00    -0.080 A 
ATOM      5  C6  UNL d   1       5.996   5.041  -5.934  0.00  0.00     0.076 C 
ATOM      6  C7  UNL d   1       5.993   2.674  -5.099  0.00  0.00     0.002 A 
ATOM      7  C8  UNL d   1       5.654   1.705  -4.152  0.00  0.00     0.006 A 
ENDROOT
BRANCH   1   8
ATOM      8  C1  UNL d   1       4.551   1.006  -1.994  0.00  0.00     0.054 C 
ATOM      9  C   UNL d   1       3.082   0.645  -2.164  0.00  0.00     0.018 C 
ENDBRANCH   1   8
TORSDOF 1
ENDMDL
