MODEL 1
REMARK minimizedAffinity 12.8234453
REMARK minimizedRMSD -1
REMARK  1 active torsions:
REMARK  status: ('A' for Active; 'I' for Inactive)
REMARK    1  A    between atoms: C1_2  and  C2_3 
ROOT
ATOM      1  C2  UNL d   1      -3.644  -1.516  -5.879  0.00  0.00    -0.081 A 
ATOM      2  C3  UNL d   1      -2.260  -1.730  -5.887  0.00  0.00     0.006 A 
ATOM      3  C4  UNL d   1      -1.744  -3.028  -5.836  0.00  0.00     0.002 A 
ATOM      4  C5  UNL d   1      -2.603  -4.131  -5.786  0.00  0.00    -0.080 A 
ATOM      5  C6  UNL d   1      -2.063  -5.530  -5.762  0.00  0.00     0.076 C 
ATOM      6  C7  UNL d   1      -3.985  -3.916  -5.760  0.00  0.00     0.002 A 
ATOM      7  C8  UNL d   1      -4.501  -2.619  -5.810  0.00  0.00     0.006 A 
ENDROOT
BRANCH   1   8
ATOM      8  C1  UNL d   1      -4.204  -0.121  -5.998  0.00  0.00     0.054 C 
ATOM      9  C   UNL d   1      -5.726  -0.134  -5.999  0.00  0.00     0.018 C 
ENDBRANCH   1   8
TORSDOF 1
ENDMDL
