MODEL 1
REMARK minimizedAffinity 4.36693096
REMARK minimizedRMSD -1
REMARK  1 active torsions:
REMARK  status: ('A' for Active; 'I' for Inactive)
REMARK    1  A    between atoms: C1_2  and  C2_3 
ROOT
ATOM      1  C2  UNL d   1       2.897   1.401  -1.947  0.00  0.00    -0.081 A 
ATOM      2  C3  UNL d   1       3.867   0.398  -1.824  0.00  0.00     0.006 A 
ATOM      3  C4  UNL d   1       4.214  -0.101  -0.566  0.00  0.00     0.002 A 
ATOM      4  C5  UNL d   1       3.593   0.388   0.588  0.00  0.00    -0.080 A 
ATOM      5  C6  UNL d   1       3.934  -0.160   1.942  0.00  0.00     0.076 C 
ATOM      6  C7  UNL d   1       2.636   1.402   0.466  0.00  0.00     0.002 A 
ATOM      7  C8  UNL d   1       2.289   1.902  -0.791  0.00  0.00     0.006 A 
ENDROOT
BRANCH   1   8
ATOM      8  C1  UNL d   1       2.475   1.895  -3.307  0.00  0.00     0.054 C 
ATOM      9  C   UNL d   1       1.113   2.572  -3.250  0.00  0.00     0.018 C 
ENDBRANCH   1   8
TORSDOF 1
ENDMDL
