MODEL 1
REMARK minimizedAffinity 20.4994335
REMARK minimizedRMSD -1
REMARK  1 active torsions:
REMARK  status: ('A' for Active; 'I' for Inactive)
REMARK    1  A    between atoms: C1_2  and  C2_3 
ROOT
ATOM      1  C2  UNL d   1      -2.643  -3.943  -4.849  0.00  0.00    -0.081 A 
ATOM      2  C3  UNL d   1      -3.229  -3.907  -3.578  0.00  0.00     0.006 A 
ATOM      3  C4  UNL d   1      -2.622  -4.555  -2.499  0.00  0.00     0.002 A 
ATOM      4  C5  UNL d   1      -1.416  -5.242  -2.672  0.00  0.00    -0.080 A 
ATOM      5  C6  UNL d   1      -0.738  -5.917  -1.517  0.00  0.00     0.076 C 
ATOM      6  C7  UNL d   1      -0.839  -5.293  -3.946  0.00  0.00     0.002 A 
ATOM      7  C8  UNL d   1      -1.446  -4.646  -5.024  0.00  0.00     0.006 A 
ENDROOT
BRANCH   1   8
ATOM      8  C1  UNL d   1      -3.262  -3.191  -5.999  0.00  0.00     0.054 C 
ATOM      9  C   UNL d   1      -2.854  -1.725  -5.986  0.00  0.00     0.018 C 
ENDBRANCH   1   8
TORSDOF 1
ENDMDL
