MODEL 1
REMARK minimizedAffinity -1.16544592
REMARK minimizedRMSD -1
REMARK  1 active torsions:
REMARK  status: ('A' for Active; 'I' for Inactive)
REMARK    1  A    between atoms: C1_2  and  C2_3 
ROOT
ATOM      1  C2  UNL d   1       4.759   2.955  -5.643  0.00  0.00    -0.081 A 
ATOM      2  C3  UNL d   1       5.973   2.294  -5.421  0.00  0.00     0.006 A 
ATOM      3  C4  UNL d   1       5.995   0.924  -5.149  0.00  0.00     0.002 A 
ATOM      4  C5  UNL d   1       4.805   0.191  -5.102  0.00  0.00    -0.080 A 
ATOM      5  C6  UNL d   1       4.816  -1.286  -4.841  0.00  0.00     0.076 C 
ATOM      6  C7  UNL d   1       3.590   0.854  -5.306  0.00  0.00     0.002 A 
ATOM      7  C8  UNL d   1       3.567   2.224  -5.577  0.00  0.00     0.006 A 
ENDROOT
BRANCH   1   8
ATOM      8  C1  UNL d   1       4.737   4.419  -6.000  0.00  0.00     0.054 C 
ATOM      9  C   UNL d   1       3.317   4.968  -5.999  0.00  0.00     0.018 C 
ENDBRANCH   1   8
TORSDOF 1
ENDMDL
