MODEL 1
REMARK minimizedAffinity 11.9337616
REMARK minimizedRMSD -1
REMARK  1 active torsions:
REMARK  status: ('A' for Active; 'I' for Inactive)
REMARK    1  A    between atoms: C1_2  and  C2_3 
ROOT
ATOM      1  C2  UNL d   1       0.638   1.968   2.570  0.00  0.00    -0.081 A 
ATOM      2  C3  UNL d   1       1.055   1.559   3.842  0.00  0.00     0.006 A 
ATOM      3  C4  UNL d   1       2.248   0.850   4.002  0.00  0.00     0.002 A 
ATOM      4  C5  UNL d   1       3.047   0.546   2.895  0.00  0.00    -0.080 A 
ATOM      5  C6  UNL d   1       4.345  -0.188   3.057  0.00  0.00     0.076 C 
ATOM      6  C7  UNL d   1       2.622   0.940   1.622  0.00  0.00     0.002 A 
ATOM      7  C8  UNL d   1       1.429   1.648   1.461  0.00  0.00     0.006 A 
ENDROOT
BRANCH   1   8
ATOM      8  C1  UNL d   1      -0.615   2.789   2.401  0.00  0.00     0.054 C 
ATOM      9  C   UNL d   1      -0.469   3.796   1.269  0.00  0.00     0.018 C 
ENDBRANCH   1   8
TORSDOF 1
ENDMDL
