MODEL 1
REMARK minimizedAffinity 15.3565207
REMARK minimizedRMSD -1
REMARK  1 active torsions:
REMARK  status: ('A' for Active; 'I' for Inactive)
REMARK    1  A    between atoms: C1_2  and  C2_3 
ROOT
ATOM      1  C2  UNL d   1       2.348  -2.345  -5.935  0.00  0.00    -0.081 A 
ATOM      2  C3  UNL d   1       3.602  -2.968  -5.955  0.00  0.00     0.006 A 
ATOM      3  C4  UNL d   1       4.771  -2.212  -5.835  0.00  0.00     0.002 A 
ATOM      4  C5  UNL d   1       4.705  -0.823  -5.687  0.00  0.00    -0.080 A 
ATOM      5  C6  UNL d   1       5.950  -0.003  -5.527  0.00  0.00     0.076 C 
ATOM      6  C7  UNL d   1       3.453  -0.198  -5.685  0.00  0.00     0.002 A 
ATOM      7  C8  UNL d   1       2.284  -0.954  -5.805  0.00  0.00     0.006 A 
ENDROOT
BRANCH   1   8
ATOM      8  C1  UNL d   1       1.084  -3.164  -5.999  0.00  0.00     0.054 C 
ATOM      9  C   UNL d   1      -0.151  -2.276  -5.997  0.00  0.00     0.018 C 
ENDBRANCH   1   8
TORSDOF 1
ENDMDL
