MODEL 1
REMARK minimizedAffinity 18.1709862
REMARK minimizedRMSD -1
REMARK  1 active torsions:
REMARK  status: ('A' for Active; 'I' for Inactive)
REMARK    1  A    between atoms: C1_2  and  C2_3 
ROOT
ATOM      1  C2  UNL d   1      -1.965  -3.666  -5.744  0.00  0.00    -0.081 A 
ATOM      2  C3  UNL d   1      -3.247  -4.230  -5.779  0.00  0.00     0.006 A 
ATOM      3  C4  UNL d   1      -4.378  -3.413  -5.850  0.00  0.00     0.002 A 
ATOM      4  C5  UNL d   1      -4.247  -2.021  -5.894  0.00  0.00    -0.080 A 
ATOM      5  C6  UNL d   1      -5.451  -1.134  -6.000  0.00  0.00     0.076 C 
ATOM      6  C7  UNL d   1      -2.967  -1.457  -5.841  0.00  0.00     0.002 A 
ATOM      7  C8  UNL d   1      -1.836  -2.273  -5.770  0.00  0.00     0.006 A 
ENDROOT
BRANCH   1   8
ATOM      8  C1  UNL d   1      -0.741  -4.546  -5.734  0.00  0.00     0.054 C 
ATOM      9  C   UNL d   1      -1.073  -5.949  -5.248  0.00  0.00     0.018 C 
ENDBRANCH   1   8
TORSDOF 1
ENDMDL
