MODEL 1
REMARK minimizedAffinity 11.7546329
REMARK minimizedRMSD -1
REMARK  1 active torsions:
REMARK  status: ('A' for Active; 'I' for Inactive)
REMARK    1  A    between atoms: C1_2  and  C2_3 
ROOT
ATOM      1  C2  UNL d   1       2.065   1.018   3.028  0.00  0.00    -0.081 A 
ATOM      2  C3  UNL d   1       1.832   0.852   1.658  0.00  0.00     0.006 A 
ATOM      3  C4  UNL d   1       1.003   1.739   0.967  0.00  0.00     0.002 A 
ATOM      4  C5  UNL d   1       0.399   2.811   1.634  0.00  0.00    -0.080 A 
ATOM      5  C6  UNL d   1      -0.469   3.789   0.898  0.00  0.00     0.076 C 
ATOM      6  C7  UNL d   1       0.618   2.967   3.007  0.00  0.00     0.002 A 
ATOM      7  C8  UNL d   1       1.446   2.080   3.698  0.00  0.00     0.006 A 
ENDROOT
BRANCH   1   8
ATOM      8  C1  UNL d   1       3.010   0.101   3.762  0.00  0.00     0.054 C 
ATOM      9  C   UNL d   1       4.393   0.110   3.128  0.00  0.00     0.018 C 
ENDBRANCH   1   8
TORSDOF 1
ENDMDL
