MODEL 1
REMARK minimizedAffinity 12.554574
REMARK minimizedRMSD -1
REMARK  1 active torsions:
REMARK  status: ('A' for Active; 'I' for Inactive)
REMARK    1  A    between atoms: C1_2  and  C2_3 
ROOT
ATOM      1  C2  UNL d   1       0.366   2.601   1.974  0.00  0.00    -0.081 A 
ATOM      2  C3  UNL d   1       0.293   2.084   3.273  0.00  0.00     0.006 A 
ATOM      3  C4  UNL d   1       1.298   1.244   3.758  0.00  0.00     0.002 A 
ATOM      4  C5  UNL d   1       2.396   0.914   2.957  0.00  0.00    -0.080 A 
ATOM      5  C6  UNL d   1       3.496   0.037   3.476  0.00  0.00     0.076 C 
ATOM      6  C7  UNL d   1       2.460   1.417   1.653  0.00  0.00     0.002 A 
ATOM      7  C8  UNL d   1       1.456   2.256   1.167  0.00  0.00     0.006 A 
ENDROOT
BRANCH   1   8
ATOM      8  C1  UNL d   1      -0.683   3.559   1.470  0.00  0.00     0.054 C 
ATOM      9  C   UNL d   1      -2.016   3.338   2.170  0.00  0.00     0.018 C 
ENDBRANCH   1   8
TORSDOF 1
ENDMDL
