MODEL 1
REMARK minimizedAffinity -3.41600418
REMARK minimizedRMSD -1
REMARK  1 active torsions:
REMARK  status: ('A' for Active; 'I' for Inactive)
REMARK    1  A    between atoms: C1_2  and  C2_3 
ROOT
ATOM      1  C2  UNL d   1       0.391  -0.204  -0.029  0.00  0.00    -0.076 A 
ATOM      2  C3  UNL d   1       1.114   0.536   0.922  0.00  0.00     0.004 A 
ATOM      3  C4  UNL d   1       2.335   0.075   1.413  0.00  0.00    -0.003 A 
ATOM      4  C5  UNL d   1       2.852  -1.134   0.960  0.00  0.00     0.000 A 
ATOM      5  C6  UNL d   1       2.156  -1.873   0.004  0.00  0.00     0.000 A 
ATOM      6  C7  UNL d   1       0.933  -1.414  -0.514  0.00  0.00    -0.073 A 
ATOM      7  C8  UNL d   1       0.222  -2.254  -1.539  0.00  0.00     0.078 C 
ENDROOT
BRANCH   1   8
ATOM      8  C1  UNL d   1      -0.940   0.333  -0.505  0.00  0.00     0.053 C 
ATOM      9  C   UNL d   1      -1.956   0.451   0.620  0.00  0.00     0.018 C 
ENDBRANCH   1   8
TORSDOF 1
ENDMDL
