MODEL 1
REMARK minimizedAffinity -3.11306953
REMARK minimizedRMSD -1
REMARK  1 active torsions:
REMARK  status: ('A' for Active; 'I' for Inactive)
REMARK    1  A    between atoms: C1_2  and  C2_3 
ROOT
ATOM      1  C2  UNL d   1       0.228   0.564   0.055  0.00  0.00    -0.076 A 
ATOM      2  C3  UNL d   1       0.938   1.298   1.022  0.00  0.00     0.004 A 
ATOM      3  C4  UNL d   1       1.994   0.723   1.727  0.00  0.00    -0.003 A 
ATOM      4  C5  UNL d   1       2.359  -0.595   1.476  0.00  0.00     0.000 A 
ATOM      5  C6  UNL d   1       1.677  -1.332   0.508  0.00  0.00     0.000 A 
ATOM      6  C7  UNL d   1       0.621  -0.762  -0.223  0.00  0.00    -0.073 A 
ATOM      7  C8  UNL d   1      -0.083  -1.605  -1.251  0.00  0.00     0.078 C 
ENDROOT
BRANCH   1   8
ATOM      8  C1  UNL d   1      -0.925   1.232  -0.658  0.00  0.00     0.053 C 
ATOM      9  C   UNL d   1      -2.254   1.009   0.048  0.00  0.00     0.018 C 
ENDBRANCH   1   8
TORSDOF 1
ENDMDL
