MODEL 1
REMARK minimizedAffinity -2.00420547
REMARK minimizedRMSD -1
REMARK  1 active torsions:
REMARK  status: ('A' for Active; 'I' for Inactive)
REMARK    1  A    between atoms: C1_2  and  C2_3 
ROOT
ATOM      1  C2  UNL d   1       0.972  -0.176   0.719  0.00  0.00    -0.076 A 
ATOM      2  C3  UNL d   1      -0.034  -0.812  -0.029  0.00  0.00     0.004 A 
ATOM      3  C4  UNL d   1      -0.961  -0.072  -0.761  0.00  0.00    -0.003 A 
ATOM      4  C5  UNL d   1      -0.895   1.317  -0.759  0.00  0.00     0.000 A 
ATOM      5  C6  UNL d   1       0.107   1.965  -0.037  0.00  0.00     0.000 A 
ATOM      6  C7  UNL d   1       1.058   1.233   0.694  0.00  0.00    -0.073 A 
ATOM      7  C8  UNL d   1       2.114   1.983   1.459  0.00  0.00     0.078 C 
ENDROOT
BRANCH   1   8
ATOM      8  C1  UNL d   1       1.932  -1.030   1.516  0.00  0.00     0.053 C 
ATOM      9  C   UNL d   1       2.934  -1.758   0.634  0.00  0.00     0.018 C 
ENDBRANCH   1   8
TORSDOF 1
ENDMDL
