MODEL 1
REMARK minimizedAffinity -3.74487185
REMARK minimizedRMSD -1
REMARK  1 active torsions:
REMARK  status: ('A' for Active; 'I' for Inactive)
REMARK    1  A    between atoms: C1_2  and  C2_3 
ROOT
ATOM      1  C2  UNL d   1      -0.018  -0.044   0.059  0.00  0.00    -0.076 A 
ATOM      2  C3  UNL d   1       0.644   0.853   0.916  0.00  0.00     0.004 A 
ATOM      3  C4  UNL d   1       1.881   0.532   1.472  0.00  0.00    -0.003 A 
ATOM      4  C5  UNL d   1       2.476  -0.690   1.181  0.00  0.00     0.000 A 
ATOM      5  C6  UNL d   1       1.842  -1.584   0.319  0.00  0.00     0.000 A 
ATOM      6  C7  UNL d   1       0.602  -1.270  -0.264  0.00  0.00    -0.073 A 
ATOM      7  C8  UNL d   1      -0.040  -2.274  -1.181  0.00  0.00     0.078 C 
ENDROOT
BRANCH   1   8
ATOM      8  C1  UNL d   1      -1.370   0.347  -0.493  0.00  0.00     0.053 C 
ATOM      9  C   UNL d   1      -2.439   0.429   0.586  0.00  0.00     0.018 C 
ENDBRANCH   1   8
TORSDOF 1
ENDMDL
