MODEL 1
REMARK minimizedAffinity -5.24260187
REMARK minimizedRMSD -1
REMARK  1 active torsions:
REMARK  status: ('A' for Active; 'I' for Inactive)
REMARK    1  A    between atoms: C1_2  and  C2_3 
ROOT
ATOM      1  C2  UNL d   1       0.765   0.124  -0.074  0.00  0.00    -0.076 A 
ATOM      2  C3  UNL d   1       0.462  -1.248  -0.060  0.00  0.00     0.004 A 
ATOM      3  C4  UNL d   1       1.400  -2.186   0.369  0.00  0.00    -0.003 A 
ATOM      4  C5  UNL d   1       2.657  -1.766   0.791  0.00  0.00     0.000 A 
ATOM      5  C6  UNL d   1       2.968  -0.407   0.800  0.00  0.00     0.000 A 
ATOM      6  C7  UNL d   1       2.028   0.553   0.386  0.00  0.00    -0.073 A 
ATOM      7  C8  UNL d   1       2.420   2.005   0.411  0.00  0.00     0.078 C 
ENDROOT
BRANCH   1   8
ATOM      8  C1  UNL d   1      -0.283   1.092  -0.575  0.00  0.00     0.053 C 
ATOM      9  C   UNL d   1      -1.587   0.991   0.200  0.00  0.00     0.018 C 
ENDBRANCH   1   8
TORSDOF 1
ENDMDL
