MODEL 1
REMARK minimizedAffinity -4.23765612
REMARK minimizedRMSD -1
REMARK  1 active torsions:
REMARK  status: ('A' for Active; 'I' for Inactive)
REMARK    1  A    between atoms: C1_2  and  C2_3 
ROOT
ATOM      1  C2  UNL d   1       1.195  -0.691  -0.515  0.00  0.00    -0.076 A 
ATOM      2  C3  UNL d   1       2.464  -1.296  -0.480  0.00  0.00     0.004 A 
ATOM      3  C4  UNL d   1       3.624  -0.526  -0.419  0.00  0.00    -0.003 A 
ATOM      4  C5  UNL d   1       3.535   0.861  -0.392  0.00  0.00     0.000 A 
ATOM      5  C6  UNL d   1       2.284   1.478  -0.408  0.00  0.00     0.000 A 
ATOM      6  C7  UNL d   1       1.104   0.716  -0.453  0.00  0.00    -0.073 A 
ATOM      7  C8  UNL d   1      -0.218   1.434  -0.476  0.00  0.00     0.078 C 
ENDROOT
BRANCH   1   8
ATOM      8  C1  UNL d   1      -0.027  -1.576  -0.609  0.00  0.00     0.053 C 
ATOM      9  C   UNL d   1      -0.649  -1.856   0.750  0.00  0.00     0.018 C 
ENDBRANCH   1   8
TORSDOF 1
ENDMDL
