MODEL 1
REMARK minimizedAffinity -6.07638931
REMARK minimizedRMSD -1
REMARK  2 active torsions:
REMARK  status: ('A' for Active; 'I' for Inactive)
REMARK    1  A    between atoms: C1_2  and  C2_3 
REMARK    2  A    between atoms: C2_3  and  C3_4 
ROOT
ATOM      1  C3  UNL d   1      -0.214   0.010  -0.101  0.00  0.00    -0.075 A 
ATOM      2  C4  UNL d   1       1.026  -0.023   0.554  0.00  0.00     0.002 A 
ATOM      3  C5  UNL d   1       1.114  -0.435   1.884  0.00  0.00     0.002 A 
ATOM      4  C6  UNL d   1      -0.035  -0.809   2.578  0.00  0.00    -0.004 A 
ATOM      5  C7  UNL d   1      -1.274  -0.765   1.942  0.00  0.00     0.002 A 
ATOM      6  C8  UNL d   1      -1.364  -0.357   0.610  0.00  0.00     0.002 A 
ENDROOT
BRANCH   1   7
ATOM      7  C2  UNL d   1      -0.312   0.426  -1.549  0.00  0.00     0.056 C 
BRANCH   7   8
ATOM      8  C1  UNL d   1      -0.527   1.930  -1.752  0.00  0.00     0.007 C 
ATOM      9  C   UNL d   1       0.583   2.592  -2.556  0.00  0.00     0.009 C 
ENDBRANCH   7   8
ENDBRANCH   1   7
TORSDOF 2
ENDMDL
