MODEL 1
REMARK minimizedAffinity -4.41543198
REMARK minimizedRMSD -1
REMARK  2 active torsions:
REMARK  status: ('A' for Active; 'I' for Inactive)
REMARK    1  A    between atoms: C1_2  and  C2_3 
REMARK    2  A    between atoms: C2_3  and  C3_4 
ROOT
ATOM      1  C3  UNL d   1      -0.496  -0.220   1.024  0.00  0.00    -0.075 A 
ATOM      2  C4  UNL d   1       0.893  -0.037   0.978  0.00  0.00     0.002 A 
ATOM      3  C5  UNL d   1       1.700  -0.464   2.033  0.00  0.00     0.002 A 
ATOM      4  C6  UNL d   1       1.127  -1.069   3.150  0.00  0.00    -0.004 A 
ATOM      5  C7  UNL d   1      -0.254  -1.241   3.214  0.00  0.00     0.002 A 
ATOM      6  C8  UNL d   1      -1.062  -0.818   2.157  0.00  0.00     0.002 A 
ENDROOT
BRANCH   1   7
ATOM      7  C2  UNL d   1      -1.371   0.214  -0.128  0.00  0.00     0.056 C 
BRANCH   7   8
ATOM      8  C1  UNL d   1      -0.617   0.400  -1.449  0.00  0.00     0.007 C 
ATOM      9  C   UNL d   1      -1.120   1.582  -2.266  0.00  0.00     0.009 C 
ENDBRANCH   7   8
ENDBRANCH   1   7
TORSDOF 2
ENDMDL
