MODEL 1
REMARK minimizedAffinity -5.02904558
REMARK minimizedRMSD -1
REMARK  2 active torsions:
REMARK  status: ('A' for Active; 'I' for Inactive)
REMARK    1  A    between atoms: C1_2  and  C2_3 
REMARK    2  A    between atoms: C2_3  and  C3_4 
ROOT
ATOM      1  C3  UNL d   1      -0.416   0.026  -0.105  0.00  0.00    -0.075 A 
ATOM      2  C4  UNL d   1      -1.661  -0.145   0.518  0.00  0.00     0.002 A 
ATOM      3  C5  UNL d   1      -1.737  -0.502   1.864  0.00  0.00     0.002 A 
ATOM      4  C6  UNL d   1      -0.572  -0.702   2.601  0.00  0.00    -0.004 A 
ATOM      5  C7  UNL d   1       0.670  -0.551   1.989  0.00  0.00     0.002 A 
ATOM      6  C8  UNL d   1       0.749  -0.190   0.643  0.00  0.00     0.002 A 
ENDROOT
BRANCH   1   7
ATOM      7  C2  UNL d   1      -0.327   0.441  -1.554  0.00  0.00     0.056 C 
BRANCH   7   8
ATOM      8  C1  UNL d   1      -0.245   1.957  -1.765  0.00  0.00     0.007 C 
ATOM      9  C   UNL d   1      -0.934   2.424  -3.040  0.00  0.00     0.009 C 
ENDBRANCH   7   8
ENDBRANCH   1   7
TORSDOF 2
ENDMDL
