MODEL 1
REMARK minimizedAffinity -2.50887561
REMARK minimizedRMSD -1
REMARK  0 active torsions:
REMARK  status: ('A' for Active; 'I' for Inactive)
ROOT
ATOM      1  C   UNL d   1      -4.130  -2.727  -1.511  0.00  0.00     0.172 C 
ATOM      2  N   UNL d   1      -4.228  -3.981  -0.800  0.00  0.00    -0.070 N 
ATOM      3  C1  UNL d   1      -3.288  -4.976  -0.805  0.00  0.00    -0.004 A 
ATOM      4  C2  UNL d   1      -3.753  -6.000  -0.009  0.00  0.00    -0.047 A 
ATOM      5  C3  UNL d   1      -5.017  -5.606   0.492  0.00  0.00    -0.047 A 
ATOM      6  C4  UNL d   1      -5.286  -4.352  -0.014  0.00  0.00    -0.004 A 
ENDROOT
TORSDOF 0
ENDMDL
