MODEL 1
REMARK minimizedAffinity 4.80549812
REMARK minimizedRMSD -1
REMARK  0 active torsions:
REMARK  status: ('A' for Active; 'I' for Inactive)
ROOT
ATOM      1  C   UNL d   1      -3.328   2.457   3.015  0.00  0.00     0.172 C 
ATOM      2  N   UNL d   1      -2.141   2.422   2.193  0.00  0.00    -0.070 N 
ATOM      3  C1  UNL d   1      -1.853   3.285   1.170  0.00  0.00    -0.004 A 
ATOM      4  C2  UNL d   1      -0.635   2.920   0.639  0.00  0.00    -0.047 A 
ATOM      5  C3  UNL d   1      -0.175   1.797   1.368  0.00  0.00    -0.047 A 
ATOM      6  C4  UNL d   1      -1.127   1.510   2.324  0.00  0.00    -0.004 A 
ENDROOT
TORSDOF 0
ENDMDL
