MODEL 1
REMARK minimizedAffinity -3.55234814
REMARK minimizedRMSD -1
REMARK  0 active torsions:
REMARK  status: ('A' for Active; 'I' for Inactive)
ROOT
ATOM      1  C   UNL d   1       1.823   0.226   3.350  0.00  0.00     0.172 C 
ATOM      2  N   UNL d   1       0.898   0.660   2.329  0.00  0.00    -0.070 N 
ATOM      3  C1  UNL d   1       0.210  -0.160   1.475  0.00  0.00    -0.004 A 
ATOM      4  C2  UNL d   1      -0.564   0.635   0.658  0.00  0.00    -0.047 A 
ATOM      5  C3  UNL d   1      -0.331   1.980   1.033  0.00  0.00    -0.047 A 
ATOM      6  C4  UNL d   1       0.578   1.966   2.070  0.00  0.00    -0.004 A 
ENDROOT
TORSDOF 0
ENDMDL
