MODEL 1
REMARK minimizedAffinity 1.31361926
REMARK minimizedRMSD -1
REMARK  0 active torsions:
REMARK  status: ('A' for Active; 'I' for Inactive)
ROOT
ATOM      1  C   UNL d   1       2.094   0.317  -0.279  0.00  0.00     0.172 C 
ATOM      2  N   UNL d   1       0.836   0.195   0.419  0.00  0.00    -0.070 N 
ATOM      3  C1  UNL d   1       0.482  -0.833   1.252  0.00  0.00    -0.004 A 
ATOM      4  C2  UNL d   1      -0.790  -0.579   1.717  0.00  0.00    -0.047 A 
ATOM      5  C3  UNL d   1      -1.216   0.643   1.144  0.00  0.00    -0.047 A 
ATOM      6  C4  UNL d   1      -0.189   1.100   0.345  0.00  0.00    -0.004 A 
ENDROOT
TORSDOF 0
ENDMDL
