MODEL 1
REMARK minimizedAffinity -0.496818662
REMARK minimizedRMSD -1
REMARK  0 active torsions:
REMARK  status: ('A' for Active; 'I' for Inactive)
ROOT
ATOM      1  C   UNL d   1      -0.113  -2.112   1.977  0.00  0.00     0.172 C 
ATOM      2  N   UNL d   1      -0.224  -0.791   1.405  0.00  0.00    -0.070 N 
ATOM      3  C1  UNL d   1      -1.382  -0.203   0.971  0.00  0.00    -0.004 A 
ATOM      4  C2  UNL d   1      -1.066   1.053   0.498  0.00  0.00    -0.047 A 
ATOM      5  C3  UNL d   1       0.330   1.225   0.652  0.00  0.00    -0.047 A 
ATOM      6  C4  UNL d   1       0.826   0.068   1.216  0.00  0.00    -0.004 A 
ENDROOT
TORSDOF 0
ENDMDL
