MODEL 1
REMARK minimizedAffinity 0.618370116
REMARK minimizedRMSD -1
REMARK  0 active torsions:
REMARK  status: ('A' for Active; 'I' for Inactive)
ROOT
ATOM      1  C   UNL d   1      -2.561  -0.070   1.649  0.00  0.00     0.172 C 
ATOM      2  N   UNL d   1      -1.203   0.336   1.372  0.00  0.00    -0.070 N 
ATOM      3  C1  UNL d   1      -0.816   1.562   0.902  0.00  0.00    -0.004 A 
ATOM      4  C2  UNL d   1       0.556   1.551   0.772  0.00  0.00    -0.047 A 
ATOM      5  C3  UNL d   1       1.009   0.273   1.176  0.00  0.00    -0.047 A 
ATOM      6  C4  UNL d   1      -0.100  -0.459   1.543  0.00  0.00    -0.004 A 
ENDROOT
TORSDOF 0
ENDMDL
