MODEL 1
REMARK minimizedAffinity 0.853955328
REMARK minimizedRMSD -1
REMARK  0 active torsions:
REMARK  status: ('A' for Active; 'I' for Inactive)
ROOT
ATOM      1  C   UNL d   1      -5.996   5.985   4.517  0.00  0.00     0.172 C 
ATOM      2  N   UNL d   1      -5.640   4.625   4.846  0.00  0.00    -0.070 N 
ATOM      3  C1  UNL d   1      -4.897   3.783   4.063  0.00  0.00    -0.004 A 
ATOM      4  C2  UNL d   1      -4.780   2.581   4.727  0.00  0.00    -0.047 A 
ATOM      5  C3  UNL d   1      -5.477   2.705   5.952  0.00  0.00    -0.047 A 
ATOM      6  C4  UNL d   1      -6.000   3.980   6.000  0.00  0.00    -0.004 A 
ENDROOT
TORSDOF 0
ENDMDL
