MODEL 1
REMARK minimizedAffinity 3.13021207
REMARK minimizedRMSD -1
REMARK  0 active torsions:
REMARK  status: ('A' for Active; 'I' for Inactive)
ROOT
ATOM      1  C   UNL d   1      -2.514   2.314   2.598  0.00  0.00     0.172 C 
ATOM      2  N   UNL d   1      -1.268   1.767   2.115  0.00  0.00    -0.070 N 
ATOM      3  C1  UNL d   1      -0.756   0.539   2.440  0.00  0.00    -0.004 A 
ATOM      4  C2  UNL d   1       0.442   0.393   1.777  0.00  0.00    -0.047 A 
ATOM      5  C3  UNL d   1       0.659   1.573   1.027  0.00  0.00    -0.047 A 
ATOM      6  C4  UNL d   1      -0.416   2.407   1.255  0.00  0.00    -0.004 A 
ENDROOT
TORSDOF 0
ENDMDL
