MODEL 1
REMARK minimizedAffinity -0.14921774
REMARK minimizedRMSD -1
REMARK  0 active torsions:
REMARK  status: ('A' for Active; 'I' for Inactive)
ROOT
ATOM      1  C   UNL d   1       0.308   1.872   1.145  0.00  0.00     0.172 C 
ATOM      2  N   UNL d   1      -0.984   1.629   1.742  0.00  0.00    -0.070 N 
ATOM      3  C1  UNL d   1      -1.935   2.579   2.002  0.00  0.00    -0.004 A 
ATOM      4  C2  UNL d   1      -3.020   1.947   2.571  0.00  0.00    -0.047 A 
ATOM      5  C3  UNL d   1      -2.710   0.569   2.656  0.00  0.00    -0.047 A 
ATOM      6  C4  UNL d   1      -1.444   0.400   2.136  0.00  0.00    -0.004 A 
ENDROOT
TORSDOF 0
ENDMDL
