MODEL 1
REMARK minimizedAffinity 0.347203493
REMARK minimizedRMSD -1
REMARK  0 active torsions:
REMARK  status: ('A' for Active; 'I' for Inactive)
ROOT
ATOM      1  C   UNL d   1      -4.405  -0.264  -2.225  0.00  0.00     0.172 C 
ATOM      2  N   UNL d   1      -4.042  -1.662  -2.206  0.00  0.00    -0.070 N 
ATOM      3  C1  UNL d   1      -4.218  -2.518  -1.152  0.00  0.00    -0.004 A 
ATOM      4  C2  UNL d   1      -3.746  -3.756  -1.531  0.00  0.00    -0.047 A 
ATOM      5  C3  UNL d   1      -3.270  -3.640  -2.858  0.00  0.00    -0.047 A 
ATOM      6  C4  UNL d   1      -3.465  -2.333  -3.252  0.00  0.00    -0.004 A 
ENDROOT
TORSDOF 0
ENDMDL
