MODEL 1
REMARK minimizedAffinity -2.71317244
REMARK minimizedRMSD -1
REMARK  0 active torsions:
REMARK  status: ('A' for Active; 'I' for Inactive)
ROOT
ATOM      1  C   UNL d   1      -2.139  -0.696   1.608  0.00  0.00     0.172 C 
ATOM      2  N   UNL d   1      -1.228   0.409   1.423  0.00  0.00    -0.070 N 
ATOM      3  C1  UNL d   1       0.091   0.306   1.070  0.00  0.00    -0.004 A 
ATOM      4  C2  UNL d   1       0.609   1.581   0.997  0.00  0.00    -0.047 A 
ATOM      5  C3  UNL d   1      -0.434   2.481   1.318  0.00  0.00    -0.047 A 
ATOM      6  C4  UNL d   1      -1.560   1.729   1.577  0.00  0.00    -0.004 A 
ENDROOT
TORSDOF 0
ENDMDL
