MODEL 1
REMARK minimizedAffinity -2.51302171
REMARK minimizedRMSD -1
REMARK  0 active torsions:
REMARK  status: ('A' for Active; 'I' for Inactive)
ROOT
ATOM      1  C   UNL d   1      -1.385   1.872   1.908  0.00  0.00     0.172 C 
ATOM      2  N   UNL d   1      -0.074   1.372   1.568  0.00  0.00    -0.070 N 
ATOM      3  C1  UNL d   1       0.413   1.205   0.299  0.00  0.00    -0.004 A 
ATOM      4  C2  UNL d   1       1.694   0.709   0.400  0.00  0.00    -0.047 A 
ATOM      5  C3  UNL d   1       1.988   0.571   1.778  0.00  0.00    -0.047 A 
ATOM      6  C4  UNL d   1       0.875   0.988   2.478  0.00  0.00    -0.004 A 
ENDROOT
TORSDOF 0
ENDMDL
