MODEL 1
REMARK minimizedAffinity -0.357123226
REMARK minimizedRMSD -1
REMARK  0 active torsions:
REMARK  status: ('A' for Active; 'I' for Inactive)
ROOT
ATOM      1  C   UNL d   1      -2.270  -0.345   1.121  0.00  0.00     0.172 C 
ATOM      2  N   UNL d   1      -0.994   0.324   1.210  0.00  0.00    -0.070 N 
ATOM      3  C1  UNL d   1      -0.805   1.644   1.523  0.00  0.00    -0.004 A 
ATOM      4  C2  UNL d   1       0.551   1.892   1.505  0.00  0.00    -0.047 A 
ATOM      5  C3  UNL d   1       1.199   0.680   1.168  0.00  0.00    -0.047 A 
ATOM      6  C4  UNL d   1       0.219  -0.274   0.991  0.00  0.00    -0.004 A 
ENDROOT
TORSDOF 0
ENDMDL
