MODEL 1
REMARK minimizedAffinity -1.82573068
REMARK minimizedRMSD -1
REMARK  0 active torsions:
REMARK  status: ('A' for Active; 'I' for Inactive)
ROOT
ATOM      1  C   UNL d   1       1.713   1.023   0.298  0.00  0.00     0.172 C 
ATOM      2  N   UNL d   1       0.408   1.100   0.913  0.00  0.00    -0.070 N 
ATOM      3  C1  UNL d   1      -0.398   0.034   1.209  0.00  0.00    -0.004 A 
ATOM      4  C2  UNL d   1      -1.551   0.524   1.785  0.00  0.00    -0.047 A 
ATOM      5  C3  UNL d   1      -1.433   1.933   1.834  0.00  0.00    -0.047 A 
ATOM      6  C4  UNL d   1      -0.211   2.263   1.288  0.00  0.00    -0.004 A 
ENDROOT
TORSDOF 0
ENDMDL
