MODEL 1
REMARK minimizedAffinity 9.55719948
REMARK minimizedRMSD -1
REMARK  0 active torsions:
REMARK  status: ('A' for Active; 'I' for Inactive)
ROOT
ATOM      1  C   UNL d   1      -4.241   5.968   5.999  0.00  0.00     0.078 C 
ATOM      2  C1  UNL d   1      -4.734   4.788   5.217  0.00  0.00    -0.077 A 
ATOM      3  C2  UNL d   1      -5.438   3.751   5.842  0.00  0.00    -0.001 A 
ATOM      4  C3  UNL d   1      -5.883   2.654   5.103  0.00  0.00     0.003 A 
ATOM      5  C4  UNL d   1      -5.629   2.582   3.735  0.00  0.00    -0.005 A 
ATOM      6  C5  UNL d   1      -4.928   3.608   3.104  0.00  0.00     0.003 A 
ATOM      7  C6  UNL d   1      -4.482   4.706   3.842  0.00  0.00    -0.001 A 
ENDROOT
TORSDOF 0
ENDMDL
