MODEL 1
REMARK minimizedAffinity 1.7335012
REMARK minimizedRMSD -1
REMARK  0 active torsions:
REMARK  status: ('A' for Active; 'I' for Inactive)
ROOT
ATOM      1  C   UNL d   1      -6.000   0.779  -3.897  0.00  0.00     0.078 C 
ATOM      2  C1  UNL d   1      -5.461   1.160  -2.551  0.00  0.00    -0.077 A 
ATOM      3  C2  UNL d   1      -4.689   0.263  -1.803  0.00  0.00    -0.001 A 
ATOM      4  C3  UNL d   1      -4.202   0.628  -0.547  0.00  0.00     0.003 A 
ATOM      5  C4  UNL d   1      -4.482   1.891  -0.027  0.00  0.00    -0.005 A 
ATOM      6  C5  UNL d   1      -5.252   2.789  -0.764  0.00  0.00     0.003 A 
ATOM      7  C6  UNL d   1      -5.740   2.426  -2.020  0.00  0.00    -0.001 A 
ENDROOT
TORSDOF 0
ENDMDL
