MODEL 1
REMARK minimizedAffinity 9.23928452
REMARK minimizedRMSD -1
REMARK  0 active torsions:
REMARK  status: ('A' for Active; 'I' for Inactive)
ROOT
ATOM      1  C   UNL d   1      -3.642   2.168   1.514  0.00  0.00     0.078 C 
ATOM      2  C1  UNL d   1      -4.064   1.366   0.319  0.00  0.00    -0.077 A 
ATOM      3  C2  UNL d   1      -3.116   0.797  -0.539  0.00  0.00    -0.001 A 
ATOM      4  C3  UNL d   1      -3.523   0.061  -1.653  0.00  0.00     0.003 A 
ATOM      5  C4  UNL d   1      -4.880  -0.112  -1.920  0.00  0.00    -0.005 A 
ATOM      6  C5  UNL d   1      -5.831   0.453  -1.073  0.00  0.00     0.003 A 
ATOM      7  C6  UNL d   1      -5.426   1.190   0.042  0.00  0.00    -0.001 A 
ENDROOT
TORSDOF 0
ENDMDL
