MODEL 1
REMARK minimizedAffinity 5.00373268
REMARK minimizedRMSD -1
REMARK  1 active torsions:
REMARK  status: ('A' for Active; 'I' for Inactive)
REMARK    1  A    between atoms: C1_2  and  C2_3 
ROOT
ATOM      1  C2  UNL d   1      -1.275  -0.062   2.975  0.00  0.00    -0.077 A 
ATOM      2  C3  UNL d   1      -0.015  -0.095   3.590  0.00  0.00     0.002 A 
ATOM      3  C4  UNL d   1       0.948  -1.017   3.176  0.00  0.00     0.002 A 
ATOM      4  C5  UNL d   1       0.664  -1.909   2.145  0.00  0.00    -0.004 A 
ATOM      5  C6  UNL d   1      -0.586  -1.886   1.528  0.00  0.00     0.002 A 
ATOM      6  C7  UNL d   1      -1.551  -0.966   1.940  0.00  0.00     0.002 A 
ENDROOT
BRANCH   1   7
ATOM      7  C1  UNL d   1      -2.298   0.964   3.385  0.00  0.00     0.055 C 
ATOM      8  C   UNL d   1      -3.604   0.777   2.627  0.00  0.00     0.019 C 
ENDBRANCH   1   7
TORSDOF 1
ENDMDL
