MODEL 1
REMARK minimizedAffinity 2.58000231
REMARK minimizedRMSD -1
REMARK  1 active torsions:
REMARK  status: ('A' for Active; 'I' for Inactive)
REMARK    1  A    between atoms: C1_2  and  C2_3 
ROOT
ATOM      1  C2  UNL d   1       4.108  -3.598   4.804  0.00  0.00    -0.077 A 
ATOM      2  C3  UNL d   1       5.196  -3.608   5.689  0.00  0.00     0.002 A 
ATOM      3  C4  UNL d   1       5.848  -4.805   5.992  0.00  0.00     0.002 A 
ATOM      4  C5  UNL d   1       5.423  -5.998   5.411  0.00  0.00    -0.004 A 
ATOM      5  C6  UNL d   1       4.341  -5.998   4.532  0.00  0.00     0.002 A 
ATOM      6  C7  UNL d   1       3.687  -4.804   4.229  0.00  0.00     0.002 A 
ENDROOT
BRANCH   1   7
ATOM      7  C1  UNL d   1       3.434  -2.301   4.438  0.00  0.00     0.055 C 
ATOM      8  C   UNL d   1       2.996  -2.297   2.981  0.00  0.00     0.019 C 
ENDBRANCH   1   7
TORSDOF 1
ENDMDL
