MODEL 1
REMARK minimizedAffinity 0.380728871
REMARK minimizedRMSD -1
REMARK  1 active torsions:
REMARK  status: ('A' for Active; 'I' for Inactive)
REMARK    1  A    between atoms: C1_2  and  C2_3 
ROOT
ATOM      1  C2  UNL d   1      -3.000   3.454  -5.049  0.00  0.00    -0.077 A 
ATOM      2  C3  UNL d   1      -3.012   4.856  -5.007  0.00  0.00     0.002 A 
ATOM      3  C4  UNL d   1      -4.126   5.566  -5.458  0.00  0.00     0.002 A 
ATOM      4  C5  UNL d   1      -5.237   4.885  -5.951  0.00  0.00    -0.004 A 
ATOM      5  C6  UNL d   1      -5.233   3.491  -6.000  0.00  0.00     0.002 A 
ATOM      6  C7  UNL d   1      -4.121   2.779  -5.550  0.00  0.00     0.002 A 
ENDROOT
BRANCH   1   7
ATOM      7  C1  UNL d   1      -1.820   2.684  -4.517  0.00  0.00     0.055 C 
ATOM      8  C   UNL d   1      -1.874   2.566  -3.001  0.00  0.00     0.019 C 
ENDBRANCH   1   7
TORSDOF 1
ENDMDL
