MODEL 1
REMARK minimizedAffinity 5.15763044
REMARK minimizedRMSD -1
REMARK  1 active torsions:
REMARK  status: ('A' for Active; 'I' for Inactive)
REMARK    1  A    between atoms: C1_2  and  C2_3 
ROOT
ATOM      1  C2  UNL d   1      -1.400  -0.563   2.134  0.00  0.00    -0.077 A 
ATOM      2  C3  UNL d   1      -0.286  -0.111   2.855  0.00  0.00     0.002 A 
ATOM      3  C4  UNL d   1      -0.390   1.003   3.690  0.00  0.00     0.002 A 
ATOM      4  C5  UNL d   1      -1.606   1.671   3.815  0.00  0.00    -0.004 A 
ATOM      5  C6  UNL d   1      -2.719   1.230   3.101  0.00  0.00     0.002 A 
ATOM      6  C7  UNL d   1      -2.617   0.118   2.265  0.00  0.00     0.002 A 
ENDROOT
BRANCH   1   7
ATOM      7  C1  UNL d   1      -1.302  -1.794   1.271  0.00  0.00     0.055 C 
ATOM      8  C   UNL d   1      -1.764  -3.035   2.022  0.00  0.00     0.019 C 
ENDBRANCH   1   7
TORSDOF 1
ENDMDL
