MODEL 1
REMARK minimizedAffinity 4.44126797
REMARK minimizedRMSD -1
REMARK  1 active torsions:
REMARK  status: ('A' for Active; 'I' for Inactive)
REMARK    1  A    between atoms: C1_2  and  C2_3 
ROOT
ATOM      1  C2  UNL d   1       1.916  -0.181  -0.541  0.00  0.00    -0.077 A 
ATOM      2  C3  UNL d   1       0.848  -0.182  -1.448  0.00  0.00     0.002 A 
ATOM      3  C4  UNL d   1       0.424   1.009  -2.041  0.00  0.00     0.002 A 
ATOM      4  C5  UNL d   1       1.064   2.208  -1.736  0.00  0.00    -0.004 A 
ATOM      5  C6  UNL d   1       2.127   2.220  -0.833  0.00  0.00     0.002 A 
ATOM      6  C7  UNL d   1       2.551   1.031  -0.239  0.00  0.00     0.002 A 
ENDROOT
BRANCH   1   7
ATOM      7  C1  UNL d   1       2.407  -1.471   0.062  0.00  0.00     0.055 C 
ATOM      8  C   UNL d   1       1.796  -1.709   1.435  0.00  0.00     0.019 C 
ENDBRANCH   1   7
TORSDOF 1
ENDMDL
