MODEL 1
REMARK minimizedAffinity 6.25982571
REMARK minimizedRMSD -1
REMARK  1 active torsions:
REMARK  status: ('A' for Active; 'I' for Inactive)
REMARK    1  A    between atoms: C1_2  and  C2_3 
ROOT
ATOM      1  C2  UNL d   1       1.330  -1.690   1.714  0.00  0.00    -0.077 A 
ATOM      2  C3  UNL d   1       2.355  -2.625   1.515  0.00  0.00     0.002 A 
ATOM      3  C4  UNL d   1       3.115  -2.602   0.344  0.00  0.00     0.002 A 
ATOM      4  C5  UNL d   1       2.861  -1.643  -0.635  0.00  0.00    -0.004 A 
ATOM      5  C6  UNL d   1       1.842  -0.710  -0.447  0.00  0.00     0.002 A 
ATOM      6  C7  UNL d   1       1.081  -0.732   0.722  0.00  0.00     0.002 A 
ENDROOT
BRANCH   1   7
ATOM      7  C1  UNL d   1       0.542  -1.682   2.997  0.00  0.00     0.055 C 
ATOM      8  C   UNL d   1       0.231  -0.262   3.448  0.00  0.00     0.019 C 
ENDBRANCH   1   7
TORSDOF 1
ENDMDL
