MODEL 1
REMARK minimizedAffinity 9.12246227
REMARK minimizedRMSD -1
REMARK  2 active torsions:
REMARK  status: ('A' for Active; 'I' for Inactive)
REMARK    1  A    between atoms: C1_2  and  C2_3 
REMARK    2  A    between atoms: C2_3  and  C3_4 
ROOT
ATOM      1  C3  UNL d   1      -4.129   5.983   3.576  0.00  0.00    -0.075 A 
ATOM      2  C4  UNL d   1      -4.689   5.972   4.862  0.00  0.00     0.002 A 
ATOM      3  C5  UNL d   1      -3.870   5.984   5.991  0.00  0.00     0.002 A 
ATOM      4  C6  UNL d   1      -2.484   5.998   5.850  0.00  0.00    -0.004 A 
ATOM      5  C7  UNL d   1      -1.917   5.993   4.578  0.00  0.00     0.002 A 
ATOM      6  C8  UNL d   1      -2.734   5.985   3.446  0.00  0.00     0.002 A 
ENDROOT
BRANCH   1   7
ATOM      7  C2  UNL d   1      -5.010   6.000   2.350  0.00  0.00     0.056 C 
BRANCH   7   8
ATOM      8  C1  UNL d   1      -5.592   4.631   1.982  0.00  0.00     0.007 C 
ATOM      9  C   UNL d   1      -4.543   3.528   1.926  0.00  0.00     0.009 C 
ENDBRANCH   7   8
ENDBRANCH   1   7
TORSDOF 2
ENDMDL
