MODEL 1
REMARK minimizedAffinity 2.10405755
REMARK minimizedRMSD -1
REMARK  2 active torsions:
REMARK  status: ('A' for Active; 'I' for Inactive)
REMARK    1  A    between atoms: C1_2  and  C2_3 
REMARK    2  A    between atoms: C2_3  and  C3_4 
ROOT
ATOM      1  C3  UNL d   1      -3.224   5.917   3.229  0.00  0.00    -0.075 A 
ATOM      2  C4  UNL d   1      -4.591   5.878   3.538  0.00  0.00     0.002 A 
ATOM      3  C5  UNL d   1      -5.547   5.885   2.521  0.00  0.00     0.002 A 
ATOM      4  C6  UNL d   1      -5.150   5.940   1.187  0.00  0.00    -0.004 A 
ATOM      5  C7  UNL d   1      -3.794   5.996   0.870  0.00  0.00     0.002 A 
ATOM      6  C8  UNL d   1      -2.835   5.985   1.885  0.00  0.00     0.002 A 
ENDROOT
BRANCH   1   7
ATOM      7  C2  UNL d   1      -2.184   5.880   4.323  0.00  0.00     0.056 C 
BRANCH   7   8
ATOM      8  C1  UNL d   1      -2.762   5.998   5.738  0.00  0.00     0.007 C 
ATOM      9  C   UNL d   1      -4.285   5.997   5.766  0.00  0.00     0.009 C 
ENDBRANCH   7   8
ENDBRANCH   1   7
TORSDOF 2
ENDMDL
