MODEL 1
REMARK minimizedAffinity 11.4931545
REMARK minimizedRMSD -1
REMARK  2 active torsions:
REMARK  status: ('A' for Active; 'I' for Inactive)
REMARK    1  A    between atoms: C1_2  and  C2_3 
REMARK    2  A    between atoms: C2_3  and  C3_4 
ROOT
ATOM      1  C3  UNL d   1       0.761  -1.257  -3.217  0.00  0.00    -0.075 A 
ATOM      2  C4  UNL d   1       1.308  -0.354  -2.294  0.00  0.00     0.002 A 
ATOM      3  C5  UNL d   1       1.237   1.021  -2.521  0.00  0.00     0.002 A 
ATOM      4  C6  UNL d   1       0.628   1.509  -3.676  0.00  0.00    -0.004 A 
ATOM      5  C7  UNL d   1       0.096   0.620  -4.607  0.00  0.00     0.002 A 
ATOM      6  C8  UNL d   1       0.162  -0.756  -4.381  0.00  0.00     0.002 A 
ENDROOT
BRANCH   1   7
ATOM      7  C2  UNL d   1       0.808  -2.745  -2.963  0.00  0.00     0.056 C 
BRANCH   7   8
ATOM      8  C1  UNL d   1       0.433  -3.598  -4.179  0.00  0.00     0.007 C 
ATOM      9  C   UNL d   1       1.640  -4.053  -4.989  0.00  0.00     0.009 C 
ENDBRANCH   7   8
ENDBRANCH   1   7
TORSDOF 2
ENDMDL
