MODEL 1
REMARK minimizedAffinity 4.89965916
REMARK minimizedRMSD -1
REMARK  2 active torsions:
REMARK  status: ('A' for Active; 'I' for Inactive)
REMARK    1  A    between atoms: C1_2  and  C2_3 
REMARK    2  A    between atoms: C2_3  and  C3_4 
ROOT
ATOM      1  C3  UNL d   1      -3.528   5.983   3.896  0.00  0.00    -0.075 A 
ATOM      2  C4  UNL d   1      -2.644   5.975   2.807  0.00  0.00     0.002 A 
ATOM      3  C5  UNL d   1      -3.131   5.988   1.500  0.00  0.00     0.002 A 
ATOM      4  C6  UNL d   1      -4.504   5.999   1.265  0.00  0.00    -0.004 A 
ATOM      5  C7  UNL d   1      -5.391   5.990   2.339  0.00  0.00     0.002 A 
ATOM      6  C8  UNL d   1      -4.907   5.981   3.648  0.00  0.00     0.002 A 
ENDROOT
BRANCH   1   7
ATOM      7  C2  UNL d   1      -3.007   5.998   5.313  0.00  0.00     0.056 C 
BRANCH   7   8
ATOM      8  C1  UNL d   1      -2.663   4.611   5.867  0.00  0.00     0.007 C 
ATOM      9  C   UNL d   1      -2.433   3.571   4.779  0.00  0.00     0.009 C 
ENDBRANCH   7   8
ENDBRANCH   1   7
TORSDOF 2
ENDMDL
