MODEL 1
REMARK minimizedAffinity 6.43594551
REMARK minimizedRMSD -1
REMARK  2 active torsions:
REMARK  status: ('A' for Active; 'I' for Inactive)
REMARK    1  A    between atoms: C1_2  and  C2_3 
REMARK    2  A    between atoms: C2_3  and  C3_4 
ROOT
ATOM      1  C3  UNL d   1      -4.274   5.854   3.212  0.00  0.00    -0.075 A 
ATOM      2  C4  UNL d   1      -2.876   5.951   3.172  0.00  0.00     0.002 A 
ATOM      3  C5  UNL d   1      -2.202   5.967   1.950  0.00  0.00     0.002 A 
ATOM      4  C6  UNL d   1      -2.915   5.876   0.757  0.00  0.00    -0.004 A 
ATOM      5  C7  UNL d   1      -4.303   5.762   0.786  0.00  0.00     0.002 A 
ATOM      6  C8  UNL d   1      -4.980   5.750   2.007  0.00  0.00     0.002 A 
ENDROOT
BRANCH   1   7
ATOM      7  C2  UNL d   1      -5.011   5.866   4.530  0.00  0.00     0.056 C 
BRANCH   7   8
ATOM      8  C1  UNL d   1      -4.097   5.976   5.755  0.00  0.00     0.007 C 
ATOM      9  C   UNL d   1      -2.617   5.895   5.409  0.00  0.00     0.009 C 
ENDBRANCH   7   8
ENDBRANCH   1   7
TORSDOF 2
ENDMDL
