MODEL 1
REMARK minimizedAffinity 5.20905495
REMARK minimizedRMSD -1
REMARK  2 active torsions:
REMARK  status: ('A' for Active; 'I' for Inactive)
REMARK    1  A    between atoms: C1_2  and  C2_3 
REMARK    2  A    between atoms: C2_3  and  C3_4 
ROOT
ATOM      1  C3  UNL d   1      -4.333   5.964   3.608  0.00  0.00    -0.075 A 
ATOM      2  C4  UNL d   1      -3.069   5.978   3.000  0.00  0.00     0.002 A 
ATOM      3  C5  UNL d   1      -1.910   5.985   3.777  0.00  0.00     0.002 A 
ATOM      4  C6  UNL d   1      -2.000   5.988   5.167  0.00  0.00    -0.004 A 
ATOM      5  C7  UNL d   1      -3.250   5.990   5.781  0.00  0.00     0.002 A 
ATOM      6  C8  UNL d   1      -4.412   5.979   5.007  0.00  0.00     0.002 A 
ENDROOT
BRANCH   1   7
ATOM      7  C2  UNL d   1      -5.591   5.927   2.773  0.00  0.00     0.056 C 
BRANCH   7   8
ATOM      8  C1  UNL d   1      -5.724   4.674   1.901  0.00  0.00     0.007 C 
ATOM      9  C   UNL d   1      -4.471   3.808   1.899  0.00  0.00     0.009 C 
ENDBRANCH   7   8
ENDBRANCH   1   7
TORSDOF 2
ENDMDL
