MODEL 1
REMARK minimizedAffinity 7.71482992
REMARK minimizedRMSD -1
REMARK  2 active torsions:
REMARK  status: ('A' for Active; 'I' for Inactive)
REMARK    1  A    between atoms: C1_2  and  C2_3 
REMARK    2  A    between atoms: C2_3  and  C3_4 
ROOT
ATOM      1  C3  UNL d   1      -3.785   5.309   3.258  0.00  0.00    -0.075 A 
ATOM      2  C4  UNL d   1      -3.662   3.972   2.852  0.00  0.00     0.002 A 
ATOM      3  C5  UNL d   1      -4.692   3.347   2.149  0.00  0.00     0.002 A 
ATOM      4  C6  UNL d   1      -5.860   4.046   1.851  0.00  0.00    -0.004 A 
ATOM      5  C7  UNL d   1      -6.000   5.370   2.263  0.00  0.00     0.002 A 
ATOM      6  C8  UNL d   1      -4.969   5.998   2.963  0.00  0.00     0.002 A 
ENDROOT
BRANCH   1   7
ATOM      7  C2  UNL d   1      -2.662   5.999   3.994  0.00  0.00     0.056 C 
BRANCH   7   8
ATOM      8  C1  UNL d   1      -2.820   5.996   5.518  0.00  0.00     0.007 C 
ATOM      9  C   UNL d   1      -3.990   5.148   5.998  0.00  0.00     0.009 C 
ENDBRANCH   7   8
ENDBRANCH   1   7
TORSDOF 2
ENDMDL
