MODEL 1
REMARK minimizedAffinity 9.38371181
REMARK minimizedRMSD -1
REMARK  2 active torsions:
REMARK  status: ('A' for Active; 'I' for Inactive)
REMARK    1  A    between atoms: C1_2  and  C2_3 
REMARK    2  A    between atoms: C2_3  and  C3_4 
ROOT
ATOM      1  C3  UNL d   1      -3.795   3.737   2.653  0.00  0.00    -0.075 A 
ATOM      2  C4  UNL d   1      -5.094   3.742   2.125  0.00  0.00     0.002 A 
ATOM      3  C5  UNL d   1      -5.906   4.869   2.252  0.00  0.00     0.002 A 
ATOM      4  C6  UNL d   1      -5.435   6.000   2.916  0.00  0.00    -0.004 A 
ATOM      5  C7  UNL d   1      -4.152   6.000   3.459  0.00  0.00     0.002 A 
ATOM      6  C8  UNL d   1      -3.336   4.875   3.330  0.00  0.00     0.002 A 
ENDROOT
BRANCH   1   7
ATOM      7  C2  UNL d   1      -2.900   2.531   2.493  0.00  0.00     0.056 C 
BRANCH   7   8
ATOM      8  C1  UNL d   1      -3.517   1.225   3.006  0.00  0.00     0.007 C 
ATOM      9  C   UNL d   1      -2.831  -0.019   2.457  0.00  0.00     0.009 C 
ENDBRANCH   7   8
ENDBRANCH   1   7
TORSDOF 2
ENDMDL
