MODEL 1
REMARK minimizedAffinity 2.79368496
REMARK minimizedRMSD -1
REMARK  2 active torsions:
REMARK  status: ('A' for Active; 'I' for Inactive)
REMARK    1  A    between atoms: C1_2  and  C2_3 
REMARK    2  A    between atoms: C2_3  and  C3_4 
ROOT
ATOM      1  C3  UNL d   1      -2.974   5.982   2.937  0.00  0.00    -0.075 A 
ATOM      2  C4  UNL d   1      -4.310   5.966   3.362  0.00  0.00     0.002 A 
ATOM      3  C5  UNL d   1      -4.621   5.980   4.722  0.00  0.00     0.002 A 
ATOM      4  C6  UNL d   1      -3.602   6.000   5.672  0.00  0.00    -0.004 A 
ATOM      5  C7  UNL d   1      -2.271   6.000   5.261  0.00  0.00     0.002 A 
ATOM      6  C8  UNL d   1      -1.957   5.990   3.901  0.00  0.00     0.002 A 
ENDROOT
BRANCH   1   7
ATOM      7  C2  UNL d   1      -2.632   5.997   1.466  0.00  0.00     0.056 C 
BRANCH   7   8
ATOM      8  C1  UNL d   1      -2.716   4.623   0.792  0.00  0.00     0.007 C 
ATOM      9  C   UNL d   1      -3.013   3.493   1.769  0.00  0.00     0.009 C 
ENDBRANCH   7   8
ENDBRANCH   1   7
TORSDOF 2
ENDMDL
