MODEL 1
REMARK minimizedAffinity -0.971220732
REMARK minimizedRMSD -1
REMARK  2 active torsions:
REMARK  status: ('A' for Active; 'I' for Inactive)
REMARK    1  A    between atoms: C1_2  and  C2_3 
REMARK    2  A    between atoms: C2_3  and  C3_4 
ROOT
ATOM      1  C3  UNL d   1      -2.945   5.989   3.379  0.00  0.00    -0.075 A 
ATOM      2  C4  UNL d   1      -2.114   6.000   4.509  0.00  0.00     0.002 A 
ATOM      3  C5  UNL d   1      -2.662   5.997   5.792  0.00  0.00     0.002 A 
ATOM      4  C6  UNL d   1      -4.045   5.993   5.961  0.00  0.00    -0.004 A 
ATOM      5  C7  UNL d   1      -4.880   5.999   4.846  0.00  0.00     0.002 A 
ATOM      6  C8  UNL d   1      -4.334   5.998   3.561  0.00  0.00     0.002 A 
ENDROOT
BRANCH   1   7
ATOM      7  C2  UNL d   1      -2.358   5.963   1.988  0.00  0.00     0.056 C 
BRANCH   7   8
ATOM      8  C1  UNL d   1      -2.597   4.650   1.235  0.00  0.00     0.007 C 
ATOM      9  C   UNL d   1      -3.017   3.504   2.145  0.00  0.00     0.009 C 
ENDBRANCH   7   8
ENDBRANCH   1   7
TORSDOF 2
ENDMDL
