MODEL 1
REMARK minimizedAffinity 1.58753788
REMARK minimizedRMSD -1
REMARK  2 active torsions:
REMARK  status: ('A' for Active; 'I' for Inactive)
REMARK    1  A    between atoms: C1_2  and  C2_3 
REMARK    2  A    between atoms: C2_3  and  C3_4 
ROOT
ATOM      1  C3  UNL d   1      -3.392   3.807   2.946  0.00  0.00    -0.075 A 
ATOM      2  C4  UNL d   1      -4.493   4.586   2.563  0.00  0.00     0.002 A 
ATOM      3  C5  UNL d   1      -4.892   5.677   3.335  0.00  0.00     0.002 A 
ATOM      4  C6  UNL d   1      -4.204   5.996   4.504  0.00  0.00    -0.004 A 
ATOM      5  C7  UNL d   1      -3.119   5.219   4.903  0.00  0.00     0.002 A 
ATOM      6  C8  UNL d   1      -2.714   4.130   4.130  0.00  0.00     0.002 A 
ENDROOT
BRANCH   1   7
ATOM      7  C2  UNL d   1      -2.937   2.643   2.099  0.00  0.00     0.056 C 
BRANCH   7   8
ATOM      8  C1  UNL d   1      -2.953   1.296   2.829  0.00  0.00     0.007 C 
ATOM      9  C   UNL d   1      -2.890   0.101   1.887  0.00  0.00     0.009 C 
ENDBRANCH   7   8
ENDBRANCH   1   7
TORSDOF 2
ENDMDL
