MODEL 1
REMARK minimizedAffinity 10.4497805
REMARK minimizedRMSD -1
REMARK  2 active torsions:
REMARK  status: ('A' for Active; 'I' for Inactive)
REMARK    1  A    between atoms: C1_2  and  C2_3 
REMARK    2  A    between atoms: C2_3  and  C3_4 
ROOT
ATOM      1  C3  UNL d   1      -3.080   3.603   2.994  0.00  0.00    -0.075 A 
ATOM      2  C4  UNL d   1      -2.881   3.618   4.382  0.00  0.00     0.002 A 
ATOM      3  C5  UNL d   1      -2.988   4.809   5.100  0.00  0.00     0.002 A 
ATOM      4  C6  UNL d   1      -3.284   6.000   4.440  0.00  0.00    -0.004 A 
ATOM      5  C7  UNL d   1      -3.467   5.999   3.059  0.00  0.00     0.002 A 
ATOM      6  C8  UNL d   1      -3.365   4.808   2.339  0.00  0.00     0.002 A 
ENDROOT
BRANCH   1   7
ATOM      7  C2  UNL d   1      -2.994   2.312   2.216  0.00  0.00     0.056 C 
BRANCH   7   8
ATOM      8  C1  UNL d   1      -2.469   1.125   3.031  0.00  0.00     0.007 C 
ATOM      9  C   UNL d   1      -3.424  -0.060   3.051  0.00  0.00     0.009 C 
ENDBRANCH   7   8
ENDBRANCH   1   7
TORSDOF 2
ENDMDL
