MODEL 1
REMARK minimizedAffinity 5.73920155
REMARK minimizedRMSD -1
REMARK  2 active torsions:
REMARK  status: ('A' for Active; 'I' for Inactive)
REMARK    1  A    between atoms: C1_2  and  C2_3 
REMARK    2  A    between atoms: C2_3  and  C3_4 
ROOT
ATOM      1  C3  UNL d   1      -3.422   4.099   2.674  0.00  0.00    -0.075 A 
ATOM      2  C4  UNL d   1      -2.558   4.126   3.779  0.00  0.00     0.002 A 
ATOM      3  C5  UNL d   1      -2.738   5.064   4.796  0.00  0.00     0.002 A 
ATOM      4  C6  UNL d   1      -3.775   5.992   4.716  0.00  0.00    -0.004 A 
ATOM      5  C7  UNL d   1      -4.628   5.985   3.615  0.00  0.00     0.002 A 
ATOM      6  C8  UNL d   1      -4.453   5.044   2.598  0.00  0.00     0.002 A 
ENDROOT
BRANCH   1   7
ATOM      7  C2  UNL d   1      -3.250   3.068   1.584  0.00  0.00     0.056 C 
BRANCH   7   8
ATOM      8  C1  UNL d   1      -3.357   1.620   2.074  0.00  0.00     0.007 C 
ATOM      9  C   UNL d   1      -2.018   1.026   2.489  0.00  0.00     0.009 C 
ENDBRANCH   7   8
ENDBRANCH   1   7
TORSDOF 2
ENDMDL
