MODEL 1
REMARK minimizedAffinity 0.644906521
REMARK minimizedRMSD -1
REMARK  2 active torsions:
REMARK  status: ('A' for Active; 'I' for Inactive)
REMARK    1  A    between atoms: C1_2  and  C2_3 
REMARK    2  A    between atoms: C2_3  and  C3_4 
ROOT
ATOM      1  C3  UNL d   1      -3.663   5.739   3.562  0.00  0.00    -0.075 A 
ATOM      2  C4  UNL d   1      -2.990   5.775   4.792  0.00  0.00     0.002 A 
ATOM      3  C5  UNL d   1      -3.701   5.899   5.985  0.00  0.00     0.002 A 
ATOM      4  C6  UNL d   1      -5.091   6.000   5.964  0.00  0.00    -0.004 A 
ATOM      5  C7  UNL d   1      -5.768   5.982   4.747  0.00  0.00     0.002 A 
ATOM      6  C8  UNL d   1      -5.059   5.853   3.552  0.00  0.00     0.002 A 
ENDROOT
BRANCH   1   7
ATOM      7  C2  UNL d   1      -2.901   5.575   2.269  0.00  0.00     0.056 C 
BRANCH   7   8
ATOM      8  C1  UNL d   1      -3.020   4.179   1.647  0.00  0.00     0.007 C 
ATOM      9  C   UNL d   1      -3.090   3.065   2.683  0.00  0.00     0.009 C 
ENDBRANCH   7   8
ENDBRANCH   1   7
TORSDOF 2
ENDMDL
