MODEL 1
REMARK minimizedAffinity 7.71439028
REMARK minimizedRMSD -1
REMARK  2 active torsions:
REMARK  status: ('A' for Active; 'I' for Inactive)
REMARK    1  A    between atoms: C1_2  and  C2_3 
REMARK    2  A    between atoms: C2_3  and  C3_4 
ROOT
ATOM      1  C3  UNL d   1      -2.562   5.251   3.558  0.00  0.00    -0.075 A 
ATOM      2  C4  UNL d   1      -2.315   5.965   2.377  0.00  0.00     0.002 A 
ATOM      3  C5  UNL d   1      -2.466   5.352   1.133  0.00  0.00     0.002 A 
ATOM      4  C6  UNL d   1      -2.855   4.017   1.054  0.00  0.00    -0.004 A 
ATOM      5  C7  UNL d   1      -3.087   3.292   2.221  0.00  0.00     0.002 A 
ATOM      6  C8  UNL d   1      -2.941   3.905   3.467  0.00  0.00     0.002 A 
ENDROOT
BRANCH   1   7
ATOM      7  C2  UNL d   1      -2.430   5.917   4.907  0.00  0.00     0.056 C 
BRANCH   7   8
ATOM      8  C1  UNL d   1      -3.730   5.952   5.716  0.00  0.00     0.007 C 
ATOM      9  C   UNL d   1      -4.979   5.987   4.844  0.00  0.00     0.009 C 
ENDBRANCH   7   8
ENDBRANCH   1   7
TORSDOF 2
ENDMDL
