MODEL 1
REMARK minimizedAffinity 1.61536729
REMARK minimizedRMSD -1
REMARK  2 active torsions:
REMARK  status: ('A' for Active; 'I' for Inactive)
REMARK    1  A    between atoms: C1_2  and  C2_3 
REMARK    2  A    between atoms: C2_3  and  C3_4 
ROOT
ATOM      1  C3  UNL d   1      -3.450   3.805   2.702  0.00  0.00    -0.075 A 
ATOM      2  C4  UNL d   1      -2.691   4.183   3.819  0.00  0.00     0.002 A 
ATOM      3  C5  UNL d   1      -3.078   5.270   4.603  0.00  0.00     0.002 A 
ATOM      4  C6  UNL d   1      -4.219   5.999   4.275  0.00  0.00    -0.004 A 
ATOM      5  C7  UNL d   1      -4.971   5.643   3.158  0.00  0.00     0.002 A 
ATOM      6  C8  UNL d   1      -4.589   4.552   2.374  0.00  0.00     0.002 A 
ENDROOT
BRANCH   1   7
ATOM      7  C2  UNL d   1      -3.054   2.611   1.867  0.00  0.00     0.056 C 
BRANCH   7   8
ATOM      8  C1  UNL d   1      -2.568   1.410   2.686  0.00  0.00     0.007 C 
ATOM      9  C   UNL d   1      -3.681   0.431   3.034  0.00  0.00     0.009 C 
ENDBRANCH   7   8
ENDBRANCH   1   7
TORSDOF 2
ENDMDL
