MODEL 1
REMARK minimizedAffinity 2.58773637
REMARK minimizedRMSD -1
REMARK  2 active torsions:
REMARK  status: ('A' for Active; 'I' for Inactive)
REMARK    1  A    between atoms: C1_2  and  C2_3 
REMARK    2  A    between atoms: C2_3  and  C3_4 
ROOT
ATOM      1  C3  UNL d   1      -3.470   5.973   3.054  0.00  0.00    -0.075 A 
ATOM      2  C4  UNL d   1      -2.609   5.985   4.161  0.00  0.00     0.002 A 
ATOM      3  C5  UNL d   1      -3.124   5.991   5.458  0.00  0.00     0.002 A 
ATOM      4  C6  UNL d   1      -4.501   5.994   5.664  0.00  0.00    -0.004 A 
ATOM      5  C7  UNL d   1      -5.366   5.998   4.572  0.00  0.00     0.002 A 
ATOM      6  C8  UNL d   1      -4.854   5.988   3.273  0.00  0.00     0.002 A 
ENDROOT
BRANCH   1   7
ATOM      7  C2  UNL d   1      -2.920   5.937   1.648  0.00  0.00     0.056 C 
BRANCH   7   8
ATOM      8  C1  UNL d   1      -2.683   4.524   1.106  0.00  0.00     0.007 C 
ATOM      9  C   UNL d   1      -2.997   3.432   2.121  0.00  0.00     0.009 C 
ENDBRANCH   7   8
ENDBRANCH   1   7
TORSDOF 2
ENDMDL
