MODEL 1
REMARK minimizedAffinity 4.4470458
REMARK minimizedRMSD -1
REMARK  0 active torsions:
REMARK  status: ('A' for Active; 'I' for Inactive)
ROOT
ATOM      1  C   UNL d   1       1.660   4.991  -1.295  0.00  0.00     0.078 C 
ATOM      2  C1  UNL d   1       1.549   3.499  -1.391  0.00  0.00    -0.077 A 
ATOM      3  C2  UNL d   1       0.715   2.898  -2.342  0.00  0.00    -0.001 A 
ATOM      4  C3  UNL d   1       0.614   1.508  -2.414  0.00  0.00     0.003 A 
ATOM      5  C4  UNL d   1       1.343   0.707  -1.538  0.00  0.00    -0.005 A 
ATOM      6  C5  UNL d   1       2.173   1.296  -0.587  0.00  0.00     0.003 A 
ATOM      7  C6  UNL d   1       2.276   2.686  -0.513  0.00  0.00    -0.001 A 
ENDROOT
TORSDOF 0
ENDMDL
