MODEL 1
REMARK minimizedAffinity -2.21270108
REMARK minimizedRMSD -1
REMARK  0 active torsions:
REMARK  status: ('A' for Active; 'I' for Inactive)
ROOT
ATOM      1  C   UNL d   1       1.682   4.735  -0.706  0.00  0.00     0.078 C 
ATOM      2  C1  UNL d   1       1.516   3.285  -1.050  0.00  0.00    -0.077 A 
ATOM      3  C2  UNL d   1       2.062   2.284  -0.237  0.00  0.00    -0.001 A 
ATOM      4  C3  UNL d   1       1.908   0.938  -0.575  0.00  0.00     0.003 A 
ATOM      5  C4  UNL d   1       1.209   0.582  -1.727  0.00  0.00    -0.005 A 
ATOM      6  C5  UNL d   1       0.665   1.571  -2.543  0.00  0.00     0.003 A 
ATOM      7  C6  UNL d   1       0.817   2.917  -2.207  0.00  0.00    -0.001 A 
ENDROOT
TORSDOF 0
ENDMDL
