MODEL 1
REMARK minimizedAffinity 0.885753691
REMARK minimizedRMSD -1
REMARK  0 active torsions:
REMARK  status: ('A' for Active; 'I' for Inactive)
ROOT
ATOM      1  C   UNL d   1      -2.947   1.877   2.381  0.00  0.00     0.078 C 
ATOM      2  C1  UNL d   1      -2.434   1.082   3.545  0.00  0.00    -0.077 A 
ATOM      3  C2  UNL d   1      -2.578   1.548   4.857  0.00  0.00    -0.001 A 
ATOM      4  C3  UNL d   1      -2.087   0.802   5.930  0.00  0.00     0.003 A 
ATOM      5  C4  UNL d   1      -1.447  -0.415   5.701  0.00  0.00    -0.005 A 
ATOM      6  C5  UNL d   1      -1.297  -0.886   4.398  0.00  0.00     0.003 A 
ATOM      7  C6  UNL d   1      -1.787  -0.141   3.324  0.00  0.00    -0.001 A 
ENDROOT
TORSDOF 0
ENDMDL
