MODEL 1
REMARK minimizedAffinity 0.692909241
REMARK minimizedRMSD -1
REMARK  0 active torsions:
REMARK  status: ('A' for Active; 'I' for Inactive)
ROOT
ATOM      1  C   UNL d   1      -0.754  -1.577   4.179  0.00  0.00     0.078 C 
ATOM      2  C1  UNL d   1      -1.760  -2.684   4.275  0.00  0.00    -0.077 A 
ATOM      3  C2  UNL d   1      -2.458  -2.923   5.466  0.00  0.00    -0.001 A 
ATOM      4  C3  UNL d   1      -3.385  -3.964   5.544  0.00  0.00     0.003 A 
ATOM      5  C4  UNL d   1      -3.622  -4.774   4.436  0.00  0.00    -0.005 A 
ATOM      6  C5  UNL d   1      -2.931  -4.546   3.248  0.00  0.00     0.003 A 
ATOM      7  C6  UNL d   1      -2.004  -3.506   3.167  0.00  0.00    -0.001 A 
ENDROOT
TORSDOF 0
ENDMDL
