MODEL 1
REMARK minimizedAffinity -3.59421539
REMARK minimizedRMSD -1
REMARK  0 active torsions:
REMARK  status: ('A' for Active; 'I' for Inactive)
ROOT
ATOM      1  C   UNL d   1       1.427   0.320  -1.799  0.00  0.00     0.078 C 
ATOM      2  C1  UNL d   1       1.388   1.620  -1.054  0.00  0.00    -0.077 A 
ATOM      3  C2  UNL d   1       1.491   1.655   0.342  0.00  0.00    -0.001 A 
ATOM      4  C3  UNL d   1       1.443   2.873   1.023  0.00  0.00     0.003 A 
ATOM      5  C4  UNL d   1       1.290   4.064   0.317  0.00  0.00    -0.005 A 
ATOM      6  C5  UNL d   1       1.185   4.039  -1.073  0.00  0.00     0.003 A 
ATOM      7  C6  UNL d   1       1.233   2.823  -1.755  0.00  0.00    -0.001 A 
ENDROOT
TORSDOF 0
ENDMDL
