MODEL 1
REMARK minimizedAffinity -0.627765357
REMARK minimizedRMSD -1
REMARK  0 active torsions:
REMARK  status: ('A' for Active; 'I' for Inactive)
ROOT
ATOM      1  C   UNL d   1       0.936   1.644   1.668  0.00  0.00     0.078 C 
ATOM      2  C1  UNL d   1       1.158   1.011   0.327  0.00  0.00    -0.077 A 
ATOM      3  C2  UNL d   1       1.153  -0.381   0.177  0.00  0.00    -0.001 A 
ATOM      4  C3  UNL d   1       1.370  -0.957  -1.076  0.00  0.00     0.003 A 
ATOM      5  C4  UNL d   1       1.595  -0.148  -2.188  0.00  0.00    -0.005 A 
ATOM      6  C5  UNL d   1       1.604   1.238  -2.048  0.00  0.00     0.003 A 
ATOM      7  C6  UNL d   1       1.387   1.816  -0.796  0.00  0.00    -0.001 A 
ENDROOT
TORSDOF 0
ENDMDL
