MODEL 1
REMARK minimizedAffinity -3.98167396
REMARK minimizedRMSD -1
REMARK  0 active torsions:
REMARK  status: ('A' for Active; 'I' for Inactive)
ROOT
ATOM      1  C   UNL d   1       1.643   3.385   2.333  0.00  0.00     0.078 C 
ATOM      2  C1  UNL d   1       1.486   3.016   0.889  0.00  0.00    -0.077 A 
ATOM      3  C2  UNL d   1       1.352   1.678   0.497  0.00  0.00    -0.001 A 
ATOM      4  C3  UNL d   1       1.216   1.348  -0.852  0.00  0.00     0.003 A 
ATOM      5  C4  UNL d   1       1.215   2.349  -1.821  0.00  0.00    -0.005 A 
ATOM      6  C5  UNL d   1       1.350   3.683  -1.441  0.00  0.00     0.003 A 
ATOM      7  C6  UNL d   1       1.486   4.015  -0.092  0.00  0.00    -0.001 A 
ENDROOT
TORSDOF 0
ENDMDL
