MODEL 1
REMARK minimizedAffinity -6.65746593
REMARK minimizedRMSD -1
REMARK  0 active torsions:
REMARK  status: ('A' for Active; 'I' for Inactive)
ROOT
ATOM      1  C   UNL d   1       1.331  -0.549  -1.819  0.00  0.00     0.078 C 
ATOM      2  C1  UNL d   1       1.268   0.729  -1.038  0.00  0.00    -0.077 A 
ATOM      3  C2  UNL d   1       1.430   1.969  -1.668  0.00  0.00    -0.001 A 
ATOM      4  C3  UNL d   1       1.379   3.150  -0.927  0.00  0.00     0.003 A 
ATOM      5  C4  UNL d   1       1.167   3.103   0.450  0.00  0.00    -0.005 A 
ATOM      6  C5  UNL d   1       1.007   1.874   1.087  0.00  0.00     0.003 A 
ATOM      7  C6  UNL d   1       1.058   0.692   0.347  0.00  0.00    -0.001 A 
ENDROOT
TORSDOF 0
ENDMDL
