MODEL 1
REMARK minimizedAffinity -0.94484514
REMARK minimizedRMSD -1
REMARK  0 active torsions:
REMARK  status: ('A' for Active; 'I' for Inactive)
ROOT
ATOM      1  C   UNL d   1       1.223   1.394   1.907  0.00  0.00     0.078 C 
ATOM      2  C1  UNL d   1       1.146   1.601   0.424  0.00  0.00    -0.077 A 
ATOM      3  C2  UNL d   1       1.428   2.848  -0.146  0.00  0.00    -0.001 A 
ATOM      4  C3  UNL d   1       1.343   3.028  -1.528  0.00  0.00     0.003 A 
ATOM      5  C4  UNL d   1       0.974   1.966  -2.351  0.00  0.00    -0.005 A 
ATOM      6  C5  UNL d   1       0.688   0.722  -1.793  0.00  0.00     0.003 A 
ATOM      7  C6  UNL d   1       0.773   0.540  -0.411  0.00  0.00    -0.001 A 
ENDROOT
TORSDOF 0
ENDMDL
