MODEL 1
REMARK minimizedAffinity -3.45632052
REMARK minimizedRMSD -1
REMARK  0 active torsions:
REMARK  status: ('A' for Active; 'I' for Inactive)
ROOT
ATOM      1  C   UNL d   1       1.730   5.082  -1.040  0.00  0.00     0.078 C 
ATOM      2  C1  UNL d   1       1.480   3.666  -0.616  0.00  0.00    -0.077 A 
ATOM      3  C2  UNL d   1       1.381   3.326   0.739  0.00  0.00    -0.001 A 
ATOM      4  C3  UNL d   1       1.157   2.001   1.119  0.00  0.00     0.003 A 
ATOM      5  C4  UNL d   1       1.031   1.007   0.151  0.00  0.00    -0.005 A 
ATOM      6  C5  UNL d   1       1.130   1.336  -1.199  0.00  0.00     0.003 A 
ATOM      7  C6  UNL d   1       1.354   2.659  -1.582  0.00  0.00    -0.001 A 
ENDROOT
TORSDOF 0
ENDMDL
