MODEL 1
REMARK minimizedAffinity -0.21539776
REMARK minimizedRMSD -1
REMARK  0 active torsions:
REMARK  status: ('A' for Active; 'I' for Inactive)
ROOT
ATOM      1  C   UNL d   1       1.453   2.743  -1.791  0.00  0.00     0.078 C 
ATOM      2  C1  UNL d   1       1.404   1.341  -1.262  0.00  0.00    -0.077 A 
ATOM      3  C2  UNL d   1       0.595   0.370  -1.866  0.00  0.00    -0.001 A 
ATOM      4  C3  UNL d   1       0.552  -0.929  -1.356  0.00  0.00     0.003 A 
ATOM      5  C4  UNL d   1       1.314  -1.268  -0.240  0.00  0.00    -0.005 A 
ATOM      6  C5  UNL d   1       2.120  -0.308   0.369  0.00  0.00     0.003 A 
ATOM      7  C6  UNL d   1       2.164   0.991  -0.139  0.00  0.00    -0.001 A 
ENDROOT
TORSDOF 0
ENDMDL
