MODEL 1
REMARK minimizedAffinity -1.93204701
REMARK minimizedRMSD -1
REMARK  0 active torsions:
REMARK  status: ('A' for Active; 'I' for Inactive)
ROOT
ATOM      1  C   UNL d   1       1.524   5.263  -1.077  0.00  0.00     0.078 C 
ATOM      2  C1  UNL d   1       1.541   3.766  -0.989  0.00  0.00    -0.077 A 
ATOM      3  C2  UNL d   1       1.677   3.117   0.245  0.00  0.00    -0.001 A 
ATOM      4  C3  UNL d   1       1.702   1.723   0.311  0.00  0.00     0.003 A 
ATOM      5  C4  UNL d   1       1.593   0.966  -0.854  0.00  0.00    -0.005 A 
ATOM      6  C5  UNL d   1       1.459   1.602  -2.086  0.00  0.00     0.003 A 
ATOM      7  C6  UNL d   1       1.434   2.996  -2.154  0.00  0.00    -0.001 A 
ENDROOT
TORSDOF 0
ENDMDL
