MODEL 1
REMARK minimizedAffinity -4.8265667
REMARK minimizedRMSD -1
REMARK  0 active torsions:
REMARK  status: ('A' for Active; 'I' for Inactive)
ROOT
ATOM      1  C   UNL d   1       1.716   4.621  -0.984  0.00  0.00     0.078 C 
ATOM      2  C1  UNL d   1       1.532   3.157  -0.717  0.00  0.00    -0.077 A 
ATOM      3  C2  UNL d   1       1.454   2.237  -1.769  0.00  0.00    -0.001 A 
ATOM      4  C3  UNL d   1       1.274   0.878  -1.506  0.00  0.00     0.003 A 
ATOM      5  C4  UNL d   1       1.168   0.428  -0.191  0.00  0.00    -0.005 A 
ATOM      6  C5  UNL d   1       1.242   1.337   0.862  0.00  0.00     0.003 A 
ATOM      7  C6  UNL d   1       1.423   2.696   0.601  0.00  0.00    -0.001 A 
ENDROOT
TORSDOF 0
ENDMDL
