MODEL 1
REMARK minimizedAffinity 5.65860462
REMARK minimizedRMSD -1
REMARK  0 active torsions:
REMARK  status: ('A' for Active; 'I' for Inactive)
ROOT
ATOM      1  C   UNL d   1       1.810   5.185  -0.713  0.00  0.00     0.078 C 
ATOM      2  C1  UNL d   1       1.544   3.745  -1.035  0.00  0.00    -0.077 A 
ATOM      3  C2  UNL d   1       1.682   2.750  -0.060  0.00  0.00    -0.001 A 
ATOM      4  C3  UNL d   1       1.440   1.412  -0.377  0.00  0.00     0.003 A 
ATOM      5  C4  UNL d   1       1.060   1.057  -1.670  0.00  0.00    -0.005 A 
ATOM      6  C5  UNL d   1       0.922   2.040  -2.648  0.00  0.00     0.003 A 
ATOM      7  C6  UNL d   1       1.164   3.378  -2.333  0.00  0.00    -0.001 A 
ENDROOT
TORSDOF 0
ENDMDL
