MODEL 1
REMARK minimizedAffinity -4.28443718
REMARK minimizedRMSD -1
REMARK  1 active torsions:
REMARK  status: ('A' for Active; 'I' for Inactive)
REMARK    1  A    between atoms: N_2  and  C1_3 
ROOT
ATOM      1  C1  UNL d   1      -1.952  -1.320   0.708  0.00  0.00     0.143 A 
ATOM      2  C2  UNL d   1      -1.150  -0.751  -0.287  0.00  0.00    -0.057 A 
ATOM      3  C3  UNL d   1       0.237  -0.945  -0.302  0.00  0.00     0.033 A 
ATOM      4  C4  UNL d   1       0.851  -1.690   0.699  0.00  0.00    -0.042 A 
ATOM      5  C5  UNL d   1       0.077  -2.243   1.713  0.00  0.00     0.033 A 
ATOM      6  C6  UNL d   1      -1.308  -2.052   1.718  0.00  0.00    -0.057 A 
ENDROOT
BRANCH   1   7
ATOM      7  N   UNL d   1      -3.322  -1.082   0.833  0.00  0.00    -0.732 N 
ATOM      8  C   UNL d   1      -3.821   0.259   1.053  0.00  0.00     0.284 C 
ATOM      9  H3  UNL d   1      -3.873  -1.627   0.173  0.00  0.00     0.395 HD
ENDBRANCH   1   7
TORSDOF 1
ENDMDL
