MODEL 1
REMARK minimizedAffinity -3.377738
REMARK minimizedRMSD -1
REMARK  1 active torsions:
REMARK  status: ('A' for Active; 'I' for Inactive)
REMARK    1  A    between atoms: N_2  and  C1_3 
ROOT
ATOM      1  C1  UNL d   1       0.580   0.270  -0.272  0.00  0.00     0.143 A 
ATOM      2  C2  UNL d   1       0.985  -0.988   0.186  0.00  0.00    -0.057 A 
ATOM      3  C3  UNL d   1       0.065  -1.896   0.723  0.00  0.00     0.033 A 
ATOM      4  C4  UNL d   1      -1.277  -1.550   0.837  0.00  0.00    -0.042 A 
ATOM      5  C5  UNL d   1      -1.699  -0.296   0.411  0.00  0.00     0.033 A 
ATOM      6  C6  UNL d   1      -0.776   0.605  -0.130  0.00  0.00    -0.057 A 
ENDROOT
BRANCH   1   7
ATOM      7  N   UNL d   1       1.462   1.255  -0.725  0.00  0.00    -0.732 N 
ATOM      8  C   UNL d   1       1.559   1.566  -2.135  0.00  0.00     0.284 C 
ATOM      9  H3  UNL d   1       1.478   2.071  -0.117  0.00  0.00     0.395 HD
ENDBRANCH   1   7
TORSDOF 1
ENDMDL
