MODEL 1
REMARK minimizedAffinity -2.64189863
REMARK minimizedRMSD -1
REMARK  1 active torsions:
REMARK  status: ('A' for Active; 'I' for Inactive)
REMARK    1  A    between atoms: N_2  and  C1_3 
ROOT
ATOM      1  C1  UNL d   1       2.775   1.872  -3.294  0.00  0.00     0.143 A 
ATOM      2  C2  UNL d   1       1.799   2.052  -4.280  0.00  0.00    -0.057 A 
ATOM      3  C3  UNL d   1       0.449   2.215  -3.944  0.00  0.00     0.033 A 
ATOM      4  C4  UNL d   1       0.047   2.173  -2.613  0.00  0.00    -0.042 A 
ATOM      5  C5  UNL d   1       0.997   1.971  -1.618  0.00  0.00     0.033 A 
ATOM      6  C6  UNL d   1       2.344   1.815  -1.959  0.00  0.00    -0.057 A 
ENDROOT
BRANCH   1   7
ATOM      7  N   UNL d   1       4.119   1.606  -3.569  0.00  0.00    -0.732 N 
ATOM      8  C   UNL d   1       5.156   2.024  -2.651  0.00  0.00     0.284 C 
ATOM      9  H3  UNL d   1       4.259   0.677  -3.959  0.00  0.00     0.395 HD
ENDBRANCH   1   7
TORSDOF 1
ENDMDL
