MODEL 1
REMARK minimizedAffinity -4.5688467
REMARK minimizedRMSD -1
REMARK  1 active torsions:
REMARK  status: ('A' for Active; 'I' for Inactive)
REMARK    1  A    between atoms: N_2  and  C1_3 
ROOT
ATOM      1  C1  UNL d   1      -1.178  -1.361   0.685  0.00  0.00     0.143 A 
ATOM      2  C2  UNL d   1      -1.903  -0.188   0.924  0.00  0.00    -0.057 A 
ATOM      3  C3  UNL d   1      -1.300   1.072   0.822  0.00  0.00     0.033 A 
ATOM      4  C4  UNL d   1       0.051   1.180   0.507  0.00  0.00    -0.042 A 
ATOM      5  C5  UNL d   1       0.797   0.027   0.290  0.00  0.00     0.033 A 
ATOM      6  C6  UNL d   1       0.187  -1.228   0.386  0.00  0.00    -0.057 A 
ENDROOT
BRANCH   1   7
ATOM      7  N   UNL d   1      -1.695  -2.645   0.866  0.00  0.00    -0.732 N 
ATOM      8  C   UNL d   1      -2.543  -2.946   2.000  0.00  0.00     0.284 C 
ATOM      9  H3  UNL d   1      -2.005  -3.066  -0.007  0.00  0.00     0.395 HD
ENDBRANCH   1   7
TORSDOF 1
ENDMDL
