MODEL 1
REMARK minimizedAffinity -2.95034385
REMARK minimizedRMSD -1
REMARK  1 active torsions:
REMARK  status: ('A' for Active; 'I' for Inactive)
REMARK    1  A    between atoms: N_2  and  C1_3 
ROOT
ATOM      1  C1  UNL d   1       2.622   1.859  -2.884  0.00  0.00     0.143 A 
ATOM      2  C2  UNL d   1       3.318   1.776  -4.095  0.00  0.00    -0.057 A 
ATOM      3  C3  UNL d   1       4.716   1.843  -4.135  0.00  0.00     0.033 A 
ATOM      4  C4  UNL d   1       5.443   2.024  -2.963  0.00  0.00    -0.042 A 
ATOM      5  C5  UNL d   1       4.771   2.134  -1.751  0.00  0.00     0.033 A 
ATOM      6  C6  UNL d   1       3.375   2.060  -1.717  0.00  0.00    -0.057 A 
ENDROOT
BRANCH   1   7
ATOM      7  N   UNL d   1       1.229   1.898  -2.789  0.00  0.00    -0.732 N 
ATOM      8  C   UNL d   1       0.489   3.045  -3.271  0.00  0.00     0.284 C 
ATOM      9  H3  UNL d   1       0.799   1.003  -3.012  0.00  0.00     0.395 HD
ENDBRANCH   1   7
TORSDOF 1
ENDMDL
