MODEL 1
REMARK minimizedAffinity -4.24930239
REMARK minimizedRMSD -1
REMARK  1 active torsions:
REMARK  status: ('A' for Active; 'I' for Inactive)
REMARK    1  A    between atoms: N_2  and  C1_3 
ROOT
ATOM      1  C1  UNL d   1      -0.064  -0.098  -0.157  0.00  0.00     0.143 A 
ATOM      2  C2  UNL d   1       0.543  -1.302   0.216  0.00  0.00    -0.057 A 
ATOM      3  C3  UNL d   1      -0.220  -2.411   0.602  0.00  0.00     0.033 A 
ATOM      4  C4  UNL d   1      -1.607  -2.325   0.650  0.00  0.00    -0.042 A 
ATOM      5  C5  UNL d   1      -2.231  -1.131   0.308  0.00  0.00     0.033 A 
ATOM      6  C6  UNL d   1      -1.464  -0.029  -0.083  0.00  0.00    -0.057 A 
ENDROOT
BRANCH   1   7
ATOM      7  N   UNL d   1       0.643   1.069  -0.456  0.00  0.00    -0.732 N 
ATOM      8  C   UNL d   1       0.683   1.581  -1.809  0.00  0.00     0.284 C 
ATOM      9  H3  UNL d   1       0.527   1.786   0.257  0.00  0.00     0.395 HD
ENDBRANCH   1   7
TORSDOF 1
ENDMDL
