MODEL 1
REMARK minimizedAffinity 8.6906004
REMARK minimizedRMSD -1
REMARK  3 active torsions:
REMARK  status: ('A' for Active; 'I' for Inactive)
REMARK    1  A    between atoms: C3'_2  and  C2'_3 
REMARK    2  A    between atoms: C2'_3  and  C1'_4 
REMARK    3  A    between atoms: C1'_4  and  C1_5 
ROOT
ATOM      1  C1  N4B d   1      -2.370  -3.148  -3.823  0.00  0.00    -0.075 A 
ATOM      2  C2  N4B d   1      -1.516  -2.985  -4.936  0.00  0.00     0.002 A 
ATOM      3  C3  N4B d   1      -1.603  -3.850  -5.999  0.00  0.00     0.002 A 
ATOM      4  C4  N4B d   1      -2.519  -4.892  -5.963  0.00  0.00    -0.004 A 
ATOM      5  C5  N4B d   1      -3.357  -5.026  -4.895  0.00  0.00     0.002 A 
ATOM      6  C6  N4B d   1      -3.283  -4.162  -3.822  0.00  0.00     0.002 A 
ENDROOT
BRANCH   1   7
ATOM      7  C1' N4B d   1      -2.253  -2.279  -2.600  0.00  0.00     0.057 C 
BRANCH   7   8
ATOM      8  C2' N4B d   1      -0.803  -1.834  -2.438  0.00  0.00     0.009 C 
BRANCH   8   9
ATOM      9  C3' N4B d   1       0.004  -2.816  -1.606  0.00  0.00     0.004 C 
ATOM     10  C4' N4B d   1      -0.082  -2.537  -0.135  0.00  0.00     0.003 C 
ENDBRANCH   8   9
ENDBRANCH   7   8
ENDBRANCH   1   7
TORSDOF 3
ENDMDL
