MODEL 1
REMARK minimizedAffinity 9.23543453
REMARK minimizedRMSD -1
REMARK  3 active torsions:
REMARK  status: ('A' for Active; 'I' for Inactive)
REMARK    1  A    between atoms: C3'_2  and  C2'_3 
REMARK    2  A    between atoms: C2'_3  and  C1'_4 
REMARK    3  A    between atoms: C1'_4  and  C1_5 
ROOT
ATOM      1  C1  N4B d   1       0.088  -2.368  -1.600  0.00  0.00    -0.075 A 
ATOM      2  C2  N4B d   1       0.512  -3.163  -0.512  0.00  0.00     0.002 A 
ATOM      3  C3  N4B d   1      -0.163  -3.108   0.682  0.00  0.00     0.002 A 
ATOM      4  C4  N4B d   1      -1.249  -2.255   0.818  0.00  0.00    -0.004 A 
ATOM      5  C5  N4B d   1      -1.668  -1.510  -0.245  0.00  0.00     0.002 A 
ATOM      6  C6  N4B d   1      -1.001  -1.559  -1.453  0.00  0.00     0.002 A 
ENDROOT
BRANCH   1   7
ATOM      7  C1' N4B d   1       0.846  -2.330  -2.899  0.00  0.00     0.057 C 
BRANCH   7   8
ATOM      8  C2' N4B d   1       2.313  -2.654  -2.632  0.00  0.00     0.009 C 
BRANCH   8   9
ATOM      9  C3' N4B d   1       3.119  -2.737  -3.917  0.00  0.00     0.004 C 
ATOM     10  C4' N4B d   1       2.749  -3.921  -4.759  0.00  0.00     0.003 C 
ENDBRANCH   8   9
ENDBRANCH   7   8
ENDBRANCH   1   7
TORSDOF 3
ENDMDL
