MODEL 1
REMARK minimizedAffinity 13.3020258
REMARK minimizedRMSD -1
REMARK  3 active torsions:
REMARK  status: ('A' for Active; 'I' for Inactive)
REMARK    1  A    between atoms: C3'_2  and  C2'_3 
REMARK    2  A    between atoms: C2'_3  and  C1'_4 
REMARK    3  A    between atoms: C1'_4  and  C1_5 
ROOT
ATOM      1  C1  N4B d   1      -1.832  -3.010  -4.012  0.00  0.00    -0.075 A 
ATOM      2  C2  N4B d   1      -2.972  -3.844  -3.991  0.00  0.00     0.002 A 
ATOM      3  C3  N4B d   1      -3.154  -4.782  -4.977  0.00  0.00     0.002 A 
ATOM      4  C4  N4B d   1      -2.223  -4.892  -5.999  0.00  0.00    -0.004 A 
ATOM      5  C5  N4B d   1      -1.112  -4.100  -5.998  0.00  0.00     0.002 A 
ATOM      6  C6  N4B d   1      -0.915  -3.155  -5.012  0.00  0.00     0.002 A 
ENDROOT
BRANCH   1   7
ATOM      7  C1' N4B d   1      -1.633  -1.911  -3.004  0.00  0.00     0.057 C 
BRANCH   7   8
ATOM      8  C2' N4B d   1      -0.369  -2.194  -2.198  0.00  0.00     0.009 C 
BRANCH   8   9
ATOM      9  C3' N4B d   1      -0.685  -2.631  -0.778  0.00  0.00     0.004 C 
ATOM     10  C4' N4B d   1      -1.880  -1.928  -0.207  0.00  0.00     0.003 C 
ENDBRANCH   8   9
ENDBRANCH   7   8
ENDBRANCH   1   7
TORSDOF 3
ENDMDL
