MODEL 1
REMARK minimizedAffinity 17.8077106
REMARK minimizedRMSD -1
REMARK  3 active torsions:
REMARK  status: ('A' for Active; 'I' for Inactive)
REMARK    1  A    between atoms: C3'_2  and  C2'_3 
REMARK    2  A    between atoms: C2'_3  and  C1'_4 
REMARK    3  A    between atoms: C1'_4  and  C1_5 
ROOT
ATOM      1  C1  N4B d   1       0.524  -3.360  -2.617  0.00  0.00    -0.075 A 
ATOM      2  C2  N4B d   1       0.405  -3.164  -1.224  0.00  0.00     0.002 A 
ATOM      3  C3  N4B d   1      -0.405  -2.167  -0.737  0.00  0.00     0.002 A 
ATOM      4  C4  N4B d   1      -1.088  -1.346  -1.622  0.00  0.00    -0.004 A 
ATOM      5  C5  N4B d   1      -0.988  -1.558  -2.966  0.00  0.00     0.002 A 
ATOM      6  C6  N4B d   1      -0.180  -2.559  -3.468  0.00  0.00     0.002 A 
ENDROOT
BRANCH   1   7
ATOM      7  C1' N4B d   1       1.463  -4.382  -3.198  0.00  0.00     0.057 C 
BRANCH   7   8
ATOM      8  C2' N4B d   1       2.501  -3.672  -4.063  0.00  0.00     0.009 C 
BRANCH   8   9
ATOM      9  C3' N4B d   1       3.864  -3.629  -3.394  0.00  0.00     0.004 C 
ATOM     10  C4' N4B d   1       4.121  -2.336  -2.680  0.00  0.00     0.003 C 
ENDBRANCH   8   9
ENDBRANCH   7   8
ENDBRANCH   1   7
TORSDOF 3
ENDMDL
