MODEL 1
REMARK minimizedAffinity 14.2489719
REMARK minimizedRMSD -1
REMARK  3 active torsions:
REMARK  status: ('A' for Active; 'I' for Inactive)
REMARK    1  A    between atoms: C3'_2  and  C2'_3 
REMARK    2  A    between atoms: C2'_3  and  C1'_4 
REMARK    3  A    between atoms: C1'_4  and  C1_5 
ROOT
ATOM      1  C1  N4B d   1       3.372   5.048  -1.645  0.00  0.00    -0.075 A 
ATOM      2  C2  N4B d   1       4.437   4.499  -0.899  0.00  0.00     0.002 A 
ATOM      3  C3  N4B d   1       5.735   4.712  -1.296  0.00  0.00     0.002 A 
ATOM      4  C4  N4B d   1       5.989   5.451  -2.442  0.00  0.00    -0.004 A 
ATOM      5  C5  N4B d   1       4.955   5.999  -3.143  0.00  0.00     0.002 A 
ATOM      6  C6  N4B d   1       3.647   5.797  -2.753  0.00  0.00     0.002 A 
ENDROOT
BRANCH   1   7
ATOM      7  C1' N4B d   1       1.934   4.772  -1.299  0.00  0.00     0.057 C 
BRANCH   7   8
ATOM      8  C2' N4B d   1       1.876   3.998   0.015  0.00  0.00     0.009 C 
BRANCH   8   9
ATOM      9  C3' N4B d   1       0.521   4.126   0.690  0.00  0.00     0.004 C 
ATOM     10  C4' N4B d   1      -0.402   2.991   0.360  0.00  0.00     0.003 C 
ENDBRANCH   8   9
ENDBRANCH   7   8
ENDBRANCH   1   7
TORSDOF 3
ENDMDL
