MODEL 1
REMARK minimizedAffinity 4.3907938
REMARK minimizedRMSD -1
REMARK  0 active torsions:
REMARK  status: ('A' for Active; 'I' for Inactive)
ROOT
ATOM      1  C   UNL d   1       2.358   3.991  -5.854  0.00  0.00     0.172 C 
ATOM      2  N   UNL d   1       3.801   3.989  -5.908  0.00  0.00    -0.070 N 
ATOM      3  C1  UNL d   1       4.597   2.875  -5.957  0.00  0.00    -0.004 A 
ATOM      4  C2  UNL d   1       5.909   3.295  -5.999  0.00  0.00    -0.047 A 
ATOM      5  C3  UNL d   1       5.902   4.710  -5.973  0.00  0.00    -0.047 A 
ATOM      6  C4  UNL d   1       4.584   5.113  -5.917  0.00  0.00    -0.004 A 
ENDROOT
TORSDOF 0
ENDMDL
