MODEL 1
REMARK minimizedAffinity -1.75837648
REMARK minimizedRMSD -1
REMARK  0 active torsions:
REMARK  status: ('A' for Active; 'I' for Inactive)
ROOT
ATOM      1  C   UNL d   1      -6.000   6.000  -2.290  0.00  0.00     0.172 C 
ATOM      2  N   UNL d   1      -5.374   5.643  -3.541  0.00  0.00    -0.070 N 
ATOM      3  C1  UNL d   1      -6.000   5.054  -4.608  0.00  0.00    -0.004 A 
ATOM      4  C2  UNL d   1      -5.063   4.878  -5.603  0.00  0.00    -0.047 A 
ATOM      5  C3  UNL d   1      -3.831   5.378  -5.118  0.00  0.00    -0.047 A 
ATOM      6  C4  UNL d   1      -4.052   5.845  -3.839  0.00  0.00    -0.004 A 
ENDROOT
TORSDOF 0
ENDMDL
