MODEL 1
REMARK minimizedAffinity 2.77161932
REMARK minimizedRMSD -1
REMARK  0 active torsions:
REMARK  status: ('A' for Active; 'I' for Inactive)
ROOT
ATOM      1  C   UNL d   1       5.235   5.988   3.148  0.00  0.00     0.172 C 
ATOM      2  N   UNL d   1       5.523   5.340   1.891  0.00  0.00    -0.070 N 
ATOM      3  C1  UNL d   1       5.598   3.987   1.689  0.00  0.00    -0.004 A 
ATOM      4  C2  UNL d   1       5.891   3.775   0.360  0.00  0.00    -0.047 A 
ATOM      5  C3  UNL d   1       5.998   5.043  -0.259  0.00  0.00    -0.047 A 
ATOM      6  C4  UNL d   1       5.765   5.994   0.712  0.00  0.00    -0.004 A 
ENDROOT
TORSDOF 0
ENDMDL
