MODEL 1
REMARK minimizedAffinity 7.63453627
REMARK minimizedRMSD -1
REMARK  0 active torsions:
REMARK  status: ('A' for Active; 'I' for Inactive)
ROOT
ATOM      1  C   UNL d   1       1.650   4.000  -5.997  0.00  0.00     0.172 C 
ATOM      2  N   UNL d   1       0.225   4.092  -5.782  0.00  0.00    -0.070 N 
ATOM      3  C1  UNL d   1      -0.546   5.203  -6.000  0.00  0.00    -0.004 A 
ATOM      4  C2  UNL d   1      -1.847   4.883  -5.677  0.00  0.00    -0.047 A 
ATOM      5  C3  UNL d   1      -1.859   3.535  -5.249  0.00  0.00    -0.047 A 
ATOM      6  C4  UNL d   1      -0.563   3.069  -5.324  0.00  0.00    -0.004 A 
ENDROOT
TORSDOF 0
ENDMDL
