MODEL 1
REMARK minimizedAffinity -3.09938765
REMARK minimizedRMSD -1
REMARK  0 active torsions:
REMARK  status: ('A' for Active; 'I' for Inactive)
ROOT
ATOM      1  C   UNL d   1      -5.546   5.757  -4.159  0.00  0.00     0.172 C 
ATOM      2  N   UNL d   1      -5.186   4.451  -3.658  0.00  0.00    -0.070 N 
ATOM      3  C1  UNL d   1      -4.164   3.670  -4.126  0.00  0.00    -0.004 A 
ATOM      4  C2  UNL d   1      -4.150   2.506  -3.388  0.00  0.00    -0.047 A 
ATOM      5  C3  UNL d   1      -5.201   2.590  -2.444  0.00  0.00    -0.047 A 
ATOM      6  C4  UNL d   1      -5.826   3.805  -2.634  0.00  0.00    -0.004 A 
ENDROOT
TORSDOF 0
ENDMDL
