MODEL 1
REMARK minimizedAffinity 1.25016904
REMARK minimizedRMSD -1
REMARK  0 active torsions:
REMARK  status: ('A' for Active; 'I' for Inactive)
ROOT
ATOM      1  C   UNL d   1      -3.874  -4.030  -1.160  0.00  0.00     0.172 C 
ATOM      2  N   UNL d   1      -2.947  -3.055  -0.636  0.00  0.00    -0.070 N 
ATOM      3  C1  UNL d   1      -1.636  -2.920  -1.006  0.00  0.00    -0.004 A 
ATOM      4  C2  UNL d   1      -1.097  -1.880  -0.279  0.00  0.00    -0.047 A 
ATOM      5  C3  UNL d   1      -2.120  -1.373   0.557  0.00  0.00    -0.047 A 
ATOM      6  C4  UNL d   1      -3.254  -2.118   0.316  0.00  0.00    -0.004 A 
ENDROOT
TORSDOF 0
ENDMDL
