MODEL 1
REMARK minimizedAffinity -1.41430604
REMARK minimizedRMSD -1
REMARK  0 active torsions:
REMARK  status: ('A' for Active; 'I' for Inactive)
ROOT
ATOM      1  C   UNL d   1       2.244   2.418  -2.981  0.00  0.00     0.172 C 
ATOM      2  N   UNL d   1       3.259   2.053  -3.942  0.00  0.00    -0.070 N 
ATOM      3  C1  UNL d   1       4.464   1.473  -3.649  0.00  0.00    -0.004 A 
ATOM      4  C2  UNL d   1       5.141   1.284  -4.834  0.00  0.00    -0.047 A 
ATOM      5  C3  UNL d   1       4.315   1.769  -5.876  0.00  0.00    -0.047 A 
ATOM      6  C4  UNL d   1       3.156   2.240  -5.295  0.00  0.00    -0.004 A 
ENDROOT
TORSDOF 0
ENDMDL
