MODEL 1
REMARK minimizedAffinity -2.11991501
REMARK minimizedRMSD -1
REMARK  0 active torsions:
REMARK  status: ('A' for Active; 'I' for Inactive)
ROOT
ATOM      1  C   UNL d   1      -5.987   4.336  -1.752  0.00  0.00     0.172 C 
ATOM      2  N   UNL d   1      -5.988   3.138  -0.946  0.00  0.00    -0.070 N 
ATOM      3  C1  UNL d   1      -5.982   1.854  -1.423  0.00  0.00    -0.004 A 
ATOM      4  C2  UNL d   1      -5.985   1.001  -0.341  0.00  0.00    -0.047 A 
ATOM      5  C3  UNL d   1      -5.994   1.800   0.828  0.00  0.00    -0.047 A 
ATOM      6  C4  UNL d   1      -5.996   3.118   0.424  0.00  0.00    -0.004 A 
ENDROOT
TORSDOF 0
ENDMDL
