MODEL 1
REMARK minimizedAffinity 2.92834759
REMARK minimizedRMSD -1
REMARK  0 active torsions:
REMARK  status: ('A' for Active; 'I' for Inactive)
ROOT
ATOM      1  C   UNL d   1       0.775   3.243  -4.475  0.00  0.00     0.172 C 
ATOM      2  N   UNL d   1      -0.103   4.323  -4.862  0.00  0.00    -0.070 N 
ATOM      3  C1  UNL d   1       0.014   5.078  -5.998  0.00  0.00    -0.004 A 
ATOM      4  C2  UNL d   1      -1.012   5.999  -6.000  0.00  0.00    -0.047 A 
ATOM      5  C3  UNL d   1      -1.769   5.791  -4.823  0.00  0.00    -0.047 A 
ATOM      6  C4  UNL d   1      -1.184   4.748  -4.137  0.00  0.00    -0.004 A 
ENDROOT
TORSDOF 0
ENDMDL
