MODEL 1
REMARK minimizedAffinity 2.61616611
REMARK minimizedRMSD -1
REMARK  0 active torsions:
REMARK  status: ('A' for Active; 'I' for Inactive)
ROOT
ATOM      1  C   UNL d   1      -2.116   5.996  -5.035  0.00  0.00     0.172 C 
ATOM      2  N   UNL d   1      -1.069   5.031  -5.275  0.00  0.00    -0.070 N 
ATOM      3  C1  UNL d   1      -1.061   3.735  -4.834  0.00  0.00    -0.004 A 
ATOM      4  C2  UNL d   1       0.106   3.148  -5.271  0.00  0.00    -0.047 A 
ATOM      5  C3  UNL d   1       0.826   4.125  -5.998  0.00  0.00    -0.047 A 
ATOM      6  C4  UNL d   1       0.075   5.282  -5.985  0.00  0.00    -0.004 A 
ENDROOT
TORSDOF 0
ENDMDL
