MODEL 1
REMARK minimizedAffinity 9.04196072
REMARK minimizedRMSD -1
REMARK  0 active torsions:
REMARK  status: ('A' for Active; 'I' for Inactive)
ROOT
ATOM      1  C   UNL d   1      -4.948  -4.766  -0.909  0.00  0.00     0.172 C 
ATOM      2  N   UNL d   1      -3.699  -4.246  -0.403  0.00  0.00    -0.070 N 
ATOM      3  C1  UNL d   1      -3.195  -4.461   0.852  0.00  0.00    -0.004 A 
ATOM      4  C2  UNL d   1      -1.990  -3.799   0.942  0.00  0.00    -0.047 A 
ATOM      5  C3  UNL d   1      -1.763  -3.162  -0.301  0.00  0.00    -0.047 A 
ATOM      6  C4  UNL d   1      -2.837  -3.456  -1.115  0.00  0.00    -0.004 A 
ENDROOT
TORSDOF 0
ENDMDL
