MODEL 1
REMARK minimizedAffinity 4.92828178
REMARK minimizedRMSD -1
REMARK  0 active torsions:
REMARK  status: ('A' for Active; 'I' for Inactive)
ROOT
ATOM      1  C   UNL d   1       5.530   3.126  -5.900  0.00  0.00     0.172 C 
ATOM      2  N   UNL d   1       4.383   4.003  -5.937  0.00  0.00    -0.070 N 
ATOM      3  C1  UNL d   1       3.073   3.603  -5.947  0.00  0.00    -0.004 A 
ATOM      4  C2  UNL d   1       2.287   4.735  -5.984  0.00  0.00    -0.047 A 
ATOM      5  C3  UNL d   1       3.154   5.853  -5.998  0.00  0.00    -0.047 A 
ATOM      6  C4  UNL d   1       4.446   5.371  -5.968  0.00  0.00    -0.004 A 
ENDROOT
TORSDOF 0
ENDMDL
