MODEL 1
REMARK minimizedAffinity 0.923278868
REMARK minimizedRMSD -1
REMARK  0 active torsions:
REMARK  status: ('A' for Active; 'I' for Inactive)
ROOT
ATOM      1  C   UNL d   1      -5.980   2.894  -0.167  0.00  0.00     0.172 C 
ATOM      2  N   UNL d   1      -5.963   3.605  -1.424  0.00  0.00    -0.070 N 
ATOM      3  C1  UNL d   1      -6.000   4.966  -1.571  0.00  0.00    -0.004 A 
ATOM      4  C2  UNL d   1      -5.966   5.246  -2.921  0.00  0.00    -0.047 A 
ATOM      5  C3  UNL d   1      -5.907   4.010  -3.608  0.00  0.00    -0.047 A 
ATOM      6  C4  UNL d   1      -5.907   3.011  -2.657  0.00  0.00    -0.004 A 
ENDROOT
TORSDOF 0
ENDMDL
