MODEL 1
REMARK minimizedAffinity 4.29192638
REMARK minimizedRMSD -1
REMARK  0 active torsions:
REMARK  status: ('A' for Active; 'I' for Inactive)
ROOT
ATOM      1  C   UNL d   1       0.701  -0.080   1.019  0.00  0.00     0.172 C 
ATOM      2  N   UNL d   1       1.489  -0.779   0.032  0.00  0.00    -0.070 N 
ATOM      3  C1  UNL d   1       2.531  -1.627   0.296  0.00  0.00    -0.004 A 
ATOM      4  C2  UNL d   1       3.016  -2.087  -0.909  0.00  0.00    -0.047 A 
ATOM      5  C3  UNL d   1       2.240  -1.495  -1.933  0.00  0.00    -0.047 A 
ATOM      6  C4  UNL d   1       1.302  -0.689  -1.322  0.00  0.00    -0.004 A 
ENDROOT
TORSDOF 0
ENDMDL
