MODEL 1
REMARK minimizedAffinity 0.253405273
REMARK minimizedRMSD -1
REMARK  0 active torsions:
REMARK  status: ('A' for Active; 'I' for Inactive)
ROOT
ATOM      1  C   UNL d   1      -5.748   3.385  -5.991  0.00  0.00     0.172 C 
ATOM      2  N   UNL d   1      -4.455   4.028  -5.985  0.00  0.00    -0.070 N 
ATOM      3  C1  UNL d   1      -4.236   5.380  -6.000  0.00  0.00    -0.004 A 
ATOM      4  C2  UNL d   1      -2.873   5.586  -5.987  0.00  0.00    -0.047 A 
ATOM      5  C3  UNL d   1      -2.252   4.314  -5.965  0.00  0.00    -0.047 A 
ATOM      6  C4  UNL d   1      -3.255   3.368  -5.965  0.00  0.00    -0.004 A 
ENDROOT
TORSDOF 0
ENDMDL
