MODEL 1
REMARK minimizedAffinity 2.88141537
REMARK minimizedRMSD -1
REMARK  0 active torsions:
REMARK  status: ('A' for Active; 'I' for Inactive)
ROOT
ATOM      1  C   UNL d   1       1.025  -1.820   0.631  0.00  0.00     0.172 C 
ATOM      2  N   UNL d   1       0.008  -0.929   1.138  0.00  0.00    -0.070 N 
ATOM      3  C1  UNL d   1       0.028   0.437   1.052  0.00  0.00    -0.004 A 
ATOM      4  C2  UNL d   1      -1.118   0.915   1.651  0.00  0.00    -0.047 A 
ATOM      5  C3  UNL d   1      -1.851  -0.203   2.115  0.00  0.00    -0.047 A 
ATOM      6  C4  UNL d   1      -1.131  -1.332   1.784  0.00  0.00    -0.004 A 
ENDROOT
TORSDOF 0
ENDMDL
