MODEL 1
REMARK minimizedAffinity -0.801072598
REMARK minimizedRMSD -1
REMARK  1 active torsions:
REMARK  status: ('A' for Active; 'I' for Inactive)
REMARK    1  A    between atoms: C1_2  and  C2_3 
ROOT
ATOM      1  C2  UNL d   1      -5.763   4.969   3.313  0.00  0.00    -0.077 A 
ATOM      2  C3  UNL d   1      -5.518   6.000   2.395  0.00  0.00     0.002 A 
ATOM      3  C4  UNL d   1      -5.508   5.736   1.023  0.00  0.00     0.002 A 
ATOM      4  C5  UNL d   1      -5.746   4.444   0.559  0.00  0.00    -0.004 A 
ATOM      5  C6  UNL d   1      -5.989   3.412   1.465  0.00  0.00     0.002 A 
ATOM      6  C7  UNL d   1      -5.998   3.674   2.836  0.00  0.00     0.002 A 
ENDROOT
BRANCH   1   7
ATOM      7  C1  UNL d   1      -5.824   5.261   4.790  0.00  0.00     0.055 C 
ATOM      8  C   UNL d   1      -5.989   3.984   5.600  0.00  0.00     0.019 C 
ENDBRANCH   1   7
TORSDOF 1
ENDMDL
