MODEL 1
REMARK minimizedAffinity -1.33304739
REMARK minimizedRMSD -1
REMARK  1 active torsions:
REMARK  status: ('A' for Active; 'I' for Inactive)
REMARK    1  A    between atoms: C1_2  and  C2_3 
ROOT
ATOM      1  C2  UNL d   1      -5.043   4.116   3.859  0.00  0.00    -0.077 A 
ATOM      2  C3  UNL d   1      -4.866   3.226   2.791  0.00  0.00     0.002 A 
ATOM      3  C4  UNL d   1      -5.254   3.586   1.500  0.00  0.00     0.002 A 
ATOM      4  C5  UNL d   1      -5.818   4.838   1.263  0.00  0.00    -0.004 A 
ATOM      5  C6  UNL d   1      -6.000   5.730   2.319  0.00  0.00     0.002 A 
ATOM      6  C7  UNL d   1      -5.613   5.371   3.611  0.00  0.00     0.002 A 
ENDROOT
BRANCH   1   7
ATOM      7  C1  UNL d   1      -4.579   3.749   5.245  0.00  0.00     0.055 C 
ATOM      8  C   UNL d   1      -3.105   3.372   5.254  0.00  0.00     0.019 C 
ENDBRANCH   1   7
TORSDOF 1
ENDMDL
