MODEL 1
REMARK minimizedAffinity 0.235996366
REMARK minimizedRMSD -1
REMARK  1 active torsions:
REMARK  status: ('A' for Active; 'I' for Inactive)
REMARK    1  A    between atoms: C1_2  and  C2_3 
ROOT
ATOM      1  C2  UNL d   1      -1.549  -0.800  -0.901  0.00  0.00    -0.077 A 
ATOM      2  C3  UNL d   1      -2.544  -0.957   0.074  0.00  0.00     0.002 A 
ATOM      3  C4  UNL d   1      -2.294  -0.608   1.402  0.00  0.00     0.002 A 
ATOM      4  C5  UNL d   1      -1.051  -0.095   1.766  0.00  0.00    -0.004 A 
ATOM      5  C6  UNL d   1      -0.053   0.063   0.805  0.00  0.00     0.002 A 
ATOM      6  C7  UNL d   1      -0.302  -0.287  -0.523  0.00  0.00     0.002 A 
ENDROOT
BRANCH   1   7
ATOM      7  C1  UNL d   1      -1.833  -1.130  -2.343  0.00  0.00     0.055 C 
ATOM      8  C   UNL d   1      -1.828  -2.634  -2.578  0.00  0.00     0.019 C 
ENDBRANCH   1   7
TORSDOF 1
ENDMDL
