MODEL 1
REMARK minimizedAffinity -2.9643302
REMARK minimizedRMSD -1
REMARK  1 active torsions:
REMARK  status: ('A' for Active; 'I' for Inactive)
REMARK    1  A    between atoms: C1_2  and  C2_3 
ROOT
ATOM      1  C2  UNL d   1      -5.694   3.816   3.726  0.00  0.00    -0.077 A 
ATOM      2  C3  UNL d   1      -5.416   5.186   3.833  0.00  0.00     0.002 A 
ATOM      3  C4  UNL d   1      -5.430   6.000   2.698  0.00  0.00     0.002 A 
ATOM      4  C5  UNL d   1      -5.724   5.454   1.450  0.00  0.00    -0.004 A 
ATOM      5  C6  UNL d   1      -6.000   4.092   1.334  0.00  0.00     0.002 A 
ATOM      6  C7  UNL d   1      -5.985   3.277   2.467  0.00  0.00     0.002 A 
ENDROOT
BRANCH   1   7
ATOM      7  C1  UNL d   1      -5.728   2.946   4.955  0.00  0.00     0.055 C 
ATOM      8  C   UNL d   1      -4.672   3.374   5.965  0.00  0.00     0.019 C 
ENDBRANCH   1   7
TORSDOF 1
ENDMDL
