MODEL 1
REMARK minimizedAffinity -3.89327765
REMARK minimizedRMSD -1
REMARK  1 active torsions:
REMARK  status: ('A' for Active; 'I' for Inactive)
REMARK    1  A    between atoms: C1_2  and  C2_3 
ROOT
ATOM      1  C2  UNL d   1      -5.301   4.262   4.418  0.00  0.00    -0.077 A 
ATOM      2  C3  UNL d   1      -4.779   5.520   4.084  0.00  0.00     0.002 A 
ATOM      3  C4  UNL d   1      -4.857   5.991   2.772  0.00  0.00     0.002 A 
ATOM      4  C5  UNL d   1      -5.458   5.213   1.785  0.00  0.00    -0.004 A 
ATOM      5  C6  UNL d   1      -5.978   3.960   2.106  0.00  0.00     0.002 A 
ATOM      6  C7  UNL d   1      -5.900   3.487   3.417  0.00  0.00     0.002 A 
ENDROOT
BRANCH   1   7
ATOM      7  C1  UNL d   1      -5.263   3.774   5.842  0.00  0.00     0.055 C 
ATOM      8  C   UNL d   1      -5.993   2.447   5.992  0.00  0.00     0.019 C 
ENDBRANCH   1   7
TORSDOF 1
ENDMDL
