MODEL 1
REMARK minimizedAffinity -3.38584995
REMARK minimizedRMSD -1
REMARK  1 active torsions:
REMARK  status: ('A' for Active; 'I' for Inactive)
REMARK    1  A    between atoms: C1_2  and  C2_3 
ROOT
ATOM      1  C2  UNL d   1      -5.079   4.212   4.677  0.00  0.00    -0.077 A 
ATOM      2  C3  UNL d   1      -5.999   3.862   3.678  0.00  0.00     0.002 A 
ATOM      3  C4  UNL d   1      -5.988   4.519   2.446  0.00  0.00     0.002 A 
ATOM      4  C5  UNL d   1      -5.057   5.526   2.200  0.00  0.00    -0.004 A 
ATOM      5  C6  UNL d   1      -4.140   5.883   3.188  0.00  0.00     0.002 A 
ATOM      6  C7  UNL d   1      -4.150   5.229   4.420  0.00  0.00     0.002 A 
ENDROOT
BRANCH   1   7
ATOM      7  C1  UNL d   1      -5.057   3.472   5.989  0.00  0.00     0.055 C 
ATOM      8  C   UNL d   1      -5.998   2.275   5.964  0.00  0.00     0.019 C 
ENDBRANCH   1   7
TORSDOF 1
ENDMDL
