MODEL 1
REMARK minimizedAffinity -3.53929257
REMARK minimizedRMSD -1
REMARK  1 active torsions:
REMARK  status: ('A' for Active; 'I' for Inactive)
REMARK    1  A    between atoms: C1_2  and  C2_3 
ROOT
ATOM      1  C2  UNL d   1      -5.070   4.642   3.639  0.00  0.00    -0.077 A 
ATOM      2  C3  UNL d   1      -5.536   4.513   4.955  0.00  0.00     0.002 A 
ATOM      3  C4  UNL d   1      -5.999   3.282   5.423  0.00  0.00     0.002 A 
ATOM      4  C5  UNL d   1      -5.997   2.170   4.583  0.00  0.00    -0.004 A 
ATOM      5  C6  UNL d   1      -5.538   2.288   3.272  0.00  0.00     0.002 A 
ATOM      6  C7  UNL d   1      -5.076   3.518   2.802  0.00  0.00     0.002 A 
ENDROOT
BRANCH   1   7
ATOM      7  C1  UNL d   1      -4.524   5.957   3.147  0.00  0.00     0.055 C 
ATOM      8  C   UNL d   1      -4.469   6.000   1.627  0.00  0.00     0.019 C 
ENDBRANCH   1   7
TORSDOF 1
ENDMDL
