MODEL 1
REMARK minimizedAffinity -3.67443633
REMARK minimizedRMSD -1
REMARK  1 active torsions:
REMARK  status: ('A' for Active; 'I' for Inactive)
REMARK    1  A    between atoms: C1_2  and  C2_3 
ROOT
ATOM      1  C2  UNL d   1      -5.633   4.931   3.436  0.00  0.00    -0.077 A 
ATOM      2  C3  UNL d   1      -6.000   5.249   4.751  0.00  0.00     0.002 A 
ATOM      3  C4  UNL d   1      -5.993   4.267   5.743  0.00  0.00     0.002 A 
ATOM      4  C5  UNL d   1      -5.616   2.962   5.432  0.00  0.00    -0.004 A 
ATOM      5  C6  UNL d   1      -5.251   2.635   4.127  0.00  0.00     0.002 A 
ATOM      6  C7  UNL d   1      -5.258   3.615   3.133  0.00  0.00     0.002 A 
ENDROOT
BRANCH   1   7
ATOM      7  C1  UNL d   1      -5.592   5.999   2.375  0.00  0.00     0.055 C 
ATOM      8  C   UNL d   1      -4.873   5.512   1.125  0.00  0.00     0.019 C 
ENDBRANCH   1   7
TORSDOF 1
ENDMDL
