MODEL 1
REMARK minimizedAffinity -3.89254546
REMARK minimizedRMSD -1
REMARK  1 active torsions:
REMARK  status: ('A' for Active; 'I' for Inactive)
REMARK    1  A    between atoms: C1_2  and  C2_3 
ROOT
ATOM      1  C2  UNL d   1      -5.759   4.645   3.095  0.00  0.00    -0.077 A 
ATOM      2  C3  UNL d   1      -5.996   5.616   4.078  0.00  0.00     0.002 A 
ATOM      3  C4  UNL d   1      -5.731   5.340   5.421  0.00  0.00     0.002 A 
ATOM      4  C5  UNL d   1      -5.224   4.096   5.792  0.00  0.00    -0.004 A 
ATOM      5  C6  UNL d   1      -4.987   3.124   4.821  0.00  0.00     0.002 A 
ATOM      6  C7  UNL d   1      -5.253   3.397   3.479  0.00  0.00     0.002 A 
ENDROOT
BRANCH   1   7
ATOM      7  C1  UNL d   1      -5.998   4.957   1.640  0.00  0.00     0.055 C 
ATOM      8  C   UNL d   1      -4.901   5.851   1.079  0.00  0.00     0.019 C 
ENDBRANCH   1   7
TORSDOF 1
ENDMDL
