MODEL 1
REMARK minimizedAffinity -2.92774582
REMARK minimizedRMSD -1
REMARK  1 active torsions:
REMARK  status: ('A' for Active; 'I' for Inactive)
REMARK    1  A    between atoms: C1_2  and  C2_3 
ROOT
ATOM      1  C2  UNL d   1      -1.477  -1.514   1.151  0.00  0.00    -0.077 A 
ATOM      2  C3  UNL d   1      -0.102  -1.317   0.962  0.00  0.00     0.002 A 
ATOM      3  C4  UNL d   1       0.383  -0.852  -0.262  0.00  0.00     0.002 A 
ATOM      4  C5  UNL d   1      -0.500  -0.576  -1.304  0.00  0.00    -0.004 A 
ATOM      5  C6  UNL d   1      -1.869  -0.770  -1.126  0.00  0.00     0.002 A 
ATOM      6  C7  UNL d   1      -2.356  -1.236   0.096  0.00  0.00     0.002 A 
ENDROOT
BRANCH   1   7
ATOM      7  C1  UNL d   1      -2.007  -1.968   2.486  0.00  0.00     0.055 C 
ATOM      8  C   UNL d   1      -1.568  -1.033   3.603  0.00  0.00     0.019 C 
ENDBRANCH   1   7
TORSDOF 1
ENDMDL
