MODEL 1
REMARK minimizedAffinity -3.57283521
REMARK minimizedRMSD -1
REMARK  1 active torsions:
REMARK  status: ('A' for Active; 'I' for Inactive)
REMARK    1  A    between atoms: C1_2  and  C2_3 
ROOT
ATOM      1  C2  UNL d   1      -5.790   3.487   4.030  0.00  0.00    -0.077 A 
ATOM      2  C3  UNL d   1      -5.624   3.414   2.640  0.00  0.00     0.002 A 
ATOM      3  C4  UNL d   1      -5.630   4.576   1.865  0.00  0.00     0.002 A 
ATOM      4  C5  UNL d   1      -5.798   5.819   2.472  0.00  0.00    -0.004 A 
ATOM      5  C6  UNL d   1      -5.967   5.902   3.854  0.00  0.00     0.002 A 
ATOM      6  C7  UNL d   1      -5.962   4.742   4.629  0.00  0.00     0.002 A 
ENDROOT
BRANCH   1   7
ATOM      7  C1  UNL d   1      -5.734   2.240   4.872  0.00  0.00     0.055 C 
ATOM      8  C   UNL d   1      -4.668   2.349   5.953  0.00  0.00     0.019 C 
ENDBRANCH   1   7
TORSDOF 1
ENDMDL
