MODEL 1
REMARK minimizedAffinity 19.3518486
REMARK minimizedRMSD -1
REMARK  0 active torsions:
REMARK  status: ('A' for Active; 'I' for Inactive)
ROOT
ATOM      1  C   UNL d   1       4.799   0.935   3.784  0.00  0.00     0.124 A 
ATOM      2  C1  UNL d   1       5.351   1.570   4.888  0.00  0.00     0.062 A 
ATOM      3  C2  UNL d   1       5.455   2.957   4.918  0.00  0.00     0.162 A 
ATOM      4  C3  UNL d   1       5.005   3.721   3.841  0.00  0.00    -0.034 A 
ATOM      5  C4  UNL d   1       4.451   3.075   2.734  0.00  0.00     0.162 A 
ATOM      6  C5  UNL d   1       4.349   1.688   2.708  0.00  0.00     0.062 A 
ATOM      7  F   UNL d   1       3.815   1.077   1.641  0.00  0.00    -0.097 F 
ATOM      8  F1  UNL d   1       4.008   3.779   1.681  0.00  0.00    -0.096 F 
ATOM      9  I   UNL d   1       5.159   5.796   3.882  0.00  0.00    -0.060 I 
ATOM     10  F2  UNL d   1       5.994   3.544   5.998  0.00  0.00    -0.096 F 
ATOM     11  F3  UNL d   1       5.787   0.844   5.928  0.00  0.00    -0.097 F 
ATOM     12  F4  UNL d   1       4.700  -0.400   3.757  0.00  0.00    -0.092 F 
ENDROOT
TORSDOF 0
ENDMDL
