MODEL 1
REMARK minimizedAffinity 9.43008518
REMARK minimizedRMSD -1
REMARK  0 active torsions:
REMARK  status: ('A' for Active; 'I' for Inactive)
ROOT
ATOM      1  C   UNL d   1      -4.118   3.434   0.214  0.00  0.00     0.124 A 
ATOM      2  C1  UNL d   1      -3.863   2.072   0.138  0.00  0.00     0.062 A 
ATOM      3  C2  UNL d   1      -2.622   1.615  -0.296  0.00  0.00     0.162 A 
ATOM      4  C3  UNL d   1      -1.625   2.521  -0.657  0.00  0.00    -0.034 A 
ATOM      5  C4  UNL d   1      -1.889   3.890  -0.579  0.00  0.00     0.162 A 
ATOM      6  C5  UNL d   1      -3.131   4.341  -0.144  0.00  0.00     0.062 A 
ATOM      7  F   UNL d   1      -3.375   5.658  -0.071  0.00  0.00    -0.097 F 
ATOM      8  F1  UNL d   1      -0.953   4.789  -0.918  0.00  0.00    -0.096 F 
ATOM      9  I   UNL d   1       0.231   1.842  -1.307  0.00  0.00    -0.060 I 
ATOM     10  F2  UNL d   1      -2.404   0.293  -0.360  0.00  0.00    -0.096 F 
ATOM     11  F3  UNL d   1      -4.815   1.193   0.483  0.00  0.00    -0.097 F 
ATOM     12  F4  UNL d   1      -5.313   3.871   0.631  0.00  0.00    -0.092 F 
ENDROOT
TORSDOF 0
ENDMDL
