MODEL 1
REMARK minimizedAffinity 8.81726551
REMARK minimizedRMSD -1
REMARK  0 active torsions:
REMARK  status: ('A' for Active; 'I' for Inactive)
ROOT
ATOM      1  C   UNL d   1      -2.464   2.940  -0.478  0.00  0.00     0.124 A 
ATOM      2  C1  UNL d   1      -3.496   2.015  -0.552  0.00  0.00     0.062 A 
ATOM      3  C2  UNL d   1      -3.214   0.653  -0.600  0.00  0.00     0.162 A 
ATOM      4  C3  UNL d   1      -1.892   0.207  -0.573  0.00  0.00    -0.034 A 
ATOM      5  C4  UNL d   1      -0.859   1.144  -0.500  0.00  0.00     0.162 A 
ATOM      6  C5  UNL d   1      -1.147   2.504  -0.452  0.00  0.00     0.062 A 
ATOM      7  F   UNL d   1      -0.149   3.396  -0.381  0.00  0.00    -0.097 F 
ATOM      8  F1  UNL d   1       0.423   0.750  -0.472  0.00  0.00    -0.096 F 
ATOM      9  I   UNL d   1      -1.465  -1.828  -0.644  0.00  0.00    -0.060 I 
ATOM     10  F2  UNL d   1      -4.231  -0.219  -0.671  0.00  0.00    -0.096 F 
ATOM     11  F3  UNL d   1      -4.770   2.434  -0.578  0.00  0.00    -0.097 F 
ATOM     12  F4  UNL d   1      -2.740   4.250  -0.434  0.00  0.00    -0.092 F 
ENDROOT
TORSDOF 0
ENDMDL
