MODEL 1
REMARK minimizedAffinity 1.28358305
REMARK minimizedRMSD -1
REMARK  0 active torsions:
REMARK  status: ('A' for Active; 'I' for Inactive)
ROOT
ATOM      1  C   UNL d   1      -2.981  -0.629   1.083  0.00  0.00     0.124 A 
ATOM      2  C1  UNL d   1      -2.299   0.336   1.811  0.00  0.00     0.062 A 
ATOM      3  C2  UNL d   1      -2.426   1.682   1.481  0.00  0.00     0.162 A 
ATOM      4  C3  UNL d   1      -3.239   2.072   0.417  0.00  0.00    -0.034 A 
ATOM      5  C4  UNL d   1      -3.921   1.096  -0.311  0.00  0.00     0.162 A 
ATOM      6  C5  UNL d   1      -3.791  -0.248   0.023  0.00  0.00     0.062 A 
ATOM      7  F   UNL d   1      -4.450  -1.179  -0.683  0.00  0.00    -0.097 F 
ATOM      8  F1  UNL d   1      -4.712   1.436  -1.340  0.00  0.00    -0.096 F 
ATOM      9  I   UNL d   1      -3.432   4.084  -0.080  0.00  0.00    -0.060 I 
ATOM     10  F2  UNL d   1      -1.755   2.593   2.203  0.00  0.00    -0.096 F 
ATOM     11  F3  UNL d   1      -1.515  -0.029   2.836  0.00  0.00    -0.097 F 
ATOM     12  F4  UNL d   1      -2.856  -1.923   1.402  0.00  0.00    -0.092 F 
ENDROOT
TORSDOF 0
ENDMDL
