MODEL 1
REMARK minimizedAffinity 4.06232166
REMARK minimizedRMSD -1
REMARK  0 active torsions:
REMARK  status: ('A' for Active; 'I' for Inactive)
ROOT
ATOM      1  C   UNL d   1      -2.768   1.836   1.735  0.00  0.00     0.124 A 
ATOM      2  C1  UNL d   1      -2.185   1.749   0.478  0.00  0.00     0.062 A 
ATOM      3  C2  UNL d   1      -1.718   0.525   0.007  0.00  0.00     0.162 A 
ATOM      4  C3  UNL d   1      -1.832  -0.622   0.792  0.00  0.00    -0.034 A 
ATOM      5  C4  UNL d   1      -2.419  -0.526   2.055  0.00  0.00     0.162 A 
ATOM      6  C5  UNL d   1      -2.884   0.699   2.522  0.00  0.00     0.062 A 
ATOM      7  F   UNL d   1      -3.447   0.781   3.736  0.00  0.00    -0.097 F 
ATOM      8  F1  UNL d   1      -2.545  -1.609   2.836  0.00  0.00    -0.096 F 
ATOM      9  I   UNL d   1      -1.135  -2.453   0.091  0.00  0.00    -0.060 I 
ATOM     10  F2  UNL d   1      -1.159   0.470  -1.212  0.00  0.00    -0.096 F 
ATOM     11  F3  UNL d   1      -2.070   2.846  -0.284  0.00  0.00    -0.097 F 
ATOM     12  F4  UNL d   1      -3.215   3.014   2.187  0.00  0.00    -0.092 F 
ENDROOT
TORSDOF 0
ENDMDL
