MODEL 1
REMARK minimizedAffinity 8.68293571
REMARK minimizedRMSD -1
REMARK  0 active torsions:
REMARK  status: ('A' for Active; 'I' for Inactive)
ROOT
ATOM      1  C   UNL d   1       2.176  -2.929   2.192  0.00  0.00     0.124 A 
ATOM      2  C1  UNL d   1       2.529  -2.403   3.427  0.00  0.00     0.062 A 
ATOM      3  C2  UNL d   1       3.148  -1.159   3.508  0.00  0.00     0.162 A 
ATOM      4  C3  UNL d   1       3.418  -0.431   2.349  0.00  0.00    -0.034 A 
ATOM      5  C4  UNL d   1       3.061  -0.967   1.110  0.00  0.00     0.162 A 
ATOM      6  C5  UNL d   1       2.442  -2.210   1.035  0.00  0.00     0.062 A 
ATOM      7  F   UNL d   1       2.101  -2.717  -0.159  0.00  0.00    -0.097 F 
ATOM      8  F1  UNL d   1       3.305  -0.294  -0.024  0.00  0.00    -0.096 F 
ATOM      9  I   UNL d   1       4.344   1.429   2.464  0.00  0.00    -0.060 I 
ATOM     10  F2  UNL d   1       3.478  -0.676   4.714  0.00  0.00    -0.096 F 
ATOM     11  F3  UNL d   1       2.274  -3.095   4.547  0.00  0.00    -0.097 F 
ATOM     12  F4  UNL d   1       1.581  -4.126   2.118  0.00  0.00    -0.092 F 
ENDROOT
TORSDOF 0
ENDMDL
