MODEL 1
REMARK minimizedAffinity 26.1471806
REMARK minimizedRMSD -1
REMARK  0 active torsions:
REMARK  status: ('A' for Active; 'I' for Inactive)
ROOT
ATOM      1  C   UNL d   1       2.560   3.985  -4.265  0.00  0.00     0.124 A 
ATOM      2  C1  UNL d   1       1.672   3.016  -4.709  0.00  0.00     0.062 A 
ATOM      3  C2  UNL d   1       0.785   2.418  -3.818  0.00  0.00     0.162 A 
ATOM      4  C3  UNL d   1       0.782   2.788  -2.473  0.00  0.00    -0.034 A 
ATOM      5  C4  UNL d   1       1.680   3.763  -2.033  0.00  0.00     0.162 A 
ATOM      6  C5  UNL d   1       2.563   4.358  -2.928  0.00  0.00     0.062 A 
ATOM      7  F   UNL d   1       3.421   5.294  -2.497  0.00  0.00    -0.097 F 
ATOM      8  F1  UNL d   1       1.704   4.142  -0.747  0.00  0.00    -0.096 F 
ATOM      9  I   UNL d   1      -0.541   1.896  -1.137  0.00  0.00    -0.060 I 
ATOM     10  F2  UNL d   1      -0.062   1.484  -4.275  0.00  0.00    -0.096 F 
ATOM     11  F3  UNL d   1       1.667   2.653  -6.000  0.00  0.00    -0.097 F 
ATOM     12  F4  UNL d   1       3.413   4.558  -5.124  0.00  0.00    -0.092 F 
ENDROOT
TORSDOF 0
ENDMDL
