MODEL 1
REMARK minimizedAffinity 13.5201817
REMARK minimizedRMSD -1
REMARK  0 active torsions:
REMARK  status: ('A' for Active; 'I' for Inactive)
ROOT
ATOM      1  C   UNL d   1       4.365   2.396   1.856  0.00  0.00     0.124 A 
ATOM      2  C1  UNL d   1       4.912   3.198   2.848  0.00  0.00     0.062 A 
ATOM      3  C2  UNL d   1       5.379   2.629   4.029  0.00  0.00     0.162 A 
ATOM      4  C3  UNL d   1       5.302   1.250   4.225  0.00  0.00    -0.034 A 
ATOM      5  C4  UNL d   1       4.749   0.450   3.223  0.00  0.00     0.162 A 
ATOM      6  C5  UNL d   1       4.284   1.023   2.044  0.00  0.00     0.062 A 
ATOM      7  F   UNL d   1       3.755   0.247   1.087  0.00  0.00    -0.097 F 
ATOM      8  F1  UNL d   1       4.660  -0.879   3.379  0.00  0.00    -0.096 F 
ATOM      9  I   UNL d   1       5.999   0.396   5.990  0.00  0.00    -0.060 I 
ATOM     10  F2  UNL d   1       5.903   3.428   4.971  0.00  0.00    -0.096 F 
ATOM     11  F3  UNL d   1       4.990   4.524   2.668  0.00  0.00    -0.097 F 
ATOM     12  F4  UNL d   1       3.915   2.946   0.720  0.00  0.00    -0.092 F 
ENDROOT
TORSDOF 0
ENDMDL
