MODEL 1
REMARK minimizedAffinity 10.5564022
REMARK minimizedRMSD -1
REMARK  0 active torsions:
REMARK  status: ('A' for Active; 'I' for Inactive)
ROOT
ATOM      1  C   UNL d   1      -3.281  -0.799   4.231  0.00  0.00     0.124 A 
ATOM      2  C1  UNL d   1      -3.327   0.559   3.945  0.00  0.00     0.062 A 
ATOM      3  C2  UNL d   1      -3.082   1.010   2.651  0.00  0.00     0.162 A 
ATOM      4  C3  UNL d   1      -2.790   0.103   1.633  0.00  0.00    -0.034 A 
ATOM      5  C4  UNL d   1      -2.744  -1.261   1.928  0.00  0.00     0.162 A 
ATOM      6  C5  UNL d   1      -2.990  -1.707   3.223  0.00  0.00     0.062 A 
ATOM      7  F   UNL d   1      -2.945  -3.019   3.497  0.00  0.00    -0.097 F 
ATOM      8  F1  UNL d   1      -2.466  -2.160   0.973  0.00  0.00    -0.096 F 
ATOM      9  I   UNL d   1      -2.423   0.774  -0.303  0.00  0.00    -0.060 I 
ATOM     10  F2  UNL d   1      -3.133   2.328   2.404  0.00  0.00    -0.096 F 
ATOM     11  F3  UNL d   1      -3.607   1.438   4.918  0.00  0.00    -0.097 F 
ATOM     12  F4  UNL d   1      -3.516  -1.231   5.477  0.00  0.00    -0.092 F 
ENDROOT
TORSDOF 0
ENDMDL
