MODEL 1
REMARK minimizedAffinity 6.41359568
REMARK minimizedRMSD -1
REMARK  0 active torsions:
REMARK  status: ('A' for Active; 'I' for Inactive)
ROOT
ATOM      1  C   UNL d   1       5.257   0.884   3.735  0.00  0.00     0.124 A 
ATOM      2  C1  UNL d   1       4.896   1.582   2.590  0.00  0.00     0.062 A 
ATOM      3  C2  UNL d   1       4.903   2.974   2.587  0.00  0.00     0.162 A 
ATOM      4  C3  UNL d   1       5.275   3.678   3.733  0.00  0.00    -0.034 A 
ATOM      5  C4  UNL d   1       5.636   2.969   4.880  0.00  0.00     0.162 A 
ATOM      6  C5  UNL d   1       5.626   1.578   4.878  0.00  0.00     0.062 A 
ATOM      7  F   UNL d   1       5.975   0.906   5.985  0.00  0.00    -0.097 F 
ATOM      8  F1  UNL d   1       5.998   3.615   5.999  0.00  0.00    -0.096 F 
ATOM      9  I   UNL d   1       5.288   5.759   3.732  0.00  0.00    -0.060 I 
ATOM     10  F2  UNL d   1       4.550   3.622   1.467  0.00  0.00    -0.096 F 
ATOM     11  F3  UNL d   1       4.538   0.913   1.485  0.00  0.00    -0.097 F 
ATOM     12  F4  UNL d   1       5.247  -0.455   3.735  0.00  0.00    -0.092 F 
ENDROOT
TORSDOF 0
ENDMDL
