MODEL 1
REMARK minimizedAffinity 2.93722963
REMARK minimizedRMSD -1
REMARK  0 active torsions:
REMARK  status: ('A' for Active; 'I' for Inactive)
ROOT
ATOM      1  C   UNL d   1       5.045   0.621   3.423  0.00  0.00     0.124 A 
ATOM      2  C1  UNL d   1       4.889  -0.748   3.253  0.00  0.00     0.062 A 
ATOM      3  C2  UNL d   1       3.900  -1.239   2.405  0.00  0.00     0.162 A 
ATOM      4  C3  UNL d   1       3.060  -0.361   1.721  0.00  0.00    -0.034 A 
ATOM      5  C4  UNL d   1       3.222   1.014   1.898  0.00  0.00     0.162 A 
ATOM      6  C5  UNL d   1       4.212   1.500   2.746  0.00  0.00     0.062 A 
ATOM      7  F   UNL d   1       4.362   2.823   2.909  0.00  0.00    -0.097 F 
ATOM      8  F1  UNL d   1       2.431   1.886   1.256  0.00  0.00    -0.096 F 
ATOM      9  I   UNL d   1       1.580  -1.092   0.453  0.00  0.00    -0.060 I 
ATOM     10  F2  UNL d   1       3.772  -2.566   2.260  0.00  0.00    -0.096 F 
ATOM     11  F3  UNL d   1       5.692  -1.599   3.906  0.00  0.00    -0.097 F 
ATOM     12  F4  UNL d   1       5.997   1.091   4.239  0.00  0.00    -0.092 F 
ENDROOT
TORSDOF 0
ENDMDL
