MODEL 1
REMARK minimizedAffinity 10.7686567
REMARK minimizedRMSD -1
REMARK  0 active torsions:
REMARK  status: ('A' for Active; 'I' for Inactive)
ROOT
ATOM      1  C   UNL d   1       5.275   1.152   3.937  0.00  0.00     0.124 A 
ATOM      2  C1  UNL d   1       5.279  -0.083   4.570  0.00  0.00     0.062 A 
ATOM      3  C2  UNL d   1       4.539  -1.140   4.048  0.00  0.00     0.162 A 
ATOM      4  C3  UNL d   1       3.788  -0.966   2.886  0.00  0.00    -0.034 A 
ATOM      5  C4  UNL d   1       3.788   0.280   2.255  0.00  0.00     0.162 A 
ATOM      6  C5  UNL d   1       4.530   1.332   2.781  0.00  0.00     0.062 A 
ATOM      7  F   UNL d   1       4.525   2.525   2.168  0.00  0.00    -0.097 F 
ATOM      8  F1  UNL d   1       3.077   0.481   1.136  0.00  0.00    -0.096 F 
ATOM      9  I   UNL d   1       2.679  -2.543   2.102  0.00  0.00    -0.060 I 
ATOM     10  F2  UNL d   1       4.561  -2.322   4.681  0.00  0.00    -0.096 F 
ATOM     11  F3  UNL d   1       5.998  -0.260   5.688  0.00  0.00    -0.097 F 
ATOM     12  F4  UNL d   1       5.988   2.167   4.443  0.00  0.00    -0.092 F 
ENDROOT
TORSDOF 0
ENDMDL
