MODEL 1
REMARK minimizedAffinity 24.5008411
REMARK minimizedRMSD -1
REMARK  0 active torsions:
REMARK  status: ('A' for Active; 'I' for Inactive)
ROOT
ATOM      1  C   UNL d   1       4.889   0.530   3.344  0.00  0.00     0.124 A 
ATOM      2  C1  UNL d   1       4.323   1.371   2.396  0.00  0.00     0.062 A 
ATOM      3  C2  UNL d   1       4.318   2.748   2.596  0.00  0.00     0.162 A 
ATOM      4  C3  UNL d   1       4.881   3.294   3.750  0.00  0.00    -0.034 A 
ATOM      5  C4  UNL d   1       5.448   2.441   4.699  0.00  0.00     0.162 A 
ATOM      6  C5  UNL d   1       5.451   1.065   4.494  0.00  0.00     0.062 A 
ATOM      7  F   UNL d   1       5.998   0.254   5.411  0.00  0.00    -0.097 F 
ATOM      8  F1  UNL d   1       5.998   2.932   5.820  0.00  0.00    -0.096 F 
ATOM      9  I   UNL d   1       4.875   5.353   4.054  0.00  0.00    -0.060 I 
ATOM     10  F2  UNL d   1       3.764   3.537   1.664  0.00  0.00    -0.096 F 
ATOM     11  F3  UNL d   1       3.779   0.856   1.284  0.00  0.00    -0.097 F 
ATOM     12  F4  UNL d   1       4.892  -0.795   3.148  0.00  0.00    -0.092 F 
ENDROOT
TORSDOF 0
ENDMDL
