MODEL 1
REMARK minimizedAffinity -1.08809423
REMARK minimizedRMSD -1
REMARK  1 active torsions:
REMARK  status: ('A' for Active; 'I' for Inactive)
REMARK    1  A    between atoms: N_2  and  C1_3 
ROOT
ATOM      1  C1  UNL d   1      -3.615   1.398  -5.902  0.00  0.00     0.143 A 
ATOM      2  C2  UNL d   1      -2.645   2.406  -5.871  0.00  0.00    -0.057 A 
ATOM      3  C3  UNL d   1      -3.004   3.759  -5.877  0.00  0.00     0.033 A 
ATOM      4  C4  UNL d   1      -4.343   4.129  -5.943  0.00  0.00    -0.042 A 
ATOM      5  C5  UNL d   1      -5.323   3.145  -6.000  0.00  0.00     0.033 A 
ATOM      6  C6  UNL d   1      -4.959   1.795  -5.987  0.00  0.00    -0.057 A 
ENDROOT
BRANCH   1   7
ATOM      7  N   UNL d   1      -3.319   0.036  -5.997  0.00  0.00    -0.732 N 
ATOM      8  C   UNL d   1      -4.374  -0.954  -5.943  0.00  0.00     0.284 C 
ATOM      9  H3  UNL d   1      -2.602  -0.158  -6.693  0.00  0.00     0.395 HD
ENDBRANCH   1   7
TORSDOF 1
ENDMDL
