MODEL 1
REMARK minimizedAffinity -1.57834864
REMARK minimizedRMSD -1
REMARK  1 active torsions:
REMARK  status: ('A' for Active; 'I' for Inactive)
REMARK    1  A    between atoms: N_2  and  C1_3 
ROOT
ATOM      1  C1  UNL d   1      -4.220   2.627  -6.000  0.00  0.00     0.143 A 
ATOM      2  C2  UNL d   1      -5.425   3.337  -5.973  0.00  0.00    -0.057 A 
ATOM      3  C3  UNL d   1      -5.442   4.737  -5.986  0.00  0.00     0.033 A 
ATOM      4  C4  UNL d   1      -4.250   5.454  -5.997  0.00  0.00    -0.042 A 
ATOM      5  C5  UNL d   1      -3.040   4.768  -5.999  0.00  0.00     0.033 A 
ATOM      6  C6  UNL d   1      -3.029   3.370  -5.993  0.00  0.00    -0.057 A 
ENDROOT
BRANCH   1   7
ATOM      7  N   UNL d   1      -4.134   1.237  -5.889  0.00  0.00    -0.732 N 
ATOM      8  C   UNL d   1      -2.849   0.572  -5.922  0.00  0.00     0.284 C 
ATOM      9  H3  UNL d   1      -4.778   0.862  -5.196  0.00  0.00     0.395 HD
ENDBRANCH   1   7
TORSDOF 1
ENDMDL
