MODEL 1
REMARK minimizedAffinity 0.651998341
REMARK minimizedRMSD -1
REMARK  1 active torsions:
REMARK  status: ('A' for Active; 'I' for Inactive)
REMARK    1  A    between atoms: N_2  and  C1_3 
ROOT
ATOM      1  C1  UNL d   1       2.748  -1.060  -0.944  0.00  0.00     0.143 A 
ATOM      2  C2  UNL d   1       1.409  -0.964  -0.550  0.00  0.00    -0.057 A 
ATOM      3  C3  UNL d   1       0.822   0.276  -0.270  0.00  0.00     0.033 A 
ATOM      4  C4  UNL d   1       1.574   1.443  -0.352  0.00  0.00    -0.042 A 
ATOM      5  C5  UNL d   1       2.913   1.369  -0.717  0.00  0.00     0.033 A 
ATOM      6  C6  UNL d   1       3.493   0.129  -1.001  0.00  0.00    -0.057 A 
ENDROOT
BRANCH   1   7
ATOM      7  N   UNL d   1       3.417  -2.271  -1.140  0.00  0.00    -0.732 N 
ATOM      8  C   UNL d   1       4.181  -2.504  -2.346  0.00  0.00     0.284 C 
ATOM      9  H3  UNL d   1       3.866  -2.609  -0.291  0.00  0.00     0.395 HD
ENDBRANCH   1   7
TORSDOF 1
ENDMDL
