MODEL 1
REMARK minimizedAffinity -1.20158792
REMARK minimizedRMSD -1
REMARK  1 active torsions:
REMARK  status: ('A' for Active; 'I' for Inactive)
REMARK    1  A    between atoms: N_2  and  C1_3 
ROOT
ATOM      1  C1  UNL d   1      -4.659   1.786  -5.890  0.00  0.00     0.143 A 
ATOM      2  C2  UNL d   1      -5.063   3.126  -5.922  0.00  0.00    -0.057 A 
ATOM      3  C3  UNL d   1      -4.127   4.165  -5.991  0.00  0.00     0.033 A 
ATOM      4  C4  UNL d   1      -2.765   3.883  -6.000  0.00  0.00    -0.042 A 
ATOM      5  C5  UNL d   1      -2.340   2.560  -5.944  0.00  0.00     0.033 A 
ATOM      6  C6  UNL d   1      -3.279   1.527  -5.882  0.00  0.00    -0.057 A 
ENDROOT
BRANCH   1   7
ATOM      7  N   UNL d   1      -5.537   0.713  -5.723  0.00  0.00    -0.732 N 
ATOM      8  C   UNL d   1      -5.038  -0.644  -5.656  0.00  0.00     0.284 C 
ATOM      9  H3  UNL d   1      -6.277   0.917  -5.055  0.00  0.00     0.395 HD
ENDBRANCH   1   7
TORSDOF 1
ENDMDL
