MODEL 1
REMARK minimizedAffinity -3.3216455
REMARK minimizedRMSD -1
REMARK  1 active torsions:
REMARK  status: ('A' for Active; 'I' for Inactive)
REMARK    1  A    between atoms: N_2  and  C1_3 
ROOT
ATOM      1  C1  UNL d   1      -4.848  -0.592  -5.626  0.00  0.00     0.143 A 
ATOM      2  C2  UNL d   1      -3.718   0.144  -6.000  0.00  0.00    -0.057 A 
ATOM      3  C3  UNL d   1      -3.716   1.543  -5.955  0.00  0.00     0.033 A 
ATOM      4  C4  UNL d   1      -4.858   2.234  -5.563  0.00  0.00    -0.042 A 
ATOM      5  C5  UNL d   1      -6.000   1.524  -5.211  0.00  0.00     0.033 A 
ATOM      6  C6  UNL d   1      -5.994   0.127  -5.251  0.00  0.00    -0.057 A 
ENDROOT
BRANCH   1   7
ATOM      7  N   UNL d   1      -4.945  -1.981  -5.742  0.00  0.00    -0.732 N 
ATOM      8  C   UNL d   1      -3.758  -2.790  -5.918  0.00  0.00     0.284 C 
ATOM      9  H3  UNL d   1      -5.627  -2.378  -5.100  0.00  0.00     0.395 HD
ENDBRANCH   1   7
TORSDOF 1
ENDMDL
