MODEL 1
REMARK minimizedAffinity -2.90736604
REMARK minimizedRMSD -1
REMARK  1 active torsions:
REMARK  status: ('A' for Active; 'I' for Inactive)
REMARK    1  A    between atoms: N_2  and  C1_3 
ROOT
ATOM      1  C1  UNL d   1      -2.250  -4.193  -5.839  0.00  0.00     0.143 A 
ATOM      2  C2  UNL d   1      -3.613  -4.498  -5.906  0.00  0.00    -0.057 A 
ATOM      3  C3  UNL d   1      -4.580  -3.489  -5.999  0.00  0.00     0.033 A 
ATOM      4  C4  UNL d   1      -4.199  -2.152  -5.997  0.00  0.00    -0.042 A 
ATOM      5  C5  UNL d   1      -2.851  -1.824  -5.906  0.00  0.00     0.033 A 
ATOM      6  C6  UNL d   1      -1.890  -2.836  -5.820  0.00  0.00    -0.057 A 
ENDROOT
BRANCH   1   7
ATOM      7  N   UNL d   1      -1.248  -5.147  -5.646  0.00  0.00    -0.732 N 
ATOM      8  C   UNL d   1      -0.859  -5.549  -4.311  0.00  0.00     0.284 C 
ATOM      9  H3  UNL d   1      -1.310  -5.916  -6.310  0.00  0.00     0.395 HD
ENDBRANCH   1   7
TORSDOF 1
ENDMDL
