MODEL 1
REMARK minimizedAffinity 2.96946335
REMARK minimizedRMSD -1
REMARK  1 active torsions:
REMARK  status: ('A' for Active; 'I' for Inactive)
REMARK    1  A    between atoms: N_2  and  C1_3 
ROOT
ATOM      1  C1  UNL d   1      -4.430   0.065  -5.802  0.00  0.00     0.143 A 
ATOM      2  C2  UNL d   1      -5.739  -0.426  -5.827  0.00  0.00    -0.057 A 
ATOM      3  C3  UNL d   1      -5.998  -1.800  -5.902  0.00  0.00     0.033 A 
ATOM      4  C4  UNL d   1      -4.948  -2.708  -5.983  0.00  0.00    -0.042 A 
ATOM      5  C5  UNL d   1      -3.638  -2.241  -5.985  0.00  0.00     0.033 A 
ATOM      6  C6  UNL d   1      -3.386  -0.868  -5.903  0.00  0.00    -0.057 A 
ENDROOT
BRANCH   1   7
ATOM      7  N   UNL d   1      -4.108   1.424  -5.828  0.00  0.00    -0.732 N 
ATOM      8  C   UNL d   1      -5.146   2.425  -5.955  0.00  0.00     0.284 C 
ATOM      9  H3  UNL d   1      -3.379   1.664  -5.160  0.00  0.00     0.395 HD
ENDBRANCH   1   7
TORSDOF 1
ENDMDL
