MODEL 1
REMARK minimizedAffinity -3.48350906
REMARK minimizedRMSD -1
REMARK  1 active torsions:
REMARK  status: ('A' for Active; 'I' for Inactive)
REMARK    1  A    between atoms: N_2  and  C1_3 
ROOT
ATOM      1  C1  UNL d   1      -4.239   0.317  -5.999  0.00  0.00     0.143 A 
ATOM      2  C2  UNL d   1      -5.489   0.943  -5.956  0.00  0.00    -0.057 A 
ATOM      3  C3  UNL d   1      -5.602   2.339  -5.962  0.00  0.00     0.033 A 
ATOM      4  C4  UNL d   1      -4.462   3.135  -5.982  0.00  0.00    -0.042 A 
ATOM      5  C5  UNL d   1      -3.209   2.534  -6.000  0.00  0.00     0.033 A 
ATOM      6  C6  UNL d   1      -3.102   1.140  -6.000  0.00  0.00    -0.057 A 
ENDROOT
BRANCH   1   7
ATOM      7  N   UNL d   1      -4.058  -1.065  -5.895  0.00  0.00    -0.732 N 
ATOM      8  C   UNL d   1      -5.185  -1.966  -6.000  0.00  0.00     0.284 C 
ATOM      9  H3  UNL d   1      -3.223  -1.384  -6.381  0.00  0.00     0.395 HD
ENDBRANCH   1   7
TORSDOF 1
ENDMDL
