MODEL 1
REMARK minimizedAffinity -3.71847749
REMARK minimizedRMSD -1
REMARK  1 active torsions:
REMARK  status: ('A' for Active; 'I' for Inactive)
REMARK    1  A    between atoms: N_2  and  C1_3 
ROOT
ATOM      1  C1  UNL d   1      -4.781   1.069  -5.973  0.00  0.00     0.143 A 
ATOM      2  C2  UNL d   1      -5.327   2.356  -5.929  0.00  0.00    -0.057 A 
ATOM      3  C3  UNL d   1      -4.510   3.487  -5.801  0.00  0.00     0.033 A 
ATOM      4  C4  UNL d   1      -3.131   3.347  -5.686  0.00  0.00    -0.042 A 
ATOM      5  C5  UNL d   1      -2.569   2.075  -5.703  0.00  0.00     0.033 A 
ATOM      6  C6  UNL d   1      -3.389   0.950  -5.837  0.00  0.00    -0.057 A 
ENDROOT
BRANCH   1   7
ATOM      7  N   UNL d   1      -5.547  -0.100  -6.000  0.00  0.00    -0.732 N 
ATOM      8  C   UNL d   1      -4.910  -1.399  -5.954  0.00  0.00     0.284 C 
ATOM      9  H3  UNL d   1      -6.385  -0.028  -5.428  0.00  0.00     0.395 HD
ENDBRANCH   1   7
TORSDOF 1
ENDMDL
