MODEL 1
REMARK minimizedAffinity 2.16937232
REMARK minimizedRMSD -1
REMARK  1 active torsions:
REMARK  status: ('A' for Active; 'I' for Inactive)
REMARK    1  A    between atoms: N_2  and  C1_3 
ROOT
ATOM      1  C1  UNL d   1      -4.223   1.108   2.161  0.00  0.00     0.143 A 
ATOM      2  C2  UNL d   1      -3.114   1.669   1.517  0.00  0.00    -0.057 A 
ATOM      3  C3  UNL d   1      -2.296   2.604   2.162  0.00  0.00     0.033 A 
ATOM      4  C4  UNL d   1      -2.590   3.019   3.457  0.00  0.00    -0.042 A 
ATOM      5  C5  UNL d   1      -3.701   2.494   4.107  0.00  0.00     0.033 A 
ATOM      6  C6  UNL d   1      -4.511   1.555   3.460  0.00  0.00    -0.057 A 
ENDROOT
BRANCH   1   7
ATOM      7  N   UNL d   1      -5.131   0.248   1.539  0.00  0.00    -0.732 N 
ATOM      8  C   UNL d   1      -4.670  -0.771   0.621  0.00  0.00     0.284 C 
ATOM      9  H3  UNL d   1      -5.866  -0.062   2.170  0.00  0.00     0.395 HD
ENDBRANCH   1   7
TORSDOF 1
ENDMDL
