MODEL 1
REMARK minimizedAffinity -2.90539455
REMARK minimizedRMSD -1
REMARK  1 active torsions:
REMARK  status: ('A' for Active; 'I' for Inactive)
REMARK    1  A    between atoms: N_2  and  C1_3 
ROOT
ATOM      1  C1  UNL d   1      -4.015   2.031  -5.888  0.00  0.00     0.143 A 
ATOM      2  C2  UNL d   1      -5.394   1.806  -5.956  0.00  0.00    -0.057 A 
ATOM      3  C3  UNL d   1      -5.917   0.508  -5.997  0.00  0.00     0.033 A 
ATOM      4  C4  UNL d   1      -5.064  -0.592  -6.000  0.00  0.00    -0.042 A 
ATOM      5  C5  UNL d   1      -3.689  -0.391  -5.958  0.00  0.00     0.033 A 
ATOM      6  C6  UNL d   1      -3.174   0.908  -5.910  0.00  0.00    -0.057 A 
ENDROOT
BRANCH   1   7
ATOM      7  N   UNL d   1      -3.431   3.299  -5.944  0.00  0.00    -0.732 N 
ATOM      8  C   UNL d   1      -4.253   4.489  -5.994  0.00  0.00     0.284 C 
ATOM      9  H3  UNL d   1      -2.619   3.380  -5.335  0.00  0.00     0.395 HD
ENDBRANCH   1   7
TORSDOF 1
ENDMDL
