MODEL 1
REMARK minimizedAffinity 1.77602732
REMARK minimizedRMSD -1
REMARK  1 active torsions:
REMARK  status: ('A' for Active; 'I' for Inactive)
REMARK    1  A    between atoms: N_2  and  C1_3 
ROOT
ATOM      1  C1  UNL d   1      -4.246   0.966   3.091  0.00  0.00     0.143 A 
ATOM      2  C2  UNL d   1      -4.390   1.527   4.364  0.00  0.00    -0.057 A 
ATOM      3  C3  UNL d   1      -3.677   2.672   4.739  0.00  0.00     0.033 A 
ATOM      4  C4  UNL d   1      -2.782   3.262   3.852  0.00  0.00    -0.042 A 
ATOM      5  C5  UNL d   1      -2.604   2.707   2.590  0.00  0.00     0.033 A 
ATOM      6  C6  UNL d   1      -3.324   1.567   2.220  0.00  0.00    -0.057 A 
ENDROOT
BRANCH   1   7
ATOM      7  N   UNL d   1      -4.853  -0.228   2.693  0.00  0.00    -0.732 N 
ATOM      8  C   UNL d   1      -4.761  -0.681   1.322  0.00  0.00     0.284 C 
ATOM      9  H3  UNL d   1      -4.744  -0.967   3.384  0.00  0.00     0.395 HD
ENDBRANCH   1   7
TORSDOF 1
ENDMDL
