MODEL 1
REMARK minimizedAffinity -2.9580977
REMARK minimizedRMSD -1
REMARK  1 active torsions:
REMARK  status: ('A' for Active; 'I' for Inactive)
REMARK    1  A    between atoms: N_2  and  C1_3 
ROOT
ATOM      1  C1  UNL d   1      -4.822   0.401  -5.982  0.00  0.00     0.143 A 
ATOM      2  C2  UNL d   1      -5.919   1.251  -5.806  0.00  0.00    -0.057 A 
ATOM      3  C3  UNL d   1      -5.754   2.637  -5.697  0.00  0.00     0.033 A 
ATOM      4  C4  UNL d   1      -4.481   3.196  -5.733  0.00  0.00    -0.042 A 
ATOM      5  C5  UNL d   1      -3.374   2.369  -5.882  0.00  0.00     0.033 A 
ATOM      6  C6  UNL d   1      -3.546   0.986  -5.997  0.00  0.00    -0.057 A 
ENDROOT
BRANCH   1   7
ATOM      7  N   UNL d   1      -4.913  -0.993  -5.998  0.00  0.00    -0.732 N 
ATOM      8  C   UNL d   1      -3.718  -1.810  -5.999  0.00  0.00     0.284 C 
ATOM      9  H3  UNL d   1      -5.654  -1.341  -5.394  0.00  0.00     0.395 HD
ENDBRANCH   1   7
TORSDOF 1
ENDMDL
