MODEL 1
REMARK minimizedAffinity -3.7460258
REMARK minimizedRMSD -1
REMARK  1 active torsions:
REMARK  status: ('A' for Active; 'I' for Inactive)
REMARK    1  A    between atoms: N_2  and  C1_3 
ROOT
ATOM      1  C1  UNL d   1      -4.234   0.216  -5.944  0.00  0.00     0.143 A 
ATOM      2  C2  UNL d   1      -4.875   1.436  -5.702  0.00  0.00    -0.057 A 
ATOM      3  C3  UNL d   1      -4.148   2.625  -5.568  0.00  0.00     0.033 A 
ATOM      4  C4  UNL d   1      -2.759   2.610  -5.645  0.00  0.00    -0.042 A 
ATOM      5  C5  UNL d   1      -2.099   1.405  -5.860  0.00  0.00     0.033 A 
ATOM      6  C6  UNL d   1      -2.831   0.222  -6.000  0.00  0.00    -0.057 A 
ENDROOT
BRANCH   1   7
ATOM      7  N   UNL d   1      -4.894  -1.014  -5.988  0.00  0.00    -0.732 N 
ATOM      8  C   UNL d   1      -4.145  -2.253  -6.000  0.00  0.00     0.284 C 
ATOM      9  H3  UNL d   1      -5.720  -1.033  -5.394  0.00  0.00     0.395 HD
ENDBRANCH   1   7
TORSDOF 1
ENDMDL
