MODEL 1
REMARK minimizedAffinity 5.99508667
REMARK minimizedRMSD -1
REMARK  1 active torsions:
REMARK  status: ('A' for Active; 'I' for Inactive)
REMARK    1  A    between atoms: C1_2  and  C2_3 
ROOT
ATOM      1  C2  UNL d   1      -0.452   3.715  -1.892  0.00  0.00    -0.076 A 
ATOM      2  C3  UNL d   1      -1.278   3.103  -0.933  0.00  0.00     0.004 A 
ATOM      3  C4  UNL d   1      -0.805   2.823   0.348  0.00  0.00    -0.003 A 
ATOM      4  C5  UNL d   1       0.502   3.152   0.691  0.00  0.00     0.000 A 
ATOM      5  C6  UNL d   1       1.329   3.776  -0.242  0.00  0.00     0.000 A 
ATOM      6  C7  UNL d   1       0.863   4.079  -1.532  0.00  0.00    -0.073 A 
ATOM      7  C8  UNL d   1       1.801   4.747  -2.500  0.00  0.00     0.078 C 
ENDROOT
BRANCH   1   8
ATOM      8  C1  UNL d   1      -1.011   3.969  -3.274  0.00  0.00     0.053 C 
ATOM      9  C   UNL d   1      -1.883   2.826  -3.769  0.00  0.00     0.018 C 
ENDBRANCH   1   8
TORSDOF 1
ENDMDL
