MODEL 1
REMARK minimizedAffinity -0.114934929
REMARK minimizedRMSD -1
REMARK  1 active torsions:
REMARK  status: ('A' for Active; 'I' for Inactive)
REMARK    1  A    between atoms: C1_2  and  C2_3 
ROOT
ATOM      1  C2  UNL d   1      -0.531   2.448   0.769  0.00  0.00    -0.076 A 
ATOM      2  C3  UNL d   1      -0.930   1.800  -0.413  0.00  0.00     0.004 A 
ATOM      3  C4  UNL d   1      -0.791   2.421  -1.653  0.00  0.00    -0.003 A 
ATOM      4  C5  UNL d   1      -0.249   3.700  -1.732  0.00  0.00     0.000 A 
ATOM      5  C6  UNL d   1       0.168   4.350  -0.571  0.00  0.00     0.000 A 
ATOM      6  C7  UNL d   1       0.050   3.732   0.686  0.00  0.00    -0.073 A 
ATOM      7  C8  UNL d   1       0.510   4.482   1.906  0.00  0.00     0.078 C 
ENDROOT
BRANCH   1   8
ATOM      8  C1  UNL d   1      -0.731   1.736   2.088  0.00  0.00     0.053 C 
ATOM      9  C   UNL d   1      -2.160   1.843   2.596  0.00  0.00     0.018 C 
ENDBRANCH   1   8
TORSDOF 1
ENDMDL
