MODEL 1
REMARK minimizedAffinity 5.85341263
REMARK minimizedRMSD -1
REMARK  1 active torsions:
REMARK  status: ('A' for Active; 'I' for Inactive)
REMARK    1  A    between atoms: C1_2  and  C2_3 
ROOT
ATOM      1  C2  UNL d   1      -0.196   3.036   0.002  0.00  0.00    -0.076 A 
ATOM      2  C3  UNL d   1      -0.193   1.642   0.180  0.00  0.00     0.004 A 
ATOM      3  C4  UNL d   1      -0.389   1.079   1.440  0.00  0.00    -0.003 A 
ATOM      4  C5  UNL d   1      -0.592   1.902   2.543  0.00  0.00     0.000 A 
ATOM      5  C6  UNL d   1      -0.616   3.287   2.382  0.00  0.00     0.000 A 
ATOM      6  C7  UNL d   1      -0.436   3.870   1.115  0.00  0.00    -0.073 A 
ATOM      7  C8  UNL d   1      -0.466   5.369   1.000  0.00  0.00     0.078 C 
ENDROOT
BRANCH   1   8
ATOM      8  C1  UNL d   1       0.048   3.590  -1.383  0.00  0.00     0.053 C 
ATOM      9  C   UNL d   1      -0.927   3.039  -2.412  0.00  0.00     0.018 C 
ENDBRANCH   1   8
TORSDOF 1
ENDMDL
