MODEL 1
REMARK minimizedAffinity 2.07232618
REMARK minimizedRMSD -1
REMARK  1 active torsions:
REMARK  status: ('A' for Active; 'I' for Inactive)
REMARK    1  A    between atoms: C1_2  and  C2_3 
ROOT
ATOM      1  C2  UNL d   1      -0.400   3.034  -1.082  0.00  0.00    -0.076 A 
ATOM      2  C3  UNL d   1      -0.722   1.866  -0.369  0.00  0.00     0.004 A 
ATOM      3  C4  UNL d   1      -0.434   1.752   0.990  0.00  0.00    -0.003 A 
ATOM      4  C5  UNL d   1       0.181   2.805   1.659  0.00  0.00     0.000 A 
ATOM      5  C6  UNL d   1       0.492   3.978   0.972  0.00  0.00     0.000 A 
ATOM      6  C7  UNL d   1       0.194   4.115  -0.395  0.00  0.00    -0.073 A 
ATOM      7  C8  UNL d   1       0.557   5.400  -1.087  0.00  0.00     0.078 C 
ENDROOT
BRANCH   1   8
ATOM      8  C1  UNL d   1      -0.711   3.090  -2.560  0.00  0.00     0.053 C 
ATOM      9  C   UNL d   1      -1.843   2.153  -2.952  0.00  0.00     0.018 C 
ENDBRANCH   1   8
TORSDOF 1
ENDMDL
