MODEL 1
REMARK minimizedAffinity 16.6536846
REMARK minimizedRMSD -1
REMARK  1 active torsions:
REMARK  status: ('A' for Active; 'I' for Inactive)
REMARK    1  A    between atoms: C1_2  and  C2_3 
ROOT
ATOM      1  C2  UNL d   1      -3.583   1.873  -3.071  0.00  0.00    -0.076 A 
ATOM      2  C3  UNL d   1      -2.905   2.909  -3.738  0.00  0.00     0.004 A 
ATOM      3  C4  UNL d   1      -1.733   3.452  -3.215  0.00  0.00    -0.003 A 
ATOM      4  C5  UNL d   1      -1.219   2.969  -2.016  0.00  0.00     0.000 A 
ATOM      5  C6  UNL d   1      -1.869   1.930  -1.350  0.00  0.00     0.000 A 
ATOM      6  C7  UNL d   1      -3.043   1.360  -1.872  0.00  0.00    -0.073 A 
ATOM      7  C8  UNL d   1      -3.706   0.246  -1.109  0.00  0.00     0.078 C 
ENDROOT
BRANCH   1   8
ATOM      8  C1  UNL d   1      -4.864   1.342  -3.672  0.00  0.00     0.053 C 
ATOM      9  C   UNL d   1      -6.000   2.351  -3.610  0.00  0.00     0.018 C 
ENDBRANCH   1   8
TORSDOF 1
ENDMDL
