MODEL 1
REMARK minimizedAffinity 10.0656843
REMARK minimizedRMSD -1
REMARK  1 active torsions:
REMARK  status: ('A' for Active; 'I' for Inactive)
REMARK    1  A    between atoms: C1_2  and  C2_3 
ROOT
ATOM      1  C2  UNL d   1      -0.215   3.809  -0.889  0.00  0.00    -0.076 A 
ATOM      2  C3  UNL d   1      -0.357   3.218  -2.156  0.00  0.00     0.004 A 
ATOM      3  C4  UNL d   1      -0.908   3.928  -3.221  0.00  0.00    -0.003 A 
ATOM      4  C5  UNL d   1      -1.325   5.242  -3.037  0.00  0.00     0.000 A 
ATOM      5  C6  UNL d   1      -1.175   5.850  -1.791  0.00  0.00     0.000 A 
ATOM      6  C7  UNL d   1      -0.606   5.154  -0.711  0.00  0.00    -0.073 A 
ATOM      7  C8  UNL d   1      -0.474   5.857   0.612  0.00  0.00     0.078 C 
ENDROOT
BRANCH   1   8
ATOM      8  C1  UNL d   1       0.365   2.981   0.236  0.00  0.00     0.053 C 
ATOM      9  C   UNL d   1      -0.647   2.010   0.825  0.00  0.00     0.018 C 
ENDBRANCH   1   8
TORSDOF 1
ENDMDL
