MODEL 1
REMARK minimizedAffinity 7.70313454
REMARK minimizedRMSD -1
REMARK  1 active torsions:
REMARK  status: ('A' for Active; 'I' for Inactive)
REMARK    1  A    between atoms: C1_2  and  C2_3 
ROOT
ATOM      1  C2  UNL d   1      -1.409  -0.372   3.500  0.00  0.00    -0.076 A 
ATOM      2  C3  UNL d   1      -2.564  -1.106   3.822  0.00  0.00     0.004 A 
ATOM      3  C4  UNL d   1      -2.485  -2.456   4.159  0.00  0.00    -0.003 A 
ATOM      4  C5  UNL d   1      -1.250  -3.094   4.180  0.00  0.00     0.000 A 
ATOM      5  C6  UNL d   1      -0.092  -2.378   3.881  0.00  0.00     0.000 A 
ATOM      6  C7  UNL d   1      -0.152  -1.012   3.556  0.00  0.00    -0.073 A 
ATOM      7  C8  UNL d   1       1.128  -0.289   3.236  0.00  0.00     0.078 C 
ENDROOT
BRANCH   1   8
ATOM      8  C1  UNL d   1      -1.558   1.083   3.116  0.00  0.00     0.053 C 
ATOM      9  C   UNL d   1      -2.660   1.304   2.092  0.00  0.00     0.018 C 
ENDBRANCH   1   8
TORSDOF 1
ENDMDL
