MODEL 1
REMARK minimizedAffinity 1.96125436
REMARK minimizedRMSD -1
REMARK  1 active torsions:
REMARK  status: ('A' for Active; 'I' for Inactive)
REMARK    1  A    between atoms: C1_2  and  C2_3 
ROOT
ATOM      1  C2  UNL d   1      -0.400   2.461  -0.087  0.00  0.00    -0.076 A 
ATOM      2  C3  UNL d   1       0.332   3.388   0.676  0.00  0.00     0.004 A 
ATOM      3  C4  UNL d   1       0.831   4.555   0.101  0.00  0.00    -0.003 A 
ATOM      4  C5  UNL d   1       0.605   4.816  -1.246  0.00  0.00     0.000 A 
ATOM      5  C6  UNL d   1      -0.134   3.917  -2.013  0.00  0.00     0.000 A 
ATOM      6  C7  UNL d   1      -0.658   2.743  -1.445  0.00  0.00    -0.073 A 
ATOM      7  C8  UNL d   1      -1.443   1.805  -2.321  0.00  0.00     0.078 C 
ENDROOT
BRANCH   1   8
ATOM      8  C1  UNL d   1      -0.893   1.199   0.584  0.00  0.00     0.053 C 
ATOM      9  C   UNL d   1      -1.117   1.383   2.077  0.00  0.00     0.018 C 
ENDBRANCH   1   8
TORSDOF 1
ENDMDL
