MODEL 1
REMARK minimizedAffinity 9.96979141
REMARK minimizedRMSD -1
REMARK  1 active torsions:
REMARK  status: ('A' for Active; 'I' for Inactive)
REMARK    1  A    between atoms: C1_2  and  C2_3 
ROOT
ATOM      1  C2  UNL d   1      -0.179   3.127  -0.408  0.00  0.00    -0.076 A 
ATOM      2  C3  UNL d   1       0.589   3.887   0.491  0.00  0.00     0.004 A 
ATOM      3  C4  UNL d   1       1.374   4.948   0.045  0.00  0.00    -0.003 A 
ATOM      4  C5  UNL d   1       1.405   5.267  -1.308  0.00  0.00     0.000 A 
ATOM      5  C6  UNL d   1       0.636   4.535  -2.212  0.00  0.00     0.000 A 
ATOM      6  C7  UNL d   1      -0.174   3.472  -1.776  0.00  0.00    -0.073 A 
ATOM      7  C8  UNL d   1      -0.979   2.713  -2.795  0.00  0.00     0.078 C 
ENDROOT
BRANCH   1   8
ATOM      8  C1  UNL d   1      -0.991   1.970   0.131  0.00  0.00     0.053 C 
ATOM      9  C   UNL d   1      -0.294   1.253   1.276  0.00  0.00     0.018 C 
ENDBRANCH   1   8
TORSDOF 1
ENDMDL
