MODEL 1
REMARK minimizedAffinity 7.73263025
REMARK minimizedRMSD -1
REMARK  1 active torsions:
REMARK  status: ('A' for Active; 'I' for Inactive)
REMARK    1  A    between atoms: C1_2  and  C2_3 
ROOT
ATOM      1  C2  UNL d   1       0.076   4.050   0.900  0.00  0.00    -0.076 A 
ATOM      2  C3  UNL d   1      -0.646   2.846   0.826  0.00  0.00     0.004 A 
ATOM      3  C4  UNL d   1      -0.504   1.862   1.804  0.00  0.00    -0.003 A 
ATOM      4  C5  UNL d   1       0.363   2.067   2.872  0.00  0.00     0.000 A 
ATOM      5  C6  UNL d   1       1.074   3.263   2.971  0.00  0.00     0.000 A 
ATOM      6  C7  UNL d   1       0.930   4.271   2.002  0.00  0.00    -0.073 A 
ATOM      7  C8  UNL d   1       1.726   5.538   2.156  0.00  0.00     0.078 C 
ENDROOT
BRANCH   1   8
ATOM      8  C1  UNL d   1      -0.098   5.068  -0.203  0.00  0.00     0.053 C 
ATOM      9  C   UNL d   1       0.389   4.557  -1.550  0.00  0.00     0.018 C 
ENDBRANCH   1   8
TORSDOF 1
ENDMDL
