MODEL 1
REMARK minimizedAffinity 9.68997383
REMARK minimizedRMSD -1
REMARK  1 active torsions:
REMARK  status: ('A' for Active; 'I' for Inactive)
REMARK    1  A    between atoms: C1_2  and  C2_3 
ROOT
ATOM      1  C2  UNL d   1      -0.908  -0.518   3.468  0.00  0.00    -0.076 A 
ATOM      2  C3  UNL d   1      -2.163  -0.880   3.987  0.00  0.00     0.004 A 
ATOM      3  C4  UNL d   1      -2.448  -2.204   4.317  0.00  0.00    -0.003 A 
ATOM      4  C5  UNL d   1      -1.482  -3.187   4.135  0.00  0.00     0.000 A 
ATOM      5  C6  UNL d   1      -0.225  -2.843   3.638  0.00  0.00     0.000 A 
ATOM      6  C7  UNL d   1       0.084  -1.511   3.315  0.00  0.00    -0.073 A 
ATOM      7  C8  UNL d   1       1.453  -1.197   2.777  0.00  0.00     0.078 C 
ENDROOT
BRANCH   1   8
ATOM      8  C1  UNL d   1      -0.665   0.929   3.102  0.00  0.00     0.053 C 
ATOM      9  C   UNL d   1       0.078   1.688   4.190  0.00  0.00     0.018 C 
ENDBRANCH   1   8
TORSDOF 1
ENDMDL
