MODEL 1
REMARK minimizedAffinity -3.2945075
REMARK minimizedRMSD -1
REMARK  1 active torsions:
REMARK  status: ('A' for Active; 'I' for Inactive)
REMARK    1  A    between atoms: C1_2  and  C2_3 
ROOT
ATOM      1  C2  UNL d   1      -0.125   0.465   1.020  0.00  0.00    -0.076 A 
ATOM      2  C3  UNL d   1      -1.036   0.292  -0.037  0.00  0.00     0.004 A 
ATOM      3  C4  UNL d   1      -0.653  -0.344  -1.217  0.00  0.00    -0.003 A 
ATOM      4  C5  UNL d   1       0.646  -0.818  -1.359  0.00  0.00     0.000 A 
ATOM      5  C6  UNL d   1       1.558  -0.671  -0.314  0.00  0.00     0.000 A 
ATOM      6  C7  UNL d   1       1.184  -0.047   0.888  0.00  0.00    -0.073 A 
ATOM      7  C8  UNL d   1       2.210   0.091   1.980  0.00  0.00     0.078 C 
ENDROOT
BRANCH   1   8
ATOM      8  C1  UNL d   1      -0.589   1.186   2.265  0.00  0.00     0.053 C 
ATOM      9  C   UNL d   1      -1.784   0.511   2.919  0.00  0.00     0.018 C 
ENDBRANCH   1   8
TORSDOF 1
ENDMDL
