MODEL 1
REMARK minimizedAffinity -3.38438296
REMARK minimizedRMSD -1
REMARK  1 active torsions:
REMARK  status: ('A' for Active; 'I' for Inactive)
REMARK    1  A    between atoms: C1_2  and  C2_3 
ROOT
ATOM      1  C2  UNL d   1       0.319   0.147  -1.291  0.00  0.00    -0.076 A 
ATOM      2  C3  UNL d   1      -0.047   1.210  -2.134  0.00  0.00     0.004 A 
ATOM      3  C4  UNL d   1       0.598   1.415  -3.352  0.00  0.00    -0.003 A 
ATOM      4  C5  UNL d   1       1.620   0.558  -3.748  0.00  0.00     0.000 A 
ATOM      5  C6  UNL d   1       1.985  -0.512  -2.932  0.00  0.00     0.000 A 
ATOM      6  C7  UNL d   1       1.333  -0.742  -1.708  0.00  0.00    -0.073 A 
ATOM      7  C8  UNL d   1       1.771  -1.908  -0.865  0.00  0.00     0.078 C 
ENDROOT
BRANCH   1   8
ATOM      8  C1  UNL d   1      -0.398  -0.009   0.031  0.00  0.00     0.053 C 
ATOM      9  C   UNL d   1      -1.685   0.798   0.095  0.00  0.00     0.018 C 
ENDBRANCH   1   8
TORSDOF 1
ENDMDL
