MODEL 1
REMARK minimizedAffinity 0.419610739
REMARK minimizedRMSD -1
REMARK  1 active torsions:
REMARK  status: ('A' for Active; 'I' for Inactive)
REMARK    1  A    between atoms: C1_2  and  C2_3 
ROOT
ATOM      1  C2  UNL d   1      -0.029  -0.309  -0.040  0.00  0.00    -0.076 A 
ATOM      2  C3  UNL d   1      -1.370   0.105  -0.115  0.00  0.00     0.004 A 
ATOM      3  C4  UNL d   1      -2.090   0.416   1.037  0.00  0.00    -0.003 A 
ATOM      4  C5  UNL d   1      -1.481   0.319   2.283  0.00  0.00     0.000 A 
ATOM      5  C6  UNL d   1      -0.146  -0.073   2.375  0.00  0.00     0.000 A 
ATOM      6  C7  UNL d   1       0.599  -0.375   1.223  0.00  0.00    -0.073 A 
ATOM      7  C8  UNL d   1       2.034  -0.799   1.381  0.00  0.00     0.078 C 
ENDROOT
BRANCH   1   8
ATOM      8  C1  UNL d   1       0.694  -0.660  -1.321  0.00  0.00     0.053 C 
ATOM      9  C   UNL d   1       0.725   0.497  -2.307  0.00  0.00     0.018 C 
ENDBRANCH   1   8
TORSDOF 1
ENDMDL
