MODEL 1
REMARK minimizedAffinity -4.59027052
REMARK minimizedRMSD -1
REMARK  1 active torsions:
REMARK  status: ('A' for Active; 'I' for Inactive)
REMARK    1  A    between atoms: C1_2  and  C2_3 
ROOT
ATOM      1  C2  UNL d   1      -0.063  -0.120  -0.177  0.00  0.00    -0.076 A 
ATOM      2  C3  UNL d   1      -1.406   0.175  -0.470  0.00  0.00     0.004 A 
ATOM      3  C4  UNL d   1      -2.265   0.661   0.515  0.00  0.00    -0.003 A 
ATOM      4  C5  UNL d   1      -1.794   0.861   1.808  0.00  0.00     0.000 A 
ATOM      5  C6  UNL d   1      -0.460   0.591   2.112  0.00  0.00     0.000 A 
ATOM      6  C7  UNL d   1       0.423   0.115   1.127  0.00  0.00    -0.073 A 
ATOM      7  C8  UNL d   1       1.850  -0.165   1.512  0.00  0.00     0.078 C 
ENDROOT
BRANCH   1   8
ATOM      8  C1  UNL d   1       0.814  -0.671  -1.278  0.00  0.00     0.053 C 
ATOM      9  C   UNL d   1       0.592   0.034  -2.608  0.00  0.00     0.018 C 
ENDBRANCH   1   8
TORSDOF 1
ENDMDL
