MODEL 1
REMARK minimizedAffinity -4.1275425
REMARK minimizedRMSD -1
REMARK  0 active torsions:
REMARK  status: ('A' for Active; 'I' for Inactive)
ROOT
ATOM      1  C   UNL d   1      -3.294  -1.568   0.040  0.00  0.00     0.020 A 
ATOM      2  C1  UNL d   1      -2.429  -2.184   0.944  0.00  0.00     0.020 A 
ATOM      3  C2  UNL d   1      -1.086  -1.806   0.994  0.00  0.00     0.034 A 
ATOM      4  C3  UNL d   1      -0.603  -0.809   0.138  0.00  0.00     0.017 A 
ATOM      5  C4  UNL d   1      -1.472  -0.191  -0.768  0.00  0.00     0.017 A 
ATOM      6  C5  UNL d   1      -2.816  -0.573  -0.814  0.00  0.00     0.034 A 
ATOM      7 Cl   UNL d   1      -0.949   1.048  -1.855  0.00  0.00    -0.070 Cl
ATOM      8 Cl1  UNL d   1       1.069  -0.391   0.255  0.00  0.00    -0.070 Cl
ENDROOT
TORSDOF 0
ENDMDL
