MODEL 1
REMARK minimizedAffinity -3.83534837
REMARK minimizedRMSD -1
REMARK  0 active torsions:
REMARK  status: ('A' for Active; 'I' for Inactive)
ROOT
ATOM      1  C   UNL d   1      -3.039  -0.805  -0.679  0.00  0.00     0.020 A 
ATOM      2  C1  UNL d   1      -2.320   0.126  -1.428  0.00  0.00     0.020 A 
ATOM      3  C2  UNL d   1      -0.974   0.362  -1.142  0.00  0.00     0.034 A 
ATOM      4  C3  UNL d   1      -0.342  -0.334  -0.104  0.00  0.00     0.017 A 
ATOM      5  C4  UNL d   1      -1.064  -1.268   0.646  0.00  0.00     0.017 A 
ATOM      6  C5  UNL d   1      -2.412  -1.501   0.355  0.00  0.00     0.034 A 
ATOM      7 Cl   UNL d   1      -0.353  -2.166   1.941  0.00  0.00    -0.070 Cl
ATOM      8 Cl1  UNL d   1       1.325   0.008   0.194  0.00  0.00    -0.070 Cl
ENDROOT
TORSDOF 0
ENDMDL
