MODEL 1
REMARK minimizedAffinity -5.43793058
REMARK minimizedRMSD -1
REMARK  0 active torsions:
REMARK  status: ('A' for Active; 'I' for Inactive)
ROOT
ATOM      1  C   UNL d   1      -2.340  -2.335   1.168  0.00  0.00     0.020 A 
ATOM      2  C1  UNL d   1      -3.196  -1.818   0.196  0.00  0.00     0.020 A 
ATOM      3  C2  UNL d   1      -2.733  -0.851  -0.699  0.00  0.00     0.034 A 
ATOM      4  C3  UNL d   1      -1.411  -0.397  -0.624  0.00  0.00     0.017 A 
ATOM      5  C4  UNL d   1      -0.553  -0.917   0.352  0.00  0.00     0.017 A 
ATOM      6  C5  UNL d   1      -1.021  -1.885   1.246  0.00  0.00     0.034 A 
ATOM      7 Cl   UNL d   1       1.091  -0.406   0.507  0.00  0.00    -0.070 Cl
ATOM      8 Cl1  UNL d   1      -0.906   0.800  -1.763  0.00  0.00    -0.070 Cl
ENDROOT
TORSDOF 0
ENDMDL
