MODEL 1
REMARK minimizedAffinity -2.91646004
REMARK minimizedRMSD -1
REMARK  0 active torsions:
REMARK  status: ('A' for Active; 'I' for Inactive)
ROOT
ATOM      1  C   UNL d   1       0.816   0.172  -0.001  0.00  0.00     0.020 A 
ATOM      2  C1  UNL d   1      -0.052   0.526  -1.034  0.00  0.00     0.020 A 
ATOM      3  C2  UNL d   1      -1.404   0.187  -0.956  0.00  0.00     0.034 A 
ATOM      4  C3  UNL d   1      -1.893  -0.507   0.156  0.00  0.00     0.017 A 
ATOM      5  C4  UNL d   1      -1.022  -0.862   1.192  0.00  0.00     0.017 A 
ATOM      6  C5  UNL d   1       0.331  -0.520   1.110  0.00  0.00     0.034 A 
ATOM      7 Cl   UNL d   1      -1.552  -1.719   2.597  0.00  0.00    -0.070 Cl
ATOM      8 Cl1  UNL d   1      -3.577  -0.893   0.185  0.00  0.00    -0.070 Cl
ENDROOT
TORSDOF 0
ENDMDL
