MODEL 1
REMARK minimizedAffinity -5.95982933
REMARK minimizedRMSD -1
REMARK  0 active torsions:
REMARK  status: ('A' for Active; 'I' for Inactive)
ROOT
ATOM      1  C   UNL d   1      -2.512  -1.843   0.751  0.00  0.00     0.020 A 
ATOM      2  C1  UNL d   1      -3.196  -1.316  -0.343  0.00  0.00     0.020 A 
ATOM      3  C2  UNL d   1      -2.549  -0.435  -1.213  0.00  0.00     0.034 A 
ATOM      4  C3  UNL d   1      -1.214  -0.080  -0.990  0.00  0.00     0.017 A 
ATOM      5  C4  UNL d   1      -0.528  -0.610   0.109  0.00  0.00     0.017 A 
ATOM      6  C5  UNL d   1      -1.180  -1.491   0.976  0.00  0.00     0.034 A 
ATOM      7 Cl   UNL d   1       1.121  -0.218   0.449  0.00  0.00    -0.070 Cl
ATOM      8 Cl1  UNL d   1      -0.477   1.014  -2.106  0.00  0.00    -0.070 Cl
ENDROOT
TORSDOF 0
ENDMDL
