MODEL 1
REMARK minimizedAffinity -4.80623007
REMARK minimizedRMSD -1
REMARK  0 active torsions:
REMARK  status: ('A' for Active; 'I' for Inactive)
ROOT
ATOM      1  C   UNL d   1      -3.013  -1.882  -0.044  0.00  0.00     0.020 A 
ATOM      2  C1  UNL d   1      -2.189  -2.090   1.061  0.00  0.00     0.020 A 
ATOM      3  C2  UNL d   1      -0.982  -1.397   1.173  0.00  0.00     0.034 A 
ATOM      4  C3  UNL d   1      -0.595  -0.492   0.177  0.00  0.00     0.017 A 
ATOM      5  C4  UNL d   1      -1.423  -0.285  -0.932  0.00  0.00     0.017 A 
ATOM      6  C5  UNL d   1      -2.630  -0.982  -1.039  0.00  0.00     0.034 A 
ATOM      7 Cl   UNL d   1      -1.013   0.815  -2.201  0.00  0.00    -0.070 Cl
ATOM      8 Cl1  UNL d   1       0.910   0.331   0.380  0.00  0.00    -0.070 Cl
ENDROOT
TORSDOF 0
ENDMDL
