MODEL 1
REMARK minimizedAffinity -5.15264177
REMARK minimizedRMSD -1
REMARK  0 active torsions:
REMARK  status: ('A' for Active; 'I' for Inactive)
ROOT
ATOM      1  C   UNL d   1      -3.160  -0.867  -0.468  0.00  0.00     0.020 A 
ATOM      2  C1  UNL d   1      -2.394   0.033  -1.207  0.00  0.00     0.020 A 
ATOM      3  C2  UNL d   1      -1.027   0.162  -0.951  0.00  0.00     0.034 A 
ATOM      4  C3  UNL d   1      -0.422  -0.610   0.047  0.00  0.00     0.017 A 
ATOM      5  C4  UNL d   1      -1.192  -1.514   0.789  0.00  0.00     0.017 A 
ATOM      6  C5  UNL d   1      -2.560  -1.639   0.528  0.00  0.00     0.034 A 
ATOM      7 Cl   UNL d   1      -0.516  -2.501   2.036  0.00  0.00    -0.070 Cl
ATOM      8 Cl1  UNL d   1       1.272  -0.399   0.309  0.00  0.00    -0.070 Cl
ENDROOT
TORSDOF 0
ENDMDL
