MODEL 1
REMARK minimizedAffinity -2.63960004
REMARK minimizedRMSD -1
REMARK  0 active torsions:
REMARK  status: ('A' for Active; 'I' for Inactive)
ROOT
ATOM      1  C   UNL d   1       2.856   3.034   1.199  0.00  0.00     0.020 A 
ATOM      2  C1  UNL d   1       1.646   3.676   0.938  0.00  0.00     0.020 A 
ATOM      3  C2  UNL d   1       0.552   2.942   0.474  0.00  0.00     0.034 A 
ATOM      4  C3  UNL d   1       0.666   1.562   0.270  0.00  0.00     0.017 A 
ATOM      5  C4  UNL d   1       1.881   0.918   0.533  0.00  0.00     0.017 A 
ATOM      6  C5  UNL d   1       2.973   1.658   0.997  0.00  0.00     0.034 A 
ATOM      7 Cl   UNL d   1       2.098  -0.781   0.305  0.00  0.00    -0.070 Cl
ATOM      8 Cl1  UNL d   1      -0.727   0.717  -0.305  0.00  0.00    -0.070 Cl
ENDROOT
TORSDOF 0
ENDMDL
