MODEL 1
REMARK minimizedAffinity -4.3738327
REMARK minimizedRMSD -1
REMARK  0 active torsions:
REMARK  status: ('A' for Active; 'I' for Inactive)
ROOT
ATOM      1  C   UNL d   1      -2.323  -2.430   0.970  0.00  0.00     0.020 A 
ATOM      2  C1  UNL d   1      -2.953  -1.662  -0.008  0.00  0.00     0.020 A 
ATOM      3  C2  UNL d   1      -2.219  -0.725  -0.740  0.00  0.00     0.034 A 
ATOM      4  C3  UNL d   1      -0.852  -0.555  -0.495  0.00  0.00     0.017 A 
ATOM      5  C4  UNL d   1      -0.220  -1.328   0.486  0.00  0.00     0.017 A 
ATOM      6  C5  UNL d   1      -0.959  -2.264   1.216  0.00  0.00     0.034 A 
ATOM      7 Cl   UNL d   1       1.464  -1.174   0.845  0.00  0.00    -0.070 Cl
ATOM      8 Cl1  UNL d   1      -0.007   0.620  -1.438  0.00  0.00    -0.070 Cl
ENDROOT
TORSDOF 0
ENDMDL
