MODEL 1
REMARK minimizedAffinity -5.10048532
REMARK minimizedRMSD -1
REMARK  0 active torsions:
REMARK  status: ('A' for Active; 'I' for Inactive)
ROOT
ATOM      1  C   UNL d   1      -0.168   0.343  -1.090  0.00  0.00     0.020 A 
ATOM      2  C1  UNL d   1       0.765  -0.233  -0.230  0.00  0.00     0.020 A 
ATOM      3  C2  UNL d   1       0.347  -1.138   0.749  0.00  0.00     0.034 A 
ATOM      4  C3  UNL d   1      -1.007  -1.469   0.869  0.00  0.00     0.017 A 
ATOM      5  C4  UNL d   1      -1.943  -0.890   0.004  0.00  0.00     0.017 A 
ATOM      6  C5  UNL d   1      -1.520   0.015  -0.974  0.00  0.00     0.034 A 
ATOM      7 Cl   UNL d   1      -3.632  -1.249   0.091  0.00  0.00    -0.070 Cl
ATOM      8 Cl1  UNL d   1      -1.453  -2.595   2.101  0.00  0.00    -0.070 Cl
ENDROOT
TORSDOF 0
ENDMDL
