MODEL 1
REMARK minimizedAffinity -4.19744396
REMARK minimizedRMSD -1
REMARK  0 active torsions:
REMARK  status: ('A' for Active; 'I' for Inactive)
ROOT
ATOM      1  C   UNL d   1      -3.068  -1.852   0.008  0.00  0.00     0.020 A 
ATOM      2  C1  UNL d   1      -2.373  -2.336   1.116  0.00  0.00     0.020 A 
ATOM      3  C2  UNL d   1      -1.080  -1.879   1.382  0.00  0.00     0.034 A 
ATOM      4  C3  UNL d   1      -0.479  -0.936   0.540  0.00  0.00     0.017 A 
ATOM      5  C4  UNL d   1      -1.179  -0.451  -0.571  0.00  0.00     0.017 A 
ATOM      6  C5  UNL d   1      -2.473  -0.912  -0.833  0.00  0.00     0.034 A 
ATOM      7 Cl   UNL d   1      -0.503   0.713  -1.655  0.00  0.00    -0.070 Cl
ATOM      8 Cl1  UNL d   1       1.121  -0.415   0.930  0.00  0.00    -0.070 Cl
ENDROOT
TORSDOF 0
ENDMDL
