MODEL 1
REMARK minimizedAffinity -1.74561858
REMARK minimizedRMSD -1
REMARK  0 active torsions:
REMARK  status: ('A' for Active; 'I' for Inactive)
ROOT
ATOM      1  C   UNL d   1      -3.256  -0.828  -0.190  0.00  0.00     0.020 A 
ATOM      2  C1  UNL d   1      -3.312  -2.060   0.459  0.00  0.00     0.020 A 
ATOM      3  C2  UNL d   1      -2.179  -2.563   1.101  0.00  0.00     0.034 A 
ATOM      4  C3  UNL d   1      -0.985  -1.833   1.096  0.00  0.00     0.017 A 
ATOM      5  C4  UNL d   1      -0.930  -0.596   0.444  0.00  0.00     0.017 A 
ATOM      6  C5  UNL d   1      -2.068  -0.097  -0.198  0.00  0.00     0.034 A 
ATOM      7 Cl   UNL d   1       0.508   0.363   0.394  0.00  0.00    -0.070 Cl
ATOM      8 Cl1  UNL d   1       0.378  -2.515   1.911  0.00  0.00    -0.070 Cl
ENDROOT
TORSDOF 0
ENDMDL
