MODEL 1
REMARK minimizedAffinity -3.48257804
REMARK minimizedRMSD -1
REMARK  0 active torsions:
REMARK  status: ('A' for Active; 'I' for Inactive)
ROOT
ATOM      1  C   UNL d   1      -3.349  -1.831   0.196  0.00  0.00     0.020 A 
ATOM      2  C1  UNL d   1      -2.533  -2.373   1.188  0.00  0.00     0.020 A 
ATOM      3  C2  UNL d   1      -1.215  -1.932   1.327  0.00  0.00     0.034 A 
ATOM      4  C3  UNL d   1      -0.709  -0.946   0.472  0.00  0.00     0.017 A 
ATOM      5  C4  UNL d   1      -1.529  -0.402  -0.524  0.00  0.00     0.017 A 
ATOM      6  C5  UNL d   1      -2.848  -0.847  -0.658  0.00  0.00     0.034 A 
ATOM      7 Cl   UNL d   1      -0.975   0.817  -1.616  0.00  0.00    -0.070 Cl
ATOM      8 Cl1  UNL d   1       0.929  -0.449   0.701  0.00  0.00    -0.070 Cl
ENDROOT
TORSDOF 0
ENDMDL
