MODEL 1
REMARK minimizedAffinity -4.12439394
REMARK minimizedRMSD -1
REMARK  0 active torsions:
REMARK  status: ('A' for Active; 'I' for Inactive)
ROOT
ATOM      1  C   UNL d   1      -3.325  -1.542   0.775  0.00  0.00     0.020 A 
ATOM      2  C1  UNL d   1      -3.060  -0.446  -0.044  0.00  0.00     0.020 A 
ATOM      3  C2  UNL d   1      -1.744  -0.016  -0.231  0.00  0.00     0.034 A 
ATOM      4  C3  UNL d   1      -0.689  -0.683   0.402  0.00  0.00     0.017 A 
ATOM      5  C4  UNL d   1      -0.957  -1.784   1.224  0.00  0.00     0.017 A 
ATOM      6  C5  UNL d   1      -2.276  -2.210   1.408  0.00  0.00     0.034 A 
ATOM      7 Cl   UNL d   1       0.293  -2.657   2.038  0.00  0.00    -0.070 Cl
ATOM      8 Cl1  UNL d   1       0.913  -0.097   0.126  0.00  0.00    -0.070 Cl
ENDROOT
TORSDOF 0
ENDMDL
