MODEL 1
REMARK minimizedAffinity -4.12705469
REMARK minimizedRMSD -1
REMARK  0 active torsions:
REMARK  status: ('A' for Active; 'I' for Inactive)
ROOT
ATOM      1  C   UNL d   1      -2.468  -2.243   1.185  0.00  0.00     0.020 A 
ATOM      2  C1  UNL d   1      -3.242  -1.827   0.103  0.00  0.00     0.020 A 
ATOM      3  C2  UNL d   1      -2.744  -0.871  -0.785  0.00  0.00     0.034 A 
ATOM      4  C3  UNL d   1      -1.469  -0.327  -0.592  0.00  0.00     0.017 A 
ATOM      5  C4  UNL d   1      -0.692  -0.746   0.495  0.00  0.00     0.017 A 
ATOM      6  C5  UNL d   1      -1.196  -1.703   1.381  0.00  0.00     0.034 A 
ATOM      7 Cl   UNL d   1       0.890  -0.121   0.799  0.00  0.00    -0.070 Cl
ATOM      8 Cl1  UNL d   1      -0.916   0.850  -1.729  0.00  0.00    -0.070 Cl
ENDROOT
TORSDOF 0
ENDMDL
