MODEL 1
REMARK minimizedAffinity -4.33098745
REMARK minimizedRMSD -1
REMARK  0 active torsions:
REMARK  status: ('A' for Active; 'I' for Inactive)
ROOT
ATOM      1  C   UNL d   1      -0.365   0.317  -1.357  0.00  0.00     0.020 A 
ATOM      2  C1  UNL d   1       0.696  -0.186  -0.606  0.00  0.00     0.020 A 
ATOM      3  C2  UNL d   1       0.456  -1.124   0.400  0.00  0.00     0.034 A 
ATOM      4  C3  UNL d   1      -0.849  -1.563   0.657  0.00  0.00     0.017 A 
ATOM      5  C4  UNL d   1      -1.913  -1.057  -0.098  0.00  0.00     0.017 A 
ATOM      6  C5  UNL d   1      -1.667  -0.117  -1.104  0.00  0.00     0.034 A 
ATOM      7 Cl   UNL d   1      -3.549  -1.550   0.161  0.00  0.00    -0.070 Cl
ATOM      8 Cl1  UNL d   1      -1.072  -2.725   1.916  0.00  0.00    -0.070 Cl
ENDROOT
TORSDOF 0
ENDMDL
