MODEL 1
REMARK minimizedAffinity -3.40754271
REMARK minimizedRMSD -1
REMARK  0 active torsions:
REMARK  status: ('A' for Active; 'I' for Inactive)
ROOT
ATOM      1  C   UNL d   1      -3.084  -1.230  -0.810  0.00  0.00     0.020 A 
ATOM      2  C1  UNL d   1      -2.323  -0.214  -1.387  0.00  0.00     0.020 A 
ATOM      3  C2  UNL d   1      -1.019   0.019  -0.944  0.00  0.00     0.034 A 
ATOM      4  C3  UNL d   1      -0.472  -0.765   0.078  0.00  0.00     0.017 A 
ATOM      5  C4  UNL d   1      -1.237  -1.785   0.656  0.00  0.00     0.017 A 
ATOM      6  C5  UNL d   1      -2.542  -2.014   0.210  0.00  0.00     0.034 A 
ATOM      7 Cl   UNL d   1      -0.631  -2.794   1.922  0.00  0.00    -0.070 Cl
ATOM      8 Cl1  UNL d   1       1.146  -0.422   0.575  0.00  0.00    -0.070 Cl
ENDROOT
TORSDOF 0
ENDMDL
