MODEL 1
REMARK minimizedAffinity -3.64360738
REMARK minimizedRMSD -1
REMARK  0 active torsions:
REMARK  status: ('A' for Active; 'I' for Inactive)
ROOT
ATOM      1  C   UNL d   1       0.047  -1.912   1.903  0.00  0.00     0.020 A 
ATOM      2  C1  UNL d   1      -1.112  -2.665   2.083  0.00  0.00     0.020 A 
ATOM      3  C2  UNL d   1      -2.217  -2.454   1.255  0.00  0.00     0.034 A 
ATOM      4  C3  UNL d   1      -2.165  -1.487   0.244  0.00  0.00     0.017 A 
ATOM      5  C4  UNL d   1      -1.000  -0.732   0.065  0.00  0.00     0.017 A 
ATOM      6  C5  UNL d   1       0.103  -0.947   0.896  0.00  0.00     0.034 A 
ATOM      7 Cl   UNL d   1      -0.861   0.479  -1.161  0.00  0.00    -0.070 Cl
ATOM      8 Cl1  UNL d   1      -3.568  -1.280  -0.742  0.00  0.00    -0.070 Cl
ENDROOT
TORSDOF 0
ENDMDL
