MODEL 1
REMARK minimizedAffinity -2.2102592
REMARK minimizedRMSD -1
REMARK  0 active torsions:
REMARK  status: ('A' for Active; 'I' for Inactive)
ROOT
ATOM      1  C   UNL d   1       1.427  -0.099   0.047  0.00  0.00     0.020 A 
ATOM      2  C1  UNL d   1       0.689  -0.633   1.102  0.00  0.00     0.020 A 
ATOM      3  C2  UNL d   1      -0.700  -0.729   1.004  0.00  0.00     0.034 A 
ATOM      4  C3  UNL d   1      -1.356  -0.290  -0.152  0.00  0.00     0.017 A 
ATOM      5  C4  UNL d   1      -0.614   0.246  -1.211  0.00  0.00     0.017 A 
ATOM      6  C5  UNL d   1       0.777   0.340  -1.107  0.00  0.00     0.034 A 
ATOM      7 Cl   UNL d   1      -1.353   0.808  -2.669  0.00  0.00    -0.070 Cl
ATOM      8 Cl1  UNL d   1      -3.077  -0.439  -0.205  0.00  0.00    -0.070 Cl
ENDROOT
TORSDOF 0
ENDMDL
