MODEL 1
REMARK minimizedAffinity 0.427310377
REMARK minimizedRMSD -1
REMARK  0 active torsions:
REMARK  status: ('A' for Active; 'I' for Inactive)
ROOT
ATOM      1  O1  BZF d   1       1.942  -0.562   0.906  0.00  0.00    -0.204 OA
ATOM      2  C2  BZF d   1       2.657   0.398   1.596  0.00  0.00     0.174 A 
ATOM      3  C3  BZF d   1       2.837   0.029   2.880  0.00  0.00    -0.012 A 
ATOM      4  C3A BZF d   1       2.274  -1.283   2.978  0.00  0.00    -0.107 A 
ATOM      5  C4  BZF d   1       2.161  -2.182   3.999  0.00  0.00     0.055 A 
ATOM      6  C5  BZF d   1       1.491  -3.345   3.784  0.00  0.00    -0.016 A 
ATOM      7  C6  BZF d   1       0.918  -3.638   2.564  0.00  0.00     0.022 A 
ATOM      8  C7  BZF d   1       1.008  -2.779   1.519  0.00  0.00     0.029 A 
ATOM      9  C7A BZF d   1       1.713  -1.618   1.724  0.00  0.00     0.058 A 
ENDROOT
TORSDOF 0
ENDMDL
