MODEL 1
REMARK minimizedAffinity 11.6897154
REMARK minimizedRMSD -1
REMARK  0 active torsions:
REMARK  status: ('A' for Active; 'I' for Inactive)
ROOT
ATOM      1  O1  BZF d   1       3.578  -5.986  -2.262  0.00  0.00    -0.204 OA
ATOM      2  C2  BZF d   1       4.745  -5.962  -1.524  0.00  0.00     0.174 A 
ATOM      3  C3  BZF d   1       5.823  -5.958  -2.334  0.00  0.00    -0.012 A 
ATOM      4  C3A BZF d   1       5.296  -5.887  -3.662  0.00  0.00    -0.107 A 
ATOM      5  C4  BZF d   1       5.872  -5.837  -4.899  0.00  0.00     0.055 A 
ATOM      6  C5  BZF d   1       5.075  -5.848  -5.999  0.00  0.00    -0.016 A 
ATOM      7  C6  BZF d   1       3.701  -5.914  -5.900  0.00  0.00     0.022 A 
ATOM      8  C7  BZF d   1       3.083  -5.961  -4.694  0.00  0.00     0.029 A 
ATOM      9  C7A BZF d   1       3.885  -5.917  -3.580  0.00  0.00     0.058 A 
ENDROOT
TORSDOF 0
ENDMDL
