MODEL 1
REMARK minimizedAffinity 14.222477
REMARK minimizedRMSD -1
REMARK  0 active torsions:
REMARK  status: ('A' for Active; 'I' for Inactive)
ROOT
ATOM      1  O1  BZF d   1       1.633  -0.859   4.589  0.00  0.00    -0.204 OA
ATOM      2  C2  BZF d   1       1.743  -2.045   3.888  0.00  0.00     0.174 A 
ATOM      3  C3  BZF d   1       2.175  -1.819   2.631  0.00  0.00    -0.012 A 
ATOM      4  C3A BZF d   1       2.433  -0.413   2.569  0.00  0.00    -0.107 A 
ATOM      5  C4  BZF d   1       2.896   0.414   1.585  0.00  0.00     0.055 A 
ATOM      6  C5  BZF d   1       2.964   1.750   1.824  0.00  0.00    -0.016 A 
ATOM      7  C6  BZF d   1       2.573   2.294   3.030  0.00  0.00     0.022 A 
ATOM      8  C7  BZF d   1       2.111   1.513   4.037  0.00  0.00     0.029 A 
ATOM      9  C7A BZF d   1       2.073   0.159   3.811  0.00  0.00     0.058 A 
ENDROOT
TORSDOF 0
ENDMDL
