MODEL 1
REMARK minimizedAffinity 7.37691593
REMARK minimizedRMSD -1
REMARK  0 active torsions:
REMARK  status: ('A' for Active; 'I' for Inactive)
ROOT
ATOM      1  O1  BZF d   1      -5.900  -0.683  -4.560  0.00  0.00    -0.204 OA
ATOM      2  C2  BZF d   1      -5.918  -1.084  -3.238  0.00  0.00     0.174 A 
ATOM      3  C3  BZF d   1      -5.902  -0.016  -2.414  0.00  0.00    -0.012 A 
ATOM      4  C3A BZF d   1      -5.965   1.125  -3.276  0.00  0.00    -0.107 A 
ATOM      5  C4  BZF d   1      -5.997   2.471  -3.050  0.00  0.00     0.055 A 
ATOM      6  C5  BZF d   1      -5.985   3.319  -4.111  0.00  0.00    -0.016 A 
ATOM      7  C6  BZF d   1      -5.935   2.857  -5.410  0.00  0.00     0.022 A 
ATOM      8  C7  BZF d   1      -5.907   1.530  -5.684  0.00  0.00     0.029 A 
ATOM      9  C7A BZF d   1      -5.953   0.669  -4.614  0.00  0.00     0.058 A 
ENDROOT
TORSDOF 0
ENDMDL
