MODEL 1
REMARK minimizedAffinity 8.80505562
REMARK minimizedRMSD -1
REMARK  0 active torsions:
REMARK  status: ('A' for Active; 'I' for Inactive)
ROOT
ATOM      1  O1  BZF d   1       5.755  -1.501   4.124  0.00  0.00    -0.204 OA
ATOM      2  C2  BZF d   1       6.000  -2.247   5.261  0.00  0.00     0.174 A 
ATOM      3  C3  BZF d   1       4.848  -2.716   5.783  0.00  0.00    -0.012 A 
ATOM      4  C3A BZF d   1       3.827  -2.309   4.867  0.00  0.00    -0.107 A 
ATOM      5  C4  BZF d   1       2.473  -2.488   4.830  0.00  0.00     0.055 A 
ATOM      6  C5  BZF d   1       1.756  -1.900   3.837  0.00  0.00    -0.016 A 
ATOM      7  C6  BZF d   1       2.358  -1.123   2.869  0.00  0.00     0.022 A 
ATOM      8  C7  BZF d   1       3.698  -0.920   2.861  0.00  0.00     0.029 A 
ATOM      9  C7A BZF d   1       4.430  -1.540   3.845  0.00  0.00     0.058 A 
ENDROOT
TORSDOF 0
ENDMDL
