MODEL 1
REMARK minimizedAffinity 3.55230832
REMARK minimizedRMSD -1
REMARK  0 active torsions:
REMARK  status: ('A' for Active; 'I' for Inactive)
ROOT
ATOM      1  O1  BZF d   1       4.674  -3.362   5.995  0.00  0.00    -0.204 OA
ATOM      2  C2  BZF d   1       5.965  -2.924   5.773  0.00  0.00     0.174 A 
ATOM      3  C3  BZF d   1       5.998  -2.025   4.768  0.00  0.00    -0.012 A 
ATOM      4  C3A BZF d   1       4.631  -1.825   4.397  0.00  0.00    -0.107 A 
ATOM      5  C4  BZF d   1       4.017  -1.035   3.467  0.00  0.00     0.055 A 
ATOM      6  C5  BZF d   1       2.670  -1.128   3.308  0.00  0.00    -0.016 A 
ATOM      7  C6  BZF d   1       1.909  -2.002   4.056  0.00  0.00     0.022 A 
ATOM      8  C7  BZF d   1       2.473  -2.802   4.994  0.00  0.00     0.029 A 
ATOM      9  C7A BZF d   1       3.829  -2.686   5.180  0.00  0.00     0.058 A 
ENDROOT
TORSDOF 0
ENDMDL
