MODEL 1
REMARK minimizedAffinity 16.0472679
REMARK minimizedRMSD -1
REMARK  0 active torsions:
REMARK  status: ('A' for Active; 'I' for Inactive)
ROOT
ATOM      1  O1  BZF d   1       2.350  -1.506   3.563  0.00  0.00    -0.204 OA
ATOM      2  C2  BZF d   1       1.592  -0.842   2.617  0.00  0.00     0.174 A 
ATOM      3  C3  BZF d   1       2.371  -0.378   1.620  0.00  0.00    -0.012 A 
ATOM      4  C3A BZF d   1       3.687  -0.856   1.916  0.00  0.00    -0.107 A 
ATOM      5  C4  BZF d   1       4.893  -0.738   1.286  0.00  0.00     0.055 A 
ATOM      6  C5  BZF d   1       6.000  -1.261   1.876  0.00  0.00    -0.016 A 
ATOM      7  C6  BZF d   1       5.938  -1.903   3.095  0.00  0.00     0.022 A 
ATOM      8  C7  BZF d   1       4.764  -2.049   3.756  0.00  0.00     0.029 A 
ATOM      9  C7A BZF d   1       3.638  -1.551   3.147  0.00  0.00     0.058 A 
ENDROOT
TORSDOF 0
ENDMDL
