MODEL 1
REMARK minimizedAffinity 5.87973595
REMARK minimizedRMSD -1
REMARK  1 active torsions:
REMARK  status: ('A' for Active; 'I' for Inactive)
REMARK    1  A    between atoms: C1_2  and  C2_3 
ROOT
ATOM      1  C2  UNL d   1      -0.219   3.497  -0.560  0.00  0.00    -0.073 A 
ATOM      2  C3  UNL d   1       1.051   4.075  -0.457  0.00  0.00    -0.002 A 
ATOM      3  C4  UNL d   1       1.748   4.035   0.751  0.00  0.00     0.004 A 
ATOM      4  C5  UNL d   1       1.187   3.411   1.865  0.00  0.00    -0.004 A 
ATOM      5  C6  UNL d   1      -0.076   2.817   1.779  0.00  0.00    -0.075 A 
ATOM      6  C7  UNL d   1      -0.695   2.144   2.969  0.00  0.00     0.076 C 
ATOM      7  C8  UNL d   1      -0.771   2.864   0.564  0.00  0.00     0.001 A 
ENDROOT
BRANCH   1   8
ATOM      8  C1  UNL d   1      -0.974   3.532  -1.864  0.00  0.00     0.053 C 
ATOM      9  C   UNL d   1      -2.109   4.544  -1.838  0.00  0.00     0.018 C 
ENDBRANCH   1   8
TORSDOF 1
ENDMDL
