MODEL 1
REMARK minimizedAffinity -2.54916716
REMARK minimizedRMSD -1
REMARK  1 active torsions:
REMARK  status: ('A' for Active; 'I' for Inactive)
REMARK    1  A    between atoms: C1_2  and  C2_3 
ROOT
ATOM      1  C2  UNL d   1      -5.997   2.814  -4.756  0.00  0.00    -0.073 A 
ATOM      2  C3  UNL d   1      -5.991   4.192  -5.002  0.00  0.00    -0.002 A 
ATOM      3  C4  UNL d   1      -5.996   5.098  -3.940  0.00  0.00     0.004 A 
ATOM      4  C5  UNL d   1      -6.000   4.636  -2.624  0.00  0.00    -0.004 A 
ATOM      5  C6  UNL d   1      -5.994   3.263  -2.358  0.00  0.00    -0.075 A 
ATOM      6  C7  UNL d   1      -6.000   2.751  -0.947  0.00  0.00     0.076 C 
ATOM      7  C8  UNL d   1      -5.991   2.360  -3.429  0.00  0.00     0.001 A 
ENDROOT
BRANCH   1   8
ATOM      8  C1  UNL d   1      -5.985   1.832  -5.899  0.00  0.00     0.053 C 
ATOM      9  C   UNL d   1      -4.684   1.048  -5.963  0.00  0.00     0.018 C 
ENDBRANCH   1   8
TORSDOF 1
ENDMDL
