MODEL 1
REMARK minimizedAffinity 21.2974567
REMARK minimizedRMSD -1
REMARK  1 active torsions:
REMARK  status: ('A' for Active; 'I' for Inactive)
REMARK    1  A    between atoms: C1_2  and  C2_3 
ROOT
ATOM      1  C2  UNL d   1       4.778  -4.947  -3.505  0.00  0.00    -0.073 A 
ATOM      2  C3  UNL d   1       4.262  -5.995  -2.733  0.00  0.00    -0.002 A 
ATOM      3  C4  UNL d   1       4.207  -5.885  -1.343  0.00  0.00     0.004 A 
ATOM      4  C5  UNL d   1       4.658  -4.726  -0.712  0.00  0.00    -0.004 A 
ATOM      5  C6  UNL d   1       5.166  -3.664  -1.467  0.00  0.00    -0.075 A 
ATOM      6  C7  UNL d   1       5.658  -2.411  -0.803  0.00  0.00     0.076 C 
ATOM      7  C8  UNL d   1       5.221  -3.783  -2.862  0.00  0.00     0.001 A 
ENDROOT
BRANCH   1   8
ATOM      8  C1  UNL d   1       4.834  -5.059  -5.007  0.00  0.00     0.053 C 
ATOM      9  C   UNL d   1       3.768  -5.998  -5.549  0.00  0.00     0.018 C 
ENDBRANCH   1   8
TORSDOF 1
ENDMDL
