MODEL 1
REMARK minimizedAffinity 2.1226871
REMARK minimizedRMSD -1
REMARK  1 active torsions:
REMARK  status: ('A' for Active; 'I' for Inactive)
REMARK    1  A    between atoms: C1_2  and  C2_3 
ROOT
ATOM      1  C2  UNL d   1      -5.249   5.090  -3.543  0.00  0.00    -0.073 A 
ATOM      2  C3  UNL d   1      -3.868   5.247  -3.383  0.00  0.00    -0.002 A 
ATOM      3  C4  UNL d   1      -3.182   4.510  -2.417  0.00  0.00     0.004 A 
ATOM      4  C5  UNL d   1      -3.867   3.604  -1.607  0.00  0.00    -0.004 A 
ATOM      5  C6  UNL d   1      -5.246   3.424  -1.760  0.00  0.00    -0.075 A 
ATOM      6  C7  UNL d   1      -5.998   2.455  -0.896  0.00  0.00     0.076 C 
ATOM      7  C8  UNL d   1      -5.928   4.170  -2.731  0.00  0.00     0.001 A 
ENDROOT
BRANCH   1   8
ATOM      8  C1  UNL d   1      -5.993   5.879  -4.589  0.00  0.00     0.053 C 
ATOM      9  C   UNL d   1      -5.539   5.529  -5.997  0.00  0.00     0.018 C 
ENDBRANCH   1   8
TORSDOF 1
ENDMDL
