MODEL 1
REMARK minimizedAffinity 2.80362415
REMARK minimizedRMSD -1
REMARK  1 active torsions:
REMARK  status: ('A' for Active; 'I' for Inactive)
REMARK    1  A    between atoms: C1_2  and  C2_3 
ROOT
ATOM      1  C2  UNL d   1      -5.366   2.301  -3.174  0.00  0.00    -0.073 A 
ATOM      2  C3  UNL d   1      -4.206   2.830  -3.751  0.00  0.00    -0.002 A 
ATOM      3  C4  UNL d   1      -3.625   2.213  -4.860  0.00  0.00     0.004 A 
ATOM      4  C5  UNL d   1      -4.201   1.066  -5.406  0.00  0.00    -0.004 A 
ATOM      5  C6  UNL d   1      -5.367   0.529  -4.851  0.00  0.00    -0.075 A 
ATOM      6  C7  UNL d   1      -5.998  -0.705  -5.426  0.00  0.00     0.076 C 
ATOM      7  C8  UNL d   1      -5.943   1.154  -3.736  0.00  0.00     0.001 A 
ENDROOT
BRANCH   1   8
ATOM      8  C1  UNL d   1      -6.000   2.968  -1.981  0.00  0.00     0.053 C 
ATOM      9  C   UNL d   1      -5.992   2.070  -0.754  0.00  0.00     0.018 C 
ENDBRANCH   1   8
TORSDOF 1
ENDMDL
