MODEL 1
REMARK minimizedAffinity 3.96470547
REMARK minimizedRMSD -1
REMARK  0 active torsions:
REMARK  status: ('A' for Active; 'I' for Inactive)
ROOT
ATOM      1  C4' PXY d   1       2.227  -1.892  -0.546  0.00  0.00     0.077 C 
ATOM      2  C1' PXY d   1       4.824   3.183  -1.503  0.00  0.00     0.077 C 
ATOM      3  C1  PXY d   1       4.144   1.854  -1.239  0.00  0.00    -0.082 A 
ATOM      4  C2  PXY d   1       4.163   0.913  -2.170  0.00  0.00     0.003 A 
ATOM      5  C3  PXY d   1       3.526  -0.283  -1.960  0.00  0.00     0.003 A 
ATOM      6  C4  PXY d   1       2.908  -0.539  -0.765  0.00  0.00    -0.082 A 
ATOM      7  C5  PXY d   1       2.894   0.412   0.193  0.00  0.00     0.003 A 
ATOM      8  C6  PXY d   1       3.511   1.634  -0.055  0.00  0.00     0.003 A 
ENDROOT
TORSDOF 0
ENDMDL
