MODEL 1
REMARK minimizedAffinity 15.0811815
REMARK minimizedRMSD -1
REMARK  0 active torsions:
REMARK  status: ('A' for Active; 'I' for Inactive)
ROOT
ATOM      1  C4' PXY d   1       1.890   0.141   0.425  0.00  0.00     0.077 C 
ATOM      2  C1' PXY d   1       5.944   4.204  -0.261  0.00  0.00     0.077 C 
ATOM      3  C1  PXY d   1       4.886   3.135  -0.069  0.00  0.00    -0.082 A 
ATOM      4  C2  PXY d   1       4.316   2.582  -1.127  0.00  0.00     0.003 A 
ATOM      5  C3  PXY d   1       3.334   1.637  -0.972  0.00  0.00     0.003 A 
ATOM      6  C4  PXY d   1       2.969   1.217   0.279  0.00  0.00    -0.082 A 
ATOM      7  C5  PXY d   1       3.554   1.769   1.363  0.00  0.00     0.003 A 
ATOM      8  C6  PXY d   1       4.519   2.755   1.185  0.00  0.00     0.003 A 
ENDROOT
TORSDOF 0
ENDMDL
