MODEL 1
REMARK minimizedAffinity 11.9656496
REMARK minimizedRMSD -1
REMARK  0 active torsions:
REMARK  status: ('A' for Active; 'I' for Inactive)
ROOT
ATOM      1  C4' PXY d   1       2.813  -1.103  -1.896  0.00  0.00     0.077 C 
ATOM      2  C1' PXY d   1       2.611   2.518   2.605  0.00  0.00     0.077 C 
ATOM      3  C1  PXY d   1       2.656   1.576   1.418  0.00  0.00    -0.082 A 
ATOM      4  C2  PXY d   1       2.919   0.294   1.610  0.00  0.00     0.003 A 
ATOM      5  C3  PXY d   1       2.995  -0.566   0.544  0.00  0.00     0.003 A 
ATOM      6  C4  PXY d   1       2.748  -0.118  -0.726  0.00  0.00    -0.082 A 
ATOM      7  C5  PXY d   1       2.469   1.187  -0.929  0.00  0.00     0.003 A 
ATOM      8  C6  PXY d   1       2.437   2.051   0.162  0.00  0.00     0.003 A 
ENDROOT
TORSDOF 0
ENDMDL
