MODEL 1
REMARK minimizedAffinity 10.7334061
REMARK minimizedRMSD -1
REMARK  0 active torsions:
REMARK  status: ('A' for Active; 'I' for Inactive)
ROOT
ATOM      1  C4' PXY d   1       5.619   4.894  -1.900  0.00  0.00     0.077 C 
ATOM      2  C1' PXY d   1       4.058   0.013   0.775  0.00  0.00     0.077 C 
ATOM      3  C1  PXY d   1       4.459   1.290   0.064  0.00  0.00    -0.082 A 
ATOM      4  C2  PXY d   1       5.634   1.841   0.322  0.00  0.00     0.003 A 
ATOM      5  C3  PXY d   1       5.999   3.014  -0.288  0.00  0.00     0.003 A 
ATOM      6  C4  PXY d   1       5.176   3.599  -1.212  0.00  0.00    -0.082 A 
ATOM      7  C5  PXY d   1       3.981   3.037  -1.490  0.00  0.00     0.003 A 
ATOM      8  C6  PXY d   1       3.611   1.869  -0.829  0.00  0.00     0.003 A 
ENDROOT
TORSDOF 0
ENDMDL
