MODEL 1
REMARK minimizedAffinity -5.70618439
REMARK minimizedRMSD -1
REMARK  0 active torsions:
REMARK  status: ('A' for Active; 'I' for Inactive)
ROOT
ATOM      1  C4' PXY d   1       2.448  -2.139   0.965  0.00  0.00     0.077 C 
ATOM      2  C1' PXY d   1       5.119   2.906   0.050  0.00  0.00     0.077 C 
ATOM      3  C1  PXY d   1       4.429   1.576   0.288  0.00  0.00    -0.082 A 
ATOM      4  C2  PXY d   1       3.121   1.479   0.118  0.00  0.00     0.003 A 
ATOM      5  C3  PXY d   1       2.477   0.292   0.360  0.00  0.00     0.003 A 
ATOM      6  C4  PXY d   1       3.187  -0.819   0.727  0.00  0.00    -0.082 A 
ATOM      7  C5  PXY d   1       4.524  -0.730   0.892  0.00  0.00     0.003 A 
ATOM      8  C6  PXY d   1       5.153   0.494   0.682  0.00  0.00     0.003 A 
ENDROOT
TORSDOF 0
ENDMDL
