MODEL 1
REMARK minimizedAffinity 3.57472563
REMARK minimizedRMSD -1
REMARK  0 active torsions:
REMARK  status: ('A' for Active; 'I' for Inactive)
ROOT
ATOM      1  C4' PXY d   1      -4.495   4.478   0.369  0.00  0.00     0.077 C 
ATOM      2  C1' PXY d   1      -5.146   5.611   6.000  0.00  0.00     0.077 C 
ATOM      3  C1  PXY d   1      -4.965   5.322   4.523  0.00  0.00    -0.082 A 
ATOM      4  C2  PXY d   1      -5.998   4.909   3.806  0.00  0.00     0.003 A 
ATOM      5  C3  PXY d   1      -5.844   4.612   2.476  0.00  0.00     0.003 A 
ATOM      6  C4  PXY d   1      -4.634   4.791   1.861  0.00  0.00    -0.082 A 
ATOM      7  C5  PXY d   1      -3.578   5.222   2.584  0.00  0.00     0.003 A 
ATOM      8  C6  PXY d   1      -3.745   5.478   3.942  0.00  0.00     0.003 A 
ENDROOT
TORSDOF 0
ENDMDL
