MODEL 1
REMARK minimizedAffinity 8.41663074
REMARK minimizedRMSD -1
REMARK  0 active torsions:
REMARK  status: ('A' for Active; 'I' for Inactive)
ROOT
ATOM      1  C4' PXY d   1       5.948   3.518   0.419  0.00  0.00     0.077 C 
ATOM      2  C1' PXY d   1       2.053  -0.734   0.005  0.00  0.00     0.077 C 
ATOM      3  C1  PXY d   1       3.081   0.374   0.123  0.00  0.00    -0.082 A 
ATOM      4  C2  PXY d   1       2.751   1.611  -0.215  0.00  0.00     0.003 A 
ATOM      5  C3  PXY d   1       3.678   2.619  -0.145  0.00  0.00     0.003 A 
ATOM      6  C4  PXY d   1       4.939   2.369   0.325  0.00  0.00    -0.082 A 
ATOM      7  C5  PXY d   1       5.280   1.113   0.682  0.00  0.00     0.003 A 
ATOM      8  C6  PXY d   1       4.337   0.095   0.564  0.00  0.00     0.003 A 
ENDROOT
TORSDOF 0
ENDMDL
