MODEL 1
REMARK minimizedAffinity 1.77576518
REMARK minimizedRMSD -1
REMARK  0 active torsions:
REMARK  status: ('A' for Active; 'I' for Inactive)
ROOT
ATOM      1  C4' PXY d   1       6.000   4.311  -0.873  0.00  0.00     0.077 C 
ATOM      2  C1' PXY d   1       2.978  -0.516   0.120  0.00  0.00     0.077 C 
ATOM      3  C1  PXY d   1       3.775   0.749  -0.128  0.00  0.00    -0.082 A 
ATOM      4  C2  PXY d   1       3.377   1.602  -1.058  0.00  0.00     0.003 A 
ATOM      5  C3  PXY d   1       4.103   2.735  -1.318  0.00  0.00     0.003 A 
ATOM      6  C4  PXY d   1       5.221   3.025  -0.581  0.00  0.00    -0.082 A 
ATOM      7  C5  PXY d   1       5.628   2.166   0.377  0.00  0.00     0.003 A 
ATOM      8  C6  PXY d   1       4.899   1.001   0.596  0.00  0.00     0.003 A 
ENDROOT
TORSDOF 0
ENDMDL
