MODEL 1
REMARK minimizedAffinity 13.2193584
REMARK minimizedRMSD -1
REMARK  0 active torsions:
REMARK  status: ('A' for Active; 'I' for Inactive)
ROOT
ATOM      1  C4' PXY d   1       6.000   3.750   0.652  0.00  0.00     0.077 C 
ATOM      2  C1' PXY d   1       1.881   0.027  -0.958  0.00  0.00     0.077 C 
ATOM      3  C1  PXY d   1       2.968   1.000  -0.546  0.00  0.00    -0.082 A 
ATOM      4  C2  PXY d   1       3.062   1.380   0.718  0.00  0.00     0.003 A 
ATOM      5  C3  PXY d   1       4.019   2.283   1.102  0.00  0.00     0.003 A 
ATOM      6  C4  PXY d   1       4.924   2.762   0.192  0.00  0.00    -0.082 A 
ATOM      7  C5  PXY d   1       4.842   2.371  -1.097  0.00  0.00     0.003 A 
ATOM      8  C6  PXY d   1       3.837   1.485  -1.474  0.00  0.00     0.003 A 
ENDROOT
TORSDOF 0
ENDMDL
