MODEL 1
REMARK minimizedAffinity -4.6926775
REMARK minimizedRMSD -1
REMARK  0 active torsions:
REMARK  status: ('A' for Active; 'I' for Inactive)
ROOT
ATOM      1  C4' PXY d   1       4.431   1.328  -1.035  0.00  0.00     0.077 C 
ATOM      2  C1' PXY d   1      -0.360  -1.711   0.073  0.00  0.00     0.077 C 
ATOM      3  C1  PXY d   1       0.904  -0.924  -0.214  0.00  0.00    -0.082 A 
ATOM      4  C2  PXY d   1       0.880   0.397  -0.154  0.00  0.00     0.003 A 
ATOM      5  C3  PXY d   1       2.005   1.125  -0.443  0.00  0.00     0.003 A 
ATOM      6  C4  PXY d   1       3.182   0.492  -0.743  0.00  0.00    -0.082 A 
ATOM      7  C5  PXY d   1       3.217  -0.856  -0.796  0.00  0.00     0.003 A 
ATOM      8  C6  PXY d   1       2.054  -1.575  -0.540  0.00  0.00     0.003 A 
ENDROOT
TORSDOF 0
ENDMDL
