MODEL 1
REMARK minimizedAffinity 3.22097635
REMARK minimizedRMSD -1
REMARK  0 active torsions:
REMARK  status: ('A' for Active; 'I' for Inactive)
ROOT
ATOM      1  C   UNL d   1       4.351   0.607  -0.468  0.00  0.00     0.020 A 
ATOM      2  C1  UNL d   1       3.067   0.200  -0.825  0.00  0.00     0.020 A 
ATOM      3  C2  UNL d   1       1.961   0.680  -0.120  0.00  0.00     0.034 A 
ATOM      4  C3  UNL d   1       2.138   1.571   0.945  0.00  0.00     0.017 A 
ATOM      5  C4  UNL d   1       3.428   1.979   1.302  0.00  0.00     0.017 A 
ATOM      6  C5  UNL d   1       4.532   1.495   0.593  0.00  0.00     0.034 A 
ATOM      7 Cl   UNL d   1       3.727   3.076   2.605  0.00  0.00    -0.070 Cl
ATOM      8 Cl1  UNL d   1       0.726   2.125   1.772  0.00  0.00    -0.070 Cl
ENDROOT
TORSDOF 0
ENDMDL
