MODEL 1
REMARK minimizedAffinity 19.9785252
REMARK minimizedRMSD -1
REMARK  0 active torsions:
REMARK  status: ('A' for Active; 'I' for Inactive)
ROOT
ATOM      1  C   UNL d   1      -3.295   1.382  -5.485  0.00  0.00     0.020 A 
ATOM      2  C1  UNL d   1      -4.490   0.866  -4.984  0.00  0.00     0.020 A 
ATOM      3  C2  UNL d   1      -4.471   0.005  -3.884  0.00  0.00     0.034 A 
ATOM      4  C3  UNL d   1      -3.256  -0.342  -3.283  0.00  0.00     0.017 A 
ATOM      5  C4  UNL d   1      -2.058   0.177  -3.787  0.00  0.00     0.017 A 
ATOM      6  C5  UNL d   1      -2.082   1.038  -4.888  0.00  0.00     0.034 A 
ATOM      7 Cl   UNL d   1      -0.520  -0.206  -3.097  0.00  0.00    -0.070 Cl
ATOM      8 Cl1  UNL d   1      -3.308  -1.411  -1.926  0.00  0.00    -0.070 Cl
ENDROOT
TORSDOF 0
ENDMDL
