MODEL 1
REMARK minimizedAffinity 12.226119
REMARK minimizedRMSD -1
REMARK  0 active torsions:
REMARK  status: ('A' for Active; 'I' for Inactive)
ROOT
ATOM      1  C   UNL d   1       1.776  -3.609  -2.350  0.00  0.00     0.020 A 
ATOM      2  C1  UNL d   1       1.048  -4.451  -1.510  0.00  0.00     0.020 A 
ATOM      3  C2  UNL d   1       1.071  -4.250  -0.129  0.00  0.00     0.034 A 
ATOM      4  C3  UNL d   1       1.824  -3.205   0.418  0.00  0.00     0.017 A 
ATOM      5  C4  UNL d   1       2.555  -2.360  -0.426  0.00  0.00     0.017 A 
ATOM      6  C5  UNL d   1       2.528  -2.566  -1.808  0.00  0.00     0.034 A 
ATOM      7 Cl   UNL d   1       3.508  -1.049   0.175  0.00  0.00    -0.070 Cl
ATOM      8 Cl1  UNL d   1       1.807  -3.014   2.135  0.00  0.00    -0.070 Cl
ENDROOT
TORSDOF 0
ENDMDL
