MODEL 1
REMARK minimizedAffinity 9.87014389
REMARK minimizedRMSD -1
REMARK  0 active torsions:
REMARK  status: ('A' for Active; 'I' for Inactive)
ROOT
ATOM      1  C   UNL d   1       6.000  -0.416  -0.474  0.00  0.00     0.020 A 
ATOM      2  C1  UNL d   1       5.388   0.730  -0.980  0.00  0.00     0.020 A 
ATOM      3  C2  UNL d   1       3.999   0.862  -0.926  0.00  0.00     0.034 A 
ATOM      4  C3  UNL d   1       3.217  -0.154  -0.364  0.00  0.00     0.017 A 
ATOM      5  C4  UNL d   1       3.832  -1.304   0.144  0.00  0.00     0.017 A 
ATOM      6  C5  UNL d   1       5.223  -1.431   0.087  0.00  0.00     0.034 A 
ATOM      7 Cl   UNL d   1       2.934  -2.600   0.852  0.00  0.00    -0.070 Cl
ATOM      8 Cl1  UNL d   1       1.505   0.076  -0.330  0.00  0.00    -0.070 Cl
ENDROOT
TORSDOF 0
ENDMDL
