MODEL 1
REMARK minimizedAffinity 13.8074894
REMARK minimizedRMSD -1
REMARK  0 active torsions:
REMARK  status: ('A' for Active; 'I' for Inactive)
ROOT
ATOM      1  C   UNL d   1      -5.456   0.739  -4.814  0.00  0.00     0.020 A 
ATOM      2  C1  UNL d   1      -5.999   0.301  -3.607  0.00  0.00     0.020 A 
ATOM      3  C2  UNL d   1      -5.972   1.134  -2.486  0.00  0.00     0.034 A 
ATOM      4  C3  UNL d   1      -5.402   2.409  -2.570  0.00  0.00     0.017 A 
ATOM      5  C4  UNL d   1      -4.857   2.848  -3.783  0.00  0.00     0.017 A 
ATOM      6  C5  UNL d   1      -4.887   2.010  -4.902  0.00  0.00     0.034 A 
ATOM      7 Cl   UNL d   1      -4.136   4.409  -3.964  0.00  0.00    -0.070 Cl
ATOM      8 Cl1  UNL d   1      -5.403   3.386  -1.145  0.00  0.00    -0.070 Cl
ENDROOT
TORSDOF 0
ENDMDL
