MODEL 1
REMARK minimizedAffinity 8.08067131
REMARK minimizedRMSD -1
REMARK  0 active torsions:
REMARK  status: ('A' for Active; 'I' for Inactive)
ROOT
ATOM      1  C   UNL d   1       5.304   1.471  -0.929  0.00  0.00     0.020 A 
ATOM      2  C1  UNL d   1       4.063   1.166  -1.487  0.00  0.00     0.020 A 
ATOM      3  C2  UNL d   1       3.400  -0.006  -1.117  0.00  0.00     0.034 A 
ATOM      4  C3  UNL d   1       3.978  -0.877  -0.186  0.00  0.00     0.017 A 
ATOM      5  C4  UNL d   1       5.224  -0.570   0.373  0.00  0.00     0.017 A 
ATOM      6  C5  UNL d   1       5.883   0.605  -0.001  0.00  0.00     0.034 A 
ATOM      7 Cl   UNL d   1       6.000  -1.597   1.527  0.00  0.00    -0.070 Cl
ATOM      8 Cl1  UNL d   1       3.102  -2.309   0.225  0.00  0.00    -0.070 Cl
ENDROOT
TORSDOF 0
ENDMDL
