MODEL 1
REMARK minimizedAffinity 7.74775696
REMARK minimizedRMSD -1
REMARK  0 active torsions:
REMARK  status: ('A' for Active; 'I' for Inactive)
ROOT
ATOM      1  C   UNL d   1       5.996   0.724  -0.595  0.00  0.00     0.020 A 
ATOM      2  C1  UNL d   1       5.227   1.882  -0.699  0.00  0.00     0.020 A 
ATOM      3  C2  UNL d   1       3.833   1.797  -0.711  0.00  0.00     0.034 A 
ATOM      4  C3  UNL d   1       3.204   0.550  -0.619  0.00  0.00     0.017 A 
ATOM      5  C4  UNL d   1       3.976  -0.613  -0.514  0.00  0.00     0.017 A 
ATOM      6  C5  UNL d   1       5.371  -0.521  -0.503  0.00  0.00     0.034 A 
ATOM      7 Cl   UNL d   1       3.271  -2.186  -0.397  0.00  0.00    -0.070 Cl
ATOM      8 Cl1  UNL d   1       1.476   0.518  -0.639  0.00  0.00    -0.070 Cl
ENDROOT
TORSDOF 0
ENDMDL
