MODEL 1
REMARK minimizedAffinity 8.30648422
REMARK minimizedRMSD -1
REMARK  0 active torsions:
REMARK  status: ('A' for Active; 'I' for Inactive)
ROOT
ATOM      1  C   UNL d   1       5.998   0.428  -0.755  0.00  0.00     0.020 A 
ATOM      2  C1  UNL d   1       5.253   1.519  -1.199  0.00  0.00     0.020 A 
ATOM      3  C2  UNL d   1       3.858   1.460  -1.195  0.00  0.00     0.034 A 
ATOM      4  C3  UNL d   1       3.203   0.308  -0.745  0.00  0.00     0.017 A 
ATOM      5  C4  UNL d   1       3.952  -0.787  -0.298  0.00  0.00     0.017 A 
ATOM      6  C5  UNL d   1       5.349  -0.723  -0.305  0.00  0.00     0.034 A 
ATOM      7 Cl   UNL d   1       3.215  -2.243   0.272  0.00  0.00    -0.070 Cl
ATOM      8 Cl1  UNL d   1       1.475   0.305  -0.766  0.00  0.00    -0.070 Cl
ENDROOT
TORSDOF 0
ENDMDL
