MODEL 1
REMARK minimizedAffinity 10.3290863
REMARK minimizedRMSD -1
REMARK  0 active torsions:
REMARK  status: ('A' for Active; 'I' for Inactive)
ROOT
ATOM      1  C   UNL d   1       5.399   1.214  -0.184  0.00  0.00     0.020 A 
ATOM      2  C1  UNL d   1       6.000  -0.011  -0.469  0.00  0.00     0.020 A 
ATOM      3  C2  UNL d   1       5.210  -1.122  -0.775  0.00  0.00     0.034 A 
ATOM      4  C3  UNL d   1       3.815  -1.009  -0.796  0.00  0.00     0.017 A 
ATOM      5  C4  UNL d   1       3.213   0.222  -0.510  0.00  0.00     0.017 A 
ATOM      6  C5  UNL d   1       4.009   1.330  -0.204  0.00  0.00     0.034 A 
ATOM      7 Cl   UNL d   1       1.498   0.439  -0.516  0.00  0.00    -0.070 Cl
ATOM      8 Cl1  UNL d   1       2.900  -2.423  -1.183  0.00  0.00    -0.070 Cl
ENDROOT
TORSDOF 0
ENDMDL
