MODEL 1
REMARK minimizedAffinity 11.7168989
REMARK minimizedRMSD -1
REMARK  0 active torsions:
REMARK  status: ('A' for Active; 'I' for Inactive)
ROOT
ATOM      1  C   UNL d   1       4.870   1.736  -0.977  0.00  0.00     0.020 A 
ATOM      2  C1  UNL d   1       5.129   0.791  -1.969  0.00  0.00     0.020 A 
ATOM      3  C2  UNL d   1       4.360  -0.373  -2.042  0.00  0.00     0.034 A 
ATOM      4  C3  UNL d   1       3.329  -0.594  -1.122  0.00  0.00     0.017 A 
ATOM      5  C4  UNL d   1       3.070   0.355  -0.126  0.00  0.00     0.017 A 
ATOM      6  C5  UNL d   1       3.843   1.519  -0.058  0.00  0.00     0.034 A 
ATOM      7 Cl   UNL d   1       1.815   0.152   1.045  0.00  0.00    -0.070 Cl
ATOM      8 Cl1  UNL d   1       2.418  -2.055  -1.271  0.00  0.00    -0.070 Cl
ENDROOT
TORSDOF 0
ENDMDL
