MODEL 1
REMARK minimizedAffinity 0.271404177
REMARK minimizedRMSD -1
REMARK  0 active torsions:
REMARK  status: ('A' for Active; 'I' for Inactive)
ROOT
ATOM      1  C   UNL d   1       5.839   4.771   0.446  0.00  0.00     0.020 A 
ATOM      2  C1  UNL d   1       5.761   5.984   1.129  0.00  0.00     0.020 A 
ATOM      3  C2  UNL d   1       5.753   6.000   2.525  0.00  0.00     0.034 A 
ATOM      4  C3  UNL d   1       5.823   4.801   3.243  0.00  0.00     0.017 A 
ATOM      5  C4  UNL d   1       5.901   3.583   2.557  0.00  0.00     0.017 A 
ATOM      6  C5  UNL d   1       5.909   3.573   1.159  0.00  0.00     0.034 A 
ATOM      7 Cl   UNL d   1       5.990   2.063   3.374  0.00  0.00    -0.070 Cl
ATOM      8 Cl1  UNL d   1       5.808   4.895   4.968  0.00  0.00    -0.070 Cl
ENDROOT
TORSDOF 0
ENDMDL
