MODEL 1
REMARK minimizedAffinity 14.8871584
REMARK minimizedRMSD -1
REMARK  0 active torsions:
REMARK  status: ('A' for Active; 'I' for Inactive)
ROOT
ATOM      1  C   UNL d   1       4.229   0.644  -0.772  0.00  0.00     0.020 A 
ATOM      2  C1  UNL d   1       4.054   0.335  -2.121  0.00  0.00     0.020 A 
ATOM      3  C2  UNL d   1       3.361  -0.821  -2.488  0.00  0.00     0.034 A 
ATOM      4  C3  UNL d   1       2.841  -1.672  -1.505  0.00  0.00     0.017 A 
ATOM      5  C4  UNL d   1       3.018  -1.360  -0.152  0.00  0.00     0.017 A 
ATOM      6  C5  UNL d   1       3.712  -0.202   0.210  0.00  0.00     0.034 A 
ATOM      7 Cl   UNL d   1       2.405  -2.361   1.117  0.00  0.00    -0.070 Cl
ATOM      8 Cl1  UNL d   1       1.996  -3.084  -2.031  0.00  0.00    -0.070 Cl
ENDROOT
TORSDOF 0
ENDMDL
