MODEL 1
REMARK minimizedAffinity -4.44682789
REMARK minimizedRMSD -1
REMARK  0 active torsions:
REMARK  status: ('A' for Active; 'I' for Inactive)
ROOT
ATOM      1  C2' OXE d   1      -0.814   0.758  -1.616  0.00  0.00     0.078 C 
ATOM      2  C1' OXE d   1       1.125   0.088   0.301  0.00  0.00     0.078 C 
ATOM      3  C1  OXE d   1      -0.152  -0.714   0.282  0.00  0.00    -0.078 A 
ATOM      4  C2  OXE d   1      -1.115  -0.349  -0.628  0.00  0.00    -0.078 A 
ATOM      5  C3  OXE d   1      -2.289  -1.090  -0.725  0.00  0.00     0.003 A 
ATOM      6  C4  OXE d   1      -2.564  -2.106   0.198  0.00  0.00    -0.002 A 
ATOM      7  C5  OXE d   1      -1.614  -2.468   1.159  0.00  0.00    -0.002 A 
ATOM      8  C6  OXE d   1      -0.388  -1.812   1.187  0.00  0.00     0.003 A 
ENDROOT
TORSDOF 0
ENDMDL
