MODEL 1
REMARK minimizedAffinity -4.50120115
REMARK minimizedRMSD -1
REMARK  0 active torsions:
REMARK  status: ('A' for Active; 'I' for Inactive)
ROOT
ATOM      1  C2' OXE d   1      -1.204   0.431  -1.258  0.00  0.00     0.078 C 
ATOM      2  C1' OXE d   1       0.867   0.187   0.622  0.00  0.00     0.078 C 
ATOM      3  C1  OXE d   1      -0.265  -0.807   0.689  0.00  0.00    -0.078 A 
ATOM      4  C2  OXE d   1      -1.297  -0.651  -0.205  0.00  0.00    -0.078 A 
ATOM      5  C3  OXE d   1      -2.340  -1.573  -0.221  0.00  0.00     0.003 A 
ATOM      6  C4  OXE d   1      -2.424  -2.566   0.763  0.00  0.00    -0.002 A 
ATOM      7  C5  OXE d   1      -1.403  -2.717   1.708  0.00  0.00    -0.002 A 
ATOM      8  C6  OXE d   1      -0.299  -1.874   1.658  0.00  0.00     0.003 A 
ENDROOT
TORSDOF 0
ENDMDL
