MODEL 1
REMARK minimizedAffinity -1.39426517
REMARK minimizedRMSD -1
REMARK  0 active torsions:
REMARK  status: ('A' for Active; 'I' for Inactive)
ROOT
ATOM      1  C2' OXE d   1       0.096  -2.016   2.102  0.00  0.00     0.078 C 
ATOM      2  C1' OXE d   1      -0.435   0.243   0.523  0.00  0.00     0.078 C 
ATOM      3  C1  OXE d   1      -1.458  -0.865   0.532  0.00  0.00    -0.078 A 
ATOM      4  C2  OXE d   1      -1.168  -1.987   1.270  0.00  0.00    -0.078 A 
ATOM      5  C3  OXE d   1      -2.102  -3.016   1.357  0.00  0.00     0.003 A 
ATOM      6  C4  OXE d   1      -3.264  -2.986   0.577  0.00  0.00    -0.002 A 
ATOM      7  C5  OXE d   1      -3.560  -1.870  -0.214  0.00  0.00    -0.002 A 
ATOM      8  C6  OXE d   1      -2.690  -0.785  -0.214  0.00  0.00     0.003 A 
ENDROOT
TORSDOF 0
ENDMDL
