MODEL 1
REMARK minimizedAffinity -3.00069332
REMARK minimizedRMSD -1
REMARK  0 active torsions:
REMARK  status: ('A' for Active; 'I' for Inactive)
ROOT
ATOM      1  C2' OXE d   1       1.248   0.381   0.222  0.00  0.00     0.078 C 
ATOM      2  C1' OXE d   1       1.042  -1.853   1.910  0.00  0.00     0.078 C 
ATOM      3  C1  OXE d   1      -0.089  -1.593   0.947  0.00  0.00    -0.078 A 
ATOM      4  C2  OXE d   1      -0.002  -0.471   0.157  0.00  0.00    -0.078 A 
ATOM      5  C3  OXE d   1      -0.991  -0.214  -0.787  0.00  0.00     0.003 A 
ATOM      6  C4  OXE d   1      -2.148  -1.002  -0.834  0.00  0.00    -0.002 A 
ATOM      7  C5  OXE d   1      -2.276  -2.126  -0.011  0.00  0.00    -0.002 A 
ATOM      8  C6  OXE d   1      -1.238  -2.459   0.853  0.00  0.00     0.003 A 
ENDROOT
TORSDOF 0
ENDMDL
