MODEL 1
REMARK minimizedAffinity -2.97014618
REMARK minimizedRMSD -1
REMARK  0 active torsions:
REMARK  status: ('A' for Active; 'I' for Inactive)
ROOT
ATOM      1  C2' OXE d   1       3.650   1.585  -0.342  0.00  0.00     0.078 C 
ATOM      2  C1' OXE d   1       2.692   2.950   1.916  0.00  0.00     0.078 C 
ATOM      3  C1  OXE d   1       1.774   1.952   1.256  0.00  0.00    -0.078 A 
ATOM      4  C2  OXE d   1       2.234   1.323   0.124  0.00  0.00    -0.078 A 
ATOM      5  C3  OXE d   1       1.448   0.353  -0.493  0.00  0.00     0.003 A 
ATOM      6  C4  OXE d   1       0.136   0.123  -0.061  0.00  0.00    -0.002 A 
ATOM      7  C5  OXE d   1      -0.365   0.782   1.066  0.00  0.00    -0.002 A 
ATOM      8  C6  OXE d   1       0.454   1.666   1.760  0.00  0.00     0.003 A 
ENDROOT
TORSDOF 0
ENDMDL
