MODEL 1
REMARK minimizedAffinity -4.91071224
REMARK minimizedRMSD -1
REMARK  0 active torsions:
REMARK  status: ('A' for Active; 'I' for Inactive)
ROOT
ATOM      1  C2' OXE d   1      -1.099   0.820  -1.937  0.00  0.00     0.078 C 
ATOM      2  C1' OXE d   1       0.695   0.076   0.090  0.00  0.00     0.078 C 
ATOM      3  C1  OXE d   1      -0.584  -0.712  -0.041  0.00  0.00    -0.078 A 
ATOM      4  C2  OXE d   1      -1.477  -0.311  -1.005  0.00  0.00    -0.078 A 
ATOM      5  C3  OXE d   1      -2.649  -1.037  -1.204  0.00  0.00     0.003 A 
ATOM      6  C4  OXE d   1      -2.996  -2.075  -0.331  0.00  0.00    -0.002 A 
ATOM      7  C5  OXE d   1      -2.119  -2.474   0.683  0.00  0.00    -0.002 A 
ATOM      8  C6  OXE d   1      -0.892  -1.832   0.814  0.00  0.00     0.003 A 
ENDROOT
TORSDOF 0
ENDMDL
