MODEL 1
REMARK minimizedAffinity -4.93011427
REMARK minimizedRMSD -1
REMARK  0 active torsions:
REMARK  status: ('A' for Active; 'I' for Inactive)
ROOT
ATOM      1  C2' OXE d   1      -0.014   0.620   0.515  0.00  0.00     0.078 C 
ATOM      2  C1' OXE d   1       0.638  -1.849   1.682  0.00  0.00     0.078 C 
ATOM      3  C1  OXE d   1      -0.759  -1.674   1.140  0.00  0.00    -0.078 A 
ATOM      4  C2  OXE d   1      -1.084  -0.447   0.614  0.00  0.00    -0.078 A 
ATOM      5  C3  OXE d   1      -2.341  -0.249   0.051  0.00  0.00     0.003 A 
ATOM      6  C4  OXE d   1      -3.328  -1.237   0.155  0.00  0.00    -0.002 A 
ATOM      7  C5  OXE d   1      -3.030  -2.480   0.723  0.00  0.00    -0.002 A 
ATOM      8  C6  OXE d   1      -1.741  -2.729   1.181  0.00  0.00     0.003 A 
ENDROOT
TORSDOF 0
ENDMDL
