MODEL 1
REMARK minimizedAffinity -3.4101584
REMARK minimizedRMSD -1
REMARK  0 active torsions:
REMARK  status: ('A' for Active; 'I' for Inactive)
ROOT
ATOM      1  C2' OXE d   1       1.253   0.091   0.102  0.00  0.00     0.078 C 
ATOM      2  C1' OXE d   1       0.262   0.234  -2.520  0.00  0.00     0.078 C 
ATOM      3  C1  OXE d   1      -0.718  -0.065  -1.413  0.00  0.00    -0.078 A 
ATOM      4  C2  OXE d   1      -0.217  -0.179  -0.139  0.00  0.00    -0.078 A 
ATOM      5  C3  OXE d   1      -1.085  -0.398   0.927  0.00  0.00     0.003 A 
ATOM      6  C4  OXE d   1      -2.441  -0.657   0.694  0.00  0.00    -0.002 A 
ATOM      7  C5  OXE d   1      -2.966  -0.585  -0.601  0.00  0.00    -0.002 A 
ATOM      8  C6  OXE d   1      -2.127  -0.249  -1.658  0.00  0.00     0.003 A 
ENDROOT
TORSDOF 0
ENDMDL
