MODEL 1
REMARK minimizedAffinity -2.53479838
REMARK minimizedRMSD -1
REMARK  0 active torsions:
REMARK  status: ('A' for Active; 'I' for Inactive)
ROOT
ATOM      1  C2' OXE d   1       0.224  -0.422  -0.206  0.00  0.00     0.078 C 
ATOM      2  C1' OXE d   1      -1.205   1.985   0.001  0.00  0.00     0.078 C 
ATOM      3  C1  OXE d   1       0.251   1.996   0.394  0.00  0.00    -0.078 A 
ATOM      4  C2  OXE d   1       0.931   0.803   0.334  0.00  0.00    -0.078 A 
ATOM      5  C3  OXE d   1       2.290   0.768   0.632  0.00  0.00     0.003 A 
ATOM      6  C4  OXE d   1       2.933   1.904   1.140  0.00  0.00    -0.002 A 
ATOM      7  C5  OXE d   1       2.249   3.119   1.247  0.00  0.00    -0.002 A 
ATOM      8  C6  OXE d   1       0.922   3.192   0.839  0.00  0.00     0.003 A 
ENDROOT
TORSDOF 0
ENDMDL
