MODEL 1
REMARK minimizedAffinity -3.43482947
REMARK minimizedRMSD -1
REMARK  0 active torsions:
REMARK  status: ('A' for Active; 'I' for Inactive)
ROOT
ATOM      1  C2' OXE d   1       0.796   0.203   0.188  0.00  0.00     0.078 C 
ATOM      2  C1' OXE d   1      -0.927   1.059  -1.857  0.00  0.00     0.078 C 
ATOM      3  C1  OXE d   1      -1.328  -0.158  -1.062  0.00  0.00    -0.078 A 
ATOM      4  C2  OXE d   1      -0.457  -0.597  -0.095  0.00  0.00    -0.078 A 
ATOM      5  C3  OXE d   1      -0.804  -1.684   0.704  0.00  0.00     0.003 A 
ATOM      6  C4  OXE d   1      -1.959  -2.425   0.429  0.00  0.00    -0.002 A 
ATOM      7  C5  OXE d   1      -2.841  -2.018  -0.578  0.00  0.00    -0.002 A 
ATOM      8  C6  OXE d   1      -2.562  -0.865  -1.303  0.00  0.00     0.003 A 
ENDROOT
TORSDOF 0
ENDMDL
