MODEL 1
REMARK minimizedAffinity 3.15973401
REMARK minimizedRMSD -1
REMARK  0 active torsions:
REMARK  status: ('A' for Active; 'I' for Inactive)
ROOT
ATOM      1  C2' OXE d   1      -0.247   0.634  -0.394  0.00  0.00     0.078 C 
ATOM      2  C1' OXE d   1       1.923  -0.653   0.835  0.00  0.00     0.078 C 
ATOM      3  C1  OXE d   1       1.961   0.851   0.737  0.00  0.00    -0.078 A 
ATOM      4  C2  OXE d   1       0.917   1.470   0.093  0.00  0.00    -0.078 A 
ATOM      5  C3  OXE d   1       0.876   2.859   0.023  0.00  0.00     0.003 A 
ATOM      6  C4  OXE d   1       1.961   3.624   0.468  0.00  0.00    -0.002 A 
ATOM      7  C5  OXE d   1       3.053   3.011   1.092  0.00  0.00    -0.002 A 
ATOM      8  C6  OXE d   1       3.049   1.633   1.272  0.00  0.00     0.003 A 
ENDROOT
TORSDOF 0
ENDMDL
