MODEL 1
REMARK minimizedAffinity -2.32267118
REMARK minimizedRMSD -1
REMARK  0 active torsions:
REMARK  status: ('A' for Active; 'I' for Inactive)
ROOT
ATOM      1  C2' OXE d   1      -0.397  -1.289   2.018  0.00  0.00     0.078 C 
ATOM      2  C1' OXE d   1       1.291   0.313   0.448  0.00  0.00     0.078 C 
ATOM      3  C1  OXE d   1      -0.104   0.050  -0.062  0.00  0.00    -0.078 A 
ATOM      4  C2  OXE d   1      -0.907  -0.773   0.690  0.00  0.00    -0.078 A 
ATOM      5  C3  OXE d   1      -2.221  -1.004   0.293  0.00  0.00     0.003 A 
ATOM      6  C4  OXE d   1      -2.682  -0.531  -0.941  0.00  0.00    -0.002 A 
ATOM      7  C5  OXE d   1      -1.867   0.276  -1.742  0.00  0.00    -0.002 A 
ATOM      8  C6  OXE d   1      -0.593   0.610  -1.297  0.00  0.00     0.003 A 
ENDROOT
TORSDOF 0
ENDMDL
