MODEL 1
REMARK minimizedAffinity -1.80897236
REMARK minimizedRMSD -1
REMARK  0 active torsions:
REMARK  status: ('A' for Active; 'I' for Inactive)
ROOT
ATOM      1  C2' OXE d   1       0.051   0.179  -2.019  0.00  0.00     0.078 C 
ATOM      2  C1' OXE d   1       0.513   0.551   0.725  0.00  0.00     0.078 C 
ATOM      3  C1  OXE d   1      -0.762  -0.140   0.314  0.00  0.00    -0.078 A 
ATOM      4  C2  OXE d   1      -1.002  -0.277  -1.032  0.00  0.00    -0.078 A 
ATOM      5  C3  OXE d   1      -2.138  -0.955  -1.465  0.00  0.00     0.003 A 
ATOM      6  C4  OXE d   1      -3.112  -1.364  -0.546  0.00  0.00    -0.002 A 
ATOM      7  C5  OXE d   1      -2.906  -1.200   0.827  0.00  0.00    -0.002 A 
ATOM      8  C6  OXE d   1      -1.720  -0.629   1.275  0.00  0.00     0.003 A 
ENDROOT
TORSDOF 0
ENDMDL
