MODEL 1
REMARK minimizedAffinity -5.14830303
REMARK minimizedRMSD -1
REMARK  0 active torsions:
REMARK  status: ('A' for Active; 'I' for Inactive)
ROOT
ATOM      1  C2' OXE d   1      -2.841  -1.023   0.049  0.00  0.00     0.078 C 
ATOM      2  C1' OXE d   1      -1.193  -2.099   2.051  0.00  0.00     0.078 C 
ATOM      3  C1  OXE d   1      -0.541  -1.266   0.975  0.00  0.00    -0.078 A 
ATOM      4  C2  OXE d   1      -1.349  -0.782  -0.026  0.00  0.00    -0.078 A 
ATOM      5  C3  OXE d   1      -0.808   0.037  -1.013  0.00  0.00     0.003 A 
ATOM      6  C4  OXE d   1       0.575   0.247  -1.080  0.00  0.00    -0.002 A 
ATOM      7  C5  OXE d   1       1.421  -0.269  -0.093  0.00  0.00    -0.002 A 
ATOM      8  C6  OXE d   1       0.874  -0.991   0.963  0.00  0.00     0.003 A 
ENDROOT
TORSDOF 0
ENDMDL
