MODEL 1
REMARK minimizedAffinity -4.31755161
REMARK minimizedRMSD -1
REMARK  0 active torsions:
REMARK  status: ('A' for Active; 'I' for Inactive)
ROOT
ATOM      1  C2' OXE d   1       1.494   0.045   0.440  0.00  0.00     0.078 C 
ATOM      2  C1' OXE d   1      -0.322  -1.874   1.389  0.00  0.00     0.078 C 
ATOM      3  C1  OXE d   1      -0.768  -0.982   0.257  0.00  0.00    -0.078 A 
ATOM      4  C2  OXE d   1       0.110  -0.015  -0.170  0.00  0.00    -0.078 A 
ATOM      5  C3  OXE d   1      -0.231   0.798  -1.247  0.00  0.00     0.003 A 
ATOM      6  C4  OXE d   1      -1.517   0.743  -1.798  0.00  0.00    -0.002 A 
ATOM      7  C5  OXE d   1      -2.441  -0.208  -1.351  0.00  0.00    -0.002 A 
ATOM      8  C6  OXE d   1      -2.068  -1.105  -0.355  0.00  0.00     0.003 A 
ENDROOT
TORSDOF 0
ENDMDL
