MODEL 1
REMARK minimizedAffinity -4.91043949
REMARK minimizedRMSD -1
REMARK  0 active torsions:
REMARK  status: ('A' for Active; 'I' for Inactive)
ROOT
ATOM      1  C2' OXE d   1      -2.023   0.216  -1.428  0.00  0.00     0.078 C 
ATOM      2  C1' OXE d   1       0.159   0.217   0.338  0.00  0.00     0.078 C 
ATOM      3  C1  OXE d   1      -0.842  -0.904   0.457  0.00  0.00    -0.078 A 
ATOM      4  C2  OXE d   1      -1.931  -0.871  -0.380  0.00  0.00    -0.078 A 
ATOM      5  C3  OXE d   1      -2.856  -1.911  -0.349  0.00  0.00     0.003 A 
ATOM      6  C4  OXE d   1      -2.770  -2.908   0.631  0.00  0.00    -0.002 A 
ATOM      7  C5  OXE d   1      -1.689  -2.938   1.519  0.00  0.00    -0.002 A 
ATOM      8  C6  OXE d   1      -0.697  -1.970   1.418  0.00  0.00     0.003 A 
ENDROOT
TORSDOF 0
ENDMDL
