MODEL 1
REMARK minimizedAffinity -0.35381338
REMARK minimizedRMSD -1
REMARK  0 active torsions:
REMARK  status: ('A' for Active; 'I' for Inactive)
ROOT
ATOM      1  C2' OXE d   1       1.260   0.410   0.742  0.00  0.00     0.078 C 
ATOM      2  C1' OXE d   1      -0.407  -1.573   1.821  0.00  0.00     0.078 C 
ATOM      3  C1  OXE d   1      -0.776  -0.999   0.476  0.00  0.00    -0.078 A 
ATOM      4  C2  OXE d   1       0.019   0.004  -0.023  0.00  0.00    -0.078 A 
ATOM      5  C3  OXE d   1      -0.245   0.531  -1.284  0.00  0.00     0.003 A 
ATOM      6  C4  OXE d   1      -1.400   0.156  -1.981  0.00  0.00    -0.002 A 
ATOM      7  C5  OXE d   1      -2.246  -0.835  -1.472  0.00  0.00    -0.002 A 
ATOM      8  C6  OXE d   1      -1.926  -1.452  -0.268  0.00  0.00     0.003 A 
ENDROOT
TORSDOF 0
ENDMDL
