MODEL 1
REMARK minimizedAffinity -5.35111189
REMARK minimizedRMSD -1
REMARK  0 active torsions:
REMARK  status: ('A' for Active; 'I' for Inactive)
ROOT
ATOM      1  C2' OXE d   1      -3.468  -1.519   0.318  0.00  0.00     0.078 C 
ATOM      2  C1' OXE d   1      -1.329  -2.332   1.943  0.00  0.00     0.078 C 
ATOM      3  C1  OXE d   1      -1.060  -1.271   0.906  0.00  0.00    -0.078 A 
ATOM      4  C2  OXE d   1      -2.101  -0.913   0.083  0.00  0.00    -0.078 A 
ATOM      5  C3  OXE d   1      -1.922   0.100  -0.855  0.00  0.00     0.003 A 
ATOM      6  C4  OXE d   1      -0.652   0.648  -1.072  0.00  0.00    -0.002 A 
ATOM      7  C5  OXE d   1       0.431   0.269  -0.272  0.00  0.00    -0.002 A 
ATOM      8  C6  OXE d   1       0.235  -0.656   0.747  0.00  0.00     0.003 A 
ENDROOT
TORSDOF 0
ENDMDL
