MODEL 1
REMARK minimizedAffinity -1.83502042
REMARK minimizedRMSD -1
REMARK  1 active torsions:
REMARK  status: ('A' for Active; 'I' for Inactive)
REMARK    1  A    between atoms: C1_2  and  C2_3 
ROOT
ATOM      1  C2  UNL d   1      -0.141   0.474   1.492  0.00  0.00    -0.076 A 
ATOM      2  C3  UNL d   1       0.386   1.237   2.548  0.00  0.00     0.004 A 
ATOM      3  C4  UNL d   1       1.033   2.447   2.307  0.00  0.00    -0.003 A 
ATOM      4  C5  UNL d   1       1.163   2.916   1.004  0.00  0.00     0.000 A 
ATOM      5  C6  UNL d   1       0.630   2.181  -0.055  0.00  0.00     0.000 A 
ATOM      6  C7  UNL d   1      -0.039   0.967   0.173  0.00  0.00    -0.073 A 
ATOM      7  C8  UNL d   1      -0.589   0.213  -1.007  0.00  0.00     0.078 C 
ENDROOT
BRANCH   1   8
ATOM      8  C1  UNL d   1      -0.808  -0.844   1.812  0.00  0.00     0.053 C 
ATOM      9  C   UNL d   1      -1.689  -0.766   3.050  0.00  0.00     0.018 C 
ENDBRANCH   1   8
TORSDOF 1
ENDMDL
