MODEL 1
REMARK minimizedAffinity -3.95265269
REMARK minimizedRMSD -1
REMARK  1 active torsions:
REMARK  status: ('A' for Active; 'I' for Inactive)
REMARK    1  A    between atoms: C1_2  and  C2_3 
ROOT
ATOM      1  C2  UNL d   1      -0.643  -0.860  -0.963  0.00  0.00    -0.076 A 
ATOM      2  C3  UNL d   1      -0.969   0.504  -0.879  0.00  0.00     0.004 A 
ATOM      3  C4  UNL d   1      -0.099   1.415  -0.282  0.00  0.00    -0.003 A 
ATOM      4  C5  UNL d   1       1.112   0.975   0.241  0.00  0.00     0.000 A 
ATOM      5  C6  UNL d   1       1.460  -0.373   0.151  0.00  0.00     0.000 A 
ATOM      6  C7  UNL d   1       0.601  -1.301  -0.462  0.00  0.00    -0.073 A 
ATOM      7  C8  UNL d   1       1.023  -2.743  -0.526  0.00  0.00     0.078 C 
ENDROOT
BRANCH   1   8
ATOM      8  C1  UNL d   1      -1.639  -1.805  -1.597  0.00  0.00     0.053 C 
ATOM      9  C   UNL d   1      -1.894  -1.485  -3.062  0.00  0.00     0.018 C 
ENDBRANCH   1   8
TORSDOF 1
ENDMDL
