MODEL 1
REMARK minimizedAffinity -5.06823015
REMARK minimizedRMSD -1
REMARK  1 active torsions:
REMARK  status: ('A' for Active; 'I' for Inactive)
REMARK    1  A    between atoms: C1_2  and  C2_3 
ROOT
ATOM      1  C2  UNL d   1       0.569   0.261   0.516  0.00  0.00    -0.076 A 
ATOM      2  C3  UNL d   1      -0.373   0.972   1.278  0.00  0.00     0.004 A 
ATOM      3  C4  UNL d   1      -0.065   2.220   1.817  0.00  0.00    -0.003 A 
ATOM      4  C5  UNL d   1       1.190   2.778   1.601  0.00  0.00     0.000 A 
ATOM      5  C6  UNL d   1       2.132   2.094   0.832  0.00  0.00     0.000 A 
ATOM      6  C7  UNL d   1       1.832   0.842   0.269  0.00  0.00    -0.073 A 
ATOM      7  C8  UNL d   1       2.886   0.146  -0.547  0.00  0.00     0.078 C 
ENDROOT
BRANCH   1   8
ATOM      8  C1  UNL d   1       0.188  -1.101  -0.020  0.00  0.00     0.053 C 
ATOM      9  C   UNL d   1      -0.865  -1.022  -1.114  0.00  0.00     0.018 C 
ENDBRANCH   1   8
TORSDOF 1
ENDMDL
