MODEL 1
REMARK minimizedAffinity -2.2659564
REMARK minimizedRMSD -1
REMARK  1 active torsions:
REMARK  status: ('A' for Active; 'I' for Inactive)
REMARK    1  A    between atoms: C1_2  and  C2_3 
ROOT
ATOM      1  C2  UNL d   1       0.338   0.241   0.010  0.00  0.00    -0.076 A 
ATOM      2  C3  UNL d   1       1.138   1.158  -0.694  0.00  0.00     0.004 A 
ATOM      3  C4  UNL d   1       1.675   2.276  -0.059  0.00  0.00    -0.003 A 
ATOM      4  C5  UNL d   1       1.421   2.496   1.291  0.00  0.00     0.000 A 
ATOM      5  C6  UNL d   1       0.643   1.588   2.008  0.00  0.00     0.000 A 
ATOM      6  C7  UNL d   1       0.108   0.447   1.387  0.00  0.00    -0.073 A 
ATOM      7  C8  UNL d   1      -0.729  -0.497   2.208  0.00  0.00     0.078 C 
ENDROOT
BRANCH   1   8
ATOM      8  C1  UNL d   1      -0.240  -0.939  -0.738  0.00  0.00     0.053 C 
ATOM      9  C   UNL d   1      -1.220  -0.519  -1.822  0.00  0.00     0.018 C 
ENDBRANCH   1   8
TORSDOF 1
ENDMDL
