MODEL 1
REMARK minimizedAffinity -5.54226494
REMARK minimizedRMSD -1
REMARK  1 active torsions:
REMARK  status: ('A' for Active; 'I' for Inactive)
REMARK    1  A    between atoms: C1_2  and  C2_3 
ROOT
ATOM      1  C2  UNL d   1       0.137  -0.478   0.060  0.00  0.00    -0.076 A 
ATOM      2  C3  UNL d   1       1.382  -0.057  -0.437  0.00  0.00     0.004 A 
ATOM      3  C4  UNL d   1       1.956   1.141  -0.014  0.00  0.00    -0.003 A 
ATOM      4  C5  UNL d   1       1.293   1.937   0.914  0.00  0.00     0.000 A 
ATOM      5  C6  UNL d   1       0.065   1.526   1.431  0.00  0.00     0.000 A 
ATOM      6  C7  UNL d   1      -0.519   0.313   1.027  0.00  0.00    -0.073 A 
ATOM      7  C8  UNL d   1      -1.848  -0.078   1.613  0.00  0.00     0.078 C 
ENDROOT
BRANCH   1   8
ATOM      8  C1  UNL d   1      -0.449  -1.773  -0.456  0.00  0.00     0.053 C 
ATOM      9  C   UNL d   1      -1.351  -1.565  -1.663  0.00  0.00     0.018 C 
ENDBRANCH   1   8
TORSDOF 1
ENDMDL
