MODEL 1
REMARK minimizedAffinity -4.56909037
REMARK minimizedRMSD -1
REMARK  1 active torsions:
REMARK  status: ('A' for Active; 'I' for Inactive)
REMARK    1  A    between atoms: C1_2  and  C2_3 
ROOT
ATOM      1  C2  UNL d   1       1.382   1.722   2.074  0.00  0.00    -0.076 A 
ATOM      2  C3  UNL d   1       2.568   2.359   1.671  0.00  0.00     0.004 A 
ATOM      3  C4  UNL d   1       3.025   2.259   0.358  0.00  0.00    -0.003 A 
ATOM      4  C5  UNL d   1       2.302   1.521  -0.573  0.00  0.00     0.000 A 
ATOM      5  C6  UNL d   1       1.114   0.897  -0.195  0.00  0.00     0.000 A 
ATOM      6  C7  UNL d   1       0.631   1.001   1.121  0.00  0.00    -0.073 A 
ATOM      7  C8  UNL d   1      -0.653   0.303   1.476  0.00  0.00     0.078 C 
ENDROOT
BRANCH   1   8
ATOM      8  C1  UNL d   1       0.950   1.843   3.518  0.00  0.00     0.053 C 
ATOM      9  C   UNL d   1       1.848   1.058   4.463  0.00  0.00     0.018 C 
ENDBRANCH   1   8
TORSDOF 1
ENDMDL
