MODEL 1
REMARK minimizedAffinity -5.51481962
REMARK minimizedRMSD -1
REMARK  1 active torsions:
REMARK  status: ('A' for Active; 'I' for Inactive)
REMARK    1  A    between atoms: C1_2  and  C2_3 
ROOT
ATOM      1  C2  UNL d   1       0.212   0.368   0.294  0.00  0.00    -0.076 A 
ATOM      2  C3  UNL d   1      -0.659   0.774   1.320  0.00  0.00     0.004 A 
ATOM      3  C4  UNL d   1      -0.443   1.963   2.016  0.00  0.00    -0.003 A 
ATOM      4  C5  UNL d   1       0.647   2.765   1.696  0.00  0.00     0.000 A 
ATOM      5  C6  UNL d   1       1.512   2.386   0.669  0.00  0.00     0.000 A 
ATOM      6  C7  UNL d   1       1.299   1.199  -0.053  0.00  0.00    -0.073 A 
ATOM      7  C8  UNL d   1       2.266   0.836  -1.146  0.00  0.00     0.078 C 
ENDROOT
BRANCH   1   8
ATOM      8  C1  UNL d   1      -0.057  -0.944  -0.407  0.00  0.00     0.053 C 
ATOM      9  C   UNL d   1      -1.037  -0.798  -1.561  0.00  0.00     0.018 C 
ENDBRANCH   1   8
TORSDOF 1
ENDMDL
