MODEL 1
REMARK minimizedAffinity 0.169397131
REMARK minimizedRMSD -1
REMARK  1 active torsions:
REMARK  status: ('A' for Active; 'I' for Inactive)
REMARK    1  A    between atoms: C1_2  and  C2_3 
ROOT
ATOM      1  C2  UNL d   1       0.901   0.507   0.409  0.00  0.00    -0.076 A 
ATOM      2  C3  UNL d   1       0.054  -0.598   0.603  0.00  0.00     0.004 A 
ATOM      3  C4  UNL d   1      -1.001  -0.542   1.512  0.00  0.00    -0.003 A 
ATOM      4  C5  UNL d   1      -1.227   0.620   2.242  0.00  0.00     0.000 A 
ATOM      5  C6  UNL d   1      -0.407   1.731   2.049  0.00  0.00     0.000 A 
ATOM      6  C7  UNL d   1       0.651   1.697   1.125  0.00  0.00    -0.073 A 
ATOM      7  C8  UNL d   1       1.507   2.923   0.962  0.00  0.00     0.078 C 
ENDROOT
BRANCH   1   8
ATOM      8  C1  UNL d   1       2.045   0.379  -0.571  0.00  0.00     0.053 C 
ATOM      9  C   UNL d   1       2.269  -1.057  -1.021  0.00  0.00     0.018 C 
ENDBRANCH   1   8
TORSDOF 1
ENDMDL
