MODEL 1
REMARK minimizedAffinity -5.04164743
REMARK minimizedRMSD -1
REMARK  1 active torsions:
REMARK  status: ('A' for Active; 'I' for Inactive)
REMARK    1  A    between atoms: C1_2  and  C2_3 
ROOT
ATOM      1  C2  UNL d   1       0.669  -0.145   0.040  0.00  0.00    -0.076 A 
ATOM      2  C3  UNL d   1       1.721   0.479  -0.654  0.00  0.00     0.004 A 
ATOM      3  C4  UNL d   1       2.101   1.786  -0.356  0.00  0.00    -0.003 A 
ATOM      4  C5  UNL d   1       1.437   2.490   0.642  0.00  0.00     0.000 A 
ATOM      5  C6  UNL d   1       0.403   1.881   1.353  0.00  0.00     0.000 A 
ATOM      6  C7  UNL d   1       0.018   0.558   1.076  0.00  0.00    -0.073 A 
ATOM      7  C8  UNL d   1      -1.107  -0.048   1.869  0.00  0.00     0.078 C 
ENDROOT
BRANCH   1   8
ATOM      8  C1  UNL d   1       0.283  -1.555  -0.346  0.00  0.00     0.053 C 
ATOM      9  C   UNL d   1      -0.975  -1.602  -1.200  0.00  0.00     0.018 C 
ENDBRANCH   1   8
TORSDOF 1
ENDMDL
