MODEL 1
REMARK minimizedAffinity -2.99909663
REMARK minimizedRMSD -1
REMARK  1 active torsions:
REMARK  status: ('A' for Active; 'I' for Inactive)
REMARK    1  A    between atoms: C1_2  and  C2_3 
ROOT
ATOM      1  C2  UNL d   1       0.014   0.274   0.170  0.00  0.00    -0.076 A 
ATOM      2  C3  UNL d   1       0.704   1.260  -0.557  0.00  0.00     0.004 A 
ATOM      3  C4  UNL d   1       0.991   2.500   0.011  0.00  0.00    -0.003 A 
ATOM      4  C5  UNL d   1       0.594   2.775   1.315  0.00  0.00     0.000 A 
ATOM      5  C6  UNL d   1      -0.076   1.802   2.056  0.00  0.00     0.000 A 
ATOM      6  C7  UNL d   1      -0.359   0.541   1.505  0.00  0.00    -0.073 A 
ATOM      7  C8  UNL d   1      -1.090  -0.468   2.347  0.00  0.00     0.078 C 
ENDROOT
BRANCH   1   8
ATOM      8  C1  UNL d   1      -0.294  -1.042  -0.507  0.00  0.00     0.053 C 
ATOM      9  C   UNL d   1      -1.221  -0.880  -1.702  0.00  0.00     0.018 C 
ENDBRANCH   1   8
TORSDOF 1
ENDMDL
