MODEL 1
REMARK minimizedAffinity -2.43274856
REMARK minimizedRMSD -1
REMARK  1 active torsions:
REMARK  status: ('A' for Active; 'I' for Inactive)
REMARK    1  A    between atoms: C1_2  and  C2_3 
ROOT
ATOM      1  C2  UNL d   1      -0.183  -0.142  -0.047  0.00  0.00    -0.076 A 
ATOM      2  C3  UNL d   1      -1.125   0.530   0.751  0.00  0.00     0.004 A 
ATOM      3  C4  UNL d   1      -0.737   1.561   1.605  0.00  0.00    -0.003 A 
ATOM      4  C5  UNL d   1       0.600   1.938   1.674  0.00  0.00     0.000 A 
ATOM      5  C6  UNL d   1       1.545   1.294   0.876  0.00  0.00     0.000 A 
ATOM      6  C7  UNL d   1       1.168   0.264  -0.002  0.00  0.00    -0.073 A 
ATOM      7  C8  UNL d   1       2.231  -0.400  -0.835  0.00  0.00     0.078 C 
ENDROOT
BRANCH   1   8
ATOM      8  C1  UNL d   1      -0.658  -1.271  -0.934  0.00  0.00     0.053 C 
ATOM      9  C   UNL d   1      -1.486  -0.778  -2.111  0.00  0.00     0.018 C 
ENDBRANCH   1   8
TORSDOF 1
ENDMDL
