MODEL 1
REMARK minimizedAffinity -5.8365941
REMARK minimizedRMSD -1
REMARK  1 active torsions:
REMARK  status: ('A' for Active; 'I' for Inactive)
REMARK    1  A    between atoms: C1_2  and  C2_3 
ROOT
ATOM      1  C2  UNL d   1       0.263   0.045   0.112  0.00  0.00    -0.076 A 
ATOM      2  C3  UNL d   1       1.266   0.878  -0.414  0.00  0.00     0.004 A 
ATOM      3  C4  UNL d   1       1.529   2.126   0.146  0.00  0.00    -0.003 A 
ATOM      4  C5  UNL d   1       0.793   2.563   1.243  0.00  0.00     0.000 A 
ATOM      5  C6  UNL d   1      -0.193   1.742   1.789  0.00  0.00     0.000 A 
ATOM      6  C7  UNL d   1      -0.460   0.474   1.246  0.00  0.00    -0.073 A 
ATOM      7  C8  UNL d   1      -1.539  -0.367   1.871  0.00  0.00     0.078 C 
ENDROOT
BRANCH   1   8
ATOM      8  C1  UNL d   1       0.004  -1.287  -0.555  0.00  0.00     0.053 C 
ATOM      9  C   UNL d   1      -1.068  -1.202  -1.630  0.00  0.00     0.018 C 
ENDBRANCH   1   8
TORSDOF 1
ENDMDL
