MODEL 1
REMARK minimizedAffinity -3.56475234
REMARK minimizedRMSD -1
REMARK  1 active torsions:
REMARK  status: ('A' for Active; 'I' for Inactive)
REMARK    1  A    between atoms: C1_2  and  C2_3 
ROOT
ATOM      1  C2  UNL d   1       1.254   0.539   0.296  0.00  0.00    -0.076 A 
ATOM      2  C3  UNL d   1       0.456   0.803   1.422  0.00  0.00     0.004 A 
ATOM      3  C4  UNL d   1       0.447   2.064   2.016  0.00  0.00    -0.003 A 
ATOM      4  C5  UNL d   1       1.237   3.082   1.492  0.00  0.00     0.000 A 
ATOM      5  C6  UNL d   1       2.022   2.842   0.365  0.00  0.00     0.000 A 
ATOM      6  C7  UNL d   1       2.030   1.581  -0.255  0.00  0.00    -0.073 A 
ATOM      7  C8  UNL d   1       2.900   1.377  -1.465  0.00  0.00     0.078 C 
ENDROOT
BRANCH   1   8
ATOM      8  C1  UNL d   1       1.244  -0.856  -0.288  0.00  0.00     0.053 C 
ATOM      9  C   UNL d   1       0.059  -1.679   0.192  0.00  0.00     0.018 C 
ENDBRANCH   1   8
TORSDOF 1
ENDMDL
