MODEL 1
REMARK minimizedAffinity -5.38965988
REMARK minimizedRMSD -1
REMARK  1 active torsions:
REMARK  status: ('A' for Active; 'I' for Inactive)
REMARK    1  A    between atoms: C1_2  and  C2_3 
ROOT
ATOM      1  C2  UNL d   1       0.314  -0.163  -0.046  0.00  0.00    -0.076 A 
ATOM      2  C3  UNL d   1       1.298   0.654  -0.630  0.00  0.00     0.004 A 
ATOM      3  C4  UNL d   1       1.513   1.954  -0.176  0.00  0.00    -0.003 A 
ATOM      4  C5  UNL d   1       0.749   2.457   0.871  0.00  0.00     0.000 A 
ATOM      5  C6  UNL d   1      -0.219   1.655   1.474  0.00  0.00     0.000 A 
ATOM      6  C7  UNL d   1      -0.438   0.337   1.039  0.00  0.00    -0.073 A 
ATOM      7  C8  UNL d   1      -1.499  -0.482   1.721  0.00  0.00     0.078 C 
ENDROOT
BRANCH   1   8
ATOM      8  C1  UNL d   1       0.107  -1.555  -0.599  0.00  0.00     0.053 C 
ATOM      9  C   UNL d   1      -1.089  -1.638  -1.535  0.00  0.00     0.018 C 
ENDBRANCH   1   8
TORSDOF 1
ENDMDL
