MODEL 1
REMARK minimizedAffinity -3.80036259
REMARK minimizedRMSD -1
REMARK  1 active torsions:
REMARK  status: ('A' for Active; 'I' for Inactive)
REMARK    1  A    between atoms: C1_2  and  C2_3 
ROOT
ATOM      1  C2  UNL d   1       1.124   0.470   0.297  0.00  0.00    -0.076 A 
ATOM      2  C3  UNL d   1       0.484  -0.740   0.617  0.00  0.00     0.004 A 
ATOM      3  C4  UNL d   1      -0.564  -0.777   1.534  0.00  0.00    -0.003 A 
ATOM      4  C5  UNL d   1      -0.990   0.396   2.147  0.00  0.00     0.000 A 
ATOM      5  C6  UNL d   1      -0.379   1.608   1.828  0.00  0.00     0.000 A 
ATOM      6  C7  UNL d   1       0.669   1.665   0.893  0.00  0.00    -0.073 A 
ATOM      7  C8  UNL d   1       1.296   2.999   0.592  0.00  0.00     0.078 C 
ENDROOT
BRANCH   1   8
ATOM      8  C1  UNL d   1       2.273   0.444  -0.685  0.00  0.00     0.053 C 
ATOM      9  C   UNL d   1       3.184  -0.758  -0.486  0.00  0.00     0.018 C 
ENDBRANCH   1   8
TORSDOF 1
ENDMDL
