MODEL 1
REMARK minimizedAffinity -5.29618073
REMARK minimizedRMSD -1
REMARK  1 active torsions:
REMARK  status: ('A' for Active; 'I' for Inactive)
REMARK    1  A    between atoms: C1_2  and  C2_3 
ROOT
ATOM      1  C2  UNL d   1       0.283  -0.330   0.030  0.00  0.00    -0.073 A 
ATOM      2  C3  UNL d   1       0.282  -1.218   1.111  0.00  0.00    -0.002 A 
ATOM      3  C4  UNL d   1      -0.501  -0.958   2.237  0.00  0.00     0.004 A 
ATOM      4  C5  UNL d   1      -1.294   0.188   2.290  0.00  0.00    -0.004 A 
ATOM      5  C6  UNL d   1      -1.316   1.082   1.214  0.00  0.00    -0.075 A 
ATOM      6  C7  UNL d   1      -2.162   2.320   1.257  0.00  0.00     0.076 C 
ATOM      7  C8  UNL d   1      -0.525   0.815   0.089  0.00  0.00     0.001 A 
ENDROOT
BRANCH   1   8
ATOM      8  C1  UNL d   1       1.121  -0.610  -1.190  0.00  0.00     0.053 C 
ATOM      9  C   UNL d   1       1.092  -2.081  -1.576  0.00  0.00     0.018 C 
ENDBRANCH   1   8
TORSDOF 1
ENDMDL
