MODEL 1
REMARK minimizedAffinity -5.28889036
REMARK minimizedRMSD -1
REMARK  1 active torsions:
REMARK  status: ('A' for Active; 'I' for Inactive)
REMARK    1  A    between atoms: C1_2  and  C2_3 
ROOT
ATOM      1  C2  UNL d   1      -0.973   1.652   0.708  0.00  0.00    -0.073 A 
ATOM      2  C3  UNL d   1      -0.912   1.257   2.049  0.00  0.00    -0.002 A 
ATOM      3  C4  UNL d   1      -0.549  -0.048   2.383  0.00  0.00     0.004 A 
ATOM      4  C5  UNL d   1      -0.237  -0.968   1.382  0.00  0.00    -0.004 A 
ATOM      5  C6  UNL d   1      -0.281  -0.589   0.037  0.00  0.00    -0.075 A 
ATOM      6  C7  UNL d   1       0.050  -1.567  -1.052  0.00  0.00     0.076 C 
ATOM      7  C8  UNL d   1      -0.649   0.723  -0.291  0.00  0.00     0.001 A 
ENDROOT
BRANCH   1   8
ATOM      8  C1  UNL d   1      -1.359   3.063   0.343  0.00  0.00     0.053 C 
ATOM      9  C   UNL d   1      -0.433   3.652  -0.709  0.00  0.00     0.018 C 
ENDBRANCH   1   8
TORSDOF 1
ENDMDL
