MODEL 1
REMARK minimizedAffinity -2.50214291
REMARK minimizedRMSD -1
REMARK  1 active torsions:
REMARK  status: ('A' for Active; 'I' for Inactive)
REMARK    1  A    between atoms: C1_2  and  C2_3 
ROOT
ATOM      1  C2  UNL d   1      -0.121   0.213   0.330  0.00  0.00    -0.073 A 
ATOM      2  C3  UNL d   1      -0.498  -0.612   1.396  0.00  0.00    -0.002 A 
ATOM      3  C4  UNL d   1      -1.364  -0.137   2.382  0.00  0.00     0.004 A 
ATOM      4  C5  UNL d   1      -1.866   1.163   2.309  0.00  0.00    -0.004 A 
ATOM      5  C6  UNL d   1      -1.510   1.998   1.245  0.00  0.00    -0.075 A 
ATOM      6  C7  UNL d   1      -2.039   3.399   1.153  0.00  0.00     0.076 C 
ATOM      7  C8  UNL d   1      -0.638   1.514   0.261  0.00  0.00     0.001 A 
ENDROOT
BRANCH   1   8
ATOM      8  C1  UNL d   1       0.809  -0.298  -0.740  0.00  0.00     0.053 C 
ATOM      9  C   UNL d   1       0.778  -1.814  -0.846  0.00  0.00     0.018 C 
ENDBRANCH   1   8
TORSDOF 1
ENDMDL
