MODEL 1
REMARK minimizedAffinity -4.70408916
REMARK minimizedRMSD -1
REMARK  1 active torsions:
REMARK  status: ('A' for Active; 'I' for Inactive)
REMARK    1  A    between atoms: C1_2  and  C2_3 
ROOT
ATOM      1  C2  UNL d   1      -0.775  -0.437   0.277  0.00  0.00    -0.073 A 
ATOM      2  C3  UNL d   1       0.606  -0.239   0.389  0.00  0.00    -0.002 A 
ATOM      3  C4  UNL d   1       1.478  -0.818  -0.534  0.00  0.00     0.004 A 
ATOM      4  C5  UNL d   1       0.979  -1.592  -1.582  0.00  0.00    -0.004 A 
ATOM      5  C6  UNL d   1      -0.399  -1.790  -1.718  0.00  0.00    -0.075 A 
ATOM      6  C7  UNL d   1      -0.951  -2.622  -2.838  0.00  0.00     0.076 C 
ATOM      7  C8  UNL d   1      -1.268  -1.209  -0.785  0.00  0.00     0.001 A 
ENDROOT
BRANCH   1   8
ATOM      8  C1  UNL d   1      -1.721   0.191   1.267  0.00  0.00     0.053 C 
ATOM      9  C   UNL d   1      -1.001   1.111   2.240  0.00  0.00     0.018 C 
ENDBRANCH   1   8
TORSDOF 1
ENDMDL
