MODEL 1
REMARK minimizedAffinity -6.3637681
REMARK minimizedRMSD -1
REMARK  1 active torsions:
REMARK  status: ('A' for Active; 'I' for Inactive)
REMARK    1  A    between atoms: C1_2  and  C2_3 
ROOT
ATOM      1  C2  UNL d   1       0.133   0.266   0.010  0.00  0.00    -0.073 A 
ATOM      2  C3  UNL d   1      -0.476  -0.078   1.222  0.00  0.00    -0.002 A 
ATOM      3  C4  UNL d   1      -1.377   0.796   1.832  0.00  0.00     0.004 A 
ATOM      4  C5  UNL d   1      -1.683   2.018   1.234  0.00  0.00    -0.004 A 
ATOM      5  C6  UNL d   1      -1.094   2.375   0.017  0.00  0.00    -0.075 A 
ATOM      6  C7  UNL d   1      -1.410   3.687  -0.639  0.00  0.00     0.076 C 
ATOM      7  C8  UNL d   1      -0.188   1.493  -0.588  0.00  0.00     0.001 A 
ENDROOT
BRANCH   1   8
ATOM      8  C1  UNL d   1       1.101  -0.678  -0.656  0.00  0.00     0.053 C 
ATOM      9  C   UNL d   1       0.443  -1.477  -1.770  0.00  0.00     0.018 C 
ENDBRANCH   1   8
TORSDOF 1
ENDMDL
