MODEL 1
REMARK minimizedAffinity -4.88087368
REMARK minimizedRMSD -1
REMARK  1 active torsions:
REMARK  status: ('A' for Active; 'I' for Inactive)
REMARK    1  A    between atoms: C1_2  and  C2_3 
ROOT
ATOM      1  C2  UNL d   1      -0.573   0.899   1.024  0.00  0.00    -0.073 A 
ATOM      2  C3  UNL d   1      -1.407   1.475   1.988  0.00  0.00    -0.002 A 
ATOM      3  C4  UNL d   1      -1.659   2.848   1.972  0.00  0.00     0.004 A 
ATOM      4  C5  UNL d   1      -1.086   3.656   0.990  0.00  0.00    -0.004 A 
ATOM      5  C6  UNL d   1      -0.258   3.096   0.011  0.00  0.00    -0.075 A 
ATOM      6  C7  UNL d   1       0.368   3.951  -1.051  0.00  0.00     0.076 C 
ATOM      7  C8  UNL d   1      -0.008   1.717   0.035  0.00  0.00     0.001 A 
ENDROOT
BRANCH   1   8
ATOM      8  C1  UNL d   1      -0.303  -0.584   1.033  0.00  0.00     0.053 C 
ATOM      9  C   UNL d   1       0.666  -0.994  -0.064  0.00  0.00     0.018 C 
ENDBRANCH   1   8
TORSDOF 1
ENDMDL
