MODEL 1
REMARK minimizedAffinity -4.2364583
REMARK minimizedRMSD -1
REMARK  1 active torsions:
REMARK  status: ('A' for Active; 'I' for Inactive)
REMARK    1  A    between atoms: C1_2  and  C2_3 
ROOT
ATOM      1  C2  UNL d   1      -0.171   1.008  -0.239  0.00  0.00    -0.073 A 
ATOM      2  C3  UNL d   1       0.433   2.001  -1.018  0.00  0.00    -0.002 A 
ATOM      3  C4  UNL d   1       0.049   3.336  -0.883  0.00  0.00     0.004 A 
ATOM      4  C5  UNL d   1      -0.938   3.692   0.037  0.00  0.00    -0.004 A 
ATOM      5  C6  UNL d   1      -1.545   2.716   0.833  0.00  0.00    -0.075 A 
ATOM      6  C7  UNL d   1      -2.610   3.082   1.825  0.00  0.00     0.076 C 
ATOM      7  C8  UNL d   1      -1.156   1.377   0.689  0.00  0.00     0.001 A 
ENDROOT
BRANCH   1   8
ATOM      8  C1  UNL d   1       0.245  -0.433  -0.378  0.00  0.00     0.053 C 
ATOM      9  C   UNL d   1       1.647  -0.569  -0.952  0.00  0.00     0.018 C 
ENDBRANCH   1   8
TORSDOF 1
ENDMDL
