MODEL 1
REMARK minimizedAffinity -2.94438434
REMARK minimizedRMSD -1
REMARK  1 active torsions:
REMARK  status: ('A' for Active; 'I' for Inactive)
REMARK    1  A    between atoms: C1_2  and  C2_3 
ROOT
ATOM      1  C2  UNL d   1       0.392   0.046   0.170  0.00  0.00    -0.073 A 
ATOM      2  C3  UNL d   1       0.105  -0.819   1.232  0.00  0.00    -0.002 A 
ATOM      3  C4  UNL d   1      -0.700  -0.394   2.289  0.00  0.00     0.004 A 
ATOM      4  C5  UNL d   1      -1.232   0.895   2.293  0.00  0.00    -0.004 A 
ATOM      5  C6  UNL d   1      -0.967   1.770   1.235  0.00  0.00    -0.075 A 
ATOM      6  C7  UNL d   1      -1.529   3.161   1.224  0.00  0.00     0.076 C 
ATOM      7  C8  UNL d   1      -0.155   1.337   0.178  0.00  0.00     0.001 A 
ENDROOT
BRANCH   1   8
ATOM      8  C1  UNL d   1       1.256  -0.411  -0.977  0.00  0.00     0.053 C 
ATOM      9  C   UNL d   1       0.968  -1.851  -1.370  0.00  0.00     0.018 C 
ENDBRANCH   1   8
TORSDOF 1
ENDMDL
