MODEL 1
REMARK minimizedAffinity -5.32531834
REMARK minimizedRMSD -1
REMARK  1 active torsions:
REMARK  status: ('A' for Active; 'I' for Inactive)
REMARK    1  A    between atoms: C1_2  and  C2_3 
ROOT
ATOM      1  C2  UNL d   1       0.200   0.096  -0.211  0.00  0.00    -0.073 A 
ATOM      2  C3  UNL d   1       0.753   0.887  -1.225  0.00  0.00    -0.002 A 
ATOM      3  C4  UNL d   1       0.438   2.244  -1.310  0.00  0.00     0.004 A 
ATOM      4  C5  UNL d   1      -0.425   2.824  -0.381  0.00  0.00    -0.004 A 
ATOM      5  C6  UNL d   1      -0.978   2.053   0.646  0.00  0.00    -0.075 A 
ATOM      6  C7  UNL d   1      -1.910   2.662   1.652  0.00  0.00     0.076 C 
ATOM      7  C8  UNL d   1      -0.660   0.690   0.724  0.00  0.00     0.001 A 
ENDROOT
BRANCH   1   8
ATOM      8  C1  UNL d   1       0.542  -1.368  -0.110  0.00  0.00     0.053 C 
ATOM      9  C   UNL d   1       1.300  -1.862  -1.333  0.00  0.00     0.018 C 
ENDBRANCH   1   8
TORSDOF 1
ENDMDL
