MODEL 1
REMARK minimizedAffinity -6.39277172
REMARK minimizedRMSD -1
REMARK  1 active torsions:
REMARK  status: ('A' for Active; 'I' for Inactive)
REMARK    1  A    between atoms: C1_2  and  C2_3 
ROOT
ATOM      1  C2  UNL d   1      -0.468   0.447   0.791  0.00  0.00    -0.073 A 
ATOM      2  C3  UNL d   1      -1.477   0.823   1.685  0.00  0.00    -0.002 A 
ATOM      3  C4  UNL d   1      -1.989   2.121   1.665  0.00  0.00     0.004 A 
ATOM      4  C5  UNL d   1      -1.503   3.054   0.749  0.00  0.00    -0.004 A 
ATOM      5  C6  UNL d   1      -0.503   2.694  -0.161  0.00  0.00    -0.075 A 
ATOM      6  C7  UNL d   1       0.032   3.685  -1.151  0.00  0.00     0.076 C 
ATOM      7  C8  UNL d   1       0.008   1.389  -0.133  0.00  0.00     0.001 A 
ENDROOT
BRANCH   1   8
ATOM      8  C1  UNL d   1       0.083  -0.955   0.804  0.00  0.00     0.053 C 
ATOM      9  C   UNL d   1       0.697  -1.339  -0.532  0.00  0.00     0.018 C 
ENDBRANCH   1   8
TORSDOF 1
ENDMDL
