MODEL 1
REMARK minimizedAffinity 8.7142725
REMARK minimizedRMSD -1
REMARK  1 active torsions:
REMARK  status: ('A' for Active; 'I' for Inactive)
REMARK    1  A    between atoms: C1_2  and  C2_3 
ROOT
ATOM      1  C2  UNL d   1       0.231   0.657   5.056  0.00  0.00    -0.076 A 
ATOM      2  C3  UNL d   1       0.138   1.879   4.367  0.00  0.00     0.004 A 
ATOM      3  C4  UNL d   1       1.277   2.513   3.874  0.00  0.00    -0.003 A 
ATOM      4  C5  UNL d   1       2.528   1.935   4.060  0.00  0.00     0.000 A 
ATOM      5  C6  UNL d   1       2.637   0.714   4.726  0.00  0.00     0.000 A 
ATOM      6  C7  UNL d   1       1.497   0.054   5.215  0.00  0.00    -0.073 A 
ATOM      7  C8  UNL d   1       1.673  -1.258   5.930  0.00  0.00     0.078 C 
ENDROOT
BRANCH   1   8
ATOM      8  C1  UNL d   1      -1.036   0.030   5.593  0.00  0.00     0.053 C 
ATOM      9  C   UNL d   1      -1.843  -0.670   4.510  0.00  0.00     0.018 C 
ENDBRANCH   1   8
TORSDOF 1
ENDMDL
