MODEL 1
REMARK minimizedAffinity 3.33934498
REMARK minimizedRMSD -1
REMARK  1 active torsions:
REMARK  status: ('A' for Active; 'I' for Inactive)
REMARK    1  A    between atoms: C1_2  and  C2_3 
ROOT
ATOM      1  C2  UNL d   1      -2.447  -2.251   0.280  0.00  0.00    -0.076 A 
ATOM      2  C3  UNL d   1      -3.293  -2.311   1.401  0.00  0.00     0.004 A 
ATOM      3  C4  UNL d   1      -4.226  -1.307   1.651  0.00  0.00    -0.003 A 
ATOM      4  C5  UNL d   1      -4.329  -0.225   0.783  0.00  0.00     0.000 A 
ATOM      5  C6  UNL d   1      -3.511  -0.158  -0.344  0.00  0.00     0.000 A 
ATOM      6  C7  UNL d   1      -2.576  -1.171  -0.620  0.00  0.00    -0.073 A 
ATOM      7  C8  UNL d   1      -1.715  -1.044  -1.846  0.00  0.00     0.078 C 
ENDROOT
BRANCH   1   8
ATOM      8  C1  UNL d   1      -1.436  -3.356   0.075  0.00  0.00     0.053 C 
ATOM      9  C   UNL d   1      -1.891  -4.680   0.668  0.00  0.00     0.018 C 
ENDBRANCH   1   8
TORSDOF 1
ENDMDL
