MODEL 1
REMARK minimizedAffinity 12.0017872
REMARK minimizedRMSD -1
REMARK  1 active torsions:
REMARK  status: ('A' for Active; 'I' for Inactive)
REMARK    1  A    between atoms: C1_2  and  C2_3 
ROOT
ATOM      1  C2  UNL d   1      -3.517  -1.764   0.390  0.00  0.00    -0.076 A 
ATOM      2  C3  UNL d   1      -4.386  -1.657  -0.710  0.00  0.00     0.004 A 
ATOM      3  C4  UNL d   1      -5.532  -0.867  -0.644  0.00  0.00    -0.003 A 
ATOM      4  C5  UNL d   1      -5.828  -0.170   0.522  0.00  0.00     0.000 A 
ATOM      5  C6  UNL d   1      -4.968  -0.250   1.617  0.00  0.00     0.000 A 
ATOM      6  C7  UNL d   1      -3.799  -1.029   1.561  0.00  0.00    -0.073 A 
ATOM      7  C8  UNL d   1      -2.910  -1.084   2.774  0.00  0.00     0.078 C 
ENDROOT
BRANCH   1   8
ATOM      8  C1  UNL d   1      -2.303  -2.657   0.270  0.00  0.00     0.053 C 
ATOM      9  C   UNL d   1      -2.568  -4.070   0.765  0.00  0.00     0.018 C 
ENDBRANCH   1   8
TORSDOF 1
ENDMDL
