MODEL 1
REMARK minimizedAffinity 2.44834518
REMARK minimizedRMSD -1
REMARK  1 active torsions:
REMARK  status: ('A' for Active; 'I' for Inactive)
REMARK    1  A    between atoms: C1_2  and  C2_3 
ROOT
ATOM      1  C2  UNL d   1      -2.852  -0.575   1.459  0.00  0.00    -0.076 A 
ATOM      2  C3  UNL d   1      -4.058   0.132   1.609  0.00  0.00     0.004 A 
ATOM      3  C4  UNL d   1      -4.969   0.228   0.558  0.00  0.00    -0.003 A 
ATOM      4  C5  UNL d   1      -4.689  -0.382  -0.659  0.00  0.00     0.000 A 
ATOM      5  C6  UNL d   1      -3.506  -1.103  -0.820  0.00  0.00     0.000 A 
ATOM      6  C7  UNL d   1      -2.584  -1.223   0.234  0.00  0.00    -0.073 A 
ATOM      7  C8  UNL d   1      -1.321  -2.006   0.004  0.00  0.00     0.078 C 
ENDROOT
BRANCH   1   8
ATOM      8  C1  UNL d   1      -1.890  -0.622   2.625  0.00  0.00     0.053 C 
ATOM      9  C   UNL d   1      -1.379   0.757   3.014  0.00  0.00     0.018 C 
ENDBRANCH   1   8
TORSDOF 1
ENDMDL
