MODEL 1
REMARK minimizedAffinity 10.0311546
REMARK minimizedRMSD -1
REMARK  1 active torsions:
REMARK  status: ('A' for Active; 'I' for Inactive)
REMARK    1  A    between atoms: C1_2  and  C2_3 
ROOT
ATOM      1  C2  UNL d   1      -3.180  -0.787  -1.162  0.00  0.00    -0.076 A 
ATOM      2  C3  UNL d   1      -2.390  -0.635  -0.009  0.00  0.00     0.004 A 
ATOM      3  C4  UNL d   1      -2.947  -0.193   1.190  0.00  0.00    -0.003 A 
ATOM      4  C5  UNL d   1      -4.304   0.104   1.255  0.00  0.00     0.000 A 
ATOM      5  C6  UNL d   1      -5.106  -0.057   0.126  0.00  0.00     0.000 A 
ATOM      6  C7  UNL d   1      -4.563  -0.518  -1.086  0.00  0.00    -0.073 A 
ATOM      7  C8  UNL d   1      -5.473  -0.668  -2.274  0.00  0.00     0.078 C 
ENDROOT
BRANCH   1   8
ATOM      8  C1  UNL d   1      -2.514  -1.244  -2.440  0.00  0.00     0.053 C 
ATOM      9  C   UNL d   1      -0.998  -1.145  -2.376  0.00  0.00     0.018 C 
ENDBRANCH   1   8
TORSDOF 1
ENDMDL
