MODEL 1
REMARK minimizedAffinity 10.8246641
REMARK minimizedRMSD -1
REMARK  1 active torsions:
REMARK  status: ('A' for Active; 'I' for Inactive)
REMARK    1  A    between atoms: C1_2  and  C2_3 
ROOT
ATOM      1  C2  UNL d   1      -4.701  -1.325   1.111  0.00  0.00    -0.076 A 
ATOM      2  C3  UNL d   1      -3.973  -2.486   1.423  0.00  0.00     0.004 A 
ATOM      3  C4  UNL d   1      -2.758  -2.410   2.102  0.00  0.00    -0.003 A 
ATOM      4  C5  UNL d   1      -2.252  -1.171   2.481  0.00  0.00     0.000 A 
ATOM      5  C6  UNL d   1      -2.970  -0.010   2.195  0.00  0.00     0.000 A 
ATOM      6  C7  UNL d   1      -4.204  -0.071   1.526  0.00  0.00    -0.073 A 
ATOM      7  C8  UNL d   1      -4.933   1.213   1.239  0.00  0.00     0.078 C 
ENDROOT
BRANCH   1   8
ATOM      8  C1  UNL d   1      -6.000  -1.467   0.349  0.00  0.00     0.053 C 
ATOM      9  C   UNL d   1      -5.805  -1.372  -1.156  0.00  0.00     0.018 C 
ENDBRANCH   1   8
TORSDOF 1
ENDMDL
