MODEL 1
REMARK minimizedAffinity 12.0214214
REMARK minimizedRMSD -1
REMARK  1 active torsions:
REMARK  status: ('A' for Active; 'I' for Inactive)
REMARK    1  A    between atoms: C1_2  and  C2_3 
ROOT
ATOM      1  C2  UNL d   1      -0.128  -5.822   3.466  0.00  0.00    -0.076 A 
ATOM      2  C3  UNL d   1       0.594  -5.763   4.671  0.00  0.00     0.004 A 
ATOM      3  C4  UNL d   1      -0.060  -5.607   5.892  0.00  0.00    -0.003 A 
ATOM      4  C5  UNL d   1      -1.446  -5.508   5.928  0.00  0.00     0.000 A 
ATOM      5  C6  UNL d   1      -2.180  -5.583   4.745  0.00  0.00     0.000 A 
ATOM      6  C7  UNL d   1      -1.537  -5.757   3.507  0.00  0.00    -0.073 A 
ATOM      7  C8  UNL d   1      -2.377  -5.825   2.261  0.00  0.00     0.078 C 
ENDROOT
BRANCH   1   8
ATOM      8  C1  UNL d   1       0.637  -5.965   2.170  0.00  0.00     0.053 C 
ATOM      9  C   UNL d   1      -0.277  -6.000   0.955  0.00  0.00     0.018 C 
ENDBRANCH   1   8
TORSDOF 1
ENDMDL
