MODEL 1
REMARK minimizedAffinity 8.03888321
REMARK minimizedRMSD -1
REMARK  1 active torsions:
REMARK  status: ('A' for Active; 'I' for Inactive)
REMARK    1  A    between atoms: C1_2  and  C2_3 
ROOT
ATOM      1  C2  UNL d   1       1.731   1.552   0.675  0.00  0.00    -0.076 A 
ATOM      2  C3  UNL d   1       2.579   2.656   0.483  0.00  0.00     0.004 A 
ATOM      3  C4  UNL d   1       3.834   2.504  -0.105  0.00  0.00    -0.003 A 
ATOM      4  C5  UNL d   1       4.261   1.244  -0.510  0.00  0.00     0.000 A 
ATOM      5  C6  UNL d   1       3.426   0.140  -0.344  0.00  0.00     0.000 A 
ATOM      6  C7  UNL d   1       2.151   0.279   0.232  0.00  0.00    -0.073 A 
ATOM      7  C8  UNL d   1       1.294  -0.947   0.394  0.00  0.00     0.078 C 
ENDROOT
BRANCH   1   8
ATOM      8  C1  UNL d   1       0.393   1.774   1.343  0.00  0.00     0.053 C 
ATOM      9  C   UNL d   1      -0.399   2.902   0.700  0.00  0.00     0.018 C 
ENDBRANCH   1   8
TORSDOF 1
ENDMDL
