MODEL 1
REMARK minimizedAffinity 8.73287868
REMARK minimizedRMSD -1
REMARK  1 active torsions:
REMARK  status: ('A' for Active; 'I' for Inactive)
REMARK    1  A    between atoms: C1_2  and  C2_3 
ROOT
ATOM      1  C2  UNL d   1       0.046  -3.270   5.980  0.00  0.00    -0.076 A 
ATOM      2  C3  UNL d   1       0.943  -4.352   5.954  0.00  0.00     0.004 A 
ATOM      3  C4  UNL d   1       0.482  -5.667   5.960  0.00  0.00    -0.003 A 
ATOM      4  C5  UNL d   1      -0.885  -5.922   5.991  0.00  0.00     0.000 A 
ATOM      5  C6  UNL d   1      -1.790  -4.861   5.998  0.00  0.00     0.000 A 
ATOM      6  C7  UNL d   1      -1.341  -3.529   5.977  0.00  0.00    -0.073 A 
ATOM      7  C8  UNL d   1      -2.361  -2.423   5.992  0.00  0.00     0.078 C 
ENDROOT
BRANCH   1   8
ATOM      8  C1  UNL d   1       0.605  -1.865   6.000  0.00  0.00     0.053 C 
ATOM      9  C   UNL d   1       1.144  -1.433   4.645  0.00  0.00     0.018 C 
ENDBRANCH   1   8
TORSDOF 1
ENDMDL
