MODEL 1
REMARK minimizedAffinity 9.32722855
REMARK minimizedRMSD -1
REMARK  1 active torsions:
REMARK  status: ('A' for Active; 'I' for Inactive)
REMARK    1  A    between atoms: C1_2  and  C2_3 
ROOT
ATOM      1  C2  UNL d   1       1.973  -1.461  -0.629  0.00  0.00    -0.076 A 
ATOM      2  C3  UNL d   1       2.880  -0.436  -0.309  0.00  0.00     0.004 A 
ATOM      3  C4  UNL d   1       2.431   0.815   0.109  0.00  0.00    -0.003 A 
ATOM      4  C5  UNL d   1       1.067   1.062   0.214  0.00  0.00     0.000 A 
ATOM      5  C6  UNL d   1       0.153   0.052  -0.083  0.00  0.00     0.000 A 
ATOM      6  C7  UNL d   1       0.589  -1.221  -0.490  0.00  0.00    -0.073 A 
ATOM      7  C8  UNL d   1      -0.440  -2.272  -0.803  0.00  0.00     0.078 C 
ENDROOT
BRANCH   1   8
ATOM      8  C1  UNL d   1       2.518  -2.790  -1.103  0.00  0.00     0.053 C 
ATOM      9  C   UNL d   1       3.008  -2.739  -2.542  0.00  0.00     0.018 C 
ENDBRANCH   1   8
TORSDOF 1
ENDMDL
