MODEL 1
REMARK minimizedAffinity 9.53245449
REMARK minimizedRMSD -1
REMARK  0 active torsions:
REMARK  status: ('A' for Active; 'I' for Inactive)
ROOT
ATOM      1  C   UNL d   1      -3.115  -0.375  -0.994  0.00  0.00     0.077 C 
ATOM      2  C1  UNL d   1      -2.564   0.652  -1.938  0.00  0.00    -0.074 A 
ATOM      3  C2  UNL d   1      -1.185   0.786  -2.130  0.00  0.00    -0.005 A 
ATOM      4  C3  UNL d   1      -0.688   1.740  -3.018  0.00  0.00     0.006 A 
ATOM      5  C4  UNL d   1      -1.563   2.568  -3.722  0.00  0.00    -0.005 A 
ATOM      6  C5  UNL d   1      -2.945   2.448  -3.544  0.00  0.00    -0.074 A 
ATOM      7  C6  UNL d   1      -3.900   3.324  -4.300  0.00  0.00     0.077 C 
ATOM      8  C7  UNL d   1      -3.437   1.483  -2.655  0.00  0.00    -0.001 A 
ENDROOT
TORSDOF 0
ENDMDL
