MODEL 1
REMARK minimizedAffinity 1.89057684
REMARK minimizedRMSD -1
REMARK  0 active torsions:
REMARK  status: ('A' for Active; 'I' for Inactive)
ROOT
ATOM      1  C   UNL d   1      -6.000   1.599   5.998  0.00  0.00     0.077 C 
ATOM      2  C1  UNL d   1      -5.007   1.463   4.882  0.00  0.00    -0.074 A 
ATOM      3  C2  UNL d   1      -3.658   1.210   5.147  0.00  0.00    -0.005 A 
ATOM      4  C3  UNL d   1      -2.748   1.076   4.099  0.00  0.00     0.006 A 
ATOM      5  C4  UNL d   1      -3.177   1.195   2.776  0.00  0.00    -0.005 A 
ATOM      6  C5  UNL d   1      -4.523   1.447   2.492  0.00  0.00    -0.074 A 
ATOM      7  C6  UNL d   1      -5.003   1.568   1.076  0.00  0.00     0.077 C 
ATOM      8  C7  UNL d   1      -5.432   1.573   3.551  0.00  0.00    -0.001 A 
ENDROOT
TORSDOF 0
ENDMDL
