MODEL 1
REMARK minimizedAffinity 8.94896984
REMARK minimizedRMSD -1
REMARK  0 active torsions:
REMARK  status: ('A' for Active; 'I' for Inactive)
ROOT
ATOM      1  C   UNL d   1      -0.441  -1.418   2.646  0.00  0.00     0.077 C 
ATOM      2  C1  UNL d   1       0.529  -2.215   1.824  0.00  0.00    -0.074 A 
ATOM      3  C2  UNL d   1       0.100  -3.311   1.069  0.00  0.00    -0.005 A 
ATOM      4  C3  UNL d   1       1.011  -4.037   0.302  0.00  0.00     0.006 A 
ATOM      5  C4  UNL d   1       2.358  -3.674   0.282  0.00  0.00    -0.005 A 
ATOM      6  C5  UNL d   1       2.806  -2.580   1.030  0.00  0.00    -0.074 A 
ATOM      7  C6  UNL d   1       4.248  -2.171   1.012  0.00  0.00     0.077 C 
ATOM      8  C7  UNL d   1       1.882  -1.852   1.793  0.00  0.00    -0.001 A 
ENDROOT
TORSDOF 0
ENDMDL
