MODEL 1
REMARK minimizedAffinity 9.07123566
REMARK minimizedRMSD -1
REMARK  0 active torsions:
REMARK  status: ('A' for Active; 'I' for Inactive)
ROOT
ATOM      1  C   UNL d   1       2.985  -3.012   2.284  0.00  0.00     0.077 C 
ATOM      2  C1  UNL d   1       3.726  -3.177   3.578  0.00  0.00    -0.074 A 
ATOM      3  C2  UNL d   1       3.982  -2.078   4.405  0.00  0.00    -0.005 A 
ATOM      4  C3  UNL d   1       4.664  -2.249   5.609  0.00  0.00     0.006 A 
ATOM      5  C4  UNL d   1       5.097  -3.517   5.998  0.00  0.00    -0.005 A 
ATOM      6  C5  UNL d   1       4.850  -4.627   5.185  0.00  0.00    -0.074 A 
ATOM      7  C6  UNL d   1       5.300  -5.998   5.592  0.00  0.00     0.077 C 
ATOM      8  C7  UNL d   1       4.158  -4.449   3.979  0.00  0.00    -0.001 A 
ENDROOT
TORSDOF 0
ENDMDL
