MODEL 1
REMARK minimizedAffinity 8.69125557
REMARK minimizedRMSD -1
REMARK  0 active torsions:
REMARK  status: ('A' for Active; 'I' for Inactive)
ROOT
ATOM      1  C   UNL d   1      -0.611  -1.538   1.652  0.00  0.00     0.077 C 
ATOM      2  C1  UNL d   1       0.681  -2.176   1.237  0.00  0.00    -0.074 A 
ATOM      3  C2  UNL d   1       0.760  -3.552   1.001  0.00  0.00    -0.005 A 
ATOM      4  C3  UNL d   1       1.967  -4.130   0.606  0.00  0.00     0.006 A 
ATOM      5  C4  UNL d   1       3.105  -3.339   0.444  0.00  0.00    -0.005 A 
ATOM      6  C5  UNL d   1       3.045  -1.961   0.674  0.00  0.00    -0.074 A 
ATOM      7  C6  UNL d   1       4.256  -1.094   0.494  0.00  0.00     0.077 C 
ATOM      8  C7  UNL d   1       1.827  -1.386   1.064  0.00  0.00    -0.001 A 
ENDROOT
TORSDOF 0
ENDMDL
