MODEL 1
REMARK minimizedAffinity 9.20184422
REMARK minimizedRMSD -1
REMARK  0 active torsions:
REMARK  status: ('A' for Active; 'I' for Inactive)
ROOT
ATOM      1  C   UNL d   1      -6.000  -1.535  -4.497  0.00  0.00     0.077 C 
ATOM      2  C1  UNL d   1      -4.969  -0.977  -3.562  0.00  0.00    -0.074 A 
ATOM      3  C2  UNL d   1      -4.456  -1.749  -2.514  0.00  0.00    -0.005 A 
ATOM      4  C3  UNL d   1      -3.490  -1.220  -1.658  0.00  0.00     0.006 A 
ATOM      5  C4  UNL d   1      -3.028   0.084  -1.840  0.00  0.00    -0.005 A 
ATOM      6  C5  UNL d   1      -3.529   0.870  -2.882  0.00  0.00    -0.074 A 
ATOM      7  C6  UNL d   1      -3.036   2.270  -3.098  0.00  0.00     0.077 C 
ATOM      8  C7  UNL d   1      -4.494   0.329  -3.743  0.00  0.00    -0.001 A 
ENDROOT
TORSDOF 0
ENDMDL
