MODEL 1
REMARK minimizedAffinity 7.16822672
REMARK minimizedRMSD -1
REMARK  0 active torsions:
REMARK  status: ('A' for Active; 'I' for Inactive)
ROOT
ATOM      1  C   UNL d   1      -0.924  -1.353   1.348  0.00  0.00     0.077 C 
ATOM      2  C1  UNL d   1      -1.990  -1.051   0.337  0.00  0.00    -0.074 A 
ATOM      3  C2  UNL d   1      -3.144  -1.835   0.253  0.00  0.00    -0.005 A 
ATOM      4  C3  UNL d   1      -4.131  -1.536  -0.686  0.00  0.00     0.006 A 
ATOM      5  C4  UNL d   1      -3.974  -0.451  -1.549  0.00  0.00    -0.005 A 
ATOM      6  C5  UNL d   1      -2.826   0.346  -1.479  0.00  0.00    -0.074 A 
ATOM      7  C6  UNL d   1      -2.646   1.522  -2.393  0.00  0.00     0.077 C 
ATOM      8  C7  UNL d   1      -1.842   0.043  -0.528  0.00  0.00    -0.001 A 
ENDROOT
TORSDOF 0
ENDMDL
