MODEL 1
REMARK minimizedAffinity 16.6949272
REMARK minimizedRMSD -1
REMARK  1 active torsions:
REMARK  status: ('A' for Active; 'I' for Inactive)
REMARK    1  A    between atoms: N_2  and  C1_3 
ROOT
ATOM      1  C1  UNL d   1       0.753  -2.323  -4.498  0.00  0.00     0.143 A 
ATOM      2  C2  UNL d   1      -0.080  -3.128  -5.283  0.00  0.00    -0.057 A 
ATOM      3  C3  UNL d   1       0.428  -4.219  -5.998  0.00  0.00     0.033 A 
ATOM      4  C4  UNL d   1       1.788  -4.507  -5.965  0.00  0.00    -0.042 A 
ATOM      5  C5  UNL d   1       2.639  -3.706  -5.212  0.00  0.00     0.033 A 
ATOM      6  C6  UNL d   1       2.125  -2.622  -4.494  0.00  0.00    -0.057 A 
ENDROOT
BRANCH   1   7
ATOM      7  N   UNL d   1       0.325  -1.166  -3.842  0.00  0.00    -0.732 N 
ATOM      8  C   UNL d   1      -0.007   0.026  -4.592  0.00  0.00     0.284 C 
ATOM      9  H3  UNL d   1      -0.316  -1.368  -3.078  0.00  0.00     0.395 HD
ENDBRANCH   1   7
TORSDOF 1
ENDMDL
