MODEL 1
REMARK minimizedAffinity 13.3002071
REMARK minimizedRMSD -1
REMARK  1 active torsions:
REMARK  status: ('A' for Active; 'I' for Inactive)
REMARK    1  A    between atoms: N_2  and  C1_3 
ROOT
ATOM      1  C1  UNL d   1       0.037   1.511   3.727  0.00  0.00     0.143 A 
ATOM      2  C2  UNL d   1       0.839   0.405   4.028  0.00  0.00    -0.057 A 
ATOM      3  C3  UNL d   1       0.812  -0.749   3.236  0.00  0.00     0.033 A 
ATOM      4  C4  UNL d   1      -0.041  -0.828   2.140  0.00  0.00    -0.042 A 
ATOM      5  C5  UNL d   1      -0.866   0.249   1.836  0.00  0.00     0.033 A 
ATOM      6  C6  UNL d   1      -0.829   1.401   2.628  0.00  0.00    -0.057 A 
ENDROOT
BRANCH   1   7
ATOM      7  N   UNL d   1      -0.054   2.648   4.532  0.00  0.00    -0.732 N 
ATOM      8  C   UNL d   1       0.091   2.548   5.969  0.00  0.00     0.284 C 
ATOM      9  H3  UNL d   1       0.415   3.453   4.122  0.00  0.00     0.395 HD
ENDBRANCH   1   7
TORSDOF 1
ENDMDL
