MODEL 1
REMARK minimizedAffinity 16.8618622
REMARK minimizedRMSD -1
REMARK  1 active torsions:
REMARK  status: ('A' for Active; 'I' for Inactive)
REMARK    1  A    between atoms: N_2  and  C1_3 
ROOT
ATOM      1  C1  UNL d   1       4.296   0.816   4.026  0.00  0.00     0.143 A 
ATOM      2  C2  UNL d   1       5.016   0.764   2.828  0.00  0.00    -0.057 A 
ATOM      3  C3  UNL d   1       4.367   0.603   1.597  0.00  0.00     0.033 A 
ATOM      4  C4  UNL d   1       2.985   0.463   1.546  0.00  0.00    -0.042 A 
ATOM      5  C5  UNL d   1       2.251   0.487   2.727  0.00  0.00     0.033 A 
ATOM      6  C6  UNL d   1       2.904   0.654   3.952  0.00  0.00    -0.057 A 
ENDROOT
BRANCH   1   7
ATOM      7  N   UNL d   1       4.891   0.875   5.289  0.00  0.00    -0.732 N 
ATOM      8  C   UNL d   1       5.235  -0.338   5.999  0.00  0.00     0.284 C 
ATOM      9  H3  UNL d   1       5.594   1.608   5.353  0.00  0.00     0.395 HD
ENDBRANCH   1   7
TORSDOF 1
ENDMDL
