MODEL 1
REMARK minimizedAffinity 8.827528
REMARK minimizedRMSD -1
REMARK  1 active torsions:
REMARK  status: ('A' for Active; 'I' for Inactive)
REMARK    1  A    between atoms: N_2  and  C1_3 
ROOT
ATOM      1  C1  UNL d   1       1.885   0.418   3.314  0.00  0.00     0.143 A 
ATOM      2  C2  UNL d   1       2.948   0.959   2.583  0.00  0.00    -0.057 A 
ATOM      3  C3  UNL d   1       4.172   1.255   3.195  0.00  0.00     0.033 A 
ATOM      4  C4  UNL d   1       4.345   1.042   4.559  0.00  0.00    -0.042 A 
ATOM      5  C5  UNL d   1       3.294   0.528   5.309  0.00  0.00     0.033 A 
ATOM      6  C6  UNL d   1       2.076   0.228   4.691  0.00  0.00    -0.057 A 
ENDROOT
BRANCH   1   7
ATOM      7  N   UNL d   1       0.611   0.194   2.784  0.00  0.00    -0.732 N 
ATOM      8  C   UNL d   1       0.381  -0.888   1.851  0.00  0.00     0.284 C 
ATOM      9  H3  UNL d   1      -0.124   0.308   3.478  0.00  0.00     0.395 HD
ENDBRANCH   1   7
TORSDOF 1
ENDMDL
