MODEL 1
REMARK minimizedAffinity 17.2807598
REMARK minimizedRMSD -1
REMARK  1 active torsions:
REMARK  status: ('A' for Active; 'I' for Inactive)
REMARK    1  A    between atoms: N_2  and  C1_3 
ROOT
ATOM      1  C1  UNL d   1      -0.042  -0.980   1.493  0.00  0.00     0.143 A 
ATOM      2  C2  UNL d   1      -0.252   0.362   1.824  0.00  0.00    -0.057 A 
ATOM      3  C3  UNL d   1       0.462   0.975   2.860  0.00  0.00     0.033 A 
ATOM      4  C4  UNL d   1       1.382   0.245   3.606  0.00  0.00    -0.042 A 
ATOM      5  C5  UNL d   1       1.589  -1.097   3.311  0.00  0.00     0.033 A 
ATOM      6  C6  UNL d   1       0.877  -1.702   2.270  0.00  0.00    -0.057 A 
ENDROOT
BRANCH   1   7
ATOM      7  N   UNL d   1      -0.791  -1.673   0.539  0.00  0.00    -0.732 N 
ATOM      8  C   UNL d   1      -0.208  -2.036  -0.735  0.00  0.00     0.284 C 
ATOM      9  H3  UNL d   1      -1.371  -2.399   0.953  0.00  0.00     0.395 HD
ENDBRANCH   1   7
TORSDOF 1
ENDMDL
