MODEL 1
REMARK minimizedAffinity 16.7840424
REMARK minimizedRMSD -1
REMARK  1 active torsions:
REMARK  status: ('A' for Active; 'I' for Inactive)
REMARK    1  A    between atoms: N_2  and  C1_3 
ROOT
ATOM      1  C1  UNL d   1       0.164  -0.958  -3.719  0.00  0.00     0.143 A 
ATOM      2  C2  UNL d   1      -0.926  -0.459  -2.999  0.00  0.00    -0.057 A 
ATOM      3  C3  UNL d   1      -1.543  -1.218  -1.997  0.00  0.00     0.033 A 
ATOM      4  C4  UNL d   1      -1.096  -2.504  -1.715  0.00  0.00    -0.042 A 
ATOM      5  C5  UNL d   1      -0.030  -3.031  -2.436  0.00  0.00     0.033 A 
ATOM      6  C6  UNL d   1       0.586  -2.266  -3.431  0.00  0.00    -0.057 A 
ENDROOT
BRANCH   1   7
ATOM      7  N   UNL d   1       0.757  -0.292  -4.794  0.00  0.00    -0.732 N 
ATOM      8  C   UNL d   1       2.098  -0.631  -5.223  0.00  0.00     0.284 C 
ATOM      9  H3  UNL d   1       0.105  -0.130  -5.558  0.00  0.00     0.395 HD
ENDBRANCH   1   7
TORSDOF 1
ENDMDL
