MODEL 1
REMARK minimizedAffinity 11.6516476
REMARK minimizedRMSD -1
REMARK  1 active torsions:
REMARK  status: ('A' for Active; 'I' for Inactive)
REMARK    1  A    between atoms: N_2  and  C1_3 
ROOT
ATOM      1  C1  UNL d   1      -0.830  -1.987  -3.797  0.00  0.00     0.143 A 
ATOM      2  C2  UNL d   1      -0.267  -2.736  -4.835  0.00  0.00    -0.057 A 
ATOM      3  C3  UNL d   1       0.878  -2.295  -5.511  0.00  0.00     0.033 A 
ATOM      4  C4  UNL d   1       1.464  -1.078  -5.178  0.00  0.00    -0.042 A 
ATOM      5  C5  UNL d   1       0.906  -0.305  -4.166  0.00  0.00     0.033 A 
ATOM      6  C6  UNL d   1      -0.233  -0.754  -3.491  0.00  0.00    -0.057 A 
ENDROOT
BRANCH   1   7
ATOM      7  N   UNL d   1      -2.023  -2.324  -3.153  0.00  0.00    -0.732 N 
ATOM      8  C   UNL d   1      -2.007  -3.075  -1.917  0.00  0.00     0.284 C 
ATOM      9  H3  UNL d   1      -2.701  -1.565  -3.170  0.00  0.00     0.395 HD
ENDBRANCH   1   7
TORSDOF 1
ENDMDL
