MODEL 1
REMARK minimizedAffinity 12.1037703
REMARK minimizedRMSD -1
REMARK  1 active torsions:
REMARK  status: ('A' for Active; 'I' for Inactive)
REMARK    1  A    between atoms: N_2  and  C1_3 
ROOT
ATOM      1  C1  UNL d   1      -0.820  -1.559  -3.878  0.00  0.00     0.143 A 
ATOM      2  C2  UNL d   1       0.161  -0.582  -3.679  0.00  0.00    -0.057 A 
ATOM      3  C3  UNL d   1       1.255  -0.463  -4.545  0.00  0.00     0.033 A 
ATOM      4  C4  UNL d   1       1.402  -1.341  -5.614  0.00  0.00    -0.042 A 
ATOM      5  C5  UNL d   1       0.452  -2.335  -5.817  0.00  0.00     0.033 A 
ATOM      6  C6  UNL d   1      -0.641  -2.445  -4.952  0.00  0.00    -0.057 A 
ENDROOT
BRANCH   1   7
ATOM      7  N   UNL d   1      -1.878  -1.791  -2.996  0.00  0.00    -0.732 N 
ATOM      8  C   UNL d   1      -1.657  -2.490  -1.748  0.00  0.00     0.284 C 
ATOM      9  H3  UNL d   1      -2.502  -0.992  -2.920  0.00  0.00     0.395 HD
ENDBRANCH   1   7
TORSDOF 1
ENDMDL
