MODEL 1
REMARK minimizedAffinity 16.4620018
REMARK minimizedRMSD -1
REMARK  1 active torsions:
REMARK  status: ('A' for Active; 'I' for Inactive)
REMARK    1  A    between atoms: N_2  and  C1_3 
ROOT
ATOM      1  C1  UNL d   1      -0.297  -0.801   0.944  0.00  0.00     0.143 A 
ATOM      2  C2  UNL d   1      -0.340   0.583   1.142  0.00  0.00    -0.057 A 
ATOM      3  C3  UNL d   1       0.512   1.213   2.057  0.00  0.00     0.033 A 
ATOM      4  C4  UNL d   1       1.407   0.464   2.813  0.00  0.00    -0.042 A 
ATOM      5  C5  UNL d   1       1.450  -0.917   2.651  0.00  0.00     0.033 A 
ATOM      6  C6  UNL d   1       0.601  -1.539   1.731  0.00  0.00    -0.057 A 
ENDROOT
BRANCH   1   7
ATOM      7  N   UNL d   1      -1.185  -1.498   0.122  0.00  0.00    -0.732 N 
ATOM      8  C   UNL d   1      -0.705  -2.228  -1.031  0.00  0.00     0.284 C 
ATOM      9  H3  UNL d   1      -1.905  -1.984   0.652  0.00  0.00     0.395 HD
ENDBRANCH   1   7
TORSDOF 1
ENDMDL
