MODEL 1
REMARK minimizedAffinity 2.4247992
REMARK minimizedRMSD -1
REMARK  0 active torsions:
REMARK  status: ('A' for Active; 'I' for Inactive)
ROOT
ATOM      1  C   UNL d   1      -4.911   4.994   0.531  0.00  0.00     0.023 A 
ATOM      2  C1  UNL d   1      -5.662   3.853   0.817  0.00  0.00     0.003 A 
ATOM      3  C2  UNL d   1      -5.975   2.949  -0.200  0.00  0.00     0.048 A 
ATOM      4  C3  UNL d   1      -5.534   3.191  -1.500  0.00  0.00     0.023 A 
ATOM      5  C4  UNL d   1      -4.782   4.330  -1.791  0.00  0.00     0.048 A 
ATOM      6  C5  UNL d   1      -4.472   5.232  -0.772  0.00  0.00     0.003 A 
ATOM      7  I   UNL d   1      -6.000   1.846  -3.015  0.00  0.00    -0.146 I 
ENDROOT
TORSDOF 0
ENDMDL
