MODEL 1
REMARK minimizedAffinity 8.53489399
REMARK minimizedRMSD -1
REMARK  0 active torsions:
REMARK  status: ('A' for Active; 'I' for Inactive)
ROOT
ATOM      1  C   UNL d   1      -0.130   5.845  -5.905  0.00  0.00     0.023 A 
ATOM      2  C1  UNL d   1       1.198   5.625  -5.541  0.00  0.00     0.003 A 
ATOM      3  C2  UNL d   1       1.504   4.727  -4.517  0.00  0.00     0.048 A 
ATOM      4  C3  UNL d   1       0.475   4.050  -3.862  0.00  0.00     0.023 A 
ATOM      5  C4  UNL d   1      -0.855   4.265  -4.224  0.00  0.00     0.048 A 
ATOM      6  C5  UNL d   1      -1.156   5.166  -5.247  0.00  0.00     0.003 A 
ATOM      7  I   UNL d   1       0.927   2.711  -2.337  0.00  0.00    -0.146 I 
ENDROOT
TORSDOF 0
ENDMDL
