MODEL 1
REMARK minimizedAffinity 6.64098835
REMARK minimizedRMSD -1
REMARK  0 active torsions:
REMARK  status: ('A' for Active; 'I' for Inactive)
ROOT
ATOM      1  C   UNL d   1      -2.601  -3.096   0.880  0.00  0.00     0.023 A 
ATOM      2  C1  UNL d   1      -1.641  -4.104   0.788  0.00  0.00     0.003 A 
ATOM      3  C2  UNL d   1      -0.423  -3.974   1.459  0.00  0.00     0.048 A 
ATOM      4  C3  UNL d   1      -0.172  -2.833   2.221  0.00  0.00     0.023 A 
ATOM      5  C4  UNL d   1      -1.130  -1.822   2.317  0.00  0.00     0.048 A 
ATOM      6  C5  UNL d   1      -2.345  -1.956   1.643  0.00  0.00     0.003 A 
ATOM      7  I   UNL d   1       1.640  -2.637   3.221  0.00  0.00    -0.146 I 
ENDROOT
TORSDOF 0
ENDMDL
