MODEL 1
REMARK minimizedAffinity 1.9707166
REMARK minimizedRMSD -1
REMARK  0 active torsions:
REMARK  status: ('A' for Active; 'I' for Inactive)
ROOT
ATOM      1  C   UNL d   1      -0.370   5.964  -5.818  0.00  0.00     0.023 A 
ATOM      2  C1  UNL d   1      -1.051   5.852  -4.606  0.00  0.00     0.003 A 
ATOM      3  C2  UNL d   1      -0.515   5.083  -3.571  0.00  0.00     0.048 A 
ATOM      4  C3  UNL d   1       0.703   4.430  -3.755  0.00  0.00     0.023 A 
ATOM      5  C4  UNL d   1       1.389   4.540  -4.965  0.00  0.00     0.048 A 
ATOM      6  C5  UNL d   1       0.849   5.309  -5.998  0.00  0.00     0.003 A 
ATOM      7  I   UNL d   1       1.503   3.284  -2.216  0.00  0.00    -0.146 I 
ENDROOT
TORSDOF 0
ENDMDL
