MODEL 1
REMARK minimizedAffinity 8.38518238
REMARK minimizedRMSD -1
REMARK  0 active torsions:
REMARK  status: ('A' for Active; 'I' for Inactive)
ROOT
ATOM      1  C   UNL d   1       1.492   1.862  -1.229  0.00  0.00     0.023 A 
ATOM      2  C1  UNL d   1       1.411   2.171   0.129  0.00  0.00     0.003 A 
ATOM      3  C2  UNL d   1       1.942   1.295   1.078  0.00  0.00     0.048 A 
ATOM      4  C3  UNL d   1       2.552   0.113   0.663  0.00  0.00     0.023 A 
ATOM      5  C4  UNL d   1       2.636  -0.200  -0.695  0.00  0.00     0.048 A 
ATOM      6  C5  UNL d   1       2.103   0.678  -1.640  0.00  0.00     0.003 A 
ATOM      7  I   UNL d   1       3.343  -1.193   2.074  0.00  0.00    -0.146 I 
ENDROOT
TORSDOF 0
ENDMDL
