MODEL 1
REMARK minimizedAffinity 8.11981297
REMARK minimizedRMSD -1
REMARK  0 active torsions:
REMARK  status: ('A' for Active; 'I' for Inactive)
ROOT
ATOM      1  C   UNL d   1      -4.146  -5.925  -5.801  0.00  0.00     0.023 A 
ATOM      2  C1  UNL d   1      -5.466  -5.519  -6.000  0.00  0.00     0.003 A 
ATOM      3  C2  UNL d   1      -5.999  -4.475  -5.241  0.00  0.00     0.048 A 
ATOM      4  C3  UNL d   1      -5.207  -3.840  -4.285  0.00  0.00     0.023 A 
ATOM      5  C4  UNL d   1      -3.885  -4.242  -4.083  0.00  0.00     0.048 A 
ATOM      6  C5  UNL d   1      -3.357  -5.287  -4.843  0.00  0.00     0.003 A 
ATOM      7  I   UNL d   1      -5.998  -2.286  -3.155  0.00  0.00    -0.146 I 
ENDROOT
TORSDOF 0
ENDMDL
