MODEL 1
REMARK minimizedAffinity 6.00573874
REMARK minimizedRMSD -1
REMARK  0 active torsions:
REMARK  status: ('A' for Active; 'I' for Inactive)
ROOT
ATOM      1  C   UNL d   1      -4.264  -1.204   0.648  0.00  0.00     0.023 A 
ATOM      2  C1  UNL d   1      -3.063  -1.694   1.161  0.00  0.00     0.003 A 
ATOM      3  C2  UNL d   1      -2.656  -1.343   2.449  0.00  0.00     0.048 A 
ATOM      4  C3  UNL d   1      -3.457  -0.501   3.221  0.00  0.00     0.023 A 
ATOM      5  C4  UNL d   1      -4.660  -0.009   2.713  0.00  0.00     0.048 A 
ATOM      6  C5  UNL d   1      -5.062  -0.363   1.424  0.00  0.00     0.003 A 
ATOM      7  I   UNL d   1      -2.854   0.024   5.140  0.00  0.00    -0.146 I 
ENDROOT
TORSDOF 0
ENDMDL
