MODEL 1
REMARK minimizedAffinity 6.40052462
REMARK minimizedRMSD -1
REMARK  0 active torsions:
REMARK  status: ('A' for Active; 'I' for Inactive)
ROOT
ATOM      1  C   UNL d   1      -2.266  -3.745   0.754  0.00  0.00     0.023 A 
ATOM      2  C1  UNL d   1      -2.391  -5.132   0.687  0.00  0.00     0.003 A 
ATOM      3  C2  UNL d   1      -3.391  -5.781   1.413  0.00  0.00     0.048 A 
ATOM      4  C3  UNL d   1      -4.264  -5.036   2.205  0.00  0.00     0.023 A 
ATOM      5  C4  UNL d   1      -4.144  -3.647   2.275  0.00  0.00     0.048 A 
ATOM      6  C5  UNL d   1      -3.142  -3.003   1.547  0.00  0.00     0.003 A 
ATOM      7  I   UNL d   1      -5.754  -6.000   3.288  0.00  0.00    -0.146 I 
ENDROOT
TORSDOF 0
ENDMDL
