MODEL 1
REMARK minimizedAffinity 2.67289829
REMARK minimizedRMSD -1
REMARK  0 active torsions:
REMARK  status: ('A' for Active; 'I' for Inactive)
ROOT
ATOM      1  C   UNL d   1      -1.516  -5.893  -4.058  0.00  0.00     0.023 A 
ATOM      2  C1  UNL d   1      -1.677  -5.827  -5.442  0.00  0.00     0.003 A 
ATOM      3  C2  UNL d   1      -2.958  -5.846  -5.999  0.00  0.00     0.048 A 
ATOM      4  C3  UNL d   1      -4.073  -5.931  -5.165  0.00  0.00     0.023 A 
ATOM      5  C4  UNL d   1      -3.916  -5.996  -3.780  0.00  0.00     0.048 A 
ATOM      6  C5  UNL d   1      -2.634  -5.977  -3.228  0.00  0.00     0.003 A 
ATOM      7  I   UNL d   1      -5.980  -5.960  -5.991  0.00  0.00    -0.146 I 
ENDROOT
TORSDOF 0
ENDMDL
