MODEL 1
REMARK minimizedAffinity -0.897478402
REMARK minimizedRMSD -1
REMARK  0 active torsions:
REMARK  status: ('A' for Active; 'I' for Inactive)
ROOT
ATOM      1  C   UNL d   1      -1.731  -1.684   2.262  0.00  0.00     0.023 A 
ATOM      2  C1  UNL d   1      -2.752  -2.129   1.422  0.00  0.00     0.003 A 
ATOM      3  C2  UNL d   1      -3.945  -1.409   1.329  0.00  0.00     0.048 A 
ATOM      4  C3  UNL d   1      -4.110  -0.245   2.079  0.00  0.00     0.023 A 
ATOM      5  C4  UNL d   1      -3.091   0.204   2.920  0.00  0.00     0.048 A 
ATOM      6  C5  UNL d   1      -1.900  -0.519   3.010  0.00  0.00     0.003 A 
ATOM      7  I   UNL d   1      -5.885   0.828   1.943  0.00  0.00    -0.146 I 
ENDROOT
TORSDOF 0
ENDMDL
