MODEL 1
REMARK minimizedAffinity 4.33517075
REMARK minimizedRMSD -1
REMARK  0 active torsions:
REMARK  status: ('A' for Active; 'I' for Inactive)
ROOT
ATOM      1  C   UNL d   1      -5.997   2.808  -4.482  0.00  0.00     0.023 A 
ATOM      2  C1  UNL d   1      -5.994   1.536  -5.055  0.00  0.00     0.003 A 
ATOM      3  C2  UNL d   1      -5.992   0.402  -4.240  0.00  0.00     0.048 A 
ATOM      4  C3  UNL d   1      -5.994   0.546  -2.854  0.00  0.00     0.023 A 
ATOM      5  C4  UNL d   1      -5.999   1.817  -2.276  0.00  0.00     0.048 A 
ATOM      6  C5  UNL d   1      -5.999   2.948  -3.094  0.00  0.00     0.003 A 
ATOM      7  I   UNL d   1      -5.992  -1.140  -1.639  0.00  0.00    -0.146 I 
ENDROOT
TORSDOF 0
ENDMDL
