MODEL 1
REMARK minimizedAffinity 4.37963772
REMARK minimizedRMSD -1
REMARK  0 active torsions:
REMARK  status: ('A' for Active; 'I' for Inactive)
ROOT
ATOM      1  C   UNL d   1      -4.781  -1.269   0.346  0.00  0.00     0.023 A 
ATOM      2  C1  UNL d   1      -3.655  -2.022   0.678  0.00  0.00     0.003 A 
ATOM      3  C2  UNL d   1      -2.959  -1.755   1.859  0.00  0.00     0.048 A 
ATOM      4  C3  UNL d   1      -3.396  -0.734   2.703  0.00  0.00     0.023 A 
ATOM      5  C4  UNL d   1      -4.523   0.021   2.375  0.00  0.00     0.048 A 
ATOM      6  C5  UNL d   1      -5.215  -0.249   1.193  0.00  0.00     0.003 A 
ATOM      7  I   UNL d   1      -2.362  -0.335   4.462  0.00  0.00    -0.146 I 
ENDROOT
TORSDOF 0
ENDMDL
