MODEL 1
REMARK minimizedAffinity 1.8582139
REMARK minimizedRMSD -1
REMARK  0 active torsions:
REMARK  status: ('A' for Active; 'I' for Inactive)
ROOT
ATOM      1  C   UNL d   1       1.579   1.817   0.056  0.00  0.00     0.023 A 
ATOM      2  C1  UNL d   1       1.559   1.206  -1.198  0.00  0.00     0.003 A 
ATOM      3  C2  UNL d   1       1.398   1.978  -2.350  0.00  0.00     0.048 A 
ATOM      4  C3  UNL d   1       1.258   3.361  -2.241  0.00  0.00     0.023 A 
ATOM      5  C4  UNL d   1       1.278   3.977  -0.989  0.00  0.00     0.048 A 
ATOM      6  C5  UNL d   1       1.439   3.201   0.160  0.00  0.00     0.003 A 
ATOM      7  I   UNL d   1       1.019   4.513  -3.955  0.00  0.00    -0.146 I 
ENDROOT
TORSDOF 0
ENDMDL
