MODEL 1
REMARK minimizedAffinity 0.894814432
REMARK minimizedRMSD -1
REMARK  1 active torsions:
REMARK  status: ('A' for Active; 'I' for Inactive)
REMARK    1  A    between atoms: C1_2  and  C2_3 
ROOT
ATOM      1  C2  UNL d   1       0.410   0.248  -0.264  0.00  0.00    -0.073 A 
ATOM      2  C3  UNL d   1       0.318  -0.951   0.451  0.00  0.00    -0.002 A 
ATOM      3  C4  UNL d   1       0.618  -0.983   1.814  0.00  0.00     0.004 A 
ATOM      4  C5  UNL d   1       1.006   0.182   2.475  0.00  0.00    -0.004 A 
ATOM      5  C6  UNL d   1       1.093   1.392   1.780  0.00  0.00    -0.075 A 
ATOM      6  C7  UNL d   1       1.512   2.654   2.476  0.00  0.00     0.076 C 
ATOM      7  C8  UNL d   1       0.793   1.416   0.411  0.00  0.00     0.001 A 
ENDROOT
BRANCH   1   8
ATOM      8  C1  UNL d   1       0.081   0.289  -1.734  0.00  0.00     0.053 C 
ATOM      9  C   UNL d   1      -1.341  -0.170  -2.013  0.00  0.00     0.018 C 
ENDBRANCH   1   8
TORSDOF 1
ENDMDL
