MODEL 1
REMARK minimizedAffinity 4.30628443
REMARK minimizedRMSD -1
REMARK  1 active torsions:
REMARK  status: ('A' for Active; 'I' for Inactive)
REMARK    1  A    between atoms: C1_2  and  C2_3 
ROOT
ATOM      1  C2  UNL d   1       0.122   1.212   1.853  0.00  0.00    -0.073 A 
ATOM      2  C3  UNL d   1      -0.242   1.831   0.651  0.00  0.00    -0.002 A 
ATOM      3  C4  UNL d   1       0.162   3.139   0.382  0.00  0.00     0.004 A 
ATOM      4  C5  UNL d   1       0.937   3.839   1.306  0.00  0.00    -0.004 A 
ATOM      5  C6  UNL d   1       1.321   3.234   2.507  0.00  0.00    -0.075 A 
ATOM      6  C7  UNL d   1       2.153   3.973   3.513  0.00  0.00     0.076 C 
ATOM      7  C8  UNL d   1       0.910   1.920   2.771  0.00  0.00     0.001 A 
ENDROOT
BRANCH   1   8
ATOM      8  C1  UNL d   1      -0.306  -0.203   2.145  0.00  0.00     0.053 C 
ATOM      9  C   UNL d   1       0.769  -0.982   2.885  0.00  0.00     0.018 C 
ENDBRANCH   1   8
TORSDOF 1
ENDMDL
