MODEL 1
REMARK minimizedAffinity 12.9196434
REMARK minimizedRMSD -1
REMARK  1 active torsions:
REMARK  status: ('A' for Active; 'I' for Inactive)
REMARK    1  A    between atoms: C1_2  and  C2_3 
ROOT
ATOM      1  C2  UNL d   1       0.773   2.181   2.606  0.00  0.00    -0.073 A 
ATOM      2  C3  UNL d   1       1.665   2.404   3.662  0.00  0.00    -0.002 A 
ATOM      3  C4  UNL d   1       2.237   3.663   3.846  0.00  0.00     0.004 A 
ATOM      4  C5  UNL d   1       1.920   4.712   2.984  0.00  0.00    -0.004 A 
ATOM      5  C6  UNL d   1       1.021   4.512   1.931  0.00  0.00    -0.075 A 
ATOM      6  C7  UNL d   1       0.671   5.630   0.993  0.00  0.00     0.076 C 
ATOM      7  C8  UNL d   1       0.452   3.244   1.750  0.00  0.00     0.001 A 
ENDROOT
BRANCH   1   8
ATOM      8  C1  UNL d   1       0.147   0.825   2.407  0.00  0.00     0.053 C 
ATOM      9  C   UNL d   1       0.439   0.260   1.026  0.00  0.00     0.018 C 
ENDBRANCH   1   8
TORSDOF 1
ENDMDL
