MODEL 1
REMARK minimizedAffinity 3.96614265
REMARK minimizedRMSD -1
REMARK  1 active torsions:
REMARK  status: ('A' for Active; 'I' for Inactive)
REMARK    1  A    between atoms: C1_2  and  C2_3 
ROOT
ATOM      1  C2  UNL d   1       0.607   1.920   2.554  0.00  0.00    -0.073 A 
ATOM      2  C3  UNL d   1       1.624   2.638   3.194  0.00  0.00    -0.002 A 
ATOM      3  C4  UNL d   1       2.153   3.788   2.605  0.00  0.00     0.004 A 
ATOM      4  C5  UNL d   1       1.667   4.234   1.376  0.00  0.00    -0.004 A 
ATOM      5  C6  UNL d   1       0.643   3.537   0.727  0.00  0.00    -0.075 A 
ATOM      6  C7  UNL d   1       0.111   4.004  -0.596  0.00  0.00     0.076 C 
ATOM      7  C8  UNL d   1       0.119   2.382   1.323  0.00  0.00     0.001 A 
ENDROOT
BRANCH   1   8
ATOM      8  C1  UNL d   1       0.028   0.682   3.188  0.00  0.00     0.053 C 
ATOM      9  C   UNL d   1       0.657  -0.588   2.637  0.00  0.00     0.018 C 
ENDBRANCH   1   8
TORSDOF 1
ENDMDL
