MODEL 1
REMARK minimizedAffinity 7.95174074
REMARK minimizedRMSD -1
REMARK  1 active torsions:
REMARK  status: ('A' for Active; 'I' for Inactive)
REMARK    1  A    between atoms: C1_2  and  C2_3 
ROOT
ATOM      1  C2  UNL d   1       0.699   2.035   2.916  0.00  0.00    -0.073 A 
ATOM      2  C3  UNL d   1       1.767   2.311   3.777  0.00  0.00    -0.002 A 
ATOM      3  C4  UNL d   1       2.500   3.490   3.636  0.00  0.00     0.004 A 
ATOM      4  C5  UNL d   1       2.168   4.408   2.639  0.00  0.00    -0.004 A 
ATOM      5  C6  UNL d   1       1.096   4.155   1.776  0.00  0.00    -0.075 A 
ATOM      6  C7  UNL d   1       0.728   5.130   0.697  0.00  0.00     0.076 C 
ATOM      7  C8  UNL d   1       0.367   2.967   1.923  0.00  0.00     0.001 A 
ENDROOT
BRANCH   1   8
ATOM      8  C1  UNL d   1      -0.099   0.766   3.069  0.00  0.00     0.053 C 
ATOM      9  C   UNL d   1       0.782  -0.423   3.420  0.00  0.00     0.018 C 
ENDBRANCH   1   8
TORSDOF 1
ENDMDL
