MODEL 1
REMARK minimizedAffinity 8.47360516
REMARK minimizedRMSD -1
REMARK  1 active torsions:
REMARK  status: ('A' for Active; 'I' for Inactive)
REMARK    1  A    between atoms: C1_2  and  C2_3 
ROOT
ATOM      1  C2  UNL d   1       0.432   1.098   2.082  0.00  0.00    -0.073 A 
ATOM      2  C3  UNL d   1       1.258   0.002   2.355  0.00  0.00    -0.002 A 
ATOM      3  C4  UNL d   1       1.429  -1.006   1.406  0.00  0.00     0.004 A 
ATOM      4  C5  UNL d   1       0.782  -0.926   0.173  0.00  0.00    -0.004 A 
ATOM      5  C6  UNL d   1      -0.038   0.167  -0.124  0.00  0.00    -0.075 A 
ATOM      6  C7  UNL d   1      -0.743   0.267  -1.445  0.00  0.00     0.076 C 
ATOM      7  C8  UNL d   1      -0.207   1.174   0.836  0.00  0.00     0.001 A 
ENDROOT
BRANCH   1   8
ATOM      8  C1  UNL d   1       0.250   2.193   3.101  0.00  0.00     0.053 C 
ATOM      9  C   UNL d   1       1.550   2.927   3.388  0.00  0.00     0.018 C 
ENDBRANCH   1   8
TORSDOF 1
ENDMDL
