MODEL 1
REMARK minimizedAffinity -2.4191463
REMARK minimizedRMSD -1
REMARK  1 active torsions:
REMARK  status: ('A' for Active; 'I' for Inactive)
REMARK    1  A    between atoms: C1_2  and  C2_3 
ROOT
ATOM      1  C2  UNL d   1      -0.535   0.340  -0.152  0.00  0.00    -0.073 A 
ATOM      2  C3  UNL d   1      -0.486   1.630  -0.693  0.00  0.00    -0.002 A 
ATOM      3  C4  UNL d   1      -1.418   2.028  -1.653  0.00  0.00     0.004 A 
ATOM      4  C5  UNL d   1      -2.411   1.144  -2.076  0.00  0.00    -0.004 A 
ATOM      5  C6  UNL d   1      -2.484  -0.145  -1.538  0.00  0.00    -0.075 A 
ATOM      6  C7  UNL d   1      -3.544  -1.108  -1.984  0.00  0.00     0.076 C 
ATOM      7  C8  UNL d   1      -1.543  -0.538  -0.577  0.00  0.00     0.001 A 
ENDROOT
BRANCH   1   8
ATOM      8  C1  UNL d   1       0.465  -0.092   0.889  0.00  0.00     0.053 C 
ATOM      9  C   UNL d   1       0.005   0.251   2.297  0.00  0.00     0.018 C 
ENDBRANCH   1   8
TORSDOF 1
ENDMDL
