MODEL 1
REMARK minimizedAffinity -0.695249498
REMARK minimizedRMSD -1
REMARK  1 active torsions:
REMARK  status: ('A' for Active; 'I' for Inactive)
REMARK    1  A    between atoms: N_2  and  C1_3 
ROOT
ATOM      1  C1  UNL d   1       0.550   2.146   0.727  0.00  0.00     0.143 A 
ATOM      2  C2  UNL d   1       0.507   1.583  -0.553  0.00  0.00    -0.057 A 
ATOM      3  C3  UNL d   1       0.503   0.194  -0.736  0.00  0.00     0.033 A 
ATOM      4  C4  UNL d   1       0.572  -0.658   0.361  0.00  0.00    -0.042 A 
ATOM      5  C5  UNL d   1       0.641  -0.120   1.641  0.00  0.00     0.033 A 
ATOM      6  C6  UNL d   1       0.638   1.267   1.818  0.00  0.00    -0.057 A 
ENDROOT
BRANCH   1   7
ATOM      7  N   UNL d   1       0.656   3.517   0.970  0.00  0.00    -0.732 N 
ATOM      8  C   UNL d   1       0.788   4.452  -0.127  0.00  0.00     0.284 C 
ATOM      9  H3  UNL d   1       0.032   3.830   1.710  0.00  0.00     0.395 HD
ENDBRANCH   1   7
TORSDOF 1
ENDMDL
