MODEL 1
REMARK minimizedAffinity -0.206832156
REMARK minimizedRMSD -1
REMARK  1 active torsions:
REMARK  status: ('A' for Active; 'I' for Inactive)
REMARK    1  A    between atoms: N_2  and  C1_3 
ROOT
ATOM      1  C1  UNL d   1       0.669   0.918   1.478  0.00  0.00     0.143 A 
ATOM      2  C2  UNL d   1       0.926   2.111   2.162  0.00  0.00    -0.057 A 
ATOM      3  C3  UNL d   1       0.900   3.346   1.504  0.00  0.00     0.033 A 
ATOM      4  C4  UNL d   1       0.644   3.408   0.138  0.00  0.00    -0.042 A 
ATOM      5  C5  UNL d   1       0.411   2.233  -0.568  0.00  0.00     0.033 A 
ATOM      6  C6  UNL d   1       0.431   1.003   0.097  0.00  0.00    -0.057 A 
ENDROOT
BRANCH   1   7
ATOM      7  N   UNL d   1       0.777  -0.349   2.056  0.00  0.00    -0.732 N 
ATOM      8  C   UNL d   1       2.075  -0.942   2.295  0.00  0.00     0.284 C 
ATOM      9  H3  UNL d   1       0.110  -0.490   2.811  0.00  0.00     0.395 HD
ENDBRANCH   1   7
TORSDOF 1
ENDMDL
