MODEL 1
REMARK minimizedAffinity -3.11275315
REMARK minimizedRMSD -1
REMARK  1 active torsions:
REMARK  status: ('A' for Active; 'I' for Inactive)
REMARK    1  A    between atoms: N_2  and  C1_3 
ROOT
ATOM      1  C1  UNL d   1       0.360   2.617   0.614  0.00  0.00     0.143 A 
ATOM      2  C2  UNL d   1       0.473   1.362   0.007  0.00  0.00    -0.057 A 
ATOM      3  C3  UNL d   1       0.634   0.198   0.768  0.00  0.00     0.033 A 
ATOM      4  C4  UNL d   1       0.715   0.273   2.155  0.00  0.00    -0.042 A 
ATOM      5  C5  UNL d   1       0.630   1.512   2.779  0.00  0.00     0.033 A 
ATOM      6  C6  UNL d   1       0.463   2.670   2.013  0.00  0.00    -0.057 A 
ENDROOT
BRANCH   1   7
ATOM      7  N   UNL d   1       0.298   3.821  -0.092  0.00  0.00    -0.732 N 
ATOM      8  C   UNL d   1       1.491   4.608  -0.314  0.00  0.00     0.284 C 
ATOM      9  H3  UNL d   1      -0.320   3.766  -0.899  0.00  0.00     0.395 HD
ENDBRANCH   1   7
TORSDOF 1
ENDMDL
