MODEL 1
REMARK minimizedAffinity -4.41297579
REMARK minimizedRMSD -1
REMARK  1 active torsions:
REMARK  status: ('A' for Active; 'I' for Inactive)
REMARK    1  A    between atoms: C1_2  and  C2_3 
ROOT
ATOM      1  C2  UNL d   1      -0.007  -0.681   0.445  0.00  0.00    -0.077 A 
ATOM      2  C3  UNL d   1       0.709  -1.492   1.336  0.00  0.00     0.002 A 
ATOM      3  C4  UNL d   1       0.140  -1.881   2.550  0.00  0.00     0.002 A 
ATOM      4  C5  UNL d   1      -1.149  -1.467   2.882  0.00  0.00    -0.004 A 
ATOM      5  C6  UNL d   1      -1.868  -0.659   2.003  0.00  0.00     0.002 A 
ATOM      6  C7  UNL d   1      -1.301  -0.268   0.790  0.00  0.00     0.002 A 
ENDROOT
BRANCH   1   7
ATOM      7  C1  UNL d   1       0.586  -0.301  -0.887  0.00  0.00     0.055 C 
ATOM      8  C   UNL d   1       1.497  -1.397  -1.420  0.00  0.00     0.019 C 
ENDBRANCH   1   7
TORSDOF 1
ENDMDL
