MODEL 1
REMARK minimizedAffinity 3.59151673
REMARK minimizedRMSD -1
REMARK  1 active torsions:
REMARK  status: ('A' for Active; 'I' for Inactive)
REMARK    1  A    between atoms: C1_2  and  C2_3 
ROOT
ATOM      1  C2  UNL d   1      -1.408  -0.665   0.400  0.00  0.00    -0.077 A 
ATOM      2  C3  UNL d   1      -2.723  -1.134   0.528  0.00  0.00     0.002 A 
ATOM      3  C4  UNL d   1      -3.429  -0.939   1.717  0.00  0.00     0.002 A 
ATOM      4  C5  UNL d   1      -2.831  -0.272   2.783  0.00  0.00    -0.004 A 
ATOM      5  C6  UNL d   1      -1.523   0.197   2.666  0.00  0.00     0.002 A 
ATOM      6  C7  UNL d   1      -0.815   0.002   1.479  0.00  0.00     0.002 A 
ENDROOT
BRANCH   1   7
ATOM      7  C1  UNL d   1      -0.662  -0.831  -0.898  0.00  0.00     0.055 C 
ATOM      8  C   UNL d   1       0.841  -0.897  -0.668  0.00  0.00     0.019 C 
ENDBRANCH   1   7
TORSDOF 1
ENDMDL
