MODEL 1
REMARK minimizedAffinity -1.58626437
REMARK minimizedRMSD -1
REMARK  0 active torsions:
REMARK  status: ('A' for Active; 'I' for Inactive)
ROOT
ATOM      1  C2' OXE d   1      -1.147   0.831  -0.579  0.00  0.00     0.078 C 
ATOM      2  C1' OXE d   1       1.350   1.964   0.020  0.00  0.00     0.078 C 
ATOM      3  C1  OXE d   1       1.303   0.488  -0.289  0.00  0.00    -0.078 A 
ATOM      4  C2  OXE d   1       0.070  -0.067  -0.535  0.00  0.00    -0.078 A 
ATOM      5  C3  OXE d   1      -0.023  -1.412  -0.879  0.00  0.00     0.003 A 
ATOM      6  C4  OXE d   1       1.106  -2.238  -0.827  0.00  0.00    -0.002 A 
ATOM      7  C5  OXE d   1       2.365  -1.700  -0.539  0.00  0.00    -0.002 A 
ATOM      8  C6  OXE d   1       2.487  -0.334  -0.310  0.00  0.00     0.003 A 
ENDROOT
TORSDOF 0
ENDMDL
