MODEL 1
REMARK minimizedAffinity -6.33535242
REMARK minimizedRMSD -1
REMARK  0 active torsions:
REMARK  status: ('A' for Active; 'I' for Inactive)
ROOT
ATOM      1  C2' OXE d   1      -0.765   0.402  -0.057  0.00  0.00     0.078 C 
ATOM      2  C1' OXE d   1       0.080  -2.168  -0.805  0.00  0.00     0.078 C 
ATOM      3  C1  OXE d   1       1.094  -1.252  -0.167  0.00  0.00    -0.078 A 
ATOM      4  C2  OXE d   1       0.684   0.020   0.153  0.00  0.00    -0.078 A 
ATOM      5  C3  OXE d   1       1.564   0.887   0.794  0.00  0.00     0.003 A 
ATOM      6  C4  OXE d   1       2.906   0.530   0.975  0.00  0.00    -0.002 A 
ATOM      7  C5  OXE d   1       3.354  -0.747   0.620  0.00  0.00    -0.002 A 
ATOM      8  C6  OXE d   1       2.453  -1.662   0.088  0.00  0.00     0.003 A 
ENDROOT
TORSDOF 0
ENDMDL
