MODEL 1
REMARK minimizedAffinity -6.12344408
REMARK minimizedRMSD -1
REMARK  0 active torsions:
REMARK  status: ('A' for Active; 'I' for Inactive)
ROOT
ATOM      1  C2' OXE d   1      -0.223  -2.036  -1.670  0.00  0.00     0.078 C 
ATOM      2  C1' OXE d   1      -0.966   0.143  -0.063  0.00  0.00     0.078 C 
ATOM      3  C1  OXE d   1       0.399  -0.460   0.157  0.00  0.00    -0.078 A 
ATOM      4  C2  OXE d   1       0.736  -1.555  -0.602  0.00  0.00    -0.078 A 
ATOM      5  C3  OXE d   1       2.004  -2.116  -0.478  0.00  0.00     0.003 A 
ATOM      6  C4  OXE d   1       2.881  -1.672   0.519  0.00  0.00    -0.002 A 
ATOM      7  C5  OXE d   1       2.542  -0.583   1.329  0.00  0.00    -0.002 A 
ATOM      8  C6  OXE d   1       1.324   0.059   1.133  0.00  0.00     0.003 A 
ENDROOT
TORSDOF 0
ENDMDL
