MODEL 1
REMARK minimizedAffinity -3.10549116
REMARK minimizedRMSD -1
REMARK  0 active torsions:
REMARK  status: ('A' for Active; 'I' for Inactive)
ROOT
ATOM      1  C2' OXE d   1      -0.104  -2.266  -0.229  0.00  0.00     0.078 C 
ATOM      2  C1' OXE d   1       2.288  -1.718   1.134  0.00  0.00     0.078 C 
ATOM      3  C1  OXE d   1       1.481  -0.548   0.631  0.00  0.00    -0.078 A 
ATOM      4  C2  OXE d   1       0.336  -0.826  -0.076  0.00  0.00    -0.078 A 
ATOM      5  C3  OXE d   1      -0.475   0.217  -0.515  0.00  0.00     0.003 A 
ATOM      6  C4  OXE d   1      -0.056   1.546  -0.377  0.00  0.00    -0.002 A 
ATOM      7  C5  OXE d   1       1.127   1.850   0.305  0.00  0.00    -0.002 A 
ATOM      8  C6  OXE d   1       1.884   0.819   0.851  0.00  0.00     0.003 A 
ENDROOT
TORSDOF 0
ENDMDL
