MODEL 1
REMARK minimizedAffinity -5.50306845
REMARK minimizedRMSD -1
REMARK  0 active torsions:
REMARK  status: ('A' for Active; 'I' for Inactive)
ROOT
ATOM      1  C2' OXE d   1      -0.493  -2.366  -1.322  0.00  0.00     0.078 C 
ATOM      2  C1' OXE d   1      -1.064   0.218  -0.387  0.00  0.00     0.078 C 
ATOM      3  C1  OXE d   1       0.249  -0.403   0.020  0.00  0.00    -0.078 A 
ATOM      4  C2  OXE d   1       0.500  -1.686  -0.403  0.00  0.00    -0.078 A 
ATOM      5  C3  OXE d   1       1.719  -2.285  -0.102  0.00  0.00     0.003 A 
ATOM      6  C4  OXE d   1       2.627  -1.653   0.756  0.00  0.00    -0.002 A 
ATOM      7  C5  OXE d   1       2.374  -0.362   1.231  0.00  0.00    -0.002 A 
ATOM      8  C6  OXE d   1       1.211   0.293   0.839  0.00  0.00     0.003 A 
ENDROOT
TORSDOF 0
ENDMDL
