MODEL 1
REMARK minimizedAffinity -0.954101622
REMARK minimizedRMSD -1
REMARK  0 active torsions:
REMARK  status: ('A' for Active; 'I' for Inactive)
ROOT
ATOM      1  C2' OXE d   1      -1.154   2.432  -0.861  0.00  0.00     0.078 C 
ATOM      2  C1' OXE d   1      -0.688  -0.329  -0.653  0.00  0.00     0.078 C 
ATOM      3  C1  OXE d   1      -1.981   0.210  -0.095  0.00  0.00    -0.078 A 
ATOM      4  C2  OXE d   1      -2.180   1.568  -0.159  0.00  0.00    -0.078 A 
ATOM      5  C3  OXE d   1      -3.380   2.111   0.292  0.00  0.00     0.003 A 
ATOM      6  C4  OXE d   1      -4.319   1.307   0.949  0.00  0.00    -0.002 A 
ATOM      7  C5  OXE d   1      -4.118  -0.072   1.061  0.00  0.00    -0.002 A 
ATOM      8  C6  OXE d   1      -2.976  -0.642   0.507  0.00  0.00     0.003 A 
ENDROOT
TORSDOF 0
ENDMDL
