MODEL 1
REMARK minimizedAffinity -3.72301674
REMARK minimizedRMSD -1
REMARK  0 active torsions:
REMARK  status: ('A' for Active; 'I' for Inactive)
ROOT
ATOM      1  C2' OXE d   1      -1.774   1.566  -0.494  0.00  0.00     0.078 C 
ATOM      2  C1' OXE d   1      -1.417  -1.211  -0.294  0.00  0.00     0.078 C 
ATOM      3  C1  OXE d   1      -0.226  -0.327  -0.019  0.00  0.00    -0.078 A 
ATOM      4  C2  OXE d   1      -0.398   1.029  -0.165  0.00  0.00    -0.078 A 
ATOM      5  C3  OXE d   1       0.653   1.893   0.129  0.00  0.00     0.003 A 
ATOM      6  C4  OXE d   1       1.925   1.387   0.422  0.00  0.00    -0.002 A 
ATOM      7  C5  OXE d   1       2.132   0.008   0.537  0.00  0.00    -0.002 A 
ATOM      8  C6  OXE d   1       1.059  -0.859   0.361  0.00  0.00     0.003 A 
ENDROOT
TORSDOF 0
ENDMDL
