MODEL 1
REMARK minimizedAffinity -2.21120524
REMARK minimizedRMSD -1
REMARK  0 active torsions:
REMARK  status: ('A' for Active; 'I' for Inactive)
ROOT
ATOM      1  C1  BNZ d   1       1.963   0.143   3.089  0.00  0.00     0.000 A 
ATOM      2  C2  BNZ d   1       2.683  -0.906   2.582  0.00  0.00     0.000 A 
ATOM      3  C3  BNZ d   1       2.059  -1.935   1.934  0.00  0.00     0.000 A 
ATOM      4  C4  BNZ d   1       0.714  -1.934   1.829  0.00  0.00     0.000 A 
ATOM      5  C5  BNZ d   1      -0.027  -0.889   2.343  0.00  0.00     0.000 A 
ATOM      6  C6  BNZ d   1       0.608   0.165   2.960  0.00  0.00     0.000 A 
ENDROOT
TORSDOF 0
ENDMDL
