MODEL 1
REMARK minimizedAffinity 1.21401858
REMARK minimizedRMSD -1
REMARK  0 active torsions:
REMARK  status: ('A' for Active; 'I' for Inactive)
ROOT
ATOM      1  C1  BNZ d   1      -1.054  -1.234   2.305  0.00  0.00     0.000 A 
ATOM      2  C2  BNZ d   1      -0.134  -1.813   1.473  0.00  0.00     0.000 A 
ATOM      3  C3  BNZ d   1       1.196  -1.518   1.586  0.00  0.00     0.000 A 
ATOM      4  C4  BNZ d   1       1.598  -0.614   2.503  0.00  0.00     0.000 A 
ATOM      5  C5  BNZ d   1       0.682  -0.015   3.343  0.00  0.00     0.000 A 
ATOM      6  C6  BNZ d   1      -0.651  -0.344   3.252  0.00  0.00     0.000 A 
ENDROOT
TORSDOF 0
ENDMDL
