MODEL 1
REMARK minimizedAffinity -0.324357271
REMARK minimizedRMSD -1
REMARK  0 active torsions:
REMARK  status: ('A' for Active; 'I' for Inactive)
ROOT
ATOM      1  C1  BNZ d   1      -1.167  -0.913   2.083  0.00  0.00     0.000 A 
ATOM      2  C2  BNZ d   1      -0.891  -0.658   0.766  0.00  0.00     0.000 A 
ATOM      3  C3  BNZ d   1       0.391  -0.710   0.296  0.00  0.00     0.000 A 
ATOM      4  C4  BNZ d   1       1.400  -0.979   1.150  0.00  0.00     0.000 A 
ATOM      5  C5  BNZ d   1       1.139  -1.229   2.483  0.00  0.00     0.000 A 
ATOM      6  C6  BNZ d   1      -0.157  -1.214   2.945  0.00  0.00     0.000 A 
ENDROOT
TORSDOF 0
ENDMDL
