MODEL 1
REMARK minimizedAffinity 3.84427166
REMARK minimizedRMSD -1
REMARK  0 active torsions:
REMARK  status: ('A' for Active; 'I' for Inactive)
ROOT
ATOM      1  C1  BNZ d   1       0.999  -0.690   0.811  0.00  0.00     0.000 A 
ATOM      2  C2  BNZ d   1       0.299  -0.643   1.987  0.00  0.00     0.000 A 
ATOM      3  C3  BNZ d   1       0.747  -1.306   3.095  0.00  0.00     0.000 A 
ATOM      4  C4  BNZ d   1       1.872  -2.046   3.016  0.00  0.00     0.000 A 
ATOM      5  C5  BNZ d   1       2.584  -2.111   1.835  0.00  0.00     0.000 A 
ATOM      6  C6  BNZ d   1       2.151  -1.411   0.732  0.00  0.00     0.000 A 
ENDROOT
TORSDOF 0
ENDMDL
