MODEL 1
REMARK minimizedAffinity 1.61809254
REMARK minimizedRMSD -1
REMARK  0 active torsions:
REMARK  status: ('A' for Active; 'I' for Inactive)
ROOT
ATOM      1  C1  BNZ d   1       0.802  -1.107   1.624  0.00  0.00     0.000 A 
ATOM      2  C2  BNZ d   1       1.477  -1.486   0.494  0.00  0.00     0.000 A 
ATOM      3  C3  BNZ d   1       2.555  -2.323   0.571  0.00  0.00     0.000 A 
ATOM      4  C4  BNZ d   1       2.982  -2.747   1.778  0.00  0.00     0.000 A 
ATOM      5  C5  BNZ d   1       2.318  -2.366   2.927  0.00  0.00     0.000 A 
ATOM      6  C6  BNZ d   1       1.209  -1.555   2.843  0.00  0.00     0.000 A 
ENDROOT
TORSDOF 0
ENDMDL
