MODEL 1
REMARK minimizedAffinity 6.89466429
REMARK minimizedRMSD -1
REMARK  0 active torsions:
REMARK  status: ('A' for Active; 'I' for Inactive)
ROOT
ATOM      1  C1  BNZ d   1      -0.910  -1.643   1.285  0.00  0.00     0.000 A 
ATOM      2  C2  BNZ d   1       0.362  -2.001   1.645  0.00  0.00     0.000 A 
ATOM      3  C3  BNZ d   1       0.909  -1.558   2.817  0.00  0.00     0.000 A 
ATOM      4  C4  BNZ d   1       0.200  -0.726   3.606  0.00  0.00     0.000 A 
ATOM      5  C5  BNZ d   1      -1.080  -0.349   3.253  0.00  0.00     0.000 A 
ATOM      6  C6  BNZ d   1      -1.642  -0.828   2.092  0.00  0.00     0.000 A 
ENDROOT
TORSDOF 0
ENDMDL
