MODEL 1
REMARK minimizedAffinity 4.1829319
REMARK minimizedRMSD -1
REMARK  0 active torsions:
REMARK  status: ('A' for Active; 'I' for Inactive)
ROOT
ATOM      1  C1  BNZ d   1       2.574  -1.140   3.470  0.00  0.00     0.000 A 
ATOM      2  C2  BNZ d   1       3.426  -1.782   2.611  0.00  0.00     0.000 A 
ATOM      3  C3  BNZ d   1       3.023  -2.121   1.350  0.00  0.00     0.000 A 
ATOM      4  C4  BNZ d   1       1.758  -1.856   0.964  0.00  0.00     0.000 A 
ATOM      5  C5  BNZ d   1       0.885  -1.218   1.822  0.00  0.00     0.000 A 
ATOM      6  C6  BNZ d   1       1.306  -0.843   3.077  0.00  0.00     0.000 A 
ENDROOT
TORSDOF 0
ENDMDL
