MODEL 1
REMARK minimizedAffinity -0.721528411
REMARK minimizedRMSD -1
REMARK  0 active torsions:
REMARK  status: ('A' for Active; 'I' for Inactive)
ROOT
ATOM      1  C2' OXE d   1       0.757  -0.872  -0.754  0.00  0.00     0.078 C 
ATOM      2  C1' OXE d   1       0.725   1.919  -1.061  0.00  0.00     0.078 C 
ATOM      3  C1  OXE d   1       0.226   1.349   0.243  0.00  0.00    -0.078 A 
ATOM      4  C2  OXE d   1       0.202  -0.020   0.367  0.00  0.00    -0.078 A 
ATOM      5  C3  OXE d   1      -0.198  -0.596   1.569  0.00  0.00     0.003 A 
ATOM      6  C4  OXE d   1      -0.720   0.199   2.597  0.00  0.00    -0.002 A 
ATOM      7  C5  OXE d   1      -0.741   1.592   2.476  0.00  0.00    -0.002 A 
ATOM      8  C6  OXE d   1      -0.233   2.184   1.325  0.00  0.00     0.003 A 
ENDROOT
TORSDOF 0
ENDMDL
