MODEL 1
REMARK minimizedAffinity -5.16213608
REMARK minimizedRMSD -1
REMARK  0 active torsions:
REMARK  status: ('A' for Active; 'I' for Inactive)
ROOT
ATOM      1  C2' OXE d   1      -0.576  -0.669   1.898  0.00  0.00     0.078 C 
ATOM      2  C1' OXE d   1       0.768  -0.440  -0.556  0.00  0.00     0.078 C 
ATOM      3  C1  OXE d   1       0.285   0.828   0.103  0.00  0.00    -0.078 A 
ATOM      4  C2  OXE d   1      -0.412   0.703   1.280  0.00  0.00    -0.078 A 
ATOM      5  C3  OXE d   1      -0.832   1.845   1.957  0.00  0.00     0.003 A 
ATOM      6  C4  OXE d   1      -0.686   3.109   1.373  0.00  0.00    -0.002 A 
ATOM      7  C5  OXE d   1      -0.014   3.255   0.155  0.00  0.00    -0.002 A 
ATOM      8  C6  OXE d   1       0.514   2.131  -0.471  0.00  0.00     0.003 A 
ENDROOT
TORSDOF 0
ENDMDL
