MODEL 1
REMARK minimizedAffinity -2.21078205
REMARK minimizedRMSD -1
REMARK  0 active torsions:
REMARK  status: ('A' for Active; 'I' for Inactive)
ROOT
ATOM      1  C2' OXE d   1       1.433  -0.046  -1.214  0.00  0.00     0.078 C 
ATOM      2  C1' OXE d   1       0.272   2.492  -0.916  0.00  0.00     0.078 C 
ATOM      3  C1  OXE d   1       0.014   1.469   0.163  0.00  0.00    -0.078 A 
ATOM      4  C2  OXE d   1       0.548   0.215  -0.015  0.00  0.00    -0.078 A 
ATOM      5  C3  OXE d   1       0.387  -0.749   0.976  0.00  0.00     0.003 A 
ATOM      6  C4  OXE d   1      -0.442  -0.502   2.077  0.00  0.00    -0.002 A 
ATOM      7  C5  OXE d   1      -1.027   0.756   2.257  0.00  0.00    -0.002 A 
ATOM      8  C6  OXE d   1      -0.775   1.763   1.333  0.00  0.00     0.003 A 
ENDROOT
TORSDOF 0
ENDMDL
