MODEL 1
REMARK minimizedAffinity -3.93643093
REMARK minimizedRMSD -1
REMARK  0 active torsions:
REMARK  status: ('A' for Active; 'I' for Inactive)
ROOT
ATOM      1  C2' OXE d   1       0.775   2.997  -1.068  0.00  0.00     0.078 C 
ATOM      2  C1' OXE d   1      -0.673   3.719   1.225  0.00  0.00     0.078 C 
ATOM      3  C1  OXE d   1      -0.349   2.259   1.029  0.00  0.00    -0.078 A 
ATOM      4  C2  OXE d   1       0.320   1.909  -0.119  0.00  0.00    -0.078 A 
ATOM      5  C3  OXE d   1       0.692   0.583  -0.323  0.00  0.00     0.003 A 
ATOM      6  C4  OXE d   1       0.259  -0.418   0.554  0.00  0.00    -0.002 A 
ATOM      7  C5  OXE d   1      -0.458  -0.087   1.710  0.00  0.00    -0.002 A 
ATOM      8  C6  OXE d   1      -0.732   1.248   1.983  0.00  0.00     0.003 A 
ENDROOT
TORSDOF 0
ENDMDL
