MODEL 1
REMARK minimizedAffinity -1.87720025
REMARK minimizedRMSD -1
REMARK  0 active torsions:
REMARK  status: ('A' for Active; 'I' for Inactive)
ROOT
ATOM      1  C2' OXE d   1       2.055   0.527  -1.185  0.00  0.00     0.078 C 
ATOM      2  C1' OXE d   1       0.871  -1.992  -1.548  0.00  0.00     0.078 C 
ATOM      3  C1  OXE d   1       0.464  -1.192  -0.337  0.00  0.00    -0.078 A 
ATOM      4  C2  OXE d   1       1.083   0.020  -0.142  0.00  0.00    -0.078 A 
ATOM      5  C3  OXE d   1       0.704   0.823   0.930  0.00  0.00     0.003 A 
ATOM      6  C4  OXE d   1      -0.189   0.342   1.896  0.00  0.00    -0.002 A 
ATOM      7  C5  OXE d   1      -0.801  -0.906   1.737  0.00  0.00    -0.002 A 
ATOM      8  C6  OXE d   1      -0.519  -1.665   0.607  0.00  0.00     0.003 A 
ENDROOT
TORSDOF 0
ENDMDL
