MODEL 1
REMARK minimizedAffinity -4.86163712
REMARK minimizedRMSD -1
REMARK  0 active torsions:
REMARK  status: ('A' for Active; 'I' for Inactive)
ROOT
ATOM      1  C2' OXE d   1       0.581  -0.374  -0.165  0.00  0.00     0.078 C 
ATOM      2  C1' OXE d   1      -0.738  -0.436   2.312  0.00  0.00     0.078 C 
ATOM      3  C1  OXE d   1      -0.413   0.914   1.722  0.00  0.00    -0.078 A 
ATOM      4  C2  OXE d   1       0.274   0.934   0.532  0.00  0.00    -0.078 A 
ATOM      5  C3  OXE d   1       0.551   2.151  -0.083  0.00  0.00     0.003 A 
ATOM      6  C4  OXE d   1       0.274   3.357   0.573  0.00  0.00    -0.002 A 
ATOM      7  C5  OXE d   1      -0.390   3.358   1.804  0.00  0.00    -0.002 A 
ATOM      8  C6  OXE d   1      -0.777   2.149   2.371  0.00  0.00     0.003 A 
ENDROOT
TORSDOF 0
ENDMDL
