MODEL 1
REMARK minimizedAffinity -2.57300806
REMARK minimizedRMSD -1
REMARK  0 active torsions:
REMARK  status: ('A' for Active; 'I' for Inactive)
ROOT
ATOM      1  C2' OXE d   1      -0.354  -0.461   1.395  0.00  0.00     0.078 C 
ATOM      2  C1' OXE d   1       0.553   0.830  -0.927  0.00  0.00     0.078 C 
ATOM      3  C1  OXE d   1       0.111  -0.607  -1.048  0.00  0.00    -0.078 A 
ATOM      4  C2  OXE d   1      -0.287  -1.245   0.102  0.00  0.00    -0.078 A 
ATOM      5  C3  OXE d   1      -0.756  -2.554   0.037  0.00  0.00     0.003 A 
ATOM      6  C4  OXE d   1      -0.682  -3.275  -1.161  0.00  0.00    -0.002 A 
ATOM      7  C5  OXE d   1      -0.242  -2.656  -2.336  0.00  0.00    -0.002 A 
ATOM      8  C6  OXE d   1       0.117  -1.313  -2.305  0.00  0.00     0.003 A 
ENDROOT
TORSDOF 0
ENDMDL
