MODEL 1
REMARK minimizedAffinity -3.56335855
REMARK minimizedRMSD -1
REMARK  0 active torsions:
REMARK  status: ('A' for Active; 'I' for Inactive)
ROOT
ATOM      1  C2' OXE d   1       0.838  -0.754  -0.736  0.00  0.00     0.078 C 
ATOM      2  C1' OXE d   1      -0.022   1.915  -0.861  0.00  0.00     0.078 C 
ATOM      3  C1  OXE d   1      -0.352   1.127   0.381  0.00  0.00    -0.078 A 
ATOM      4  C2  OXE d   1       0.031  -0.192   0.414  0.00  0.00    -0.078 A 
ATOM      5  C3  OXE d   1      -0.200  -0.949   1.559  0.00  0.00     0.003 A 
ATOM      6  C4  OXE d   1      -0.956  -0.424   2.615  0.00  0.00    -0.002 A 
ATOM      7  C5  OXE d   1      -1.391   0.905   2.585  0.00  0.00    -0.002 A 
ATOM      8  C6  OXE d   1      -1.061   1.705   1.496  0.00  0.00     0.003 A 
ENDROOT
TORSDOF 0
ENDMDL
