MODEL 1
REMARK minimizedAffinity -1.90539145
REMARK minimizedRMSD -1
REMARK  0 active torsions:
REMARK  status: ('A' for Active; 'I' for Inactive)
ROOT
ATOM      1  C2' OXE d   1       0.245   1.505   4.064  0.00  0.00     0.078 C 
ATOM      2  C1' OXE d   1       1.155  -0.929   3.002  0.00  0.00     0.078 C 
ATOM      3  C1  OXE d   1      -0.100  -0.331   2.416  0.00  0.00    -0.078 A 
ATOM      4  C2  OXE d   1      -0.563   0.837   2.973  0.00  0.00    -0.078 A 
ATOM      5  C3  OXE d   1      -1.686   1.460   2.434  0.00  0.00     0.003 A 
ATOM      6  C4  OXE d   1      -2.433   0.830   1.432  0.00  0.00    -0.002 A 
ATOM      7  C5  OXE d   1      -2.001  -0.380   0.878  0.00  0.00    -0.002 A 
ATOM      8  C6  OXE d   1      -0.815  -0.950   1.328  0.00  0.00     0.003 A 
ENDROOT
TORSDOF 0
ENDMDL
