MODEL 1
REMARK minimizedAffinity 5.01225853
REMARK minimizedRMSD -1
REMARK  0 active torsions:
REMARK  status: ('A' for Active; 'I' for Inactive)
ROOT
ATOM      1  C2' OXE d   1      -0.323   0.315  -1.144  0.00  0.00     0.078 C 
ATOM      2  C1' OXE d   1       1.425  -1.589  -0.048  0.00  0.00     0.078 C 
ATOM      3  C1  OXE d   1       0.531  -0.828   0.898  0.00  0.00    -0.078 A 
ATOM      4  C2  OXE d   1      -0.287   0.135   0.359  0.00  0.00    -0.078 A 
ATOM      5  C3  OXE d   1      -1.171   0.828   1.181  0.00  0.00     0.003 A 
ATOM      6  C4  OXE d   1      -1.125   0.663   2.570  0.00  0.00    -0.002 A 
ATOM      7  C5  OXE d   1      -0.271  -0.284   3.144  0.00  0.00    -0.002 A 
ATOM      8  C6  OXE d   1       0.531  -1.066   2.321  0.00  0.00     0.003 A 
ENDROOT
TORSDOF 0
ENDMDL
