MODEL 1
REMARK minimizedAffinity -3.25573087
REMARK minimizedRMSD -1
REMARK  0 active torsions:
REMARK  status: ('A' for Active; 'I' for Inactive)
ROOT
ATOM      1  C2' OXE d   1       1.240  -0.405  -1.164  0.00  0.00     0.078 C 
ATOM      2  C1' OXE d   1       0.305   2.227  -1.446  0.00  0.00     0.078 C 
ATOM      3  C1  OXE d   1      -0.072   1.477  -0.192  0.00  0.00    -0.078 A 
ATOM      4  C2  OXE d   1       0.351   0.174  -0.084  0.00  0.00    -0.078 A 
ATOM      5  C3  OXE d   1       0.077  -0.545   1.075  0.00  0.00     0.003 A 
ATOM      6  C4  OXE d   1      -0.754  -0.006   2.065  0.00  0.00    -0.002 A 
ATOM      7  C5  OXE d   1      -1.228   1.305   1.956  0.00  0.00    -0.002 A 
ATOM      8  C6  OXE d   1      -0.862   2.073   0.856  0.00  0.00     0.003 A 
ENDROOT
TORSDOF 0
ENDMDL
