MODEL 1
REMARK minimizedAffinity -4.18621206
REMARK minimizedRMSD -1
REMARK  0 active torsions:
REMARK  status: ('A' for Active; 'I' for Inactive)
ROOT
ATOM      1  C2' OXE d   1       1.215  -3.177  -1.905  0.00  0.00     0.078 C 
ATOM      2  C1' OXE d   1      -0.250  -1.318  -3.414  0.00  0.00     0.078 C 
ATOM      3  C1  OXE d   1       0.202  -0.905  -2.036  0.00  0.00    -0.078 A 
ATOM      4  C2  OXE d   1       0.878  -1.838  -1.286  0.00  0.00    -0.078 A 
ATOM      5  C3  OXE d   1       1.365  -1.490  -0.029  0.00  0.00     0.003 A 
ATOM      6  C4  OXE d   1       1.040  -0.253   0.540  0.00  0.00    -0.002 A 
ATOM      7  C5  OXE d   1       0.319   0.697  -0.191  0.00  0.00    -0.002 A 
ATOM      8  C6  OXE d   1      -0.070   0.403  -1.493  0.00  0.00     0.003 A 
ENDROOT
TORSDOF 0
ENDMDL
