MODEL 1
REMARK minimizedAffinity -2.85016513
REMARK minimizedRMSD -1
REMARK  0 active torsions:
REMARK  status: ('A' for Active; 'I' for Inactive)
ROOT
ATOM      1  C2' OXE d   1       0.675   0.766  -1.799  0.00  0.00     0.078 C 
ATOM      2  C1' OXE d   1       1.397  -1.161   0.109  0.00  0.00     0.078 C 
ATOM      3  C1  OXE d   1       0.871  -1.648  -1.218  0.00  0.00    -0.078 A 
ATOM      4  C2  OXE d   1       0.476  -0.697  -2.128  0.00  0.00    -0.078 A 
ATOM      5  C3  OXE d   1       0.034  -1.091  -3.388  0.00  0.00     0.003 A 
ATOM      6  C4  OXE d   1      -0.156  -2.447  -3.681  0.00  0.00    -0.002 A 
ATOM      7  C5  OXE d   1       0.203  -3.431  -2.753  0.00  0.00    -0.002 A 
ATOM      8  C6  OXE d   1       0.756  -3.050  -1.536  0.00  0.00     0.003 A 
ENDROOT
TORSDOF 0
ENDMDL
