MODEL 1
REMARK minimizedAffinity 3.81693792
REMARK minimizedRMSD -1
REMARK  0 active torsions:
REMARK  status: ('A' for Active; 'I' for Inactive)
ROOT
ATOM      1  C2' OXE d   1      -0.340  -0.007  -2.905  0.00  0.00     0.078 C 
ATOM      2  C1' OXE d   1       1.111   2.131  -1.808  0.00  0.00     0.078 C 
ATOM      3  C1  OXE d   1       0.688   1.018  -0.881  0.00  0.00    -0.078 A 
ATOM      4  C2  OXE d   1      -0.061  -0.001  -1.418  0.00  0.00    -0.078 A 
ATOM      5  C3  OXE d   1      -0.431  -1.079  -0.619  0.00  0.00     0.003 A 
ATOM      6  C4  OXE d   1      -0.178  -1.060   0.758  0.00  0.00    -0.002 A 
ATOM      7  C5  OXE d   1       0.550  -0.013   1.332  0.00  0.00    -0.002 A 
ATOM      8  C6  OXE d   1       1.026   1.011   0.521  0.00  0.00     0.003 A 
ENDROOT
TORSDOF 0
ENDMDL
