MODEL 1
REMARK minimizedAffinity -2.77900243
REMARK minimizedRMSD -1
REMARK  0 active torsions:
REMARK  status: ('A' for Active; 'I' for Inactive)
ROOT
ATOM      1  C2' OXE d   1      -0.203  -0.726   1.724  0.00  0.00     0.078 C 
ATOM      2  C1' OXE d   1      -1.082   1.940   1.694  0.00  0.00     0.078 C 
ATOM      3  C1  OXE d   1      -0.305   1.442   0.501  0.00  0.00    -0.078 A 
ATOM      4  C2  OXE d   1       0.162   0.150   0.545  0.00  0.00    -0.078 A 
ATOM      5  C3  OXE d   1       0.837  -0.377  -0.552  0.00  0.00     0.003 A 
ATOM      6  C4  OXE d   1       1.179   0.443  -1.635  0.00  0.00    -0.002 A 
ATOM      7  C5  OXE d   1       0.748   1.773  -1.681  0.00  0.00    -0.002 A 
ATOM      8  C6  OXE d   1      -0.029   2.275  -0.643  0.00  0.00     0.003 A 
ENDROOT
TORSDOF 0
ENDMDL
