MODEL 1
REMARK minimizedAffinity -3.25930071
REMARK minimizedRMSD -1
REMARK  0 active torsions:
REMARK  status: ('A' for Active; 'I' for Inactive)
ROOT
ATOM      1  C2' OXE d   1       0.332  -0.881   1.848  0.00  0.00     0.078 C 
ATOM      2  C1' OXE d   1      -0.485   1.206   0.158  0.00  0.00     0.078 C 
ATOM      3  C1  OXE d   1      -0.485  -0.194  -0.403  0.00  0.00    -0.078 A 
ATOM      4  C2  OXE d   1      -0.039  -1.203   0.417  0.00  0.00    -0.078 A 
ATOM      5  C3  OXE d   1      -0.070  -2.520  -0.032  0.00  0.00     0.003 A 
ATOM      6  C4  OXE d   1      -0.406  -2.809  -1.360  0.00  0.00    -0.002 A 
ATOM      7  C5  OXE d   1      -0.825  -1.791  -2.224  0.00  0.00    -0.002 A 
ATOM      8  C6  OXE d   1      -0.911  -0.487  -1.749  0.00  0.00     0.003 A 
ENDROOT
TORSDOF 0
ENDMDL
