MODEL 1
REMARK minimizedAffinity 3.0819695
REMARK minimizedRMSD -1
REMARK  1 active torsions:
REMARK  status: ('A' for Active; 'I' for Inactive)
REMARK    1  A    between atoms: C1_2  and  C2_3 
ROOT
ATOM      1  C2  UNL d   1       0.514  -1.524   1.219  0.00  0.00    -0.077 A 
ATOM      2  C3  UNL d   1       1.076  -0.971   2.378  0.00  0.00     0.002 A 
ATOM      3  C4  UNL d   1       0.259  -0.396   3.354  0.00  0.00     0.002 A 
ATOM      4  C5  UNL d   1      -1.123  -0.374   3.183  0.00  0.00    -0.004 A 
ATOM      5  C6  UNL d   1      -1.691  -0.920   2.033  0.00  0.00     0.002 A 
ATOM      6  C7  UNL d   1      -0.877  -1.493   1.056  0.00  0.00     0.002 A 
ENDROOT
BRANCH   1   7
ATOM      7  C1  UNL d   1       1.389  -2.188   0.188  0.00  0.00     0.055 C 
ATOM      8  C   UNL d   1       1.821  -3.576   0.640  0.00  0.00     0.019 C 
ENDBRANCH   1   7
TORSDOF 1
ENDMDL
