MODEL 1
REMARK minimizedAffinity 5.78282356
REMARK minimizedRMSD -1
REMARK  1 active torsions:
REMARK  status: ('A' for Active; 'I' for Inactive)
REMARK    1  A    between atoms: C1_2  and  C2_3 
ROOT
ATOM      1  C2  UNL d   1       3.421   5.948   4.063  0.00  0.00    -0.077 A 
ATOM      2  C3  UNL d   1       4.549   5.952   3.230  0.00  0.00     0.002 A 
ATOM      3  C4  UNL d   1       5.832   5.980   3.779  0.00  0.00     0.002 A 
ATOM      4  C5  UNL d   1       6.000   5.999   5.162  0.00  0.00    -0.004 A 
ATOM      5  C6  UNL d   1       4.885   5.997   5.999  0.00  0.00     0.002 A 
ATOM      6  C7  UNL d   1       3.601   5.971   5.452  0.00  0.00     0.002 A 
ENDROOT
BRANCH   1   7
ATOM      7  C1  UNL d   1       2.037   5.869   3.474  0.00  0.00     0.055 C 
ATOM      8  C   UNL d   1       1.425   4.491   3.682  0.00  0.00     0.019 C 
ENDBRANCH   1   7
TORSDOF 1
ENDMDL
