MODEL 1
REMARK minimizedAffinity -4.13895321
REMARK minimizedRMSD -1
REMARK  1 active torsions:
REMARK  status: ('A' for Active; 'I' for Inactive)
REMARK    1  A    between atoms: C1_2  and  C2_3 
ROOT
ATOM      1  C2  UNL d   1       2.021   5.252   4.320  0.00  0.00    -0.077 A 
ATOM      2  C3  UNL d   1       1.159   4.500   3.510  0.00  0.00     0.002 A 
ATOM      3  C4  UNL d   1      -0.216   4.498   3.754  0.00  0.00     0.002 A 
ATOM      4  C5  UNL d   1      -0.740   5.248   4.804  0.00  0.00    -0.004 A 
ATOM      5  C6  UNL d   1       0.110   5.997   5.617  0.00  0.00     0.002 A 
ATOM      6  C7  UNL d   1       1.484   6.000   5.375  0.00  0.00     0.002 A 
ENDROOT
BRANCH   1   7
ATOM      7  C1  UNL d   1       3.499   5.295   4.028  0.00  0.00     0.055 C 
ATOM      8  C   UNL d   1       4.315   4.875   5.242  0.00  0.00     0.019 C 
ENDBRANCH   1   7
TORSDOF 1
ENDMDL
