MODEL 1
REMARK minimizedAffinity 0.186252519
REMARK minimizedRMSD -1
REMARK  1 active torsions:
REMARK  status: ('A' for Active; 'I' for Inactive)
REMARK    1  A    between atoms: C1_2  and  C2_3 
ROOT
ATOM      1  C2  UNL d   1       3.202   5.294   4.819  0.00  0.00    -0.077 A 
ATOM      2  C3  UNL d   1       3.813   5.909   5.921  0.00  0.00     0.002 A 
ATOM      3  C4  UNL d   1       5.204   5.997   6.000  0.00  0.00     0.002 A 
ATOM      4  C5  UNL d   1       5.996   5.475   4.979  0.00  0.00    -0.004 A 
ATOM      5  C6  UNL d   1       5.398   4.859   3.880  0.00  0.00     0.002 A 
ATOM      6  C7  UNL d   1       4.008   4.770   3.800  0.00  0.00     0.002 A 
ENDROOT
BRANCH   1   7
ATOM      7  C1  UNL d   1       1.701   5.242   4.709  0.00  0.00     0.055 C 
ATOM      8  C   UNL d   1       1.254   4.159   3.738  0.00  0.00     0.019 C 
ENDBRANCH   1   7
TORSDOF 1
ENDMDL
