MODEL 1
REMARK minimizedAffinity 7.10528708
REMARK minimizedRMSD -1
REMARK  1 active torsions:
REMARK  status: ('A' for Active; 'I' for Inactive)
REMARK    1  A    between atoms: C1_2  and  C2_3 
ROOT
ATOM      1  C2  UNL d   1       3.550   4.552   4.729  0.00  0.00    -0.077 A 
ATOM      2  C3  UNL d   1       3.882   5.259   5.893  0.00  0.00     0.002 A 
ATOM      3  C4  UNL d   1       5.100   5.936   5.985  0.00  0.00     0.002 A 
ATOM      4  C5  UNL d   1       5.992   5.916   4.915  0.00  0.00    -0.004 A 
ATOM      5  C6  UNL d   1       5.672   5.214   3.754  0.00  0.00     0.002 A 
ATOM      6  C7  UNL d   1       4.456   4.535   3.661  0.00  0.00     0.002 A 
ENDROOT
BRANCH   1   7
ATOM      7  C1  UNL d   1       2.216   3.862   4.610  0.00  0.00     0.055 C 
ATOM      8  C   UNL d   1       1.734   3.836   3.167  0.00  0.00     0.019 C 
ENDBRANCH   1   7
TORSDOF 1
ENDMDL
