MODEL 1
REMARK minimizedAffinity 13.5618038
REMARK minimizedRMSD -1
REMARK  1 active torsions:
REMARK  status: ('A' for Active; 'I' for Inactive)
REMARK    1  A    between atoms: C1_2  and  C2_3 
ROOT
ATOM      1  C2  UNL d   1      -4.483   2.316  -4.564  0.00  0.00    -0.077 A 
ATOM      2  C3  UNL d   1      -3.532   3.262  -4.158  0.00  0.00     0.002 A 
ATOM      3  C4  UNL d   1      -3.655   4.598  -4.545  0.00  0.00     0.002 A 
ATOM      4  C5  UNL d   1      -4.730   5.000  -5.334  0.00  0.00    -0.004 A 
ATOM      5  C6  UNL d   1      -5.681   4.067  -5.744  0.00  0.00     0.002 A 
ATOM      6  C7  UNL d   1      -5.558   2.731  -5.360  0.00  0.00     0.002 A 
ENDROOT
BRANCH   1   7
ATOM      7  C1  UNL d   1      -4.379   0.884  -4.107  0.00  0.00     0.055 C 
ATOM      8  C   UNL d   1      -4.042   0.799  -2.626  0.00  0.00     0.019 C 
ENDBRANCH   1   7
TORSDOF 1
ENDMDL
