MODEL 1
REMARK minimizedAffinity 0.672757387
REMARK minimizedRMSD -1
REMARK  1 active torsions:
REMARK  status: ('A' for Active; 'I' for Inactive)
REMARK    1  A    between atoms: C1_2  and  C2_3 
ROOT
ATOM      1  C2  UNL d   1       2.976   5.269   4.766  0.00  0.00    -0.077 A 
ATOM      2  C3  UNL d   1       3.686   5.279   5.975  0.00  0.00     0.002 A 
ATOM      3  C4  UNL d   1       5.034   5.640   5.999  0.00  0.00     0.002 A 
ATOM      4  C5  UNL d   1       5.682   5.999   4.819  0.00  0.00    -0.004 A 
ATOM      5  C6  UNL d   1       4.985   5.990   3.611  0.00  0.00     0.002 A 
ATOM      6  C7  UNL d   1       3.638   5.628   3.585  0.00  0.00     0.002 A 
ENDROOT
BRANCH   1   7
ATOM      7  C1  UNL d   1       1.509   4.926   4.745  0.00  0.00     0.055 C 
ATOM      8  C   UNL d   1       1.185   3.949   3.625  0.00  0.00     0.019 C 
ENDBRANCH   1   7
TORSDOF 1
ENDMDL
