MODEL 1
REMARK minimizedAffinity -1.40949929
REMARK minimizedRMSD -1
REMARK  2 active torsions:
REMARK  status: ('A' for Active; 'I' for Inactive)
REMARK    1  A    between atoms: C1_2  and  C2_3 
REMARK    2  A    between atoms: C2_3  and  C3_4 
ROOT
ATOM      1  C3  UNL d   1       0.151  -0.638  -0.428  0.00  0.00    -0.075 A 
ATOM      2  C4  UNL d   1      -1.080  -0.361   0.185  0.00  0.00     0.002 A 
ATOM      3  C5  UNL d   1      -1.174  -0.270   1.574  0.00  0.00     0.002 A 
ATOM      4  C6  UNL d   1      -0.045  -0.464   2.366  0.00  0.00    -0.004 A 
ATOM      5  C7  UNL d   1       1.179  -0.756   1.769  0.00  0.00     0.002 A 
ATOM      6  C8  UNL d   1       1.278  -0.843   0.379  0.00  0.00     0.002 A 
ENDROOT
BRANCH   1   7
ATOM      7  C2  UNL d   1       0.266  -0.709  -1.932  0.00  0.00     0.056 C 
BRANCH   7   8
ATOM      8  C1  UNL d   1       1.126   0.402  -2.545  0.00  0.00     0.007 C 
ATOM      9  C   UNL d   1       0.701   0.780  -3.958  0.00  0.00     0.009 C 
ENDBRANCH   7   8
ENDBRANCH   1   7
TORSDOF 2
ENDMDL
