MODEL 1
REMARK minimizedAffinity -3.13619924
REMARK minimizedRMSD -1
REMARK  2 active torsions:
REMARK  status: ('A' for Active; 'I' for Inactive)
REMARK    1  A    between atoms: C1_2  and  C2_3 
REMARK    2  A    between atoms: C2_3  and  C3_4 
ROOT
ATOM      1  C3  UNL d   1      -0.102   0.011   0.365  0.00  0.00    -0.075 A 
ATOM      2  C4  UNL d   1      -1.488   0.197   0.261  0.00  0.00     0.002 A 
ATOM      3  C5  UNL d   1      -2.260   0.422   1.402  0.00  0.00     0.002 A 
ATOM      4  C6  UNL d   1      -1.659   0.454   2.658  0.00  0.00    -0.004 A 
ATOM      5  C7  UNL d   1      -0.286   0.254   2.775  0.00  0.00     0.002 A 
ATOM      6  C8  UNL d   1       0.490   0.033   1.635  0.00  0.00     0.002 A 
ENDROOT
BRANCH   1   7
ATOM      7  C2  UNL d   1       0.743  -0.203  -0.867  0.00  0.00     0.056 C 
BRANCH   7   8
ATOM      8  C1  UNL d   1      -0.066  -0.487  -2.137  0.00  0.00     0.007 C 
ATOM      9  C   UNL d   1       0.704  -0.196  -3.418  0.00  0.00     0.009 C 
ENDBRANCH   7   8
ENDBRANCH   1   7
TORSDOF 2
ENDMDL
