MODEL 1
REMARK minimizedAffinity -5.2556057
REMARK minimizedRMSD -1
REMARK  2 active torsions:
REMARK  status: ('A' for Active; 'I' for Inactive)
REMARK    1  A    between atoms: C1_2  and  C2_3 
REMARK    2  A    between atoms: C2_3  and  C3_4 
ROOT
ATOM      1  C3  UNL d   1      -0.356   0.282   1.025  0.00  0.00    -0.075 A 
ATOM      2  C4  UNL d   1       0.885  -0.187   1.482  0.00  0.00     0.002 A 
ATOM      3  C5  UNL d   1       1.318   0.102   2.777  0.00  0.00     0.002 A 
ATOM      4  C6  UNL d   1       0.523   0.869   3.626  0.00  0.00    -0.004 A 
ATOM      5  C7  UNL d   1      -0.704   1.354   3.177  0.00  0.00     0.002 A 
ATOM      6  C8  UNL d   1      -1.141   1.063   1.883  0.00  0.00     0.002 A 
ENDROOT
BRANCH   1   7
ATOM      7  C2  UNL d   1      -0.843  -0.052  -0.364  0.00  0.00     0.056 C 
BRANCH   7   8
ATOM      8  C1  UNL d   1       0.270  -0.461  -1.334  0.00  0.00     0.007 C 
ATOM      9  C   UNL d   1       0.240   0.314  -2.645  0.00  0.00     0.009 C 
ENDBRANCH   7   8
ENDBRANCH   1   7
TORSDOF 2
ENDMDL
