MODEL 1
REMARK minimizedAffinity -0.179524183
REMARK minimizedRMSD -1
REMARK  2 active torsions:
REMARK  status: ('A' for Active; 'I' for Inactive)
REMARK    1  A    between atoms: C1_2  and  C2_3 
REMARK    2  A    between atoms: C2_3  and  C3_4 
ROOT
ATOM      1  C3  UNL d   1       0.151  -0.423   0.085  0.00  0.00    -0.075 A 
ATOM      2  C4  UNL d   1       1.330  -0.633   0.815  0.00  0.00     0.002 A 
ATOM      3  C5  UNL d   1       1.341  -0.480   2.201  0.00  0.00     0.002 A 
ATOM      4  C6  UNL d   1       0.179  -0.107   2.874  0.00  0.00    -0.004 A 
ATOM      5  C7  UNL d   1      -0.994   0.120   2.157  0.00  0.00     0.002 A 
ATOM      6  C8  UNL d   1      -1.009  -0.036   0.770  0.00  0.00     0.002 A 
ENDROOT
BRANCH   1   7
ATOM      7  C2  UNL d   1       0.124  -0.615  -1.413  0.00  0.00     0.056 C 
BRANCH   7   8
ATOM      8  C1  UNL d   1       0.877   0.467  -2.194  0.00  0.00     0.007 C 
ATOM      9  C   UNL d   1       0.581   0.446  -3.687  0.00  0.00     0.009 C 
ENDBRANCH   7   8
ENDBRANCH   1   7
TORSDOF 2
ENDMDL
