MODEL 1
REMARK minimizedAffinity -4.39063597
REMARK minimizedRMSD -1
REMARK  2 active torsions:
REMARK  status: ('A' for Active; 'I' for Inactive)
REMARK    1  A    between atoms: C1_2  and  C2_3 
REMARK    2  A    between atoms: C2_3  and  C3_4 
ROOT
ATOM      1  C3  UNL d   1       0.353   0.538   1.069  0.00  0.00    -0.075 A 
ATOM      2  C4  UNL d   1      -0.214   0.384  -0.204  0.00  0.00     0.002 A 
ATOM      3  C5  UNL d   1       0.198  -0.653  -1.042  0.00  0.00     0.002 A 
ATOM      4  C6  UNL d   1       1.187  -1.541  -0.622  0.00  0.00    -0.004 A 
ATOM      5  C7  UNL d   1       1.769  -1.386   0.634  0.00  0.00     0.002 A 
ATOM      6  C8  UNL d   1       1.355  -0.352   1.476  0.00  0.00     0.002 A 
ENDROOT
BRANCH   1   7
ATOM      7  C2  UNL d   1      -0.109   1.641   1.991  0.00  0.00     0.056 C 
BRANCH   7   8
ATOM      8  C1  UNL d   1      -1.055   1.170   3.101  0.00  0.00     0.007 C 
ATOM      9  C   UNL d   1      -1.877  -0.052   2.712  0.00  0.00     0.009 C 
ENDBRANCH   7   8
ENDBRANCH   1   7
TORSDOF 2
ENDMDL
