MODEL 1
REMARK minimizedAffinity -4.92297316
REMARK minimizedRMSD -1
REMARK  2 active torsions:
REMARK  status: ('A' for Active; 'I' for Inactive)
REMARK    1  A    between atoms: C1_2  and  C2_3 
REMARK    2  A    between atoms: C2_3  and  C3_4 
ROOT
ATOM      1  C3  UNL d   1       0.190  -1.035   0.127  0.00  0.00    -0.075 A 
ATOM      2  C4  UNL d   1      -1.022  -0.585   0.671  0.00  0.00     0.002 A 
ATOM      3  C5  UNL d   1      -1.148  -0.378   2.045  0.00  0.00     0.002 A 
ATOM      4  C6  UNL d   1      -0.070  -0.626   2.892  0.00  0.00    -0.004 A 
ATOM      5  C7  UNL d   1       1.134  -1.088   2.364  0.00  0.00     0.002 A 
ATOM      6  C8  UNL d   1       1.264  -1.293   0.989  0.00  0.00     0.002 A 
ENDROOT
BRANCH   1   7
ATOM      7  C2  UNL d   1       0.342  -1.233  -1.362  0.00  0.00     0.056 C 
BRANCH   7   8
ATOM      8  C1  UNL d   1       1.086  -0.096  -2.070  0.00  0.00     0.007 C 
ATOM      9  C   UNL d   1       0.978  -0.161  -3.588  0.00  0.00     0.009 C 
ENDBRANCH   7   8
ENDBRANCH   1   7
TORSDOF 2
ENDMDL
