MODEL 1
REMARK minimizedAffinity -0.71806109
REMARK minimizedRMSD -1
REMARK  1 active torsions:
REMARK  status: ('A' for Active; 'I' for Inactive)
REMARK    1  A    between atoms: N_2  and  C1_3 
ROOT
ATOM      1  C1  UNL d   1      -1.343   0.189  -1.209  0.00  0.00     0.143 A 
ATOM      2  C2  UNL d   1      -2.624   0.684  -0.943  0.00  0.00    -0.057 A 
ATOM      3  C3  UNL d   1      -3.661   0.553  -1.874  0.00  0.00     0.033 A 
ATOM      4  C4  UNL d   1      -3.427  -0.052  -3.104  0.00  0.00    -0.042 A 
ATOM      5  C5  UNL d   1      -2.155  -0.529  -3.401  0.00  0.00     0.033 A 
ATOM      6  C6  UNL d   1      -1.125  -0.402  -2.464  0.00  0.00    -0.057 A 
ENDROOT
BRANCH   1   7
ATOM      7  N   UNL d   1      -0.245   0.376  -0.365  0.00  0.00    -0.732 N 
ATOM      8  C   UNL d   1       0.694  -0.700  -0.128  0.00  0.00     0.284 C 
ATOM      9  H3  UNL d   1       0.189   1.287  -0.489  0.00  0.00     0.395 HD
ENDBRANCH   1   7
TORSDOF 1
ENDMDL
