MODEL 1
REMARK minimizedAffinity -5.01355553
REMARK minimizedRMSD -1
REMARK  1 active torsions:
REMARK  status: ('A' for Active; 'I' for Inactive)
REMARK    1  A    between atoms: N_2  and  C1_3 
ROOT
ATOM      1  C1  UNL d   1       0.131   0.265  -0.086  0.00  0.00     0.143 A 
ATOM      2  C2  UNL d   1       0.643   1.560   0.052  0.00  0.00    -0.057 A 
ATOM      3  C3  UNL d   1       1.963   1.778   0.466  0.00  0.00     0.033 A 
ATOM      4  C4  UNL d   1       2.787   0.703   0.778  0.00  0.00    -0.042 A 
ATOM      5  C5  UNL d   1       2.292  -0.592   0.673  0.00  0.00     0.033 A 
ATOM      6  C6  UNL d   1       0.975  -0.804   0.253  0.00  0.00    -0.057 A 
ENDROOT
BRANCH   1   7
ATOM      7  N   UNL d   1      -1.202  -0.015  -0.398  0.00  0.00    -0.732 N 
ATOM      8  C   UNL d   1      -1.574  -0.432  -1.733  0.00  0.00     0.284 C 
ATOM      9  H3  UNL d   1      -1.676  -0.524   0.344  0.00  0.00     0.395 HD
ENDBRANCH   1   7
TORSDOF 1
ENDMDL
