MODEL 1
REMARK minimizedAffinity -5.43237352
REMARK minimizedRMSD -1
REMARK  1 active torsions:
REMARK  status: ('A' for Active; 'I' for Inactive)
REMARK    1  A    between atoms: N_2  and  C1_3 
ROOT
ATOM      1  C1  UNL d   1      -0.078  -0.165   0.253  0.00  0.00     0.143 A 
ATOM      2  C2  UNL d   1       0.928   0.806   0.285  0.00  0.00    -0.057 A 
ATOM      3  C3  UNL d   1       2.218   0.500   0.737  0.00  0.00     0.033 A 
ATOM      4  C4  UNL d   1       2.517  -0.779   1.193  0.00  0.00    -0.042 A 
ATOM      5  C5  UNL d   1       1.525  -1.754   1.194  0.00  0.00     0.033 A 
ATOM      6  C6  UNL d   1       0.241  -1.444   0.735  0.00  0.00    -0.057 A 
ENDROOT
BRANCH   1   7
ATOM      7  N   UNL d   1      -1.405   0.102  -0.092  0.00  0.00    -0.732 N 
ATOM      8  C   UNL d   1      -1.798   0.213  -1.480  0.00  0.00     0.284 C 
ATOM      9  H3  UNL d   1      -2.067  -0.409   0.488  0.00  0.00     0.395 HD
ENDBRANCH   1   7
TORSDOF 1
ENDMDL
