MODEL 1
REMARK minimizedAffinity -4.89885235
REMARK minimizedRMSD -1
REMARK  1 active torsions:
REMARK  status: ('A' for Active; 'I' for Inactive)
REMARK    1  A    between atoms: N_2  and  C1_3 
ROOT
ATOM      1  C1  UNL d   1       1.688   1.240   0.742  0.00  0.00     0.143 A 
ATOM      2  C2  UNL d   1       1.957  -0.133   0.737  0.00  0.00    -0.057 A 
ATOM      3  C3  UNL d   1       1.069  -1.044   0.152  0.00  0.00     0.033 A 
ATOM      4  C4  UNL d   1      -0.121  -0.600  -0.413  0.00  0.00    -0.042 A 
ATOM      5  C5  UNL d   1      -0.421   0.758  -0.398  0.00  0.00     0.033 A 
ATOM      6  C6  UNL d   1       0.473   1.664   0.181  0.00  0.00    -0.057 A 
ENDROOT
BRANCH   1   7
ATOM      7  N   UNL d   1       2.483   2.186   1.393  0.00  0.00    -0.732 N 
ATOM      8  C   UNL d   1       2.219   2.549   2.769  0.00  0.00     0.284 C 
ATOM      9  H3  UNL d   1       3.471   2.081   1.174  0.00  0.00     0.395 HD
ENDBRANCH   1   7
TORSDOF 1
ENDMDL
