MODEL 1
REMARK minimizedAffinity -4.74102831
REMARK minimizedRMSD -1
REMARK  1 active torsions:
REMARK  status: ('A' for Active; 'I' for Inactive)
REMARK    1  A    between atoms: N_2  and  C1_3 
ROOT
ATOM      1  C1  UNL d   1       0.351   0.318   0.163  0.00  0.00     0.143 A 
ATOM      2  C2  UNL d   1       1.407   1.216   0.349  0.00  0.00    -0.057 A 
ATOM      3  C3  UNL d   1       2.541   0.859   1.089  0.00  0.00     0.033 A 
ATOM      4  C4  UNL d   1       2.626  -0.396   1.682  0.00  0.00    -0.042 A 
ATOM      5  C5  UNL d   1       1.577  -1.296   1.530  0.00  0.00     0.033 A 
ATOM      6  C6  UNL d   1       0.450  -0.937   0.785  0.00  0.00    -0.057 A 
ENDROOT
BRANCH   1   7
ATOM      7  N   UNL d   1      -0.846   0.647  -0.479  0.00  0.00    -0.732 N 
ATOM      8  C   UNL d   1      -1.902  -0.333  -0.615  0.00  0.00     0.284 C 
ATOM      9  H3  UNL d   1      -1.172   1.580  -0.237  0.00  0.00     0.395 HD
ENDBRANCH   1   7
TORSDOF 1
ENDMDL
