MODEL 1
REMARK minimizedAffinity -2.56241274
REMARK minimizedRMSD -1
REMARK  1 active torsions:
REMARK  status: ('A' for Active; 'I' for Inactive)
REMARK    1  A    between atoms: N_2  and  C1_3 
ROOT
ATOM      1  C1  UNL d   1       0.064   0.647   0.010  0.00  0.00     0.143 A 
ATOM      2  C2  UNL d   1       0.695   1.547   0.876  0.00  0.00    -0.057 A 
ATOM      3  C3  UNL d   1       1.938   1.252   1.450  0.00  0.00     0.033 A 
ATOM      4  C4  UNL d   1       2.560   0.036   1.189  0.00  0.00    -0.042 A 
ATOM      5  C5  UNL d   1       1.939  -0.884   0.351  0.00  0.00     0.033 A 
ATOM      6  C6  UNL d   1       0.701  -0.581  -0.224  0.00  0.00    -0.057 A 
ENDROOT
BRANCH   1   7
ATOM      7  N   UNL d   1      -1.217   0.840  -0.514  0.00  0.00    -0.732 N 
ATOM      8  C   UNL d   1      -1.936  -0.256  -1.126  0.00  0.00     0.284 C 
ATOM      9  H3  UNL d   1      -1.792   1.436   0.077  0.00  0.00     0.395 HD
ENDBRANCH   1   7
TORSDOF 1
ENDMDL
