MODEL 1
REMARK minimizedAffinity -4.64739847
REMARK minimizedRMSD -1
REMARK  1 active torsions:
REMARK  status: ('A' for Active; 'I' for Inactive)
REMARK    1  A    between atoms: N_2  and  C1_3 
ROOT
ATOM      1  C1  UNL d   1       0.752  -0.633   0.241  0.00  0.00     0.143 A 
ATOM      2  C2  UNL d   1       1.486   0.492  -0.150  0.00  0.00    -0.057 A 
ATOM      3  C3  UNL d   1       2.756   0.751   0.380  0.00  0.00     0.033 A 
ATOM      4  C4  UNL d   1       3.304  -0.098   1.335  0.00  0.00    -0.042 A 
ATOM      5  C5  UNL d   1       2.582  -1.209   1.758  0.00  0.00     0.033 A 
ATOM      6  C6  UNL d   1       1.317  -1.466   1.220  0.00  0.00    -0.057 A 
ENDROOT
BRANCH   1   7
ATOM      7  N   UNL d   1      -0.556  -0.892  -0.176  0.00  0.00    -0.732 N 
ATOM      8  C   UNL d   1      -1.461   0.195  -0.479  0.00  0.00     0.284 C 
ATOM      9  H3  UNL d   1      -0.609  -1.671  -0.827  0.00  0.00     0.395 HD
ENDBRANCH   1   7
TORSDOF 1
ENDMDL
