MODEL 1
REMARK minimizedAffinity 6.39025164
REMARK minimizedRMSD -1
REMARK  1 active torsions:
REMARK  status: ('A' for Active; 'I' for Inactive)
REMARK    1  A    between atoms: C3_4  and  O_7 
ROOT
ATOM      1  C   UNL d   1      -1.427   0.940  -0.217  0.00  0.00    -0.033 A 
ATOM      2  C1  UNL d   1      -0.940   2.240  -0.068  0.00  0.00     0.039 A 
ATOM      3  C2  UNL d   1       0.397   2.452   0.274  0.00  0.00    -0.080 A 
ATOM      4  C3  UNL d   1       1.235   1.357   0.465  0.00  0.00     0.150 A 
ATOM      5  C4  UNL d   1       0.757   0.059   0.314  0.00  0.00    -0.007 A 
ATOM      6  C5  UNL d   1      -0.578  -0.150  -0.027  0.00  0.00     0.039 A 
ENDROOT
BRANCH   4   7
ATOM      7  O   UNL d   1       2.546   1.513   0.805  0.00  0.00    -0.526 OA
ATOM      8  H5  UNL d   1       2.728   2.463   0.902  0.00  0.00     0.418 HD
ENDBRANCH   4   7
TORSDOF 1
ENDMDL
