MODEL 1
REMARK minimizedAffinity 1.73799694
REMARK minimizedRMSD -1
REMARK  1 active torsions:
REMARK  status: ('A' for Active; 'I' for Inactive)
REMARK    1  A    between atoms: C3_4  and  O_7 
ROOT
ATOM      1  C   UNL d   1       3.771  -5.999  -1.564  0.00  0.00    -0.033 A 
ATOM      2  C1  UNL d   1       3.770  -5.891  -2.956  0.00  0.00     0.039 A 
ATOM      3  C2  UNL d   1       3.793  -4.632  -3.560  0.00  0.00    -0.080 A 
ATOM      4  C3  UNL d   1       3.817  -3.492  -2.762  0.00  0.00     0.150 A 
ATOM      5  C4  UNL d   1       3.822  -3.592  -1.374  0.00  0.00    -0.007 A 
ATOM      6  C5  UNL d   1       3.798  -4.850  -0.773  0.00  0.00     0.039 A 
ENDROOT
BRANCH   4   7
ATOM      7  O   UNL d   1       3.835  -2.242  -3.306  0.00  0.00    -0.526 OA
ATOM      8  H5  UNL d   1       3.800  -2.327  -4.273  0.00  0.00     0.418 HD
ENDBRANCH   4   7
TORSDOF 1
ENDMDL
