MODEL 1
REMARK minimizedAffinity -2.65664172
REMARK minimizedRMSD -1
REMARK  1 active torsions:
REMARK  status: ('A' for Active; 'I' for Inactive)
REMARK    1  A    between atoms: C3_4  and  O_7 
ROOT
ATOM      1  C   UNL d   1       4.041  -5.982  -2.516  0.00  0.00    -0.033 A 
ATOM      2  C1  UNL d   1       4.592  -5.970  -3.799  0.00  0.00     0.039 A 
ATOM      3  C2  UNL d   1       3.759  -5.974  -4.919  0.00  0.00    -0.080 A 
ATOM      4  C3  UNL d   1       2.378  -5.989  -4.743  0.00  0.00     0.150 A 
ATOM      5  C4  UNL d   1       1.821  -5.997  -3.468  0.00  0.00    -0.007 A 
ATOM      6  C5  UNL d   1       2.655  -5.994  -2.351  0.00  0.00     0.039 A 
ENDROOT
BRANCH   4   7
ATOM      7  O   UNL d   1       1.524  -5.998  -5.806  0.00  0.00    -0.526 OA
ATOM      8  H5  UNL d   1       2.050  -6.020  -6.623  0.00  0.00     0.418 HD
ENDBRANCH   4   7
TORSDOF 1
ENDMDL
