MODEL 1
REMARK minimizedAffinity 3.54617262
REMARK minimizedRMSD -1
REMARK  1 active torsions:
REMARK  status: ('A' for Active; 'I' for Inactive)
REMARK    1  A    between atoms: C3_4  and  O_7 
ROOT
ATOM      1  C   UNL d   1       3.270  -5.999  -5.042  0.00  0.00    -0.033 A 
ATOM      2  C1  UNL d   1       2.198  -5.993  -4.148  0.00  0.00     0.039 A 
ATOM      3  C2  UNL d   1       2.435  -5.992  -2.772  0.00  0.00    -0.080 A 
ATOM      4  C3  UNL d   1       3.747  -5.995  -2.304  0.00  0.00     0.150 A 
ATOM      5  C4  UNL d   1       4.819  -5.998  -3.190  0.00  0.00    -0.007 A 
ATOM      6  C5  UNL d   1       4.580  -6.000  -4.564  0.00  0.00     0.039 A 
ENDROOT
BRANCH   4   7
ATOM      7  O   UNL d   1       4.028  -5.999  -0.970  0.00  0.00    -0.526 OA
ATOM      8  H5  UNL d   1       3.189  -6.026  -0.479  0.00  0.00     0.418 HD
ENDBRANCH   4   7
TORSDOF 1
ENDMDL
