MODEL 1
REMARK minimizedAffinity 1.70970011
REMARK minimizedRMSD -1
REMARK  1 active torsions:
REMARK  status: ('A' for Active; 'I' for Inactive)
REMARK    1  A    between atoms: C3_4  and  O_7 
ROOT
ATOM      1  C   UNL d   1       4.317  -5.947  -3.872  0.00  0.00    -0.033 A 
ATOM      2  C1  UNL d   1       4.354  -5.938  -5.267  0.00  0.00     0.039 A 
ATOM      3  C2  UNL d   1       3.166  -5.924  -6.000  0.00  0.00    -0.080 A 
ATOM      4  C3  UNL d   1       1.948  -5.918  -5.325  0.00  0.00     0.150 A 
ATOM      5  C4  UNL d   1       1.903  -5.924  -3.935  0.00  0.00    -0.007 A 
ATOM      6  C5  UNL d   1       3.091  -5.939  -3.205  0.00  0.00     0.039 A 
ENDROOT
BRANCH   4   7
ATOM      7  O   UNL d   1       0.762  -5.910  -5.997  0.00  0.00    -0.526 OA
ATOM      8  H5  UNL d   1       0.947  -5.936  -6.950  0.00  0.00     0.418 HD
ENDBRANCH   4   7
TORSDOF 1
ENDMDL
