MODEL 1
REMARK minimizedAffinity 5.03659964
REMARK minimizedRMSD -1
REMARK  1 active torsions:
REMARK  status: ('A' for Active; 'I' for Inactive)
REMARK    1  A    between atoms: C3_4  and  O_7 
ROOT
ATOM      1  C   UNL d   1       2.549  -4.510   4.258  0.00  0.00    -0.033 A 
ATOM      2  C1  UNL d   1       1.357  -4.329   3.555  0.00  0.00     0.039 A 
ATOM      3  C2  UNL d   1       1.110  -3.124   2.894  0.00  0.00    -0.080 A 
ATOM      4  C3  UNL d   1       2.062  -2.110   2.943  0.00  0.00     0.150 A 
ATOM      5  C4  UNL d   1       3.254  -2.285   3.638  0.00  0.00    -0.007 A 
ATOM      6  C5  UNL d   1       3.499  -3.488   4.298  0.00  0.00     0.039 A 
ENDROOT
BRANCH   4   7
ATOM      7  O   UNL d   1       1.864  -0.915   2.317  0.00  0.00    -0.526 OA
ATOM      8  H5  UNL d   1       0.985  -0.928   1.902  0.00  0.00     0.418 HD
ENDBRANCH   4   7
TORSDOF 1
ENDMDL
