MODEL 1
REMARK minimizedAffinity 2.35775304
REMARK minimizedRMSD -1
REMARK  1 active torsions:
REMARK  status: ('A' for Active; 'I' for Inactive)
REMARK    1  A    between atoms: C1_2  and  C2_3 
ROOT
ATOM      1  C2  UNL d   1      -4.036   5.174  -4.070  0.00  0.00    -0.077 A 
ATOM      2  C3  UNL d   1      -3.895   5.581  -5.404  0.00  0.00     0.002 A 
ATOM      3  C4  UNL d   1      -2.632   5.629  -5.998  0.00  0.00     0.002 A 
ATOM      4  C5  UNL d   1      -1.502   5.268  -5.268  0.00  0.00    -0.004 A 
ATOM      5  C6  UNL d   1      -1.632   4.864  -3.939  0.00  0.00     0.002 A 
ATOM      6  C7  UNL d   1      -2.893   4.816  -3.344  0.00  0.00     0.002 A 
ENDROOT
BRANCH   1   7
ATOM      7  C1  UNL d   1      -5.402   5.074  -3.442  0.00  0.00     0.055 C 
ATOM      8  C   UNL d   1      -5.407   4.091  -2.281  0.00  0.00     0.019 C 
ENDBRANCH   1   7
TORSDOF 1
ENDMDL
