MODEL 1
REMARK minimizedAffinity 6.0670743
REMARK minimizedRMSD -1
REMARK  1 active torsions:
REMARK  status: ('A' for Active; 'I' for Inactive)
REMARK    1  A    between atoms: C1_2  and  C2_3 
ROOT
ATOM      1  C2  UNL d   1      -2.358  -0.164   3.870  0.00  0.00    -0.077 A 
ATOM      2  C3  UNL d   1      -3.515   0.177   3.155  0.00  0.00     0.002 A 
ATOM      3  C4  UNL d   1      -3.602  -0.082   1.786  0.00  0.00     0.002 A 
ATOM      4  C5  UNL d   1      -2.537  -0.686   1.121  0.00  0.00    -0.004 A 
ATOM      5  C6  UNL d   1      -1.382  -1.028   1.822  0.00  0.00     0.002 A 
ATOM      6  C7  UNL d   1      -1.293  -0.769   3.190  0.00  0.00     0.002 A 
ENDROOT
BRANCH   1   7
ATOM      7  C1  UNL d   1      -2.282   0.069   5.356  0.00  0.00     0.055 C 
ATOM      8  C   UNL d   1      -3.549   0.731   5.878  0.00  0.00     0.019 C 
ENDBRANCH   1   7
TORSDOF 1
ENDMDL
