MODEL 1
REMARK minimizedAffinity 7.91063213
REMARK minimizedRMSD -1
REMARK  1 active torsions:
REMARK  status: ('A' for Active; 'I' for Inactive)
REMARK    1  A    between atoms: C1_2  and  C2_3 
ROOT
ATOM      1  C2  UNL d   1      -2.744  -2.392   2.020  0.00  0.00    -0.077 A 
ATOM      2  C3  UNL d   1      -3.435  -1.318   2.598  0.00  0.00     0.002 A 
ATOM      3  C4  UNL d   1      -2.835  -0.061   2.693  0.00  0.00     0.002 A 
ATOM      4  C5  UNL d   1      -1.543   0.135   2.209  0.00  0.00    -0.004 A 
ATOM      5  C6  UNL d   1      -0.847  -0.927   1.634  0.00  0.00     0.002 A 
ATOM      6  C7  UNL d   1      -1.445  -2.185   1.539  0.00  0.00     0.002 A 
ENDROOT
BRANCH   1   7
ATOM      7  C1  UNL d   1      -3.408  -3.736   1.872  0.00  0.00     0.055 C 
ATOM      8  C   UNL d   1      -4.645  -3.842   2.752  0.00  0.00     0.019 C 
ENDBRANCH   1   7
TORSDOF 1
ENDMDL
