MODEL 1
REMARK minimizedAffinity 3.17681694
REMARK minimizedRMSD -1
REMARK  1 active torsions:
REMARK  status: ('A' for Active; 'I' for Inactive)
REMARK    1  A    between atoms: C1_2  and  C2_3 
ROOT
ATOM      1  C2  UNL d   1      -1.432  -1.548   1.467  0.00  0.00    -0.077 A 
ATOM      2  C3  UNL d   1      -0.690  -0.614   2.204  0.00  0.00     0.002 A 
ATOM      3  C4  UNL d   1      -1.315   0.189   3.160  0.00  0.00     0.002 A 
ATOM      4  C5  UNL d   1      -2.683   0.064   3.391  0.00  0.00    -0.004 A 
ATOM      5  C6  UNL d   1      -3.430  -0.861   2.662  0.00  0.00     0.002 A 
ATOM      6  C7  UNL d   1      -2.807  -1.664   1.705  0.00  0.00     0.002 A 
ENDROOT
BRANCH   1   7
ATOM      7  C1  UNL d   1      -0.751  -2.449   0.471  0.00  0.00     0.055 C 
ATOM      8  C   UNL d   1       0.643  -2.839   0.940  0.00  0.00     0.019 C 
ENDBRANCH   1   7
TORSDOF 1
ENDMDL
