MODEL 1
REMARK minimizedAffinity -3.01231337
REMARK minimizedRMSD -1
REMARK  1 active torsions:
REMARK  status: ('A' for Active; 'I' for Inactive)
REMARK    1  A    between atoms: C1_2  and  C2_3 
ROOT
ATOM      1  C2  UNL d   1      -3.730   0.509   4.830  0.00  0.00    -0.077 A 
ATOM      2  C3  UNL d   1      -4.617  -0.370   5.466  0.00  0.00     0.002 A 
ATOM      3  C4  UNL d   1      -5.261  -1.373   4.738  0.00  0.00     0.002 A 
ATOM      4  C5  UNL d   1      -5.021  -1.508   3.373  0.00  0.00    -0.004 A 
ATOM      5  C6  UNL d   1      -4.142  -0.637   2.730  0.00  0.00     0.002 A 
ATOM      6  C7  UNL d   1      -3.498   0.366   3.456  0.00  0.00     0.002 A 
ENDROOT
BRANCH   1   7
ATOM      7  C1  UNL d   1      -2.997   1.560   5.622  0.00  0.00     0.055 C 
ATOM      8  C   UNL d   1      -3.917   2.713   5.997  0.00  0.00     0.019 C 
ENDBRANCH   1   7
TORSDOF 1
ENDMDL
