MODEL 1
REMARK minimizedAffinity -4.22738552
REMARK minimizedRMSD -1
REMARK  1 active torsions:
REMARK  status: ('A' for Active; 'I' for Inactive)
REMARK    1  A    between atoms: C1_2  and  C2_3 
ROOT
ATOM      1  C2  UNL d   1      -3.384   0.015   4.232  0.00  0.00    -0.077 A 
ATOM      2  C3  UNL d   1      -4.464  -0.443   5.001  0.00  0.00     0.002 A 
ATOM      3  C4  UNL d   1      -5.191  -1.565   4.599  0.00  0.00     0.002 A 
ATOM      4  C5  UNL d   1      -4.845  -2.240   3.430  0.00  0.00    -0.004 A 
ATOM      5  C6  UNL d   1      -3.775  -1.792   2.658  0.00  0.00     0.002 A 
ATOM      6  C7  UNL d   1      -3.047  -0.670   3.057  0.00  0.00     0.002 A 
ENDROOT
BRANCH   1   7
ATOM      7  C1  UNL d   1      -2.568   1.195   4.689  0.00  0.00     0.055 C 
ATOM      8  C   UNL d   1      -1.853   0.899   6.000  0.00  0.00     0.019 C 
ENDBRANCH   1   7
TORSDOF 1
ENDMDL
