MODEL 1
REMARK minimizedAffinity 1.4749732
REMARK minimizedRMSD -1
REMARK  1 active torsions:
REMARK  status: ('A' for Active; 'I' for Inactive)
REMARK    1  A    between atoms: C1_2  and  C2_3 
ROOT
ATOM      1  C2  UNL d   1      -3.322   0.727   5.251  0.00  0.00    -0.077 A 
ATOM      2  C3  UNL d   1      -4.501   0.347   5.907  0.00  0.00     0.002 A 
ATOM      3  C4  UNL d   1      -5.491  -0.364   5.226  0.00  0.00     0.002 A 
ATOM      4  C5  UNL d   1      -5.310  -0.705   3.887  0.00  0.00    -0.004 A 
ATOM      5  C6  UNL d   1      -4.141  -0.330   3.225  0.00  0.00     0.002 A 
ATOM      6  C7  UNL d   1      -3.152   0.382   3.904  0.00  0.00     0.002 A 
ENDROOT
BRANCH   1   7
ATOM      7  C1  UNL d   1      -2.232   1.451   5.997  0.00  0.00     0.055 C 
ATOM      8  C   UNL d   1      -0.937   0.652   5.999  0.00  0.00     0.019 C 
ENDBRANCH   1   7
TORSDOF 1
ENDMDL
