MODEL 1
REMARK minimizedAffinity 6.34663534
REMARK minimizedRMSD -1
REMARK  1 active torsions:
REMARK  status: ('A' for Active; 'I' for Inactive)
REMARK    1  A    between atoms: C1_2  and  C2_3 
ROOT
ATOM      1  C2  UNL d   1      -4.683   0.055   5.017  0.00  0.00    -0.077 A 
ATOM      2  C3  UNL d   1      -5.477  -1.010   5.466  0.00  0.00     0.002 A 
ATOM      3  C4  UNL d   1      -5.887  -2.007   4.579  0.00  0.00     0.002 A 
ATOM      4  C5  UNL d   1      -5.507  -1.951   3.240  0.00  0.00    -0.004 A 
ATOM      5  C6  UNL d   1      -4.719  -0.895   2.784  0.00  0.00     0.002 A 
ATOM      6  C7  UNL d   1      -4.309   0.103   3.669  0.00  0.00     0.002 A 
ENDROOT
BRANCH   1   7
ATOM      7  C1  UNL d   1      -4.198   1.105   5.983  0.00  0.00     0.055 C 
ATOM      8  C   UNL d   1      -2.696   1.316   5.862  0.00  0.00     0.019 C 
ENDBRANCH   1   7
TORSDOF 1
ENDMDL
