MODEL 1
REMARK minimizedAffinity 3.78965592
REMARK minimizedRMSD -1
REMARK  1 active torsions:
REMARK  status: ('A' for Active; 'I' for Inactive)
REMARK    1  A    between atoms: C1_2  and  C2_3 
ROOT
ATOM      1  C2  UNL d   1      -3.283   5.586  -5.071  0.00  0.00    -0.077 A 
ATOM      2  C3  UNL d   1      -4.248   6.000  -6.000  0.00  0.00     0.002 A 
ATOM      3  C4  UNL d   1      -5.600   5.730  -5.781  0.00  0.00     0.002 A 
ATOM      4  C5  UNL d   1      -6.000   5.050  -4.632  0.00  0.00    -0.004 A 
ATOM      5  C6  UNL d   1      -5.047   4.633  -3.703  0.00  0.00     0.002 A 
ATOM      6  C7  UNL d   1      -3.695   4.900  -3.921  0.00  0.00     0.002 A 
ENDROOT
BRANCH   1   7
ATOM      7  C1  UNL d   1      -1.829   5.919  -5.281  0.00  0.00     0.055 C 
ATOM      8  C   UNL d   1      -0.924   4.921  -4.573  0.00  0.00     0.019 C 
ENDBRANCH   1   7
TORSDOF 1
ENDMDL
