MODEL 1
REMARK minimizedAffinity 6.63894415
REMARK minimizedRMSD -1
REMARK  1 active torsions:
REMARK  status: ('A' for Active; 'I' for Inactive)
REMARK    1  A    between atoms: C1_2  and  C2_3 
ROOT
ATOM      1  C2  UNL d   1      -2.562  -0.022   3.539  0.00  0.00    -0.077 A 
ATOM      2  C3  UNL d   1      -3.050  -1.033   2.699  0.00  0.00     0.002 A 
ATOM      3  C4  UNL d   1      -2.245  -1.559   1.686  0.00  0.00     0.002 A 
ATOM      4  C5  UNL d   1      -0.948  -1.083   1.507  0.00  0.00    -0.004 A 
ATOM      5  C6  UNL d   1      -0.455  -0.076   2.336  0.00  0.00     0.002 A 
ATOM      6  C7  UNL d   1      -1.258   0.451   3.348  0.00  0.00     0.002 A 
ENDROOT
BRANCH   1   7
ATOM      7  C1  UNL d   1      -3.411   0.511   4.664  0.00  0.00     0.055 C 
ATOM      8  C   UNL d   1      -2.613   0.624   5.954  0.00  0.00     0.019 C 
ENDBRANCH   1   7
TORSDOF 1
ENDMDL
