MODEL 1
REMARK minimizedAffinity 4.21842909
REMARK minimizedRMSD -1
REMARK  1 active torsions:
REMARK  status: ('A' for Active; 'I' for Inactive)
REMARK    1  A    between atoms: C1_2  and  C2_3 
ROOT
ATOM      1  C2  UNL d   1      -2.165  -0.039   4.056  0.00  0.00    -0.077 A 
ATOM      2  C3  UNL d   1      -2.597  -1.312   3.658  0.00  0.00     0.002 A 
ATOM      3  C4  UNL d   1      -2.482  -1.713   2.325  0.00  0.00     0.002 A 
ATOM      4  C5  UNL d   1      -1.931  -0.849   1.381  0.00  0.00    -0.004 A 
ATOM      5  C6  UNL d   1      -1.500   0.420   1.767  0.00  0.00     0.002 A 
ATOM      6  C7  UNL d   1      -1.615   0.823   3.098  0.00  0.00     0.002 A 
ENDROOT
BRANCH   1   7
ATOM      7  C1  UNL d   1      -2.243   0.376   5.502  0.00  0.00     0.055 C 
ATOM      8  C   UNL d   1      -3.681   0.379   6.000  0.00  0.00     0.019 C 
ENDBRANCH   1   7
TORSDOF 1
ENDMDL
