MODEL 1
REMARK minimizedAffinity 4.22872257
REMARK minimizedRMSD -1
REMARK  1 active torsions:
REMARK  status: ('A' for Active; 'I' for Inactive)
REMARK    1  A    between atoms: C1_2  and  C2_3 
ROOT
ATOM      1  C2  UNL d   1      -3.685   0.187   3.669  0.00  0.00    -0.077 A 
ATOM      2  C3  UNL d   1      -4.926   0.784   3.408  0.00  0.00     0.002 A 
ATOM      3  C4  UNL d   1      -6.000   0.014   2.957  0.00  0.00     0.002 A 
ATOM      4  C5  UNL d   1      -5.845  -1.357   2.767  0.00  0.00    -0.004 A 
ATOM      5  C6  UNL d   1      -4.614  -1.961   3.022  0.00  0.00     0.002 A 
ATOM      6  C7  UNL d   1      -3.539  -1.193   3.472  0.00  0.00     0.002 A 
ENDROOT
BRANCH   1   7
ATOM      7  C1  UNL d   1      -2.540   1.007   4.202  0.00  0.00     0.055 C 
ATOM      8  C   UNL d   1      -1.354   0.128   4.571  0.00  0.00     0.019 C 
ENDBRANCH   1   7
TORSDOF 1
ENDMDL
