MODEL 1
REMARK minimizedAffinity -2.33900046
REMARK minimizedRMSD -1
REMARK  2 active torsions:
REMARK  status: ('A' for Active; 'I' for Inactive)
REMARK    1  A    between atoms: C2'_3  and  C1'_4 
REMARK    2  A    between atoms: C1'_4  and  C1_5 
ROOT
ATOM      1  C1  I4B d   1      -0.597   0.205  -1.004  0.00  0.00    -0.075 A 
ATOM      2  C2  I4B d   1       0.707  -0.222  -0.989  0.00  0.00     0.003 A 
ATOM      3  C3  I4B d   1       1.249  -0.816   0.176  0.00  0.00     0.002 A 
ATOM      4  C4  I4B d   1       0.472  -0.916   1.312  0.00  0.00    -0.004 A 
ATOM      5  C5  I4B d   1      -0.857  -0.504   1.288  0.00  0.00     0.002 A 
ATOM      6  C6  I4B d   1      -1.399   0.049   0.119  0.00  0.00     0.003 A 
ENDROOT
BRANCH   1   7
ATOM      7  C1' I4B d   1      -1.128   0.857  -2.242  0.00  0.00     0.060 C 
BRANCH   7   8
ATOM      8  C2' I4B d   1      -0.653   2.296  -2.251  0.00  0.00    -0.013 C 
ATOM      9  C4' I4B d   1       0.380   2.522  -3.323  0.00  0.00     0.013 C 
ATOM     10  C3' I4B d   1      -1.849   3.177  -2.457  0.00  0.00     0.013 C 
ENDBRANCH   7   8
ENDBRANCH   1   7
TORSDOF 2
ENDMDL
