MODEL 1
REMARK minimizedAffinity -2.55430126
REMARK minimizedRMSD -1
REMARK  2 active torsions:
REMARK  status: ('A' for Active; 'I' for Inactive)
REMARK    1  A    between atoms: C2'_3  and  C1'_4 
REMARK    2  A    between atoms: C1'_4  and  C1_5 
ROOT
ATOM      1  C1  I4B d   1      -0.364   0.006  -0.530  0.00  0.00    -0.075 A 
ATOM      2  C2  I4B d   1       0.731  -0.709  -0.114  0.00  0.00     0.003 A 
ATOM      3  C3  I4B d   1       0.895  -1.029   1.255  0.00  0.00     0.002 A 
ATOM      4  C4  I4B d   1      -0.026  -0.572   2.175  0.00  0.00    -0.004 A 
ATOM      5  C5  I4B d   1      -1.147   0.134   1.749  0.00  0.00     0.002 A 
ATOM      6  C6  I4B d   1      -1.325   0.415   0.387  0.00  0.00     0.003 A 
ENDROOT
BRANCH   1   7
ATOM      7  C1' I4B d   1      -0.490   0.354  -1.979  0.00  0.00     0.060 C 
BRANCH   7   8
ATOM      8  C2' I4B d   1      -1.004   1.777  -2.075  0.00  0.00    -0.013 C 
ATOM      9  C4' I4B d   1       0.027   2.688  -2.688  0.00  0.00     0.013 C 
ATOM     10  C3' I4B d   1      -2.264   1.760  -2.888  0.00  0.00     0.013 C 
ENDBRANCH   7   8
ENDBRANCH   1   7
TORSDOF 2
ENDMDL
