MODEL 1
REMARK minimizedAffinity -2.72132874
REMARK minimizedRMSD -1
REMARK  2 active torsions:
REMARK  status: ('A' for Active; 'I' for Inactive)
REMARK    1  A    between atoms: C2'_3  and  C1'_4 
REMARK    2  A    between atoms: C1'_4  and  C1_5 
ROOT
ATOM      1  C1  I4B d   1      -0.022   0.102  -0.331  0.00  0.00    -0.075 A 
ATOM      2  C2  I4B d   1      -1.131   0.149   0.477  0.00  0.00     0.003 A 
ATOM      3  C3  I4B d   1      -1.003  -0.035   1.875  0.00  0.00     0.002 A 
ATOM      4  C4  I4B d   1       0.237  -0.312   2.413  0.00  0.00    -0.004 A 
ATOM      5  C5  I4B d   1       1.363  -0.337   1.596  0.00  0.00     0.002 A 
ATOM      6  C6  I4B d   1       1.235  -0.116   0.217  0.00  0.00     0.003 A 
ENDROOT
BRANCH   1   7
ATOM      7  C1' I4B d   1      -0.198   0.269  -1.807  0.00  0.00     0.060 C 
BRANCH   7   8
ATOM      8  C2' I4B d   1      -0.745   1.659  -2.058  0.00  0.00    -0.013 C 
ATOM      9  C4' I4B d   1       0.272   2.529  -2.748  0.00  0.00     0.013 C 
ATOM     10  C3' I4B d   1      -1.991   1.524  -2.883  0.00  0.00     0.013 C 
ENDBRANCH   7   8
ENDBRANCH   1   7
TORSDOF 2
ENDMDL
