MODEL 1
REMARK minimizedAffinity -3.97738099
REMARK minimizedRMSD -1
REMARK  2 active torsions:
REMARK  status: ('A' for Active; 'I' for Inactive)
REMARK    1  A    between atoms: C2'_3  and  C1'_4 
REMARK    2  A    between atoms: C1'_4  and  C1_5 
ROOT
ATOM      1  C1  I4B d   1       0.064   0.259  -0.732  0.00  0.00    -0.075 A 
ATOM      2  C2  I4B d   1       1.385  -0.094  -0.613  0.00  0.00     0.003 A 
ATOM      3  C3  I4B d   1       1.897  -0.532   0.633  0.00  0.00     0.002 A 
ATOM      4  C4  I4B d   1       1.069  -0.553   1.737  0.00  0.00    -0.004 A 
ATOM      5  C5  I4B d   1      -0.275  -0.217   1.610  0.00  0.00     0.002 A 
ATOM      6  C6  I4B d   1      -0.784   0.180   0.365  0.00  0.00     0.003 A 
ENDROOT
BRANCH   1   7
ATOM      7  C1' I4B d   1      -0.435   0.749  -2.054  0.00  0.00     0.060 C 
BRANCH   7   8
ATOM      8  C2' I4B d   1      -0.819   2.206  -1.898  0.00  0.00    -0.013 C 
ATOM      9  C4' I4B d   1       0.136   3.105  -2.639  0.00  0.00     0.013 C 
ATOM     10  C3' I4B d   1      -2.221   2.372  -2.402  0.00  0.00     0.013 C 
ENDBRANCH   7   8
ENDBRANCH   1   7
TORSDOF 2
ENDMDL
