MODEL 1
REMARK minimizedAffinity -1.75445414
REMARK minimizedRMSD -1
REMARK  2 active torsions:
REMARK  status: ('A' for Active; 'I' for Inactive)
REMARK    1  A    between atoms: C2'_3  and  C1'_4 
REMARK    2  A    between atoms: C1'_4  and  C1_5 
ROOT
ATOM      1  C1  I4B d   1       0.184  -0.019  -0.100  0.00  0.00    -0.075 A 
ATOM      2  C2  I4B d   1       1.499  -0.347   0.120  0.00  0.00     0.003 A 
ATOM      3  C3  I4B d   1       1.961  -0.595   1.435  0.00  0.00     0.002 A 
ATOM      4  C4  I4B d   1       1.093  -0.455   2.498  0.00  0.00    -0.004 A 
ATOM      5  C5  I4B d   1      -0.245  -0.145   2.271  0.00  0.00     0.002 A 
ATOM      6  C6  I4B d   1      -0.705   0.063   0.963  0.00  0.00     0.003 A 
ENDROOT
BRANCH   1   7
ATOM      7  C1' I4B d   1      -0.262   0.269  -1.498  0.00  0.00     0.060 C 
BRANCH   7   8
ATOM      8  C2' I4B d   1      -0.376   1.772  -1.652  0.00  0.00    -0.013 C 
ATOM      9  C4' I4B d   1       0.862   2.350  -2.287  0.00  0.00     0.013 C 
ATOM     10  C3' I4B d   1      -1.594   2.063  -2.478  0.00  0.00     0.013 C 
ENDBRANCH   7   8
ENDBRANCH   1   7
TORSDOF 2
ENDMDL
