MODEL 1
REMARK minimizedAffinity 12.2061033
REMARK minimizedRMSD -1
REMARK  2 active torsions:
REMARK  status: ('A' for Active; 'I' for Inactive)
REMARK    1  A    between atoms: C2'_3  and  C1'_4 
REMARK    2  A    between atoms: C1'_4  and  C1_5 
ROOT
ATOM      1  C1  I4B d   1       1.069  -3.191  -2.482  0.00  0.00    -0.075 A 
ATOM      2  C2  I4B d   1       1.274  -1.834  -2.483  0.00  0.00     0.003 A 
ATOM      3  C3  I4B d   1       2.061  -1.232  -1.472  0.00  0.00     0.002 A 
ATOM      4  C4  I4B d   1       2.579  -2.012  -0.458  0.00  0.00    -0.004 A 
ATOM      5  C5  I4B d   1       2.388  -3.390  -0.472  0.00  0.00     0.002 A 
ATOM      6  C6  I4B d   1       1.639  -3.986  -1.497  0.00  0.00     0.003 A 
ENDROOT
BRANCH   1   7
ATOM      7  C1' I4B d   1       0.205  -3.790  -3.546  0.00  0.00     0.060 C 
BRANCH   7   8
ATOM      8  C2' I4B d   1      -1.235  -3.439  -3.231  0.00  0.00    -0.013 C 
ATOM      9  C4' I4B d   1      -1.915  -2.809  -4.418  0.00  0.00     0.013 C 
ATOM     10  C3' I4B d   1      -1.936  -4.696  -2.809  0.00  0.00     0.013 C 
ENDBRANCH   7   8
ENDBRANCH   1   7
TORSDOF 2
ENDMDL
