MODEL 1
REMARK minimizedAffinity 14.7933817
REMARK minimizedRMSD -1
REMARK  2 active torsions:
REMARK  status: ('A' for Active; 'I' for Inactive)
REMARK    1  A    between atoms: C2'_3  and  C1'_4 
REMARK    2  A    between atoms: C1'_4  and  C1_5 
ROOT
ATOM      1  C1  I4B d   1      -2.268  -4.350  -3.898  0.00  0.00    -0.075 A 
ATOM      2  C2  I4B d   1      -2.604  -5.208  -4.916  0.00  0.00     0.003 A 
ATOM      3  C3  I4B d   1      -3.394  -4.753  -6.000  0.00  0.00     0.002 A 
ATOM      4  C4  I4B d   1      -3.866  -3.457  -6.000  0.00  0.00    -0.004 A 
ATOM      5  C5  I4B d   1      -3.505  -2.582  -4.979  0.00  0.00     0.002 A 
ATOM      6  C6  I4B d   1      -2.691  -3.028  -3.927  0.00  0.00     0.003 A 
ENDROOT
BRANCH   1   7
ATOM      7  C1' I4B d   1      -1.460  -4.873  -2.753  0.00  0.00     0.060 C 
BRANCH   7   8
ATOM      8  C2' I4B d   1      -0.000  -4.590  -3.045  0.00  0.00    -0.013 C 
ATOM      9  C4' I4B d   1       0.483  -3.382  -2.286  0.00  0.00     0.013 C 
ATOM     10  C3' I4B d   1       0.790  -5.811  -2.678  0.00  0.00     0.013 C 
ENDBRANCH   7   8
ENDBRANCH   1   7
TORSDOF 2
ENDMDL
