MODEL 1
REMARK minimizedAffinity 6.56693602
REMARK minimizedRMSD -1
REMARK  2 active torsions:
REMARK  status: ('A' for Active; 'I' for Inactive)
REMARK    1  A    between atoms: C2'_3  and  C1'_4 
REMARK    2  A    between atoms: C1'_4  and  C1_5 
ROOT
ATOM      1  C1  I4B d   1       1.454  -3.920  -2.231  0.00  0.00    -0.075 A 
ATOM      2  C2  I4B d   1       1.304  -2.559  -2.126  0.00  0.00     0.003 A 
ATOM      3  C3  I4B d   1       2.091  -1.824  -1.207  0.00  0.00     0.002 A 
ATOM      4  C4  I4B d   1       2.973  -2.491  -0.382  0.00  0.00    -0.004 A 
ATOM      5  C5  I4B d   1       3.140  -3.867  -0.505  0.00  0.00     0.002 A 
ATOM      6  C6  I4B d   1       2.385  -4.585  -1.444  0.00  0.00     0.003 A 
ENDROOT
BRANCH   1   7
ATOM      7  C1' I4B d   1       0.583  -4.669  -3.189  0.00  0.00     0.060 C 
BRANCH   7   8
ATOM      8  C2' I4B d   1      -0.859  -4.326  -2.876  0.00  0.00    -0.013 C 
ATOM      9  C4' I4B d   1      -1.701  -4.318  -4.125  0.00  0.00     0.013 C 
ATOM     10  C3' I4B d   1      -1.369  -5.329  -1.885  0.00  0.00     0.013 C 
ENDBRANCH   7   8
ENDBRANCH   1   7
TORSDOF 2
ENDMDL
