MODEL 1
REMARK minimizedAffinity 17.1027851
REMARK minimizedRMSD -1
REMARK  2 active torsions:
REMARK  status: ('A' for Active; 'I' for Inactive)
REMARK    1  A    between atoms: C2'_3  and  C1'_4 
REMARK    2  A    between atoms: C1'_4  and  C1_5 
ROOT
ATOM      1  C1  I4B d   1      -2.539   1.038   3.391  0.00  0.00    -0.075 A 
ATOM      2  C2  I4B d   1      -2.208   1.301   2.085  0.00  0.00     0.003 A 
ATOM      3  C3  I4B d   1      -0.861   1.550   1.728  0.00  0.00     0.002 A 
ATOM      4  C4  I4B d   1       0.109   1.575   2.709  0.00  0.00    -0.004 A 
ATOM      5  C5  I4B d   1      -0.225   1.285   4.029  0.00  0.00     0.002 A 
ATOM      6  C6  I4B d   1      -1.555   1.003   4.371  0.00  0.00     0.003 A 
ENDROOT
BRANCH   1   7
ATOM      7  C1' I4B d   1      -3.977   0.813   3.739  0.00  0.00     0.060 C 
BRANCH   7   8
ATOM      8  C2' I4B d   1      -4.565   2.140   4.175  0.00  0.00    -0.013 C 
ATOM      9  C4' I4B d   1      -5.997   2.274   3.729  0.00  0.00     0.013 C 
ATOM     10  C3' I4B d   1      -4.452   2.228   5.668  0.00  0.00     0.013 C 
ENDBRANCH   7   8
ENDBRANCH   1   7
TORSDOF 2
ENDMDL
