MODEL 1
REMARK minimizedAffinity 7.53228521
REMARK minimizedRMSD -1
REMARK  2 active torsions:
REMARK  status: ('A' for Active; 'I' for Inactive)
REMARK    1  A    between atoms: C2'_3  and  C1'_4 
REMARK    2  A    between atoms: C1'_4  and  C1_5 
ROOT
ATOM      1  C1  I4B d   1      -1.765  -5.090  -4.626  0.00  0.00    -0.075 A 
ATOM      2  C2  I4B d   1      -2.708  -5.573  -3.754  0.00  0.00     0.003 A 
ATOM      3  C3  I4B d   1      -2.328  -5.999  -2.458  0.00  0.00     0.002 A 
ATOM      4  C4  I4B d   1      -0.997  -5.973  -2.097  0.00  0.00    -0.004 A 
ATOM      5  C5  I4B d   1      -0.045  -5.461  -2.975  0.00  0.00     0.002 A 
ATOM      6  C6  I4B d   1      -0.433  -5.005  -4.243  0.00  0.00     0.003 A 
ENDROOT
BRANCH   1   7
ATOM      7  C1' I4B d   1      -2.197  -4.678  -5.998  0.00  0.00     0.060 C 
BRANCH   7   8
ATOM      8  C2' I4B d   1      -3.146  -3.506  -5.857  0.00  0.00    -0.013 C 
ATOM      9  C4' I4B d   1      -4.580  -3.947  -5.994  0.00  0.00     0.013 C 
ATOM     10  C3' I4B d   1      -2.901  -2.869  -4.522  0.00  0.00     0.013 C 
ENDBRANCH   7   8
ENDBRANCH   1   7
TORSDOF 2
ENDMDL
