MODEL 1
REMARK minimizedAffinity 20.6682606
REMARK minimizedRMSD -1
REMARK  2 active torsions:
REMARK  status: ('A' for Active; 'I' for Inactive)
REMARK    1  A    between atoms: C2'_3  and  C1'_4 
REMARK    2  A    between atoms: C1'_4  and  C1_5 
ROOT
ATOM      1  C1  I4B d   1      -2.141   1.199   2.948  0.00  0.00    -0.075 A 
ATOM      2  C2  I4B d   1      -1.713   2.446   2.564  0.00  0.00     0.003 A 
ATOM      3  C3  I4B d   1      -0.330   2.709   2.413  0.00  0.00     0.002 A 
ATOM      4  C4  I4B d   1       0.586   1.719   2.702  0.00  0.00    -0.004 A 
ATOM      5  C5  I4B d   1       0.150   0.449   3.069  0.00  0.00     0.002 A 
ATOM      6  C6  I4B d   1      -1.223   0.184   3.181  0.00  0.00     0.003 A 
ENDROOT
BRANCH   1   7
ATOM      7  C1' I4B d   1      -3.607   0.965   3.130  0.00  0.00     0.060 C 
BRANCH   7   8
ATOM      8  C2' I4B d   1      -4.153   2.078   4.001  0.00  0.00    -0.013 C 
ATOM      9  C4' I4B d   1      -5.636   2.249   3.800  0.00  0.00     0.013 C 
ATOM     10  C3' I4B d   1      -3.835   1.747   5.429  0.00  0.00     0.013 C 
ENDBRANCH   7   8
ENDBRANCH   1   7
TORSDOF 2
ENDMDL
