MODEL 1
REMARK minimizedAffinity 19.9382687
REMARK minimizedRMSD -1
REMARK  2 active torsions:
REMARK  status: ('A' for Active; 'I' for Inactive)
REMARK    1  A    between atoms: C2'_3  and  C1'_4 
REMARK    2  A    between atoms: C1'_4  and  C1_5 
ROOT
ATOM      1  C1  I4B d   1       3.297  -3.548   0.065  0.00  0.00    -0.075 A 
ATOM      2  C2  I4B d   1       3.330  -4.920   0.099  0.00  0.00     0.003 A 
ATOM      3  C3  I4B d   1       4.559  -5.607  -0.050  0.00  0.00     0.002 A 
ATOM      4  C4  I4B d   1       5.715  -4.890  -0.280  0.00  0.00    -0.004 A 
ATOM      5  C5  I4B d   1       5.684  -3.499  -0.292  0.00  0.00     0.002 A 
ATOM      6  C6  I4B d   1       4.469  -2.823  -0.106  0.00  0.00     0.003 A 
ENDROOT
BRANCH   1   7
ATOM      7  C1' I4B d   1       1.978  -2.855   0.192  0.00  0.00     0.060 C 
BRANCH   7   8
ATOM      8  C2' I4B d   1       2.200  -1.378  -0.059  0.00  0.00    -0.013 C 
ATOM      9  C4' I4B d   1       1.995  -1.034  -1.511  0.00  0.00     0.013 C 
ATOM     10  C3' I4B d   1       1.254  -0.612   0.818  0.00  0.00     0.013 C 
ENDBRANCH   7   8
ENDBRANCH   1   7
TORSDOF 2
ENDMDL
