MODEL 1
REMARK minimizedAffinity 12.6422815
REMARK minimizedRMSD -1
REMARK  2 active torsions:
REMARK  status: ('A' for Active; 'I' for Inactive)
REMARK    1  A    between atoms: C2'_3  and  C1'_4 
REMARK    2  A    between atoms: C1'_4  and  C1_5 
ROOT
ATOM      1  C1  I4B d   1       0.587  -3.615  -2.029  0.00  0.00    -0.075 A 
ATOM      2  C2  I4B d   1      -0.498  -3.827  -1.216  0.00  0.00     0.003 A 
ATOM      3  C3  I4B d   1      -1.482  -4.779  -1.573  0.00  0.00     0.002 A 
ATOM      4  C4  I4B d   1      -1.370  -5.456  -2.770  0.00  0.00    -0.004 A 
ATOM      5  C5  I4B d   1      -0.257  -5.258  -3.583  0.00  0.00     0.002 A 
ATOM      6  C6  I4B d   1       0.734  -4.340  -3.205  0.00  0.00     0.003 A 
ENDROOT
BRANCH   1   7
ATOM      7  C1' I4B d   1       1.591  -2.578  -1.637  0.00  0.00     0.060 C 
BRANCH   7   8
ATOM      8  C2' I4B d   1       2.001  -2.844  -0.203  0.00  0.00    -0.013 C 
ATOM      9  C4' I4B d   1       3.219  -3.728  -0.139  0.00  0.00     0.013 C 
ATOM     10  C3' I4B d   1       2.256  -1.523   0.458  0.00  0.00     0.013 C 
ENDBRANCH   7   8
ENDBRANCH   1   7
TORSDOF 2
ENDMDL
