MODEL 1
REMARK minimizedAffinity 15.9613171
REMARK minimizedRMSD -1
REMARK  2 active torsions:
REMARK  status: ('A' for Active; 'I' for Inactive)
REMARK    1  A    between atoms: C2'_3  and  C1'_4 
REMARK    2  A    between atoms: C1'_4  and  C1_5 
ROOT
ATOM      1  C1  I4B d   1       1.943  -4.977  -1.937  0.00  0.00    -0.075 A 
ATOM      2  C2  I4B d   1       2.857  -6.000  -1.980  0.00  0.00     0.003 A 
ATOM      3  C3  I4B d   1       4.014  -5.958  -1.165  0.00  0.00     0.002 A 
ATOM      4  C4  I4B d   1       4.241  -4.857  -0.364  0.00  0.00    -0.004 A 
ATOM      5  C5  I4B d   1       3.302  -3.831  -0.304  0.00  0.00     0.002 A 
ATOM      6  C6  I4B d   1       2.140  -3.897  -1.086  0.00  0.00     0.003 A 
ENDROOT
BRANCH   1   7
ATOM      7  C1' I4B d   1       0.749  -5.038  -2.835  0.00  0.00     0.060 C 
BRANCH   7   8
ATOM      8  C2' I4B d   1       0.886  -3.939  -3.869  0.00  0.00    -0.013 C 
ATOM      9  C4' I4B d   1      -0.338  -3.859  -4.744  0.00  0.00     0.013 C 
ATOM     10  C3' I4B d   1       1.118  -2.647  -3.144  0.00  0.00     0.013 C 
ENDBRANCH   7   8
ENDBRANCH   1   7
TORSDOF 2
ENDMDL
