MODEL 1
REMARK minimizedAffinity 13.4464054
REMARK minimizedRMSD -1
REMARK  2 active torsions:
REMARK  status: ('A' for Active; 'I' for Inactive)
REMARK    1  A    between atoms: C2'_3  and  C1'_4 
REMARK    2  A    between atoms: C1'_4  and  C1_5 
ROOT
ATOM      1  C1  I4B d   1      -0.612  -4.213  -2.026  0.00  0.00    -0.075 A 
ATOM      2  C2  I4B d   1      -1.503  -4.336  -3.063  0.00  0.00     0.003 A 
ATOM      3  C3  I4B d   1      -2.806  -4.835  -2.828  0.00  0.00     0.002 A 
ATOM      4  C4  I4B d   1      -3.158  -5.245  -1.558  0.00  0.00    -0.004 A 
ATOM      5  C5  I4B d   1      -2.261  -5.099  -0.503  0.00  0.00     0.002 A 
ATOM      6  C6  I4B d   1      -0.984  -4.568  -0.736  0.00  0.00     0.003 A 
ENDROOT
BRANCH   1   7
ATOM      7  C1' I4B d   1       0.768  -3.713  -2.317  0.00  0.00     0.060 C 
BRANCH   7   8
ATOM      8  C2' I4B d   1       1.135  -2.708  -1.245  0.00  0.00    -0.013 C 
ATOM      9  C4' I4B d   1       2.281  -3.203  -0.402  0.00  0.00     0.013 C 
ATOM     10  C3' I4B d   1       1.481  -1.415  -1.921  0.00  0.00     0.013 C 
ENDBRANCH   7   8
ENDBRANCH   1   7
TORSDOF 2
ENDMDL
