MODEL 1
REMARK minimizedAffinity 22.5032196
REMARK minimizedRMSD -1
REMARK  2 active torsions:
REMARK  status: ('A' for Active; 'I' for Inactive)
REMARK    1  A    between atoms: C2'_3  and  C1'_4 
REMARK    2  A    between atoms: C1'_4  and  C1_5 
ROOT
ATOM      1  C1  I4B d   1      -0.833   0.027   2.368  0.00  0.00    -0.075 A 
ATOM      2  C2  I4B d   1      -1.545   1.194   2.255  0.00  0.00     0.003 A 
ATOM      3  C3  I4B d   1      -2.916   1.229   2.608  0.00  0.00     0.002 A 
ATOM      4  C4  I4B d   1      -3.543   0.070   3.017  0.00  0.00    -0.004 A 
ATOM      5  C5  I4B d   1      -2.813  -1.108   3.153  0.00  0.00     0.002 A 
ATOM      6  C6  I4B d   1      -1.447  -1.127   2.838  0.00  0.00     0.003 A 
ENDROOT
BRANCH   1   7
ATOM      7  C1' I4B d   1       0.605   0.017   1.955  0.00  0.00     0.060 C 
BRANCH   7   8
ATOM      8  C2' I4B d   1       1.280   1.216   2.590  0.00  0.00    -0.013 C 
ATOM      9  C4' I4B d   1       1.560   0.975   4.050  0.00  0.00     0.013 C 
ATOM     10  C3' I4B d   1       2.546   1.488   1.833  0.00  0.00     0.013 C 
ENDBRANCH   7   8
ENDBRANCH   1   7
TORSDOF 2
ENDMDL
