MODEL 1
REMARK minimizedAffinity 17.762413
REMARK minimizedRMSD -1
REMARK  2 active torsions:
REMARK  status: ('A' for Active; 'I' for Inactive)
REMARK    1  A    between atoms: C2'_3  and  C1'_4 
REMARK    2  A    between atoms: C1'_4  and  C1_5 
ROOT
ATOM      1  C1  I4B d   1       2.464  -0.291  -1.021  0.00  0.00    -0.075 A 
ATOM      2  C2  I4B d   1       2.692  -1.142   0.032  0.00  0.00     0.003 A 
ATOM      3  C3  I4B d   1       2.267  -2.491  -0.038  0.00  0.00     0.002 A 
ATOM      4  C4  I4B d   1       1.579  -2.930  -1.151  0.00  0.00    -0.004 A 
ATOM      5  C5  I4B d   1       1.369  -2.072  -2.226  0.00  0.00     0.002 A 
ATOM      6  C6  I4B d   1       1.826  -0.747  -2.166  0.00  0.00     0.003 A 
ENDROOT
BRANCH   1   7
ATOM      7  C1' I4B d   1       2.897   1.136  -0.900  0.00  0.00     0.060 C 
BRANCH   7   8
ATOM      8  C2' I4B d   1       4.123   1.178  -0.011  0.00  0.00    -0.013 C 
ATOM      9  C4' I4B d   1       5.268   1.879  -0.693  0.00  0.00     0.013 C 
ATOM     10  C3' I4B d   1       3.746   1.872   1.264  0.00  0.00     0.013 C 
ENDBRANCH   7   8
ENDBRANCH   1   7
TORSDOF 2
ENDMDL
