MODEL 1
REMARK minimizedAffinity 4.39131069
REMARK minimizedRMSD -1
REMARK  2 active torsions:
REMARK  status: ('A' for Active; 'I' for Inactive)
REMARK    1  A    between atoms: C2'_3  and  C1'_4 
REMARK    2  A    between atoms: C1'_4  and  C1_5 
ROOT
ATOM      1  C1  I4B d   1       2.603  -3.315  -1.185  0.00  0.00    -0.075 A 
ATOM      2  C2  I4B d   1       1.510  -3.700  -1.920  0.00  0.00     0.003 A 
ATOM      3  C3  I4B d   1       1.308  -5.066  -2.234  0.00  0.00     0.002 A 
ATOM      4  C4  I4B d   1       2.244  -6.000  -1.840  0.00  0.00    -0.004 A 
ATOM      5  C5  I4B d   1       3.340  -5.610  -1.075  0.00  0.00     0.002 A 
ATOM      6  C6  I4B d   1       3.515  -4.261  -0.735  0.00  0.00     0.003 A 
ENDROOT
BRANCH   1   7
ATOM      7  C1' I4B d   1       2.803  -1.860  -0.899  0.00  0.00     0.060 C 
BRANCH   7   8
ATOM      8  C2' I4B d   1       2.007  -1.071  -1.918  0.00  0.00    -0.013 C 
ATOM      9  C4' I4B d   1       2.326   0.399  -1.839  0.00  0.00     0.013 C 
ATOM     10  C3' I4B d   1       2.320  -1.620  -3.277  0.00  0.00     0.013 C 
ENDBRANCH   7   8
ENDBRANCH   1   7
TORSDOF 2
ENDMDL
