MODEL 1
REMARK minimizedAffinity 1.27623284
REMARK minimizedRMSD -1
REMARK  0 active torsions:
REMARK  status: ('A' for Active; 'I' for Inactive)
ROOT
ATOM      1  C1  DEN d   1       2.950   1.522   5.999  0.00  0.00     0.130 A 
ATOM      2  C2  DEN d   1       4.260   0.900   5.827  0.00  0.00    -0.031 A 
ATOM      3  C3  DEN d   1       5.257   1.976   5.651  0.00  0.00     0.027 A 
ATOM      4  C4  DEN d   1       4.901   4.530   5.634  0.00  0.00     0.027 A 
ATOM      5  C5  DEN d   1       3.962   5.534   5.731  0.00  0.00    -0.003 A 
ATOM      6  C6  DEN d   1       2.627   5.272   5.889  0.00  0.00     0.001 A 
ATOM      7  C7  DEN d   1       2.198   3.975   6.000  0.00  0.00     0.017 A 
ATOM      8  C8  DEN d   1       3.138   2.958   5.896  0.00  0.00    -0.094 A 
ATOM      9  C9  DEN d   1       4.485   3.244   5.749  0.00  0.00    -0.072 A 
ENDROOT
TORSDOF 0
ENDMDL
