MODEL 1
REMARK minimizedAffinity 3.07263446
REMARK minimizedRMSD -1
REMARK  0 active torsions:
REMARK  status: ('A' for Active; 'I' for Inactive)
ROOT
ATOM      1  C1  DEN d   1       2.323   4.024   5.989  0.00  0.00     0.130 A 
ATOM      2  C2  DEN d   1       2.562   5.465   5.997  0.00  0.00    -0.031 A 
ATOM      3  C3  DEN d   1       3.917   5.706   5.462  0.00  0.00     0.027 A 
ATOM      4  C4  DEN d   1       5.658   3.998   4.623  0.00  0.00     0.027 A 
ATOM      5  C5  DEN d   1       5.915   2.658   4.432  0.00  0.00    -0.003 A 
ATOM      6  C6  DEN d   1       5.013   1.686   4.775  0.00  0.00     0.001 A 
ATOM      7  C7  DEN d   1       3.793   2.042   5.286  0.00  0.00     0.017 A 
ATOM      8  C8  DEN d   1       3.530   3.390   5.488  0.00  0.00    -0.094 A 
ATOM      9  C9  DEN d   1       4.449   4.359   5.123  0.00  0.00    -0.072 A 
ENDROOT
TORSDOF 0
ENDMDL
