MODEL 1
REMARK minimizedAffinity 6.32157087
REMARK minimizedRMSD -1
REMARK  0 active torsions:
REMARK  status: ('A' for Active; 'I' for Inactive)
ROOT
ATOM      1  C1  DEN d   1       4.125   1.186   5.003  0.00  0.00     0.130 A 
ATOM      2  C2  DEN d   1       2.762   1.071   5.517  0.00  0.00    -0.031 A 
ATOM      3  C3  DEN d   1       2.343   2.402   6.000  0.00  0.00     0.027 A 
ATOM      4  C4  DEN d   1       3.662   4.618   5.999  0.00  0.00     0.027 A 
ATOM      5  C5  DEN d   1       4.863   5.210   5.675  0.00  0.00    -0.003 A 
ATOM      6  C6  DEN d   1       5.905   4.500   5.140  0.00  0.00     0.001 A 
ATOM      7  C7  DEN d   1       5.751   3.166   4.871  0.00  0.00     0.017 A 
ATOM      8  C8  DEN d   1       4.546   2.561   5.202  0.00  0.00    -0.094 A 
ATOM      9  C9  DEN d   1       3.499   3.298   5.730  0.00  0.00    -0.072 A 
ENDROOT
TORSDOF 0
ENDMDL
