MODEL 1
REMARK minimizedAffinity -4.20626497
REMARK minimizedRMSD -1
REMARK  0 active torsions:
REMARK  status: ('A' for Active; 'I' for Inactive)
ROOT
ATOM      1  C1  DEN d   1       2.985   3.245   3.750  0.00  0.00     0.130 A 
ATOM      2  C2  DEN d   1       3.159   1.886   4.256  0.00  0.00    -0.031 A 
ATOM      3  C3  DEN d   1       4.271   1.899   5.228  0.00  0.00     0.027 A 
ATOM      4  C4  DEN d   1       5.728   3.882   5.999  0.00  0.00     0.027 A 
ATOM      5  C5  DEN d   1       5.964   5.230   5.842  0.00  0.00    -0.003 A 
ATOM      6  C6  DEN d   1       5.252   5.998   4.958  0.00  0.00     0.001 A 
ATOM      7  C7  DEN d   1       4.239   5.431   4.231  0.00  0.00     0.017 A 
ATOM      8  C8  DEN d   1       4.000   4.072   4.379  0.00  0.00    -0.094 A 
ATOM      9  C9  DEN d   1       4.722   3.315   5.286  0.00  0.00    -0.072 A 
ENDROOT
TORSDOF 0
ENDMDL
