MODEL 1
REMARK minimizedAffinity -2.9614439
REMARK minimizedRMSD -1
REMARK  0 active torsions:
REMARK  status: ('A' for Active; 'I' for Inactive)
ROOT
ATOM      1  C1  DEN d   1       5.277   4.846   6.000  0.00  0.00     0.130 A 
ATOM      2  C2  DEN d   1       4.866   6.000   5.205  0.00  0.00    -0.031 A 
ATOM      3  C3  DEN d   1       3.797   5.563   4.285  0.00  0.00     0.027 A 
ATOM      4  C4  DEN d   1       2.739   3.226   4.020  0.00  0.00     0.027 A 
ATOM      5  C5  DEN d   1       2.767   1.924   4.467  0.00  0.00    -0.003 A 
ATOM      6  C6  DEN d   1       3.649   1.500   5.425  0.00  0.00     0.001 A 
ATOM      7  C7  DEN d   1       4.510   2.397   5.999  0.00  0.00     0.017 A 
ATOM      8  C8  DEN d   1       4.493   3.710   5.548  0.00  0.00    -0.094 A 
ATOM      9  C9  DEN d   1       3.585   4.122   4.587  0.00  0.00    -0.072 A 
ENDROOT
TORSDOF 0
ENDMDL
