MODEL 1
REMARK minimizedAffinity -5.42105246
REMARK minimizedRMSD -1
REMARK  0 active torsions:
REMARK  status: ('A' for Active; 'I' for Inactive)
ROOT
ATOM      1  C1  DEN d   1       4.040   2.605   5.349  0.00  0.00     0.130 A 
ATOM      2  C2  DEN d   1       5.320   3.278   5.554  0.00  0.00    -0.031 A 
ATOM      3  C3  DEN d   1       5.158   4.694   5.168  0.00  0.00     0.027 A 
ATOM      4  C4  DEN d   1       3.061   5.905   4.281  0.00  0.00     0.027 A 
ATOM      5  C5  DEN d   1       1.739   5.747   3.928  0.00  0.00    -0.003 A 
ATOM      6  C6  DEN d   1       1.106   4.534   3.992  0.00  0.00     0.001 A 
ATOM      7  C7  DEN d   1       1.782   3.439   4.460  0.00  0.00     0.017 A 
ATOM      8  C8  DEN d   1       3.118   3.589   4.811  0.00  0.00    -0.094 A 
ATOM      9  C9  DEN d   1       3.736   4.826   4.752  0.00  0.00    -0.072 A 
ENDROOT
TORSDOF 0
ENDMDL
