MODEL 1
REMARK minimizedAffinity 8.01821423
REMARK minimizedRMSD -1
REMARK  1 active torsions:
REMARK  status: ('A' for Active; 'I' for Inactive)
REMARK    1  A    between atoms: C1_2  and  C2_3 
ROOT
ATOM      1  C2  UNL d   1      -3.064   3.765   3.830  0.00  0.00    -0.073 A 
ATOM      2  C3  UNL d   1      -4.147   4.153   3.033  0.00  0.00    -0.002 A 
ATOM      3  C4  UNL d   1      -4.848   3.205   2.287  0.00  0.00     0.004 A 
ATOM      4  C5  UNL d   1      -4.479   1.861   2.336  0.00  0.00    -0.004 A 
ATOM      5  C6  UNL d   1      -3.408   1.452   3.136  0.00  0.00    -0.075 A 
ATOM      6  C7  UNL d   1      -2.998   0.010   3.198  0.00  0.00     0.076 C 
ATOM      7  C8  UNL d   1      -2.707   2.410   3.880  0.00  0.00     0.001 A 
ENDROOT
BRANCH   1   8
ATOM      8  C1  UNL d   1      -2.308   4.784   4.643  0.00  0.00     0.053 C 
ATOM      9  C   UNL d   1      -3.237   5.792   5.301  0.00  0.00     0.018 C 
ENDBRANCH   1   8
TORSDOF 1
ENDMDL
