MODEL 1
REMARK minimizedAffinity 9.55981541
REMARK minimizedRMSD -1
REMARK  1 active torsions:
REMARK  status: ('A' for Active; 'I' for Inactive)
REMARK    1  A    between atoms: C1_2  and  C2_3 
ROOT
ATOM      1  C2  UNL d   1      -1.901   4.143   3.462  0.00  0.00    -0.073 A 
ATOM      2  C3  UNL d   1      -2.557   4.637   2.328  0.00  0.00    -0.002 A 
ATOM      3  C4  UNL d   1      -3.095   3.759   1.386  0.00  0.00     0.004 A 
ATOM      4  C5  UNL d   1      -2.989   2.381   1.571  0.00  0.00    -0.004 A 
ATOM      5  C6  UNL d   1      -2.348   1.868   2.703  0.00  0.00    -0.075 A 
ATOM      6  C7  UNL d   1      -2.224   0.387   2.915  0.00  0.00     0.076 C 
ATOM      7  C8  UNL d   1      -1.808   2.756   3.643  0.00  0.00     0.001 A 
ENDROOT
BRANCH   1   8
ATOM      8  C1  UNL d   1      -1.325   5.087   4.485  0.00  0.00     0.053 C 
ATOM      9  C   UNL d   1      -2.374   5.563   5.477  0.00  0.00     0.018 C 
ENDBRANCH   1   8
TORSDOF 1
ENDMDL
