MODEL 1
REMARK minimizedAffinity 1.1775943
REMARK minimizedRMSD -1
REMARK  1 active torsions:
REMARK  status: ('A' for Active; 'I' for Inactive)
REMARK    1  A    between atoms: C1_2  and  C2_3 
ROOT
ATOM      1  C2  UNL d   1       4.827   5.680   1.730  0.00  0.00    -0.073 A 
ATOM      2  C3  UNL d   1       5.956   5.113   1.128  0.00  0.00    -0.002 A 
ATOM      3  C4  UNL d   1       5.957   4.825  -0.237  0.00  0.00     0.004 A 
ATOM      4  C5  UNL d   1       4.835   5.107  -1.016  0.00  0.00    -0.004 A 
ATOM      5  C6  UNL d   1       3.701   5.685  -0.435  0.00  0.00    -0.075 A 
ATOM      6  C7  UNL d   1       2.485   5.993  -1.258  0.00  0.00     0.076 C 
ATOM      7  C8  UNL d   1       3.706   5.969   0.937  0.00  0.00     0.001 A 
ENDROOT
BRANCH   1   8
ATOM      8  C1  UNL d   1       4.823   5.999   3.202  0.00  0.00     0.053 C 
ATOM      9  C   UNL d   1       5.870   5.199   3.961  0.00  0.00     0.018 C 
ENDBRANCH   1   8
TORSDOF 1
ENDMDL
