MODEL 1
REMARK minimizedAffinity 10.3893623
REMARK minimizedRMSD -1
REMARK  1 active torsions:
REMARK  status: ('A' for Active; 'I' for Inactive)
REMARK    1  A    between atoms: C1_2  and  C2_3 
ROOT
ATOM      1  C2  UNL d   1      -2.248   3.741   4.317  0.00  0.00    -0.073 A 
ATOM      2  C3  UNL d   1      -1.765   4.360   5.475  0.00  0.00    -0.002 A 
ATOM      3  C4  UNL d   1      -2.408   5.485   5.994  0.00  0.00     0.004 A 
ATOM      4  C5  UNL d   1      -3.544   5.997   5.366  0.00  0.00    -0.004 A 
ATOM      5  C6  UNL d   1      -4.049   5.384   4.214  0.00  0.00    -0.075 A 
ATOM      6  C7  UNL d   1      -5.268   5.924   3.525  0.00  0.00     0.076 C 
ATOM      7  C8  UNL d   1      -3.395   4.257   3.698  0.00  0.00     0.001 A 
ENDROOT
BRANCH   1   8
ATOM      8  C1  UNL d   1      -1.561   2.523   3.757  0.00  0.00     0.053 C 
ATOM      9  C   UNL d   1      -2.546   1.410   3.434  0.00  0.00     0.018 C 
ENDBRANCH   1   8
TORSDOF 1
ENDMDL
