MODEL 1
REMARK minimizedAffinity 24.6154613
REMARK minimizedRMSD -1
REMARK  1 active torsions:
REMARK  status: ('A' for Active; 'I' for Inactive)
REMARK    1  A    between atoms: C1_2  and  C2_3 
ROOT
ATOM      1  C2  UNL d   1      -2.834   5.601   3.930  0.00  0.00    -0.073 A 
ATOM      2  C3  UNL d   1      -3.914   6.000   4.725  0.00  0.00    -0.002 A 
ATOM      3  C4  UNL d   1      -5.215   5.954   4.221  0.00  0.00     0.004 A 
ATOM      4  C5  UNL d   1      -5.450   5.502   2.923  0.00  0.00    -0.004 A 
ATOM      5  C6  UNL d   1      -4.384   5.087   2.117  0.00  0.00    -0.075 A 
ATOM      6  C7  UNL d   1      -4.619   4.601   0.717  0.00  0.00     0.076 C 
ATOM      7  C8  UNL d   1      -3.081   5.139   2.629  0.00  0.00     0.001 A 
ENDROOT
BRANCH   1   8
ATOM      8  C1  UNL d   1      -1.429   5.643   4.472  0.00  0.00     0.053 C 
ATOM      9  C   UNL d   1      -1.402   5.909   5.968  0.00  0.00     0.018 C 
ENDBRANCH   1   8
TORSDOF 1
ENDMDL
