MODEL 1
REMARK minimizedAffinity 12.2467785
REMARK minimizedRMSD -1
REMARK  1 active torsions:
REMARK  status: ('A' for Active; 'I' for Inactive)
REMARK    1  A    between atoms: C1_2  and  C2_3 
ROOT
ATOM      1  C2  UNL d   1       1.007  -0.206  -2.623  0.00  0.00    -0.073 A 
ATOM      2  C3  UNL d   1       0.421  -1.474  -2.714  0.00  0.00    -0.002 A 
ATOM      3  C4  UNL d   1       1.047  -2.582  -2.141  0.00  0.00     0.004 A 
ATOM      4  C5  UNL d   1       2.258  -2.433  -1.465  0.00  0.00    -0.004 A 
ATOM      5  C6  UNL d   1       2.852  -1.172  -1.353  0.00  0.00    -0.075 A 
ATOM      6  C7  UNL d   1       4.156  -0.996  -0.631  0.00  0.00     0.076 C 
ATOM      7  C8  UNL d   1       2.220  -0.065  -1.934  0.00  0.00     0.001 A 
ENDROOT
BRANCH   1   8
ATOM      8  C1  UNL d   1       0.332   0.994  -3.235  0.00  0.00     0.053 C 
ATOM      9  C   UNL d   1       0.160   0.847  -4.738  0.00  0.00     0.018 C 
ENDBRANCH   1   8
TORSDOF 1
ENDMDL
