MODEL 1
REMARK minimizedAffinity 8.51075459
REMARK minimizedRMSD -1
REMARK  1 active torsions:
REMARK  status: ('A' for Active; 'I' for Inactive)
REMARK    1  A    between atoms: C1_2  and  C2_3 
ROOT
ATOM      1  C2  UNL d   1      -0.498  -0.090  -1.966  0.00  0.00    -0.073 A 
ATOM      2  C3  UNL d   1      -1.138  -1.035  -1.156  0.00  0.00    -0.002 A 
ATOM      3  C4  UNL d   1      -2.269  -0.682  -0.419  0.00  0.00     0.004 A 
ATOM      4  C5  UNL d   1      -2.777   0.615  -0.491  0.00  0.00    -0.004 A 
ATOM      5  C6  UNL d   1      -2.159   1.570  -1.304  0.00  0.00    -0.075 A 
ATOM      6  C7  UNL d   1      -2.691   2.971  -1.391  0.00  0.00     0.076 C 
ATOM      7  C8  UNL d   1      -1.021   1.209  -2.039  0.00  0.00     0.001 A 
ENDROOT
BRANCH   1   8
ATOM      8  C1  UNL d   1       0.720  -0.469  -2.768  0.00  0.00     0.053 C 
ATOM      9  C   UNL d   1       2.010  -0.129  -2.039  0.00  0.00     0.018 C 
ENDBRANCH   1   8
TORSDOF 1
ENDMDL
