MODEL 1
REMARK minimizedAffinity 11.9466133
REMARK minimizedRMSD -1
REMARK  1 active torsions:
REMARK  status: ('A' for Active; 'I' for Inactive)
REMARK    1  A    between atoms: C1_2  and  C2_3 
ROOT
ATOM      1  C2  UNL d   1       0.202  -1.948  -1.562  0.00  0.00    -0.073 A 
ATOM      2  C3  UNL d   1       1.581  -1.814  -1.761  0.00  0.00    -0.002 A 
ATOM      3  C4  UNL d   1       2.131  -0.569  -2.067  0.00  0.00     0.004 A 
ATOM      4  C5  UNL d   1       1.311   0.555  -2.171  0.00  0.00    -0.004 A 
ATOM      5  C6  UNL d   1      -0.067   0.444  -1.963  0.00  0.00    -0.075 A 
ATOM      6  C7  UNL d   1      -0.963   1.643  -2.073  0.00  0.00     0.076 C 
ATOM      7  C8  UNL d   1      -0.613  -0.810  -1.659  0.00  0.00     0.001 A 
ENDROOT
BRANCH   1   8
ATOM      8  C1  UNL d   1      -0.396  -3.289  -1.225  0.00  0.00     0.053 C 
ATOM      9  C   UNL d   1       0.182  -3.865   0.058  0.00  0.00     0.018 C 
ENDBRANCH   1   8
TORSDOF 1
ENDMDL
