MODEL 1
REMARK minimizedAffinity 9.26607037
REMARK minimizedRMSD -1
REMARK  1 active torsions:
REMARK  status: ('A' for Active; 'I' for Inactive)
REMARK    1  A    between atoms: C1_2  and  C2_3 
ROOT
ATOM      1  C2  UNL d   1      -2.373  -1.740   1.284  0.00  0.00    -0.073 A 
ATOM      2  C3  UNL d   1      -2.147  -1.317  -0.030  0.00  0.00    -0.002 A 
ATOM      3  C4  UNL d   1      -1.798  -2.240  -1.017  0.00  0.00     0.004 A 
ATOM      4  C5  UNL d   1      -1.679  -3.593  -0.702  0.00  0.00    -0.004 A 
ATOM      5  C6  UNL d   1      -1.912  -4.037   0.603  0.00  0.00    -0.075 A 
ATOM      6  C7  UNL d   1      -1.786  -5.489   0.959  0.00  0.00     0.076 C 
ATOM      7  C8  UNL d   1      -2.260  -3.104   1.589  0.00  0.00     0.001 A 
ENDROOT
BRANCH   1   8
ATOM      8  C1  UNL d   1      -2.756  -0.748   2.352  0.00  0.00     0.053 C 
ATOM      9  C   UNL d   1      -1.837   0.463   2.362  0.00  0.00     0.018 C 
ENDBRANCH   1   8
TORSDOF 1
ENDMDL
