MODEL 1
REMARK minimizedAffinity 7.27886724
REMARK minimizedRMSD -1
REMARK  1 active torsions:
REMARK  status: ('A' for Active; 'I' for Inactive)
REMARK    1  A    between atoms: C1_2  and  C2_3 
ROOT
ATOM      1  C2  UNL d   1       2.178  -2.746  -0.768  0.00  0.00    -0.073 A 
ATOM      2  C3  UNL d   1       3.076  -1.677  -0.872  0.00  0.00    -0.002 A 
ATOM      3  C4  UNL d   1       2.971  -0.769  -1.927  0.00  0.00     0.004 A 
ATOM      4  C5  UNL d   1       1.966  -0.916  -2.882  0.00  0.00    -0.004 A 
ATOM      5  C6  UNL d   1       1.053  -1.971  -2.789  0.00  0.00    -0.075 A 
ATOM      6  C7  UNL d   1      -0.033  -2.144  -3.810  0.00  0.00     0.076 C 
ATOM      7  C8  UNL d   1       1.166  -2.880  -1.729  0.00  0.00     0.001 A 
ENDROOT
BRANCH   1   8
ATOM      8  C1  UNL d   1       2.283  -3.726   0.372  0.00  0.00     0.053 C 
ATOM      9  C   UNL d   1       0.918  -4.204   0.840  0.00  0.00     0.018 C 
ENDBRANCH   1   8
TORSDOF 1
ENDMDL
