MODEL 1
REMARK minimizedAffinity 9.89831543
REMARK minimizedRMSD -1
REMARK  1 active torsions:
REMARK  status: ('A' for Active; 'I' for Inactive)
REMARK    1  A    between atoms: C1_2  and  C2_3 
ROOT
ATOM      1  C2  UNL d   1       5.378   5.283   3.449  0.00  0.00    -0.073 A 
ATOM      2  C3  UNL d   1       5.986   4.197   2.809  0.00  0.00    -0.002 A 
ATOM      3  C4  UNL d   1       5.456   3.693   1.620  0.00  0.00     0.004 A 
ATOM      4  C5  UNL d   1       4.319   4.273   1.057  0.00  0.00    -0.004 A 
ATOM      5  C6  UNL d   1       3.704   5.366   1.676  0.00  0.00    -0.075 A 
ATOM      6  C7  UNL d   1       2.480   5.999   1.083  0.00  0.00     0.076 C 
ATOM      7  C8  UNL d   1       4.241   5.865   2.870  0.00  0.00     0.001 A 
ENDROOT
BRANCH   1   8
ATOM      8  C1  UNL d   1       5.950   5.835   4.729  0.00  0.00     0.053 C 
ATOM      9  C   UNL d   1       5.927   4.810   5.852  0.00  0.00     0.018 C 
ENDBRANCH   1   8
TORSDOF 1
ENDMDL
