MODEL 1
REMARK minimizedAffinity 7.28180361
REMARK minimizedRMSD -1
REMARK  1 active torsions:
REMARK  status: ('A' for Active; 'I' for Inactive)
REMARK    1  A    between atoms: C1_2  and  C2_3 
ROOT
ATOM      1  C2  UNL d   1      -4.519   0.540   3.696  0.00  0.00    -0.073 A 
ATOM      2  C3  UNL d   1      -3.640  -0.485   3.330  0.00  0.00    -0.002 A 
ATOM      3  C4  UNL d   1      -2.345  -0.185   2.905  0.00  0.00     0.004 A 
ATOM      4  C5  UNL d   1      -1.914   1.141   2.848  0.00  0.00    -0.004 A 
ATOM      5  C6  UNL d   1      -2.775   2.178   3.221  0.00  0.00    -0.075 A 
ATOM      6  C7  UNL d   1      -2.328   3.610   3.163  0.00  0.00     0.076 C 
ATOM      7  C8  UNL d   1      -4.074   1.869   3.644  0.00  0.00     0.001 A 
ENDROOT
BRANCH   1   8
ATOM      8  C1  UNL d   1      -5.916   0.220   4.162  0.00  0.00     0.053 C 
ATOM      9  C   UNL d   1      -5.999  -1.149   4.818  0.00  0.00     0.018 C 
ENDBRANCH   1   8
TORSDOF 1
ENDMDL
