MODEL 1
REMARK minimizedAffinity 9.41332436
REMARK minimizedRMSD -1
REMARK  1 active torsions:
REMARK  status: ('A' for Active; 'I' for Inactive)
REMARK    1  A    between atoms: C1_2  and  C2_3 
ROOT
ATOM      1  C2  UNL d   1       1.259   1.791  -1.927  0.00  0.00    -0.073 A 
ATOM      2  C3  UNL d   1       2.232   1.634  -0.934  0.00  0.00    -0.002 A 
ATOM      3  C4  UNL d   1       3.072   2.697  -0.596  0.00  0.00     0.004 A 
ATOM      4  C5  UNL d   1       2.943   3.926  -1.241  0.00  0.00    -0.004 A 
ATOM      5  C6  UNL d   1       1.969   4.106  -2.229  0.00  0.00    -0.075 A 
ATOM      6  C7  UNL d   1       1.819   5.422  -2.934  0.00  0.00     0.076 C 
ATOM      7  C8  UNL d   1       1.131   3.033  -2.565  0.00  0.00     0.001 A 
ENDROOT
BRANCH   1   8
ATOM      8  C1  UNL d   1       0.346   0.649  -2.291  0.00  0.00     0.053 C 
ATOM      9  C   UNL d   1       0.349   0.371  -3.786  0.00  0.00     0.018 C 
ENDBRANCH   1   8
TORSDOF 1
ENDMDL
