MODEL 1
REMARK minimizedAffinity 13.8926401
REMARK minimizedRMSD -1
REMARK  2 active torsions:
REMARK  status: ('A' for Active; 'I' for Inactive)
REMARK    1  A    between atoms: C2'_3  and  C1'_4 
REMARK    2  A    between atoms: C1'_4  and  C1_5 
ROOT
ATOM      1  C1  I4B d   1      -2.671   1.245   2.641  0.00  0.00    -0.075 A 
ATOM      2  C2  I4B d   1      -1.728   2.173   3.008  0.00  0.00     0.003 A 
ATOM      3  C3  I4B d   1      -0.744   2.594   2.081  0.00  0.00     0.002 A 
ATOM      4  C4  I4B d   1      -0.709   2.028   0.822  0.00  0.00    -0.004 A 
ATOM      5  C5  I4B d   1      -1.680   1.105   0.445  0.00  0.00     0.002 A 
ATOM      6  C6  I4B d   1      -2.674   0.719   1.356  0.00  0.00     0.003 A 
ENDROOT
BRANCH   1   7
ATOM      7  C1' I4B d   1      -3.675   0.798   3.656  0.00  0.00     0.060 C 
BRANCH   7   8
ATOM      8  C2' I4B d   1      -4.267  -0.513   3.180  0.00  0.00    -0.013 C 
ATOM      9  C4' I4B d   1      -3.773  -1.668   4.012  0.00  0.00     0.013 C 
ATOM     10  C3' I4B d   1      -5.761  -0.397   3.247  0.00  0.00     0.013 C 
ENDBRANCH   7   8
ENDBRANCH   1   7
TORSDOF 2
ENDMDL
