MODEL 1
REMARK minimizedAffinity 14.289403
REMARK minimizedRMSD -1
REMARK  2 active torsions:
REMARK  status: ('A' for Active; 'I' for Inactive)
REMARK    1  A    between atoms: C2'_3  and  C1'_4 
REMARK    2  A    between atoms: C1'_4  and  C1_5 
ROOT
ATOM      1  C1  I4B d   1      -1.547   1.628  -1.886  0.00  0.00    -0.075 A 
ATOM      2  C2  I4B d   1      -2.297   2.089  -2.939  0.00  0.00     0.003 A 
ATOM      3  C3  I4B d   1      -3.667   1.745  -3.042  0.00  0.00     0.002 A 
ATOM      4  C4  I4B d   1      -4.229   0.902  -2.105  0.00  0.00    -0.004 A 
ATOM      5  C5  I4B d   1      -3.472   0.455  -1.026  0.00  0.00     0.002 A 
ATOM      6  C6  I4B d   1      -2.126   0.830  -0.909  0.00  0.00     0.003 A 
ENDROOT
BRANCH   1   7
ATOM      7  C1' I4B d   1      -0.095   1.984  -1.826  0.00  0.00     0.060 C 
BRANCH   7   8
ATOM      8  C2' I4B d   1       0.060   3.151  -0.872  0.00  0.00    -0.013 C 
ATOM      9  C4' I4B d   1       0.746   2.727   0.400  0.00  0.00     0.013 C 
ATOM     10  C3' I4B d   1       0.838   4.223  -1.575  0.00  0.00     0.013 C 
ENDBRANCH   7   8
ENDBRANCH   1   7
TORSDOF 2
ENDMDL
