MODEL 1
REMARK minimizedAffinity 6.07065916
REMARK minimizedRMSD -1
REMARK  2 active torsions:
REMARK  status: ('A' for Active; 'I' for Inactive)
REMARK    1  A    between atoms: C2'_3  and  C1'_4 
REMARK    2  A    between atoms: C1'_4  and  C1_5 
ROOT
ATOM      1  C1  I4B d   1      -0.898   1.296  -0.847  0.00  0.00    -0.075 A 
ATOM      2  C2  I4B d   1       0.091   0.360  -1.017  0.00  0.00     0.003 A 
ATOM      3  C3  I4B d   1      -0.242  -0.981  -1.327  0.00  0.00     0.002 A 
ATOM      4  C4  I4B d   1      -1.570  -1.350  -1.408  0.00  0.00    -0.004 A 
ATOM      5  C5  I4B d   1      -2.571  -0.394  -1.259  0.00  0.00     0.002 A 
ATOM      6  C6  I4B d   1      -2.233   0.940  -0.989  0.00  0.00     0.003 A 
ENDROOT
BRANCH   1   7
ATOM      7  C1' I4B d   1      -0.512   2.696  -0.488  0.00  0.00     0.060 C 
BRANCH   7   8
ATOM      8  C2' I4B d   1       0.187   2.657   0.856  0.00  0.00    -0.013 C 
ATOM      9  C4' I4B d   1       1.208   3.759   0.972  0.00  0.00     0.013 C 
ATOM     10  C3' I4B d   1      -0.858   2.772   1.925  0.00  0.00     0.013 C 
ENDBRANCH   7   8
ENDBRANCH   1   7
TORSDOF 2
ENDMDL
