MODEL 1
REMARK minimizedAffinity 4.25738668
REMARK minimizedRMSD -1
REMARK  1 active torsions:
REMARK  status: ('A' for Active; 'I' for Inactive)
REMARK    1  A    between atoms: N_2  and  C1_3 
ROOT
ATOM      1  C1  UNL d   1       1.104   0.952   0.654  0.00  0.00     0.143 A 
ATOM      2  C2  UNL d   1      -0.126   0.889  -0.009  0.00  0.00    -0.057 A 
ATOM      3  C3  UNL d   1      -0.810   2.052  -0.384  0.00  0.00     0.033 A 
ATOM      4  C4  UNL d   1      -0.287   3.303  -0.075  0.00  0.00    -0.042 A 
ATOM      5  C5  UNL d   1       0.923   3.390   0.605  0.00  0.00     0.033 A 
ATOM      6  C6  UNL d   1       1.604   2.225   0.971  0.00  0.00    -0.057 A 
ENDROOT
BRANCH   1   7
ATOM      7  N   UNL d   1       1.785  -0.167   1.139  0.00  0.00    -0.732 N 
ATOM      8  C   UNL d   1       1.064  -1.371   1.496  0.00  0.00     0.284 C 
ATOM      9  H3  UNL d   1       2.657  -0.337   0.644  0.00  0.00     0.395 HD
ENDBRANCH   1   7
TORSDOF 1
ENDMDL
