MODEL 1
REMARK minimizedAffinity -0.0207742658
REMARK minimizedRMSD -1
REMARK  1 active torsions:
REMARK  status: ('A' for Active; 'I' for Inactive)
REMARK    1  A    between atoms: N_2  and  C1_3 
ROOT
ATOM      1  C1  UNL d   1       4.585  -2.038  -0.459  0.00  0.00     0.143 A 
ATOM      2  C2  UNL d   1       3.832  -0.875  -0.265  0.00  0.00    -0.057 A 
ATOM      3  C3  UNL d   1       2.579  -0.917   0.359  0.00  0.00     0.033 A 
ATOM      4  C4  UNL d   1       2.042  -2.131   0.774  0.00  0.00    -0.042 A 
ATOM      5  C5  UNL d   1       2.762  -3.303   0.568  0.00  0.00     0.033 A 
ATOM      6  C6  UNL d   1       4.015  -3.254  -0.049  0.00  0.00    -0.057 A 
ENDROOT
BRANCH   1   7
ATOM      7  N   UNL d   1       5.792  -2.075  -1.161  0.00  0.00    -0.732 N 
ATOM      8  C   UNL d   1       5.947  -2.932  -2.317  0.00  0.00     0.284 C 
ATOM      9  H3  UNL d   1       6.207  -1.152  -1.269  0.00  0.00     0.395 HD
ENDBRANCH   1   7
TORSDOF 1
ENDMDL
