MODEL 1
REMARK minimizedAffinity 4.16610479
REMARK minimizedRMSD -1
REMARK  1 active torsions:
REMARK  status: ('A' for Active; 'I' for Inactive)
REMARK    1  A    between atoms: N_2  and  C1_3 
ROOT
ATOM      1  C1  UNL d   1      -5.305   2.797  -3.220  0.00  0.00     0.143 A 
ATOM      2  C2  UNL d   1      -3.923   2.935  -3.051  0.00  0.00    -0.057 A 
ATOM      3  C3  UNL d   1      -3.266   4.126  -3.382  0.00  0.00     0.033 A 
ATOM      4  C4  UNL d   1      -3.979   5.194  -3.918  0.00  0.00    -0.042 A 
ATOM      5  C5  UNL d   1      -5.349   5.070  -4.118  0.00  0.00     0.033 A 
ATOM      6  C6  UNL d   1      -6.000   3.881  -3.779  0.00  0.00    -0.057 A 
ENDROOT
BRANCH   1   7
ATOM      7  N   UNL d   1      -6.000   1.605  -3.001  0.00  0.00    -0.732 N 
ATOM      8  C   UNL d   1      -5.391   0.522  -2.259  0.00  0.00     0.284 C 
ATOM      9  H3  UNL d   1      -6.980   1.762  -2.778  0.00  0.00     0.395 HD
ENDBRANCH   1   7
TORSDOF 1
ENDMDL
