MODEL 1
REMARK minimizedAffinity 9.04303455
REMARK minimizedRMSD -1
REMARK  1 active torsions:
REMARK  status: ('A' for Active; 'I' for Inactive)
REMARK    1  A    between atoms: N_2  and  C1_3 
ROOT
ATOM      1  C1  UNL d   1      -3.834   0.052  -2.795  0.00  0.00     0.143 A 
ATOM      2  C2  UNL d   1      -2.967   1.149  -2.809  0.00  0.00    -0.057 A 
ATOM      3  C3  UNL d   1      -1.646   1.025  -3.255  0.00  0.00     0.033 A 
ATOM      4  C4  UNL d   1      -1.158  -0.210  -3.670  0.00  0.00    -0.042 A 
ATOM      5  C5  UNL d   1      -1.995  -1.320  -3.641  0.00  0.00     0.033 A 
ATOM      6  C6  UNL d   1      -3.316  -1.188  -3.201  0.00  0.00    -0.057 A 
ENDROOT
BRANCH   1   7
ATOM      7  N   UNL d   1      -5.129   0.090  -2.271  0.00  0.00    -0.732 N 
ATOM      8  C   UNL d   1      -6.000   1.214  -2.539  0.00  0.00     0.284 C 
ATOM      9  H3  UNL d   1      -5.592  -0.815  -2.314  0.00  0.00     0.395 HD
ENDBRANCH   1   7
TORSDOF 1
ENDMDL
