MODEL 1
REMARK minimizedAffinity 1.9455713
REMARK minimizedRMSD -1
REMARK  0 active torsions:
REMARK  status: ('A' for Active; 'I' for Inactive)
ROOT
ATOM      1  C   UNL d   1      -1.343  -5.961   5.895  0.00  0.00     0.172 C 
ATOM      2  N   UNL d   1      -0.088  -5.272   5.705  0.00  0.00    -0.070 N 
ATOM      3  C1  UNL d   1       1.152  -5.777   5.995  0.00  0.00    -0.004 A 
ATOM      4  C2  UNL d   1       2.085  -4.815   5.671  0.00  0.00    -0.047 A 
ATOM      5  C3  UNL d   1       1.381  -3.694   5.170  0.00  0.00    -0.047 A 
ATOM      6  C4  UNL d   1       0.038  -4.004   5.202  0.00  0.00    -0.004 A 
ENDROOT
TORSDOF 0
ENDMDL
