MODEL 1
REMARK minimizedAffinity -0.159108236
REMARK minimizedRMSD -1
REMARK  0 active torsions:
REMARK  status: ('A' for Active; 'I' for Inactive)
ROOT
ATOM      1  C   UNL d   1       5.069   1.939  -0.241  0.00  0.00     0.172 C 
ATOM      2  N   UNL d   1       3.690   1.539  -0.088  0.00  0.00    -0.070 N 
ATOM      3  C1  UNL d   1       2.635   2.381   0.141  0.00  0.00    -0.004 A 
ATOM      4  C2  UNL d   1       1.493   1.614   0.225  0.00  0.00    -0.047 A 
ATOM      5  C3  UNL d   1       1.875   0.264   0.042  0.00  0.00    -0.047 A 
ATOM      6  C4  UNL d   1       3.240   0.246  -0.150  0.00  0.00    -0.004 A 
ENDROOT
TORSDOF 0
ENDMDL
