MODEL 1
REMARK minimizedAffinity 1.2961725
REMARK minimizedRMSD -1
REMARK  0 active torsions:
REMARK  status: ('A' for Active; 'I' for Inactive)
ROOT
ATOM      1  C   UNL d   1       2.863  -0.938  -0.108  0.00  0.00     0.172 C 
ATOM      2  N   UNL d   1       2.471   0.428   0.151  0.00  0.00    -0.070 N 
ATOM      3  C1  UNL d   1       3.325   1.476   0.369  0.00  0.00    -0.004 A 
ATOM      4  C2  UNL d   1       2.563   2.605   0.575  0.00  0.00    -0.047 A 
ATOM      5  C3  UNL d   1       1.204   2.223   0.479  0.00  0.00    -0.047 A 
ATOM      6  C4  UNL d   1       1.176   0.870   0.216  0.00  0.00    -0.004 A 
ENDROOT
TORSDOF 0
ENDMDL
