MODEL 1
REMARK minimizedAffinity 4.50367641
REMARK minimizedRMSD -1
REMARK  0 active torsions:
REMARK  status: ('A' for Active; 'I' for Inactive)
ROOT
ATOM      1  C   UNL d   1       0.299   0.938   0.806  0.00  0.00     0.172 C 
ATOM      2  N   UNL d   1       1.618   0.393   0.585  0.00  0.00    -0.070 N 
ATOM      3  C1  UNL d   1       1.903  -0.911   0.281  0.00  0.00    -0.004 A 
ATOM      4  C2  UNL d   1       3.270  -1.026   0.149  0.00  0.00    -0.047 A 
ATOM      5  C3  UNL d   1       3.826   0.254   0.383  0.00  0.00    -0.047 A 
ATOM      6  C4  UNL d   1       2.782   1.113   0.651  0.00  0.00    -0.004 A 
ENDROOT
TORSDOF 0
ENDMDL
