MODEL 1
REMARK minimizedAffinity 3.7308228
REMARK minimizedRMSD -1
REMARK  0 active torsions:
REMARK  status: ('A' for Active; 'I' for Inactive)
ROOT
ATOM      1  C   UNL d   1       1.048   2.192   0.212  0.00  0.00     0.172 C 
ATOM      2  N   UNL d   1       2.134   1.282   0.491  0.00  0.00    -0.070 N 
ATOM      3  C1  UNL d   1       3.078   1.441   1.470  0.00  0.00    -0.004 A 
ATOM      4  C2  UNL d   1       3.934   0.362   1.410  0.00  0.00    -0.047 A 
ATOM      5  C3  UNL d   1       3.489  -0.474   0.359  0.00  0.00    -0.047 A 
ATOM      6  C4  UNL d   1       2.373   0.119  -0.194  0.00  0.00    -0.004 A 
ENDROOT
TORSDOF 0
ENDMDL
