MODEL 1
REMARK minimizedAffinity 4.0177927
REMARK minimizedRMSD -1
REMARK  0 active torsions:
REMARK  status: ('A' for Active; 'I' for Inactive)
ROOT
ATOM      1  C   UNL d   1       3.143   1.579   0.216  0.00  0.00     0.172 C 
ATOM      2  N   UNL d   1       2.681   0.224   0.034  0.00  0.00    -0.070 N 
ATOM      3  C1  UNL d   1       1.498  -0.145  -0.548  0.00  0.00    -0.004 A 
ATOM      4  C2  UNL d   1       1.430  -1.522  -0.531  0.00  0.00    -0.047 A 
ATOM      5  C3  UNL d   1       2.613  -1.996   0.082  0.00  0.00    -0.047 A 
ATOM      6  C4  UNL d   1       3.370  -0.895   0.422  0.00  0.00    -0.004 A 
ENDROOT
TORSDOF 0
ENDMDL
