MODEL 1
REMARK minimizedAffinity 2.853863
REMARK minimizedRMSD -1
REMARK  0 active torsions:
REMARK  status: ('A' for Active; 'I' for Inactive)
ROOT
ATOM      1  C   UNL d   1       5.435   6.000   3.699  0.00  0.00     0.172 C 
ATOM      2  N   UNL d   1       4.695   4.917   4.303  0.00  0.00    -0.070 N 
ATOM      3  C1  UNL d   1       5.090   4.194   5.397  0.00  0.00    -0.004 A 
ATOM      4  C2  UNL d   1       4.113   3.257   5.659  0.00  0.00    -0.047 A 
ATOM      5  C3  UNL d   1       3.097   3.422   4.688  0.00  0.00    -0.047 A 
ATOM      6  C4  UNL d   1       3.483   4.456   3.861  0.00  0.00    -0.004 A 
ENDROOT
TORSDOF 0
ENDMDL
