MODEL 1
REMARK minimizedAffinity 0.0491204411
REMARK minimizedRMSD -1
REMARK  0 active torsions:
REMARK  status: ('A' for Active; 'I' for Inactive)
ROOT
ATOM      1  C   UNL d   1       1.871  -2.699  -0.144  0.00  0.00     0.172 C 
ATOM      2  N   UNL d   1       2.396  -1.367   0.044  0.00  0.00    -0.070 N 
ATOM      3  C1  UNL d   1       1.713  -0.201  -0.175  0.00  0.00    -0.004 A 
ATOM      4  C2  UNL d   1       2.559   0.846   0.119  0.00  0.00    -0.047 A 
ATOM      5  C3  UNL d   1       3.794   0.290   0.529  0.00  0.00    -0.047 A 
ATOM      6  C4  UNL d   1       3.666  -1.082   0.473  0.00  0.00    -0.004 A 
ENDROOT
TORSDOF 0
ENDMDL
