MODEL 1
REMARK minimizedAffinity -0.890275419
REMARK minimizedRMSD -1
REMARK  0 active torsions:
REMARK  status: ('A' for Active; 'I' for Inactive)
ROOT
ATOM      1  C   UNL d   1       0.695   1.809  -0.097  0.00  0.00     0.172 C 
ATOM      2  N   UNL d   1       1.697   0.770  -0.069  0.00  0.00    -0.070 N 
ATOM      3  C1  UNL d   1       1.593  -0.456  -0.668  0.00  0.00    -0.004 A 
ATOM      4  C2  UNL d   1       2.754  -1.153  -0.410  0.00  0.00    -0.047 A 
ATOM      5  C3  UNL d   1       3.584  -0.316   0.373  0.00  0.00    -0.047 A 
ATOM      6  C4  UNL d   1       2.906   0.868   0.569  0.00  0.00    -0.004 A 
ENDROOT
TORSDOF 0
ENDMDL
