MODEL 1
REMARK minimizedAffinity 1.7247647
REMARK minimizedRMSD -1
REMARK  0 active torsions:
REMARK  status: ('A' for Active; 'I' for Inactive)
ROOT
ATOM      1  C   UNL d   1      -0.337  -0.765  -0.850  0.00  0.00     0.172 C 
ATOM      2  N   UNL d   1       0.859  -1.567  -0.735  0.00  0.00    -0.070 N 
ATOM      3  C1  UNL d   1       1.185  -2.367   0.327  0.00  0.00    -0.004 A 
ATOM      4  C2  UNL d   1       2.398  -2.961   0.051  0.00  0.00    -0.047 A 
ATOM      5  C3  UNL d   1       2.815  -2.501  -1.220  0.00  0.00    -0.047 A 
ATOM      6  C4  UNL d   1       1.844  -1.639  -1.684  0.00  0.00    -0.004 A 
ENDROOT
TORSDOF 0
ENDMDL
