MODEL 1
REMARK minimizedAffinity 3.29964066
REMARK minimizedRMSD -1
REMARK  0 active torsions:
REMARK  status: ('A' for Active; 'I' for Inactive)
ROOT
ATOM      1  C   UNL d   1      -0.737  -0.200  -1.092  0.00  0.00     0.172 C 
ATOM      2  N   UNL d   1       0.295  -1.196  -0.921  0.00  0.00    -0.070 N 
ATOM      3  C1  UNL d   1       0.104  -2.474  -0.468  0.00  0.00    -0.004 A 
ATOM      4  C2  UNL d   1       1.330  -3.102  -0.448  0.00  0.00    -0.047 A 
ATOM      5  C3  UNL d   1       2.292  -2.169  -0.904  0.00  0.00    -0.047 A 
ATOM      6  C4  UNL d   1       1.624  -0.997  -1.189  0.00  0.00    -0.004 A 
ENDROOT
TORSDOF 0
ENDMDL
