MODEL 1
REMARK minimizedAffinity -2.75705338
REMARK minimizedRMSD -1
REMARK  0 active torsions:
REMARK  status: ('A' for Active; 'I' for Inactive)
ROOT
ATOM      1  C   UNL d   1      -2.191   0.925   3.011  0.00  0.00     0.124 A 
ATOM      2  C1  UNL d   1      -2.763   0.714   1.764  0.00  0.00     0.062 A 
ATOM      3  C2  UNL d   1      -2.016   0.142   0.739  0.00  0.00     0.162 A 
ATOM      4  C3  UNL d   1      -0.688  -0.225   0.957  0.00  0.00    -0.034 A 
ATOM      5  C4  UNL d   1      -0.119  -0.009   2.213  0.00  0.00     0.162 A 
ATOM      6  C5  UNL d   1      -0.870   0.564   3.234  0.00  0.00     0.062 A 
ATOM      7  F   UNL d   1      -0.315   0.767   4.438  0.00  0.00    -0.097 F 
ATOM      8  F1  UNL d   1       1.155  -0.350   2.456  0.00  0.00    -0.096 F 
ATOM      9  I   UNL d   1       0.433  -1.082  -0.574  0.00  0.00    -0.060 I 
ATOM     10  F2  UNL d   1      -2.594  -0.051  -0.456  0.00  0.00    -0.096 F 
ATOM     11  F3  UNL d   1      -4.039   1.064   1.546  0.00  0.00    -0.097 F 
ATOM     12  F4  UNL d   1      -2.912   1.477   3.995  0.00  0.00    -0.092 F 
ENDROOT
TORSDOF 0
ENDMDL
