MODEL 1
REMARK minimizedAffinity -4.3760314
REMARK minimizedRMSD -1
REMARK  0 active torsions:
REMARK  status: ('A' for Active; 'I' for Inactive)
ROOT
ATOM      1  C   UNL d   1       1.504   0.188  -1.688  0.00  0.00     0.124 A 
ATOM      2  C1  UNL d   1       1.479  -0.878  -0.800  0.00  0.00     0.062 A 
ATOM      3  C2  UNL d   1       0.608  -0.864   0.286  0.00  0.00     0.162 A 
ATOM      4  C3  UNL d   1      -0.246   0.220   0.490  0.00  0.00    -0.034 A 
ATOM      5  C4  UNL d   1      -0.214   1.289  -0.407  0.00  0.00     0.162 A 
ATOM      6  C5  UNL d   1       0.657   1.270  -1.491  0.00  0.00     0.062 A 
ATOM      7  F   UNL d   1       0.680   2.301  -2.349  0.00  0.00    -0.097 F 
ATOM      8  F1  UNL d   1      -1.022   2.347  -0.242  0.00  0.00    -0.096 F 
ATOM      9  I   UNL d   1      -1.548   0.245   2.113  0.00  0.00    -0.060 I 
ATOM     10  F2  UNL d   1       0.606  -1.907   1.129  0.00  0.00    -0.096 F 
ATOM     11  F3  UNL d   1       2.296  -1.924  -0.987  0.00  0.00    -0.097 F 
ATOM     12  F4  UNL d   1       2.343   0.172  -2.732  0.00  0.00    -0.092 F 
ENDROOT
TORSDOF 0
ENDMDL
