MODEL 1
REMARK minimizedAffinity -1.64234459
REMARK minimizedRMSD -1
REMARK  0 active torsions:
REMARK  status: ('A' for Active; 'I' for Inactive)
ROOT
ATOM      1  C   UNL d   1       1.451  -0.157  -2.055  0.00  0.00     0.124 A 
ATOM      2  C1  UNL d   1       0.622   0.957  -2.047  0.00  0.00     0.062 A 
ATOM      3  C2  UNL d   1      -0.320   1.121  -1.036  0.00  0.00     0.162 A 
ATOM      4  C3  UNL d   1      -0.439   0.169  -0.023  0.00  0.00    -0.034 A 
ATOM      5  C4  UNL d   1       0.396  -0.949  -0.038  0.00  0.00     0.162 A 
ATOM      6  C5  UNL d   1       1.337  -1.108  -1.051  0.00  0.00     0.062 A 
ATOM      7  F   UNL d   1       2.136  -2.185  -1.057  0.00  0.00    -0.097 F 
ATOM      8  F1  UNL d   1       0.309  -1.883   0.920  0.00  0.00    -0.096 F 
ATOM      9  I   UNL d   1      -1.848   0.412   1.490  0.00  0.00    -0.060 I 
ATOM     10  F2  UNL d   1      -1.107   2.207  -1.054  0.00  0.00    -0.096 F 
ATOM     11  F3  UNL d   1       0.730   1.877  -3.017  0.00  0.00    -0.097 F 
ATOM     12  F4  UNL d   1       2.356  -0.313  -3.029  0.00  0.00    -0.092 F 
ENDROOT
TORSDOF 0
ENDMDL
