MODEL 1
REMARK minimizedAffinity -0.571640372
REMARK minimizedRMSD -1
REMARK  0 active torsions:
REMARK  status: ('A' for Active; 'I' for Inactive)
ROOT
ATOM      1  C   UNL d   1       1.194  -0.427  -1.471  0.00  0.00     0.124 A 
ATOM      2  C1  UNL d   1       0.456   0.741  -1.339  0.00  0.00     0.062 A 
ATOM      3  C2  UNL d   1      -0.408   0.905  -0.260  0.00  0.00     0.162 A 
ATOM      4  C3  UNL d   1      -0.539  -0.103   0.695  0.00  0.00    -0.034 A 
ATOM      5  C4  UNL d   1       0.205  -1.275   0.555  0.00  0.00     0.162 A 
ATOM      6  C5  UNL d   1       1.068  -1.434  -0.525  0.00  0.00     0.062 A 
ATOM      7  F   UNL d   1       1.780  -2.563  -0.651  0.00  0.00    -0.097 F 
ATOM      8  F1  UNL d   1       0.103  -2.264   1.456  0.00  0.00    -0.096 F 
ATOM      9  I   UNL d   1      -1.831   0.138   2.310  0.00  0.00    -0.060 I 
ATOM     10  F2  UNL d   1      -1.109   2.044  -0.158  0.00  0.00    -0.096 F 
ATOM     11  F3  UNL d   1       0.576   1.715  -2.253  0.00  0.00    -0.097 F 
ATOM     12  F4  UNL d   1       2.024  -0.582  -2.511  0.00  0.00    -0.092 F 
ENDROOT
TORSDOF 0
ENDMDL
