MODEL 1
REMARK minimizedAffinity 0.976961195
REMARK minimizedRMSD -1
REMARK  0 active torsions:
REMARK  status: ('A' for Active; 'I' for Inactive)
ROOT
ATOM      1  C   UNL d   1       1.646  -0.173  -1.684  0.00  0.00     0.124 A 
ATOM      2  C1  UNL d   1       1.427  -1.177  -0.751  0.00  0.00     0.062 A 
ATOM      3  C2  UNL d   1       0.425  -1.038   0.205  0.00  0.00     0.162 A 
ATOM      4  C3  UNL d   1      -0.367   0.110   0.232  0.00  0.00    -0.034 A 
ATOM      5  C4  UNL d   1      -0.140   1.116  -0.709  0.00  0.00     0.162 A 
ATOM      6  C5  UNL d   1       0.862   0.972  -1.662  0.00  0.00     0.062 A 
ATOM      7  F   UNL d   1       1.072   1.943  -2.563  0.00  0.00    -0.097 F 
ATOM      8  F1  UNL d   1      -0.884   2.232  -0.711  0.00  0.00    -0.096 F 
ATOM      9  I   UNL d   1      -1.866   0.322   1.660  0.00  0.00    -0.060 I 
ATOM     10  F2  UNL d   1       0.236  -2.024   1.095  0.00  0.00    -0.096 F 
ATOM     11  F3  UNL d   1       2.184  -2.284  -0.769  0.00  0.00    -0.097 F 
ATOM     12  F4  UNL d   1       2.611  -0.309  -2.602  0.00  0.00    -0.092 F 
ENDROOT
TORSDOF 0
ENDMDL
