MODEL 1
REMARK minimizedAffinity -2.49261522
REMARK minimizedRMSD -1
REMARK  0 active torsions:
REMARK  status: ('A' for Active; 'I' for Inactive)
ROOT
ATOM      1  C   UNL d   1       1.569   0.076  -1.604  0.00  0.00     0.124 A 
ATOM      2  C1  UNL d   1       0.644   1.111  -1.597  0.00  0.00     0.062 A 
ATOM      3  C2  UNL d   1      -0.433   1.081  -0.715  0.00  0.00     0.162 A 
ATOM      4  C3  UNL d   1      -0.589   0.013   0.169  0.00  0.00    -0.034 A 
ATOM      5  C4  UNL d   1       0.344  -1.024   0.155  0.00  0.00     0.162 A 
ATOM      6  C5  UNL d   1       1.418  -0.990  -0.728  0.00  0.00     0.062 A 
ATOM      7  F   UNL d   1       2.311  -1.991  -0.734  0.00  0.00    -0.097 F 
ATOM      8  F1  UNL d   1       0.224  -2.066   0.991  0.00  0.00    -0.096 F 
ATOM      9  I   UNL d   1      -2.198  -0.035   1.489  0.00  0.00    -0.060 I 
ATOM     10  F2  UNL d   1      -1.311   2.095  -0.729  0.00  0.00    -0.096 F 
ATOM     11  F3  UNL d   1       0.786   2.142  -2.442  0.00  0.00    -0.097 F 
ATOM     12  F4  UNL d   1       2.603   0.107  -2.454  0.00  0.00    -0.092 F 
ENDROOT
TORSDOF 0
ENDMDL
