MODEL 1
REMARK minimizedAffinity 1.62767971
REMARK minimizedRMSD -1
REMARK  0 active torsions:
REMARK  status: ('A' for Active; 'I' for Inactive)
ROOT
ATOM      1  C   UNL d   1       1.033  -0.605  -1.077  0.00  0.00     0.124 A 
ATOM      2  C1  UNL d   1       0.298   0.571  -1.012  0.00  0.00     0.062 A 
ATOM      3  C2  UNL d   1      -0.370   0.916   0.159  0.00  0.00     0.162 A 
ATOM      4  C3  UNL d   1      -0.305   0.084   1.277  0.00  0.00    -0.034 A 
ATOM      5  C4  UNL d   1       0.436  -1.097   1.205  0.00  0.00     0.162 A 
ATOM      6  C5  UNL d   1       1.101  -1.437   0.032  0.00  0.00     0.062 A 
ATOM      7  F   UNL d   1       1.811  -2.573  -0.029  0.00  0.00    -0.097 F 
ATOM      8  F1  UNL d   1       0.519  -1.919   2.261  0.00  0.00    -0.096 F 
ATOM      9  I   UNL d   1      -1.302   0.597   3.031  0.00  0.00    -0.060 I 
ATOM     10  F2  UNL d   1      -1.072   2.058   0.193  0.00  0.00    -0.096 F 
ATOM     11  F3  UNL d   1       0.230   1.377  -2.082  0.00  0.00    -0.097 F 
ATOM     12  F4  UNL d   1       1.674  -0.935  -2.205  0.00  0.00    -0.092 F 
ENDROOT
TORSDOF 0
ENDMDL
