MODEL 1
REMARK minimizedAffinity 0.367330015
REMARK minimizedRMSD -1
REMARK  0 active torsions:
REMARK  status: ('A' for Active; 'I' for Inactive)
ROOT
ATOM      1  C   UNL d   1       1.231  -0.192  -1.140  0.00  0.00     0.124 A 
ATOM      2  C1  UNL d   1       0.313   0.847  -1.080  0.00  0.00     0.062 A 
ATOM      3  C2  UNL d   1      -0.671   0.855  -0.096  0.00  0.00     0.162 A 
ATOM      4  C3  UNL d   1      -0.742  -0.180   0.837  0.00  0.00    -0.034 A 
ATOM      5  C4  UNL d   1       0.185  -1.221   0.770  0.00  0.00     0.162 A 
ATOM      6  C5  UNL d   1       1.167  -1.225  -0.216  0.00  0.00     0.062 A 
ATOM      7  F   UNL d   1       2.053  -2.229  -0.272  0.00  0.00    -0.097 F 
ATOM      8  F1  UNL d   1       0.146  -2.231   1.652  0.00  0.00    -0.096 F 
ATOM      9  I   UNL d   1      -2.212  -0.171   2.311  0.00  0.00    -0.060 I 
ATOM     10  F2  UNL d   1      -1.546   1.871  -0.062  0.00  0.00    -0.096 F 
ATOM     11  F3  UNL d   1       0.372   1.845  -1.973  0.00  0.00    -0.097 F 
ATOM     12  F4  UNL d   1       2.177  -0.198  -2.089  0.00  0.00    -0.092 F 
ENDROOT
TORSDOF 0
ENDMDL
