MODEL 1
REMARK minimizedAffinity 1.69734728
REMARK minimizedRMSD -1
REMARK  0 active torsions:
REMARK  status: ('A' for Active; 'I' for Inactive)
ROOT
ATOM      1  C   UNL d   1       1.129  -0.599  -1.472  0.00  0.00     0.124 A 
ATOM      2  C1  UNL d   1       1.083  -1.391  -0.333  0.00  0.00     0.062 A 
ATOM      3  C2  UNL d   1       0.267  -1.034   0.736  0.00  0.00     0.162 A 
ATOM      4  C3  UNL d   1      -0.512   0.121   0.671  0.00  0.00    -0.034 A 
ATOM      5  C4  UNL d   1      -0.460   0.914  -0.477  0.00  0.00     0.162 A 
ATOM      6  C5  UNL d   1       0.358   0.552  -1.543  0.00  0.00     0.062 A 
ATOM      7  F   UNL d   1       0.400   1.318  -2.642  0.00  0.00    -0.097 F 
ATOM      8  F1  UNL d   1      -1.196   2.031  -0.573  0.00  0.00    -0.096 F 
ATOM      9  I   UNL d   1      -1.734   0.660   2.268  0.00  0.00    -0.060 I 
ATOM     10  F2  UNL d   1       0.243  -1.818   1.824  0.00  0.00    -0.096 F 
ATOM     11  F3  UNL d   1       1.829  -2.504  -0.261  0.00  0.00    -0.097 F 
ATOM     12  F4  UNL d   1       1.916  -0.945  -2.498  0.00  0.00    -0.092 F 
ENDROOT
TORSDOF 0
ENDMDL
