MODEL 1
REMARK minimizedAffinity -1.59433401
REMARK minimizedRMSD -1
REMARK  0 active torsions:
REMARK  status: ('A' for Active; 'I' for Inactive)
ROOT
ATOM      1  C   UNL d   1      -0.558  -0.329   1.553  0.00  0.00     0.124 A 
ATOM      2  C1  UNL d   1      -1.055   0.276   0.407  0.00  0.00     0.062 A 
ATOM      3  C2  UNL d   1      -1.903   1.375   0.507  0.00  0.00     0.162 A 
ATOM      4  C3  UNL d   1      -2.260   1.877   1.758  0.00  0.00    -0.034 A 
ATOM      5  C4  UNL d   1      -1.757   1.263   2.907  0.00  0.00     0.162 A 
ATOM      6  C5  UNL d   1      -0.909   0.165   2.801  0.00  0.00     0.062 A 
ATOM      7  F   UNL d   1      -0.430  -0.418   3.910  0.00  0.00    -0.097 F 
ATOM      8  F1  UNL d   1      -2.079   1.720   4.126  0.00  0.00    -0.096 F 
ATOM      9  I   UNL d   1      -3.528   3.520   1.912  0.00  0.00    -0.060 I 
ATOM     10  F2  UNL d   1      -2.369   1.940  -0.617  0.00  0.00    -0.096 F 
ATOM     11  F3  UNL d   1      -0.718  -0.200  -0.801  0.00  0.00    -0.097 F 
ATOM     12  F4  UNL d   1       0.258  -1.386   1.454  0.00  0.00    -0.092 F 
ENDROOT
TORSDOF 0
ENDMDL
