MODEL 1
REMARK minimizedAffinity 6.39585638
REMARK minimizedRMSD -1
REMARK  0 active torsions:
REMARK  status: ('A' for Active; 'I' for Inactive)
ROOT
ATOM      1  C   UNL d   1       1.409  -1.870  -1.307  0.00  0.00     0.124 A 
ATOM      2  C1  UNL d   1       0.747  -1.852  -0.087  0.00  0.00     0.062 A 
ATOM      3  C2  UNL d   1       0.316  -0.645   0.457  0.00  0.00     0.162 A 
ATOM      4  C3  UNL d   1       0.545   0.553  -0.219  0.00  0.00    -0.034 A 
ATOM      5  C4  UNL d   1       1.212   0.527  -1.445  0.00  0.00     0.162 A 
ATOM      6  C5  UNL d   1       1.640  -0.681  -1.985  0.00  0.00     0.062 A 
ATOM      7  F   UNL d   1       2.279  -0.697  -3.163  0.00  0.00    -0.097 F 
ATOM      8  F1  UNL d   1       1.447   1.661  -2.121  0.00  0.00    -0.096 F 
ATOM      9  I   UNL d   1      -0.098   2.359   0.592  0.00  0.00    -0.060 I 
ATOM     10  F2  UNL d   1      -0.320  -0.657   1.638  0.00  0.00    -0.096 F 
ATOM     11  F3  UNL d   1       0.523  -2.999   0.570  0.00  0.00    -0.097 F 
ATOM     12  F4  UNL d   1       1.824  -3.032  -1.828  0.00  0.00    -0.092 F 
ENDROOT
TORSDOF 0
ENDMDL
