MODEL 1
REMARK minimizedAffinity 1.25424302
REMARK minimizedRMSD -1
REMARK  0 active torsions:
REMARK  status: ('A' for Active; 'I' for Inactive)
ROOT
ATOM      1  C   UNL d   1       1.746  -0.390  -1.518  0.00  0.00     0.124 A 
ATOM      2  C1  UNL d   1       1.434  -1.484  -0.723  0.00  0.00     0.062 A 
ATOM      3  C2  UNL d   1       0.347  -1.432   0.145  0.00  0.00     0.162 A 
ATOM      4  C3  UNL d   1      -0.437  -0.281   0.222  0.00  0.00    -0.034 A 
ATOM      5  C4  UNL d   1      -0.117   0.816  -0.580  0.00  0.00     0.162 A 
ATOM      6  C5  UNL d   1       0.970   0.758  -1.446  0.00  0.00     0.062 A 
ATOM      7  F   UNL d   1       1.270   1.816  -2.213  0.00  0.00    -0.097 F 
ATOM      8  F1  UNL d   1      -0.850   1.938  -0.531  0.00  0.00    -0.096 F 
ATOM      9  I   UNL d   1      -2.063  -0.198   1.518  0.00  0.00    -0.060 I 
ATOM     10  F2  UNL d   1       0.069  -2.504   0.902  0.00  0.00    -0.096 F 
ATOM     11  F3  UNL d   1       2.182  -2.595  -0.790  0.00  0.00    -0.097 F 
ATOM     12  F4  UNL d   1       2.793  -0.443  -2.351  0.00  0.00    -0.092 F 
ENDROOT
TORSDOF 0
ENDMDL
