MODEL 1
REMARK minimizedAffinity 2.86822915
REMARK minimizedRMSD -1
REMARK  0 active torsions:
REMARK  status: ('A' for Active; 'I' for Inactive)
ROOT
ATOM      1  C   UNL d   1      -2.139   0.040   3.336  0.00  0.00     0.124 A 
ATOM      2  C1  UNL d   1      -2.750  -0.244   2.123  0.00  0.00     0.062 A 
ATOM      3  C2  UNL d   1      -2.221   0.259   0.938  0.00  0.00     0.162 A 
ATOM      4  C3  UNL d   1      -1.072   1.050   0.960  0.00  0.00    -0.034 A 
ATOM      5  C4  UNL d   1      -0.464   1.332   2.184  0.00  0.00     0.162 A 
ATOM      6  C5  UNL d   1      -0.997   0.827   3.366  0.00  0.00     0.062 A 
ATOM      7  F   UNL d   1      -0.405   1.102   4.537  0.00  0.00    -0.097 F 
ATOM      8  F1  UNL d   1       0.642   2.089   2.242  0.00  0.00    -0.096 F 
ATOM      9  I   UNL d   1      -0.278   1.804  -0.810  0.00  0.00    -0.060 I 
ATOM     10  F2  UNL d   1      -2.833  -0.031  -0.220  0.00  0.00    -0.096 F 
ATOM     11  F3  UNL d   1      -3.855  -1.003   2.091  0.00  0.00    -0.097 F 
ATOM     12  F4  UNL d   1      -2.651  -0.445   4.475  0.00  0.00    -0.092 F 
ENDROOT
TORSDOF 0
ENDMDL
