MODEL 1
REMARK minimizedAffinity -3.04510593
REMARK minimizedRMSD -1
REMARK  0 active torsions:
REMARK  status: ('A' for Active; 'I' for Inactive)
ROOT
ATOM      1  C   UNL d   1       0.789   1.424  -2.229  0.00  0.00     0.124 A 
ATOM      2  C1  UNL d   1       1.713   0.391  -2.154  0.00  0.00     0.062 A 
ATOM      3  C2  UNL d   1       1.520  -0.656  -1.258  0.00  0.00     0.162 A 
ATOM      4  C3  UNL d   1       0.397  -0.677  -0.430  0.00  0.00    -0.034 A 
ATOM      5  C4  UNL d   1      -0.528   0.366  -0.512  0.00  0.00     0.162 A 
ATOM      6  C5  UNL d   1      -0.330   1.411  -1.409  0.00  0.00     0.062 A 
ATOM      7  F   UNL d   1      -1.224   2.408  -1.480  0.00  0.00    -0.097 F 
ATOM      8  F1  UNL d   1      -1.618   0.378   0.269  0.00  0.00    -0.096 F 
ATOM      9  I   UNL d   1       0.104  -2.241   0.911  0.00  0.00    -0.060 I 
ATOM     10  F2  UNL d   1       2.429  -1.641  -1.206  0.00  0.00    -0.096 F 
ATOM     11  F3  UNL d   1       2.795   0.402  -2.945  0.00  0.00    -0.097 F 
ATOM     12  F4  UNL d   1       0.978   2.431  -3.092  0.00  0.00    -0.092 F 
ENDROOT
TORSDOF 0
ENDMDL
