MODEL 1
REMARK minimizedAffinity 7.11804104
REMARK minimizedRMSD -1
REMARK  0 active torsions:
REMARK  status: ('A' for Active; 'I' for Inactive)
ROOT
ATOM      1  C   UNL d   1       0.101   1.207  -0.997  0.00  0.00     0.124 A 
ATOM      2  C1  UNL d   1      -1.013   1.887  -0.525  0.00  0.00     0.062 A 
ATOM      3  C2  UNL d   1      -1.629   1.485   0.657  0.00  0.00     0.162 A 
ATOM      4  C3  UNL d   1      -1.132   0.399   1.377  0.00  0.00    -0.034 A 
ATOM      5  C4  UNL d   1      -0.011  -0.280   0.895  0.00  0.00     0.162 A 
ATOM      6  C5  UNL d   1       0.601   0.125  -0.287  0.00  0.00     0.062 A 
ATOM      7  F   UNL d   1       1.678  -0.533  -0.741  0.00  0.00    -0.097 F 
ATOM      8  F1  UNL d   1       0.494  -1.329   1.562  0.00  0.00    -0.096 F 
ATOM      9  I   UNL d   1      -2.050  -0.204   3.144  0.00  0.00    -0.060 I 
ATOM     10  F2  UNL d   1      -2.705   2.160   1.090  0.00  0.00    -0.096 F 
ATOM     11  F3  UNL d   1      -1.499   2.932  -1.209  0.00  0.00    -0.097 F 
ATOM     12  F4  UNL d   1       0.691   1.595  -2.134  0.00  0.00    -0.092 F 
ENDROOT
TORSDOF 0
ENDMDL
