MODEL 1
REMARK minimizedAffinity 2.72509646
REMARK minimizedRMSD -1
REMARK  0 active torsions:
REMARK  status: ('A' for Active; 'I' for Inactive)
ROOT
ATOM      1  C   UNL d   1       1.108  -0.742  -1.311  0.00  0.00     0.124 A 
ATOM      2  C1  UNL d   1       0.499   0.505  -1.280  0.00  0.00     0.062 A 
ATOM      3  C2  UNL d   1      -0.148   0.940  -0.127  0.00  0.00     0.162 A 
ATOM      4  C3  UNL d   1      -0.188   0.127   1.006  0.00  0.00    -0.034 A 
ATOM      5  C4  UNL d   1       0.426  -1.126   0.967  0.00  0.00     0.162 A 
ATOM      6  C5  UNL d   1       1.071  -1.556  -0.188  0.00  0.00     0.062 A 
ATOM      7  F   UNL d   1       1.659  -2.761  -0.216  0.00  0.00    -0.097 F 
ATOM      8  F1  UNL d   1       0.406  -1.932   2.038  0.00  0.00    -0.096 F 
ATOM      9  I   UNL d   1      -1.155   0.774   2.732  0.00  0.00    -0.060 I 
ATOM     10  F2  UNL d   1      -0.728   2.149  -0.126  0.00  0.00    -0.096 F 
ATOM     11  F3  UNL d   1       0.533   1.293  -2.365  0.00  0.00    -0.097 F 
ATOM     12  F4  UNL d   1       1.729  -1.158  -2.422  0.00  0.00    -0.092 F 
ENDROOT
TORSDOF 0
ENDMDL
