MODEL 1
REMARK minimizedAffinity 0.381084919
REMARK minimizedRMSD -1
REMARK  0 active torsions:
REMARK  status: ('A' for Active; 'I' for Inactive)
ROOT
ATOM      1  C   UNL d   1      -1.578   1.097   2.235  0.00  0.00     0.124 A 
ATOM      2  C1  UNL d   1      -1.834  -0.049   1.494  0.00  0.00     0.062 A 
ATOM      3  C2  UNL d   1      -0.938  -0.462   0.512  0.00  0.00     0.162 A 
ATOM      4  C3  UNL d   1       0.222   0.271   0.264  0.00  0.00    -0.034 A 
ATOM      5  C4  UNL d   1       0.472   1.423   1.012  0.00  0.00     0.162 A 
ATOM      6  C5  UNL d   1      -0.426   1.832   1.993  0.00  0.00     0.062 A 
ATOM      7  F   UNL d   1      -0.177   2.939   2.707  0.00  0.00    -0.097 F 
ATOM      8  F1  UNL d   1       1.578   2.152   0.800  0.00  0.00    -0.096 F 
ATOM      9  I   UNL d   1       1.563  -0.342  -1.204  0.00  0.00    -0.060 I 
ATOM     10  F2  UNL d   1      -1.211  -1.573  -0.189  0.00  0.00    -0.096 F 
ATOM     11  F3  UNL d   1      -2.946  -0.760   1.725  0.00  0.00    -0.097 F 
ATOM     12  F4  UNL d   1      -2.441   1.492   3.179  0.00  0.00    -0.092 F 
ENDROOT
TORSDOF 0
ENDMDL
