MODEL 1
REMARK minimizedAffinity -3.47051287
REMARK minimizedRMSD -1
REMARK  0 active torsions:
REMARK  status: ('A' for Active; 'I' for Inactive)
ROOT
ATOM      1  C2' OXE d   1      -0.633   0.864  -2.537  0.00  0.00     0.078 C 
ATOM      2  C1' OXE d   1      -0.942  -1.383  -4.191  0.00  0.00     0.078 C 
ATOM      3  C1  OXE d   1       0.450  -1.039  -3.725  0.00  0.00    -0.078 A 
ATOM      4  C2  OXE d   1       0.599   0.089  -2.955  0.00  0.00    -0.078 A 
ATOM      5  C3  OXE d   1       1.854   0.421  -2.453  0.00  0.00     0.003 A 
ATOM      6  C4  OXE d   1       2.989  -0.295  -2.852  0.00  0.00    -0.002 A 
ATOM      7  C5  OXE d   1       2.865  -1.425  -3.669  0.00  0.00    -0.002 A 
ATOM      8  C6  OXE d   1       1.601  -1.834  -4.078  0.00  0.00     0.003 A 
ENDROOT
TORSDOF 0
ENDMDL
