MODEL 1
REMARK minimizedAffinity -4.618402
REMARK minimizedRMSD -1
REMARK  0 active torsions:
REMARK  status: ('A' for Active; 'I' for Inactive)
ROOT
ATOM      1  C2' OXE d   1       1.082   0.126  -1.577  0.00  0.00     0.078 C 
ATOM      2  C1' OXE d   1      -1.395   0.904  -0.511  0.00  0.00     0.078 C 
ATOM      3  C1  OXE d   1      -0.241   0.731   0.445  0.00  0.00    -0.078 A 
ATOM      4  C2  OXE d   1       0.955   0.305  -0.080  0.00  0.00    -0.078 A 
ATOM      5  C3  OXE d   1       2.066   0.182   0.750  0.00  0.00     0.003 A 
ATOM      6  C4  OXE d   1       1.938   0.340   2.135  0.00  0.00    -0.002 A 
ATOM      7  C5  OXE d   1       0.718   0.735   2.694  0.00  0.00    -0.002 A 
ATOM      8  C6  OXE d   1      -0.368   0.976   1.860  0.00  0.00     0.003 A 
ENDROOT
TORSDOF 0
ENDMDL
