MODEL 1
REMARK minimizedAffinity -5.95880461
REMARK minimizedRMSD -1
REMARK  0 active torsions:
REMARK  status: ('A' for Active; 'I' for Inactive)
ROOT
ATOM      1  C2' OXE d   1       1.915   1.042   1.340  0.00  0.00     0.078 C 
ATOM      2  C1' OXE d   1       0.264   0.001  -0.678  0.00  0.00     0.078 C 
ATOM      3  C1  OXE d   1      -0.236  -0.062   0.744  0.00  0.00    -0.078 A 
ATOM      4  C2  OXE d   1       0.598   0.407   1.730  0.00  0.00    -0.078 A 
ATOM      5  C3  OXE d   1       0.163   0.422   3.052  0.00  0.00     0.003 A 
ATOM      6  C4  OXE d   1      -1.053  -0.177   3.405  0.00  0.00    -0.002 A 
ATOM      7  C5  OXE d   1      -1.900  -0.696   2.420  0.00  0.00    -0.002 A 
ATOM      8  C6  OXE d   1      -1.527  -0.609   1.084  0.00  0.00     0.003 A 
ENDROOT
TORSDOF 0
ENDMDL
