MODEL 1
REMARK minimizedAffinity -5.24563503
REMARK minimizedRMSD -1
REMARK  0 active torsions:
REMARK  status: ('A' for Active; 'I' for Inactive)
ROOT
ATOM      1  C2' OXE d   1      -0.078  -1.576   2.872  0.00  0.00     0.078 C 
ATOM      2  C1' OXE d   1       2.097   0.170   2.547  0.00  0.00     0.078 C 
ATOM      3  C1  OXE d   1       0.960   0.271   1.561  0.00  0.00    -0.078 A 
ATOM      4  C2  OXE d   1      -0.079  -0.618   1.699  0.00  0.00    -0.078 A 
ATOM      5  C3  OXE d   1      -1.178  -0.532   0.850  0.00  0.00     0.003 A 
ATOM      6  C4  OXE d   1      -1.166   0.349  -0.238  0.00  0.00    -0.002 A 
ATOM      7  C5  OXE d   1      -0.100   1.236  -0.421  0.00  0.00    -0.002 A 
ATOM      8  C6  OXE d   1       0.949   1.239   0.492  0.00  0.00     0.003 A 
ENDROOT
TORSDOF 0
ENDMDL
