MODEL 1
REMARK minimizedAffinity -6.40099478
REMARK minimizedRMSD -1
REMARK  0 active torsions:
REMARK  status: ('A' for Active; 'I' for Inactive)
ROOT
ATOM      1  C2' OXE d   1       0.029  -0.263  -1.024  0.00  0.00     0.078 C 
ATOM      2  C1' OXE d   1       1.035  -0.619   1.572  0.00  0.00     0.078 C 
ATOM      3  C1  OXE d   1      -0.414  -0.227   1.427  0.00  0.00    -0.078 A 
ATOM      4  C2  OXE d   1      -0.886  -0.010   0.155  0.00  0.00    -0.078 A 
ATOM      5  C3  OXE d   1      -2.229   0.300  -0.039  0.00  0.00     0.003 A 
ATOM      6  C4  OXE d   1      -3.065   0.543   1.057  0.00  0.00    -0.002 A 
ATOM      7  C5  OXE d   1      -2.595   0.366   2.362  0.00  0.00    -0.002 A 
ATOM      8  C6  OXE d   1      -1.286  -0.060   2.563  0.00  0.00     0.003 A 
ENDROOT
TORSDOF 0
ENDMDL
