MODEL 1
REMARK minimizedAffinity -5.73543978
REMARK minimizedRMSD -1
REMARK  0 active torsions:
REMARK  status: ('A' for Active; 'I' for Inactive)
ROOT
ATOM      1  C2' OXE d   1       2.397   0.214   1.377  0.00  0.00     0.078 C 
ATOM      2  C1' OXE d   1       0.806   0.269  -0.935  0.00  0.00     0.078 C 
ATOM      3  C1  OXE d   1       0.106   0.208   0.400  0.00  0.00    -0.078 A 
ATOM      4  C2  OXE d   1       0.893   0.134   1.524  0.00  0.00    -0.078 A 
ATOM      5  C3  OXE d   1       0.299   0.131   2.783  0.00  0.00     0.003 A 
ATOM      6  C4  OXE d   1      -1.093   0.048   2.909  0.00  0.00    -0.002 A 
ATOM      7  C5  OXE d   1      -1.912   0.082   1.776  0.00  0.00    -0.002 A 
ATOM      8  C6  OXE d   1      -1.331   0.204   0.518  0.00  0.00     0.003 A 
ENDROOT
TORSDOF 0
ENDMDL
