MODEL 1
REMARK minimizedAffinity -4.58048201
REMARK minimizedRMSD -1
REMARK  0 active torsions:
REMARK  status: ('A' for Active; 'I' for Inactive)
ROOT
ATOM      1  C2' OXE d   1      -0.315   0.883  -1.153  0.00  0.00     0.078 C 
ATOM      2  C1' OXE d   1      -2.131   0.199   0.875  0.00  0.00     0.078 C 
ATOM      3  C1  OXE d   1      -0.661   0.190   1.214  0.00  0.00    -0.078 A 
ATOM      4  C2  OXE d   1       0.223   0.480   0.203  0.00  0.00    -0.078 A 
ATOM      5  C3  OXE d   1       1.587   0.540   0.475  0.00  0.00     0.003 A 
ATOM      6  C4  OXE d   1       2.076   0.157   1.730  0.00  0.00    -0.002 A 
ATOM      7  C5  OXE d   1       1.196  -0.181   2.763  0.00  0.00    -0.002 A 
ATOM      8  C6  OXE d   1      -0.175  -0.128   2.534  0.00  0.00     0.003 A 
ENDROOT
TORSDOF 0
ENDMDL
