MODEL 1
REMARK minimizedAffinity -5.59896803
REMARK minimizedRMSD -1
REMARK  0 active torsions:
REMARK  status: ('A' for Active; 'I' for Inactive)
ROOT
ATOM      1  C2' OXE d   1       1.582  -0.084   1.445  0.00  0.00     0.078 C 
ATOM      2  C1' OXE d   1       0.029   0.114  -0.886  0.00  0.00     0.078 C 
ATOM      3  C1  OXE d   1      -0.689   0.121   0.441  0.00  0.00    -0.078 A 
ATOM      4  C2  OXE d   1       0.075  -0.023   1.574  0.00  0.00    -0.078 A 
ATOM      5  C3  OXE d   1      -0.531   0.032   2.826  0.00  0.00     0.003 A 
ATOM      6  C4  OXE d   1      -1.926   0.078   2.936  0.00  0.00    -0.002 A 
ATOM      7  C5  OXE d   1      -2.725   0.185   1.793  0.00  0.00    -0.002 A 
ATOM      8  C6  OXE d   1      -2.121   0.251   0.543  0.00  0.00     0.003 A 
ENDROOT
TORSDOF 0
ENDMDL
