MODEL 1
REMARK minimizedAffinity -3.43101501
REMARK minimizedRMSD -1
REMARK  0 active torsions:
REMARK  status: ('A' for Active; 'I' for Inactive)
ROOT
ATOM      1  C2' OXE d   1       1.895   0.425   1.319  0.00  0.00     0.078 C 
ATOM      2  C1' OXE d   1       0.027   0.290  -0.773  0.00  0.00     0.078 C 
ATOM      3  C1  OXE d   1      -0.501   0.372   0.638  0.00  0.00    -0.078 A 
ATOM      4  C2  OXE d   1       0.420   0.390   1.658  0.00  0.00    -0.078 A 
ATOM      5  C3  OXE d   1      -0.012   0.521   2.974  0.00  0.00     0.003 A 
ATOM      6  C4  OXE d   1      -1.378   0.478   3.280  0.00  0.00    -0.002 A 
ATOM      7  C5  OXE d   1      -2.332   0.419   2.259  0.00  0.00    -0.002 A 
ATOM      8  C6  OXE d   1      -1.912   0.408   0.933  0.00  0.00     0.003 A 
ENDROOT
TORSDOF 0
ENDMDL
