MODEL 1
REMARK minimizedAffinity -5.03497219
REMARK minimizedRMSD -1
REMARK  0 active torsions:
REMARK  status: ('A' for Active; 'I' for Inactive)
ROOT
ATOM      1  C2' OXE d   1      -0.002  -0.263  -0.273  0.00  0.00     0.078 C 
ATOM      2  C1' OXE d   1       1.106  -1.024   2.191  0.00  0.00     0.078 C 
ATOM      3  C1  OXE d   1      -0.311  -0.507   2.187  0.00  0.00    -0.078 A 
ATOM      4  C2  OXE d   1      -0.829  -0.093   0.984  0.00  0.00    -0.078 A 
ATOM      5  C3  OXE d   1      -2.150   0.341   0.914  0.00  0.00     0.003 A 
ATOM      6  C4  OXE d   1      -2.904   0.504   2.083  0.00  0.00    -0.002 A 
ATOM      7  C5  OXE d   1      -2.382   0.126   3.324  0.00  0.00    -0.002 A 
ATOM      8  C6  OXE d   1      -1.104  -0.420   3.388  0.00  0.00     0.003 A 
ENDROOT
TORSDOF 0
ENDMDL
