MODEL 1
REMARK minimizedAffinity -3.22446012
REMARK minimizedRMSD -1
REMARK  0 active torsions:
REMARK  status: ('A' for Active; 'I' for Inactive)
ROOT
ATOM      1  C2' OXE d   1      -0.487   0.326  -0.769  0.00  0.00     0.078 C 
ATOM      2  C1' OXE d   1      -2.663   0.355   1.005  0.00  0.00     0.078 C 
ATOM      3  C1  OXE d   1      -1.280   0.217   1.590  0.00  0.00    -0.078 A 
ATOM      4  C2  OXE d   1      -0.225   0.156   0.712  0.00  0.00    -0.078 A 
ATOM      5  C3  OXE d   1       1.077   0.084   1.201  0.00  0.00     0.003 A 
ATOM      6  C4  OXE d   1       1.310  -0.082   2.572  0.00  0.00    -0.002 A 
ATOM      7  C5  OXE d   1       0.247  -0.063   3.481  0.00  0.00    -0.002 A 
ATOM      8  C6  OXE d   1      -1.048   0.128   3.011  0.00  0.00     0.003 A 
ENDROOT
TORSDOF 0
ENDMDL
