MODEL 1
REMARK minimizedAffinity 2.51445937
REMARK minimizedRMSD -1
REMARK  0 active torsions:
REMARK  status: ('A' for Active; 'I' for Inactive)
ROOT
ATOM      1  C2' OXE d   1       0.374  -0.639  -2.549  0.00  0.00     0.078 C 
ATOM      2  C1' OXE d   1       0.836   0.544  -0.046  0.00  0.00     0.078 C 
ATOM      3  C1  OXE d   1      -0.595   0.387  -0.496  0.00  0.00    -0.078 A 
ATOM      4  C2  OXE d   1      -0.810  -0.150  -1.742  0.00  0.00    -0.078 A 
ATOM      5  C3  OXE d   1      -2.112  -0.368  -2.184  0.00  0.00     0.003 A 
ATOM      6  C4  OXE d   1      -3.201   0.096  -1.437  0.00  0.00    -0.002 A 
ATOM      7  C5  OXE d   1      -3.003   0.682  -0.182  0.00  0.00    -0.002 A 
ATOM      8  C6  OXE d   1      -1.711   0.796   0.320  0.00  0.00     0.003 A 
ENDROOT
TORSDOF 0
ENDMDL
