MODEL 1
REMARK minimizedAffinity -4.92079544
REMARK minimizedRMSD -1
REMARK  0 active torsions:
REMARK  status: ('A' for Active; 'I' for Inactive)
ROOT
ATOM      1  C2' OXE d   1       1.780   1.104   1.374  0.00  0.00     0.078 C 
ATOM      2  C1' OXE d   1       0.147   0.113  -0.683  0.00  0.00     0.078 C 
ATOM      3  C1  OXE d   1      -0.272  -0.159   0.741  0.00  0.00    -0.078 A 
ATOM      4  C2  OXE d   1       0.558   0.290   1.740  0.00  0.00    -0.078 A 
ATOM      5  C3  OXE d   1       0.192   0.113   3.071  0.00  0.00     0.003 A 
ATOM      6  C4  OXE d   1      -0.935  -0.649   3.401  0.00  0.00    -0.002 A 
ATOM      7  C5  OXE d   1      -1.772  -1.149   2.398  0.00  0.00    -0.002 A 
ATOM      8  C6  OXE d   1      -1.479  -0.877   1.067  0.00  0.00     0.003 A 
ENDROOT
TORSDOF 0
ENDMDL
