MODEL 1
REMARK minimizedAffinity 4.41566133
REMARK minimizedRMSD -1
REMARK  0 active torsions:
REMARK  status: ('A' for Active; 'I' for Inactive)
ROOT
ATOM      1  C2' OXE d   1       3.663   2.242   1.088  0.00  0.00     0.078 C 
ATOM      2  C1' OXE d   1       2.002   0.476  -0.326  0.00  0.00     0.078 C 
ATOM      3  C1  OXE d   1       1.572   0.889   1.059  0.00  0.00    -0.078 A 
ATOM      4  C2  OXE d   1       2.414   1.716   1.762  0.00  0.00    -0.078 A 
ATOM      5  C3  OXE d   1       2.039   2.171   3.023  0.00  0.00     0.003 A 
ATOM      6  C4  OXE d   1       0.887   1.673   3.643  0.00  0.00    -0.002 A 
ATOM      7  C5  OXE d   1       0.035   0.798   2.960  0.00  0.00    -0.002 A 
ATOM      8  C6  OXE d   1       0.341   0.430   1.654  0.00  0.00     0.003 A 
ENDROOT
TORSDOF 0
ENDMDL
