MODEL 1
REMARK minimizedAffinity -5.07240009
REMARK minimizedRMSD -1
REMARK  0 active torsions:
REMARK  status: ('A' for Active; 'I' for Inactive)
ROOT
ATOM      1  C2' OXE d   1       1.706   1.000   1.116  0.00  0.00     0.078 C 
ATOM      2  C1' OXE d   1      -0.058  -0.031  -0.810  0.00  0.00     0.078 C 
ATOM      3  C1  OXE d   1      -0.414  -0.220   0.643  0.00  0.00    -0.078 A 
ATOM      4  C2  OXE d   1       0.477   0.247   1.579  0.00  0.00    -0.078 A 
ATOM      5  C3  OXE d   1       0.171   0.147   2.933  0.00  0.00     0.003 A 
ATOM      6  C4  OXE d   1      -0.962  -0.560   3.353  0.00  0.00    -0.002 A 
ATOM      7  C5  OXE d   1      -1.863  -1.078   2.417  0.00  0.00    -0.002 A 
ATOM      8  C6  OXE d   1      -1.627  -0.879   1.061  0.00  0.00     0.003 A 
ENDROOT
TORSDOF 0
ENDMDL
