MODEL 1
REMARK minimizedAffinity -5.77024841
REMARK minimizedRMSD -1
REMARK  0 active torsions:
REMARK  status: ('A' for Active; 'I' for Inactive)
ROOT
ATOM      1  C2' OXE d   1       2.332   1.526   0.661  0.00  0.00     0.078 C 
ATOM      2  C1' OXE d   1       0.324   0.523  -1.025  0.00  0.00     0.078 C 
ATOM      3  C1  OXE d   1       0.167   0.310   0.460  0.00  0.00    -0.078 A 
ATOM      4  C2  OXE d   1       1.178   0.763   1.274  0.00  0.00    -0.078 A 
ATOM      5  C3  OXE d   1       1.057   0.641   2.655  0.00  0.00     0.003 A 
ATOM      6  C4  OXE d   1      -0.009  -0.075   3.213  0.00  0.00    -0.002 A 
ATOM      7  C5  OXE d   1      -1.029  -0.579   2.400  0.00  0.00    -0.002 A 
ATOM      8  C6  OXE d   1      -0.978  -0.359   1.028  0.00  0.00     0.003 A 
ENDROOT
TORSDOF 0
ENDMDL
