MODEL 1
REMARK minimizedAffinity 7.06558609
REMARK minimizedRMSD -1
REMARK  0 active torsions:
REMARK  status: ('A' for Active; 'I' for Inactive)
ROOT
ATOM      1  C2' OXE d   1       1.079   0.255  -1.478  0.00  0.00     0.078 C 
ATOM      2  C1' OXE d   1      -1.536   0.401  -0.469  0.00  0.00     0.078 C 
ATOM      3  C1  OXE d   1      -0.406   0.803   0.445  0.00  0.00    -0.078 A 
ATOM      4  C2  OXE d   1       0.874   0.684  -0.041  0.00  0.00    -0.078 A 
ATOM      5  C3  OXE d   1       1.950   1.093   0.742  0.00  0.00     0.003 A 
ATOM      6  C4  OXE d   1       1.752   1.479   2.073  0.00  0.00    -0.002 A 
ATOM      7  C5  OXE d   1       0.459   1.569   2.601  0.00  0.00    -0.002 A 
ATOM      8  C6  OXE d   1      -0.631   1.277   1.789  0.00  0.00     0.003 A 
ENDROOT
TORSDOF 0
ENDMDL
