MODEL 1
REMARK minimizedAffinity -3.70268798
REMARK minimizedRMSD -1
REMARK  0 active torsions:
REMARK  status: ('A' for Active; 'I' for Inactive)
ROOT
ATOM      1  C2' OXE d   1       0.951   0.067  -0.746  0.00  0.00     0.078 C 
ATOM      2  C1' OXE d   1       2.191   1.677   1.190  0.00  0.00     0.078 C 
ATOM      3  C1  OXE d   1       0.955   0.915   1.596  0.00  0.00    -0.078 A 
ATOM      4  C2  OXE d   1       0.328   0.166   0.629  0.00  0.00    -0.078 A 
ATOM      5  C3  OXE d   1      -0.784  -0.600   0.965  0.00  0.00     0.003 A 
ATOM      6  C4  OXE d   1      -1.360  -0.496   2.237  0.00  0.00    -0.002 A 
ATOM      7  C5  OXE d   1      -0.760   0.292   3.225  0.00  0.00    -0.002 A 
ATOM      8  C6  OXE d   1       0.420   0.969   2.934  0.00  0.00     0.003 A 
ENDROOT
TORSDOF 0
ENDMDL
