MODEL 1
REMARK minimizedAffinity 2.92782617
REMARK minimizedRMSD -1
REMARK  0 active torsions:
REMARK  status: ('A' for Active; 'I' for Inactive)
ROOT
ATOM      1  C2' OXE d   1       1.491   0.096  -1.124  0.00  0.00     0.078 C 
ATOM      2  C1' OXE d   1      -1.015   0.853  -0.113  0.00  0.00     0.078 C 
ATOM      3  C1  OXE d   1       0.165   0.898   0.826  0.00  0.00    -0.078 A 
ATOM      4  C2  OXE d   1       1.379   0.481   0.335  0.00  0.00    -0.078 A 
ATOM      5  C3  OXE d   1       2.510   0.555   1.142  0.00  0.00     0.003 A 
ATOM      6  C4  OXE d   1       2.395   0.903   2.494  0.00  0.00    -0.002 A 
ATOM      7  C5  OXE d   1       1.161   1.292   3.024  0.00  0.00    -0.002 A 
ATOM      8  C6  OXE d   1       0.046   1.336   2.194  0.00  0.00     0.003 A 
ENDROOT
TORSDOF 0
ENDMDL
