MODEL 1
REMARK minimizedAffinity 12.6242838
REMARK minimizedRMSD -1
REMARK  0 active torsions:
REMARK  status: ('A' for Active; 'I' for Inactive)
ROOT
ATOM      1  C   UNL d   1      -4.867   3.738   0.787  0.00  0.00     0.023 A 
ATOM      2  C1  UNL d   1      -5.058   2.485   1.369  0.00  0.00     0.003 A 
ATOM      3  C2  UNL d   1      -4.131   1.464   1.152  0.00  0.00     0.048 A 
ATOM      4  C3  UNL d   1      -3.014   1.703   0.351  0.00  0.00     0.023 A 
ATOM      5  C4  UNL d   1      -2.818   2.955  -0.233  0.00  0.00     0.048 A 
ATOM      6  C5  UNL d   1      -3.748   3.973  -0.013  0.00  0.00     0.003 A 
ATOM      7  I   UNL d   1      -1.633   0.184   0.026  0.00  0.00    -0.146 I 
ENDROOT
TORSDOF 0
ENDMDL
