MODEL 1
REMARK minimizedAffinity 2.40625477
REMARK minimizedRMSD -1
REMARK  0 active torsions:
REMARK  status: ('A' for Active; 'I' for Inactive)
ROOT
ATOM      1  C   UNL d   1       3.696  -5.996  -5.999  0.00  0.00     0.023 A 
ATOM      2  C1  UNL d   1       2.668  -5.998  -5.056  0.00  0.00     0.003 A 
ATOM      3  C2  UNL d   1       2.956  -5.788  -3.706  0.00  0.00     0.048 A 
ATOM      4  C3  UNL d   1       4.275  -5.576  -3.306  0.00  0.00     0.023 A 
ATOM      5  C4  UNL d   1       5.307  -5.573  -4.245  0.00  0.00     0.048 A 
ATOM      6  C5  UNL d   1       5.014  -5.784  -5.594  0.00  0.00     0.003 A 
ATOM      7  I   UNL d   1       4.706  -5.264  -1.297  0.00  0.00    -0.146 I 
ENDROOT
TORSDOF 0
ENDMDL
