MODEL 1
REMARK minimizedAffinity 1.79434133
REMARK minimizedRMSD -1
REMARK  0 active torsions:
REMARK  status: ('A' for Active; 'I' for Inactive)
ROOT
ATOM      1  C   UNL d   1       2.239  -3.048   2.802  0.00  0.00     0.023 A 
ATOM      2  C1  UNL d   1       2.444  -4.427   2.752  0.00  0.00     0.003 A 
ATOM      3  C2  UNL d   1       1.803  -5.262   3.670  0.00  0.00     0.048 A 
ATOM      4  C3  UNL d   1       0.959  -4.712   4.634  0.00  0.00     0.023 A 
ATOM      5  C4  UNL d   1       0.751  -3.333   4.687  0.00  0.00     0.048 A 
ATOM      6  C5  UNL d   1       1.394  -2.502   3.768  0.00  0.00     0.003 A 
ATOM      7  I   UNL d   1       0.005  -5.954   6.000  0.00  0.00    -0.146 I 
ENDROOT
TORSDOF 0
ENDMDL
