MODEL 1
REMARK minimizedAffinity 2.08035254
REMARK minimizedRMSD -1
REMARK  0 active torsions:
REMARK  status: ('A' for Active; 'I' for Inactive)
ROOT
ATOM      1  C   UNL d   1       2.660   1.753   2.560  0.00  0.00     0.023 A 
ATOM      2  C1  UNL d   1       2.999   0.691   1.722  0.00  0.00     0.003 A 
ATOM      3  C2  UNL d   1       2.564  -0.602   2.019  0.00  0.00     0.048 A 
ATOM      4  C3  UNL d   1       1.788  -0.826   3.156  0.00  0.00     0.023 A 
ATOM      5  C4  UNL d   1       1.445   0.234   3.997  0.00  0.00     0.048 A 
ATOM      6  C5  UNL d   1       1.884   1.525   3.696  0.00  0.00     0.003 A 
ATOM      7  I   UNL d   1       1.137  -2.749   3.601  0.00  0.00    -0.146 I 
ENDROOT
TORSDOF 0
ENDMDL
