MODEL 1
REMARK minimizedAffinity 1.4952029
REMARK minimizedRMSD -1
REMARK  0 active torsions:
REMARK  status: ('A' for Active; 'I' for Inactive)
ROOT
ATOM      1  C   UNL d   1       2.655  -5.984  -5.958  0.00  0.00     0.023 A 
ATOM      2  C1  UNL d   1       1.633  -6.000  -5.010  0.00  0.00     0.003 A 
ATOM      3  C2  UNL d   1       1.942  -5.999  -3.648  0.00  0.00     0.048 A 
ATOM      4  C3  UNL d   1       3.276  -5.981  -3.242  0.00  0.00     0.023 A 
ATOM      5  C4  UNL d   1       4.303  -5.964  -4.188  0.00  0.00     0.048 A 
ATOM      6  C5  UNL d   1       3.989  -5.966  -5.548  0.00  0.00     0.003 A 
ATOM      7  I   UNL d   1       3.739  -5.980  -1.216  0.00  0.00    -0.146 I 
ENDROOT
TORSDOF 0
ENDMDL
