MODEL 1
REMARK minimizedAffinity 8.49821377
REMARK minimizedRMSD -1
REMARK  0 active torsions:
REMARK  status: ('A' for Active; 'I' for Inactive)
ROOT
ATOM      1  C   UNL d   1       2.435  -4.733   4.491  0.00  0.00     0.023 A 
ATOM      2  C1  UNL d   1       1.210  -4.476   3.876  0.00  0.00     0.003 A 
ATOM      3  C2  UNL d   1       0.970  -3.233   3.286  0.00  0.00     0.048 A 
ATOM      4  C3  UNL d   1       1.961  -2.252   3.315  0.00  0.00     0.023 A 
ATOM      5  C4  UNL d   1       3.188  -2.505   3.929  0.00  0.00     0.048 A 
ATOM      6  C5  UNL d   1       3.423  -3.749   4.518  0.00  0.00     0.003 A 
ATOM      7  I   UNL d   1       1.606  -0.401   2.438  0.00  0.00    -0.146 I 
ENDROOT
TORSDOF 0
ENDMDL
