MODEL 1
REMARK minimizedAffinity -3.01459765
REMARK minimizedRMSD -1
REMARK  0 active torsions:
REMARK  status: ('A' for Active; 'I' for Inactive)
ROOT
ATOM      1  C   UNL d   1       1.069  -2.659   3.319  0.00  0.00     0.023 A 
ATOM      2  C1  UNL d   1       1.592  -1.396   3.601  0.00  0.00     0.003 A 
ATOM      3  C2  UNL d   1       2.811  -1.004   3.044  0.00  0.00     0.048 A 
ATOM      4  C3  UNL d   1       3.502  -1.878   2.206  0.00  0.00     0.023 A 
ATOM      5  C4  UNL d   1       2.982  -3.142   1.921  0.00  0.00     0.048 A 
ATOM      6  C5  UNL d   1       1.763  -3.530   2.480  0.00  0.00     0.003 A 
ATOM      7  I   UNL d   1       5.316  -1.296   1.377  0.00  0.00    -0.146 I 
ENDROOT
TORSDOF 0
ENDMDL
