MODEL 1
REMARK minimizedAffinity -3.47052073
REMARK minimizedRMSD -1
REMARK  0 active torsions:
REMARK  status: ('A' for Active; 'I' for Inactive)
ROOT
ATOM      1  C1  DEN d   1      -0.840  -1.312  -0.779  0.00  0.00     0.130 A 
ATOM      2  C2  DEN d   1      -1.564  -0.045  -0.741  0.00  0.00    -0.031 A 
ATOM      3  C3  DEN d   1      -0.658   0.983  -0.190  0.00  0.00     0.027 A 
ATOM      4  C4  DEN d   1       1.786   0.737   0.598  0.00  0.00     0.027 A 
ATOM      5  C5  DEN d   1       2.826  -0.149   0.768  0.00  0.00    -0.003 A 
ATOM      6  C6  DEN d   1       2.708  -1.481   0.470  0.00  0.00     0.001 A 
ATOM      7  C7  DEN d   1       1.537  -1.956  -0.058  0.00  0.00     0.017 A 
ATOM      8  C8  DEN d   1       0.481  -1.070  -0.226  0.00  0.00    -0.094 A 
ATOM      9  C9  DEN d   1       0.624   0.274   0.070  0.00  0.00    -0.072 A 
ENDROOT
TORSDOF 0
ENDMDL
