MODEL 1
REMARK minimizedAffinity -5.01994944
REMARK minimizedRMSD -1
REMARK  0 active torsions:
REMARK  status: ('A' for Active; 'I' for Inactive)
ROOT
ATOM      1  C1  DEN d   1       2.990   0.438  -0.186  0.00  0.00     0.130 A 
ATOM      2  C2  DEN d   1       3.408  -0.960  -0.126  0.00  0.00    -0.031 A 
ATOM      3  C3  DEN d   1       2.194  -1.801  -0.132  0.00  0.00     0.027 A 
ATOM      4  C4  DEN d   1      -0.279  -1.077  -0.233  0.00  0.00     0.027 A 
ATOM      5  C5  DEN d   1      -1.132   0.004  -0.283  0.00  0.00    -0.003 A 
ATOM      6  C6  DEN d   1      -0.675   1.295  -0.270  0.00  0.00     0.001 A 
ATOM      7  C7  DEN d   1       0.673   1.538  -0.251  0.00  0.00     0.017 A 
ATOM      8  C8  DEN d   1       1.538   0.453  -0.193  0.00  0.00    -0.094 A 
ATOM      9  C9  DEN d   1       1.057  -0.845  -0.219  0.00  0.00    -0.072 A 
ENDROOT
TORSDOF 0
ENDMDL
