MODEL 1
REMARK minimizedAffinity -4.82747984
REMARK minimizedRMSD -1
REMARK  0 active torsions:
REMARK  status: ('A' for Active; 'I' for Inactive)
ROOT
ATOM      1  C1  DEN d   1      -0.815  -0.747  -1.524  0.00  0.00     0.130 A 
ATOM      2  C2  DEN d   1      -1.543   0.433  -1.068  0.00  0.00    -0.031 A 
ATOM      3  C3  DEN d   1      -0.843   0.973   0.115  0.00  0.00     0.027 A 
ATOM      4  C4  DEN d   1       1.290   0.104   1.275  0.00  0.00     0.027 A 
ATOM      5  C5  DEN d   1       2.258  -0.876   1.257  0.00  0.00    -0.003 A 
ATOM      6  C6  DEN d   1       2.250  -1.892   0.339  0.00  0.00     0.001 A 
ATOM      7  C7  DEN d   1       1.280  -1.927  -0.628  0.00  0.00     0.017 A 
ATOM      8  C8  DEN d   1       0.297  -0.947  -0.611  0.00  0.00    -0.094 A 
ATOM      9  C9  DEN d   1       0.329   0.080   0.317  0.00  0.00    -0.072 A 
ENDROOT
TORSDOF 0
ENDMDL
