MODEL 1
REMARK minimizedAffinity -4.6381073
REMARK minimizedRMSD -1
REMARK  0 active torsions:
REMARK  status: ('A' for Active; 'I' for Inactive)
ROOT
ATOM      1  C1  DEN d   1       2.096  -2.023   0.319  0.00  0.00     0.130 A 
ATOM      2  C2  DEN d   1       2.834  -1.118   1.196  0.00  0.00    -0.031 A 
ATOM      3  C3  DEN d   1       2.157   0.194   1.172  0.00  0.00     0.027 A 
ATOM      4  C4  DEN d   1       0.045   0.907  -0.126  0.00  0.00     0.027 A 
ATOM      5  C5  DEN d   1      -0.924   0.487  -1.010  0.00  0.00    -0.003 A 
ATOM      6  C6  DEN d   1      -0.935  -0.778  -1.536  0.00  0.00     0.001 A 
ATOM      7  C7  DEN d   1       0.017  -1.683  -1.146  0.00  0.00     0.017 A 
ATOM      8  C8  DEN d   1       1.002  -1.265  -0.260  0.00  0.00    -0.094 A 
ATOM      9  C9  DEN d   1       0.988   0.015   0.269  0.00  0.00    -0.072 A 
ENDROOT
TORSDOF 0
ENDMDL
