MODEL 1
REMARK minimizedAffinity -3.82865357
REMARK minimizedRMSD -1
REMARK  0 active torsions:
REMARK  status: ('A' for Active; 'I' for Inactive)
ROOT
ATOM      1  C1  DEN d   1      -0.909  -0.849  -1.236  0.00  0.00     0.130 A 
ATOM      2  C2  DEN d   1      -0.656  -2.232  -1.629  0.00  0.00    -0.031 A 
ATOM      3  C3  DEN d   1       0.654  -2.632  -1.077  0.00  0.00     0.027 A 
ATOM      4  C4  DEN d   1       2.303  -1.251   0.346  0.00  0.00     0.027 A 
ATOM      5  C5  DEN d   1       2.530  -0.022   0.926  0.00  0.00    -0.003 A 
ATOM      6  C6  DEN d   1       1.650   1.019   0.798  0.00  0.00     0.001 A 
ATOM      7  C7  DEN d   1       0.479   0.837   0.111  0.00  0.00     0.017 A 
ATOM      8  C8  DEN d   1       0.246  -0.397  -0.483  0.00  0.00    -0.094 A 
ATOM      9  C9  DEN d   1       1.143  -1.441  -0.331  0.00  0.00    -0.072 A 
ENDROOT
TORSDOF 0
ENDMDL
