MODEL 1
REMARK minimizedAffinity -3.17400742
REMARK minimizedRMSD -1
REMARK  0 active torsions:
REMARK  status: ('A' for Active; 'I' for Inactive)
ROOT
ATOM      1  C   UNL d   1       0.122   1.936   2.341  0.00  0.00     0.023 A 
ATOM      2  C1  UNL d   1      -0.749   2.211   1.286  0.00  0.00     0.003 A 
ATOM      3  C2  UNL d   1      -1.060   1.215   0.359  0.00  0.00     0.048 A 
ATOM      4  C3  UNL d   1      -0.498  -0.055   0.493  0.00  0.00     0.023 A 
ATOM      5  C4  UNL d   1       0.373  -0.334   1.547  0.00  0.00     0.048 A 
ATOM      6  C5  UNL d   1       0.682   0.666   2.471  0.00  0.00     0.003 A 
ATOM      7  I   UNL d   1      -0.961  -1.539  -0.886  0.00  0.00    -0.146 I 
ENDROOT
TORSDOF 0
ENDMDL
