MODEL 1
REMARK minimizedAffinity -3.08587146
REMARK minimizedRMSD -1
REMARK  0 active torsions:
REMARK  status: ('A' for Active; 'I' for Inactive)
ROOT
ATOM      1  C   UNL d   1      -0.559   2.224   1.861  0.00  0.00     0.023 A 
ATOM      2  C1  UNL d   1       0.305   1.201   2.251  0.00  0.00     0.003 A 
ATOM      3  C2  UNL d   1       0.600   0.160   1.368  0.00  0.00     0.048 A 
ATOM      4  C3  UNL d   1       0.029   0.150   0.096  0.00  0.00     0.023 A 
ATOM      5  C4  UNL d   1      -0.835   1.173  -0.299  0.00  0.00     0.048 A 
ATOM      6  C5  UNL d   1      -1.128   2.210   0.588  0.00  0.00     0.003 A 
ATOM      7  I   UNL d   1       0.467  -1.398  -1.221  0.00  0.00    -0.146 I 
ENDROOT
TORSDOF 0
ENDMDL
