MODEL 1
REMARK minimizedAffinity -4.46222067
REMARK minimizedRMSD -1
REMARK  0 active torsions:
REMARK  status: ('A' for Active; 'I' for Inactive)
ROOT
ATOM      1  C   UNL d   1      -0.306   1.150   2.996  0.00  0.00     0.023 A 
ATOM      2  C1  UNL d   1      -1.104   2.252   2.691  0.00  0.00     0.003 A 
ATOM      3  C2  UNL d   1      -1.219   2.688   1.370  0.00  0.00     0.048 A 
ATOM      4  C3  UNL d   1      -0.533   2.017   0.358  0.00  0.00     0.023 A 
ATOM      5  C4  UNL d   1       0.267   0.913   0.659  0.00  0.00     0.048 A 
ATOM      6  C5  UNL d   1       0.379   0.481   1.982  0.00  0.00     0.003 A 
ATOM      7  I   UNL d   1      -0.702   2.664  -1.610  0.00  0.00    -0.146 I 
ENDROOT
TORSDOF 0
ENDMDL
