MODEL 1
REMARK minimizedAffinity -3.89527941
REMARK minimizedRMSD -1
REMARK  0 active torsions:
REMARK  status: ('A' for Active; 'I' for Inactive)
ROOT
ATOM      1  C   UNL d   1      -0.951   3.342  -0.001  0.00  0.00     0.023 A 
ATOM      2  C1  UNL d   1      -1.494   2.058  -0.040  0.00  0.00     0.003 A 
ATOM      3  C2  UNL d   1      -1.064   1.089   0.869  0.00  0.00     0.048 A 
ATOM      4  C3  UNL d   1      -0.093   1.412   1.816  0.00  0.00     0.023 A 
ATOM      5  C4  UNL d   1       0.452   2.697   1.860  0.00  0.00     0.048 A 
ATOM      6  C5  UNL d   1       0.020   3.662   0.948  0.00  0.00     0.003 A 
ATOM      7  I   UNL d   1       0.548  -0.028   3.171  0.00  0.00    -0.146 I 
ENDROOT
TORSDOF 0
ENDMDL
