MODEL 1
REMARK minimizedAffinity -4.61951876
REMARK minimizedRMSD -1
REMARK  0 active torsions:
REMARK  status: ('A' for Active; 'I' for Inactive)
ROOT
ATOM      1  C   UNL d   1      -0.670   2.259   2.434  0.00  0.00     0.023 A 
ATOM      2  C1  UNL d   1      -1.315   2.208   1.198  0.00  0.00     0.003 A 
ATOM      3  C2  UNL d   1      -0.976   1.220   0.272  0.00  0.00     0.048 A 
ATOM      4  C3  UNL d   1       0.009   0.284   0.588  0.00  0.00     0.023 A 
ATOM      5  C4  UNL d   1       0.657   0.331   1.824  0.00  0.00     0.048 A 
ATOM      6  C5  UNL d   1       0.315   1.321   2.746  0.00  0.00     0.003 A 
ATOM      7  I   UNL d   1       0.516  -1.188  -0.789  0.00  0.00    -0.146 I 
ENDROOT
TORSDOF 0
ENDMDL
