MODEL 1
REMARK minimizedAffinity -1.47751963
REMARK minimizedRMSD -1
REMARK  0 active torsions:
REMARK  status: ('A' for Active; 'I' for Inactive)
ROOT
ATOM      1  C   UNL d   1       0.157   1.490  -2.424  0.00  0.00     0.023 A 
ATOM      2  C1  UNL d   1       0.557   0.226  -1.992  0.00  0.00     0.003 A 
ATOM      3  C2  UNL d   1       0.822  -0.000  -0.639  0.00  0.00     0.048 A 
ATOM      4  C3  UNL d   1       0.684   1.043   0.276  0.00  0.00     0.023 A 
ATOM      5  C4  UNL d   1       0.283   2.310  -0.152  0.00  0.00     0.048 A 
ATOM      6  C5  UNL d   1       0.020   2.531  -1.505  0.00  0.00     0.003 A 
ATOM      7  I   UNL d   1       1.078   0.709   2.289  0.00  0.00    -0.146 I 
ENDROOT
TORSDOF 0
ENDMDL
