MODEL 1
REMARK minimizedAffinity -3.74235582
REMARK minimizedRMSD -1
REMARK  0 active torsions:
REMARK  status: ('A' for Active; 'I' for Inactive)
ROOT
ATOM      1  C   UNL d   1      -0.229   1.943   1.889  0.00  0.00     0.023 A 
ATOM      2  C1  UNL d   1       0.830   1.051   2.054  0.00  0.00     0.003 A 
ATOM      3  C2  UNL d   1       0.875  -0.128   1.307  0.00  0.00     0.048 A 
ATOM      4  C3  UNL d   1      -0.143  -0.408   0.396  0.00  0.00     0.023 A 
ATOM      5  C4  UNL d   1      -1.205   0.482   0.227  0.00  0.00     0.048 A 
ATOM      6  C5  UNL d   1      -1.246   1.659   0.977  0.00  0.00     0.003 A 
ATOM      7  I   UNL d   1      -0.078  -2.162  -0.717  0.00  0.00    -0.146 I 
ENDROOT
TORSDOF 0
ENDMDL
