MODEL 1
REMARK minimizedAffinity -3.8641715
REMARK minimizedRMSD -1
REMARK  0 active torsions:
REMARK  status: ('A' for Active; 'I' for Inactive)
ROOT
ATOM      1  C   UNL d   1      -0.929   0.922  -0.876  0.00  0.00     0.023 A 
ATOM      2  C1  UNL d   1       0.084  -0.033  -0.963  0.00  0.00     0.003 A 
ATOM      3  C2  UNL d   1       0.800  -0.399   0.179  0.00  0.00     0.048 A 
ATOM      4  C3  UNL d   1       0.498   0.193   1.404  0.00  0.00     0.023 A 
ATOM      5  C4  UNL d   1      -0.516   1.149   1.496  0.00  0.00     0.048 A 
ATOM      6  C5  UNL d   1      -1.228   1.512   0.352  0.00  0.00     0.003 A 
ATOM      7  I   UNL d   1       1.562  -0.350   3.105  0.00  0.00    -0.146 I 
ENDROOT
TORSDOF 0
ENDMDL
