MODEL 1
REMARK minimizedAffinity -3.53028727
REMARK minimizedRMSD -1
REMARK  0 active torsions:
REMARK  status: ('A' for Active; 'I' for Inactive)
ROOT
ATOM      1  C   UNL d   1      -0.267   0.869   2.734  0.00  0.00     0.023 A 
ATOM      2  C1  UNL d   1      -0.832   2.034   2.217  0.00  0.00     0.003 A 
ATOM      3  C2  UNL d   1      -0.769   2.294   0.846  0.00  0.00     0.048 A 
ATOM      4  C3  UNL d   1      -0.140   1.383  -0.002  0.00  0.00     0.023 A 
ATOM      5  C4  UNL d   1       0.426   0.214   0.511  0.00  0.00     0.048 A 
ATOM      6  C5  UNL d   1       0.361  -0.040   1.882  0.00  0.00     0.003 A 
ATOM      7  I   UNL d   1      -0.045   1.766  -2.042  0.00  0.00    -0.146 I 
ENDROOT
TORSDOF 0
ENDMDL
