MODEL 1
REMARK minimizedAffinity -1.30489612
REMARK minimizedRMSD -1
REMARK  0 active torsions:
REMARK  status: ('A' for Active; 'I' for Inactive)
ROOT
ATOM      1  C   UNL d   1       0.959  -0.289   0.325  0.00  0.00     0.023 A 
ATOM      2  C1  UNL d   1       0.014  -0.012   1.313  0.00  0.00     0.003 A 
ATOM      3  C2  UNL d   1      -1.225   0.530   0.965  0.00  0.00     0.048 A 
ATOM      4  C3  UNL d   1      -1.512   0.792  -0.374  0.00  0.00     0.023 A 
ATOM      5  C4  UNL d   1      -0.571   0.516  -1.367  0.00  0.00     0.048 A 
ATOM      6  C5  UNL d   1       0.667  -0.025  -1.013  0.00  0.00     0.003 A 
ATOM      7  I   UNL d   1      -3.356   1.598  -0.896  0.00  0.00    -0.146 I 
ENDROOT
TORSDOF 0
ENDMDL
