MODEL 1
REMARK minimizedAffinity -2.5010438
REMARK minimizedRMSD -1
REMARK  0 active torsions:
REMARK  status: ('A' for Active; 'I' for Inactive)
ROOT
ATOM      1  C   UNL d   1       1.742  -0.356   3.175  0.00  0.00     0.023 A 
ATOM      2  C1  UNL d   1       2.129  -0.742   1.891  0.00  0.00     0.003 A 
ATOM      3  C2  UNL d   1       1.498  -0.191   0.775  0.00  0.00     0.048 A 
ATOM      4  C3  UNL d   1       0.481   0.747   0.948  0.00  0.00     0.023 A 
ATOM      5  C4  UNL d   1       0.090   1.137   2.230  0.00  0.00     0.048 A 
ATOM      6  C5  UNL d   1       0.724   0.583   3.344  0.00  0.00     0.003 A 
ATOM      7  I   UNL d   1      -0.460   1.569  -0.713  0.00  0.00    -0.146 I 
ENDROOT
TORSDOF 0
ENDMDL
