MODEL 1
REMARK minimizedAffinity -3.68001437
REMARK minimizedRMSD -1
REMARK  0 active torsions:
REMARK  status: ('A' for Active; 'I' for Inactive)
ROOT
ATOM      1  C   UNL d   1      -0.719   2.617   1.555  0.00  0.00     0.023 A 
ATOM      2  C1  UNL d   1      -0.061   1.606   2.255  0.00  0.00     0.003 A 
ATOM      3  C2  UNL d   1       0.242   0.399   1.621  0.00  0.00     0.048 A 
ATOM      4  C3  UNL d   1      -0.115   0.211   0.286  0.00  0.00     0.023 A 
ATOM      5  C4  UNL d   1      -0.773   1.220  -0.418  0.00  0.00     0.048 A 
ATOM      6  C5  UNL d   1      -1.075   2.425   0.220  0.00  0.00     0.003 A 
ATOM      7  I   UNL d   1       0.334  -1.584  -0.660  0.00  0.00    -0.146 I 
ENDROOT
TORSDOF 0
ENDMDL
