MODEL 1
REMARK minimizedAffinity -2.48455739
REMARK minimizedRMSD -1
REMARK  0 active torsions:
REMARK  status: ('A' for Active; 'I' for Inactive)
ROOT
ATOM      1  C   UNL d   1      -2.136   2.083   1.772  0.00  0.00     0.023 A 
ATOM      2  C1  UNL d   1      -2.375   1.964   0.402  0.00  0.00     0.003 A 
ATOM      3  C2  UNL d   1      -1.593   1.104  -0.372  0.00  0.00     0.048 A 
ATOM      4  C3  UNL d   1      -0.575   0.365   0.230  0.00  0.00     0.023 A 
ATOM      5  C4  UNL d   1      -0.334   0.480   1.600  0.00  0.00     0.048 A 
ATOM      6  C5  UNL d   1      -1.117   1.342   2.370  0.00  0.00     0.003 A 
ATOM      7  I   UNL d   1       0.589  -0.917  -0.919  0.00  0.00    -0.146 I 
ENDROOT
TORSDOF 0
ENDMDL
