MODEL 1
REMARK minimizedAffinity -2.40003991
REMARK minimizedRMSD -1
REMARK  0 active torsions:
REMARK  status: ('A' for Active; 'I' for Inactive)
ROOT
ATOM      1  C   UNL d   1      -1.678   1.901   1.155  0.00  0.00     0.023 A 
ATOM      2  C1  UNL d   1      -0.857   1.127   1.975  0.00  0.00     0.003 A 
ATOM      3  C2  UNL d   1      -0.067   0.117   1.422  0.00  0.00     0.048 A 
ATOM      4  C3  UNL d   1      -0.103  -0.113   0.047  0.00  0.00     0.023 A 
ATOM      5  C4  UNL d   1      -0.922   0.659  -0.778  0.00  0.00     0.048 A 
ATOM      6  C5  UNL d   1      -1.711   1.667  -0.220  0.00  0.00     0.003 A 
ATOM      7  I   UNL d   1       1.072  -1.616  -0.779  0.00  0.00    -0.146 I 
ENDROOT
TORSDOF 0
ENDMDL
