MODEL 1
REMARK minimizedAffinity -3.79789448
REMARK minimizedRMSD -1
REMARK  0 active torsions:
REMARK  status: ('A' for Active; 'I' for Inactive)
ROOT
ATOM      1  C   UNL d   1      -1.622   2.676   1.239  0.00  0.00     0.023 A 
ATOM      2  C1  UNL d   1      -1.301   1.554   2.004  0.00  0.00     0.003 A 
ATOM      3  C2  UNL d   1      -0.676   0.457   1.408  0.00  0.00     0.048 A 
ATOM      4  C3  UNL d   1      -0.375   0.488   0.047  0.00  0.00     0.023 A 
ATOM      5  C4  UNL d   1      -0.693   1.608  -0.722  0.00  0.00     0.048 A 
ATOM      6  C5  UNL d   1      -1.318   2.703  -0.122  0.00  0.00     0.003 A 
ATOM      7  I   UNL d   1       0.555  -1.145  -0.842  0.00  0.00    -0.146 I 
ENDROOT
TORSDOF 0
ENDMDL
