MODEL 1
REMARK minimizedAffinity -2.42560554
REMARK minimizedRMSD -1
REMARK  0 active torsions:
REMARK  status: ('A' for Active; 'I' for Inactive)
ROOT
ATOM      1  C   UNL d   1      -2.228   1.579   1.436  0.00  0.00     0.023 A 
ATOM      2  C1  UNL d   1      -2.211   1.581   0.041  0.00  0.00     0.003 A 
ATOM      3  C2  UNL d   1      -1.276   0.806  -0.648  0.00  0.00     0.048 A 
ATOM      4  C3  UNL d   1      -0.362   0.030   0.064  0.00  0.00     0.023 A 
ATOM      5  C4  UNL d   1      -0.376   0.024   1.460  0.00  0.00     0.048 A 
ATOM      6  C5  UNL d   1      -1.312   0.801   2.144  0.00  0.00     0.003 A 
ATOM      7  I   UNL d   1       1.030  -1.125  -0.960  0.00  0.00    -0.146 I 
ENDROOT
TORSDOF 0
ENDMDL
