MODEL 1
REMARK minimizedAffinity -3.43383145
REMARK minimizedRMSD -1
REMARK  0 active torsions:
REMARK  status: ('A' for Active; 'I' for Inactive)
ROOT
ATOM      1  C   UNL d   1      -1.521   2.310   0.057  0.00  0.00     0.023 A 
ATOM      2  C1  UNL d   1      -1.509   1.305   1.023  0.00  0.00     0.003 A 
ATOM      3  C2  UNL d   1      -0.654   0.210   0.883  0.00  0.00     0.048 A 
ATOM      4  C3  UNL d   1       0.188   0.127  -0.226  0.00  0.00     0.023 A 
ATOM      5  C4  UNL d   1       0.180   1.132  -1.195  0.00  0.00     0.048 A 
ATOM      6  C5  UNL d   1      -0.677   2.224  -1.051  0.00  0.00     0.003 A 
ATOM      7  I   UNL d   1       1.462  -1.501  -0.437  0.00  0.00    -0.146 I 
ENDROOT
TORSDOF 0
ENDMDL
