MODEL 1
REMARK minimizedAffinity -2.36973643
REMARK minimizedRMSD -1
REMARK  0 active torsions:
REMARK  status: ('A' for Active; 'I' for Inactive)
ROOT
ATOM      1  C   UNL d   1      -1.414   2.239   1.900  0.00  0.00     0.023 A 
ATOM      2  C1  UNL d   1      -1.684   2.213   0.532  0.00  0.00     0.003 A 
ATOM      3  C2  UNL d   1      -1.214   1.159  -0.254  0.00  0.00     0.048 A 
ATOM      4  C3  UNL d   1      -0.474   0.134   0.335  0.00  0.00     0.023 A 
ATOM      5  C4  UNL d   1      -0.202   0.155   1.704  0.00  0.00     0.048 A 
ATOM      6  C5  UNL d   1      -0.674   1.211   2.486  0.00  0.00     0.003 A 
ATOM      7  I   UNL d   1       0.227  -1.436  -0.833  0.00  0.00    -0.146 I 
ENDROOT
TORSDOF 0
ENDMDL
