MODEL 1
REMARK minimizedAffinity 4.81724262
REMARK minimizedRMSD -1
REMARK  0 active torsions:
REMARK  status: ('A' for Active; 'I' for Inactive)
ROOT
ATOM      1  C   UNL d   1      -1.508   2.385  -1.637  0.00  0.00     0.023 A 
ATOM      2  C1  UNL d   1      -0.250   2.779  -1.181  0.00  0.00     0.003 A 
ATOM      3  C2  UNL d   1       0.556   1.876  -0.485  0.00  0.00     0.048 A 
ATOM      4  C3  UNL d   1       0.098   0.580  -0.250  0.00  0.00     0.023 A 
ATOM      5  C4  UNL d   1      -1.160   0.181  -0.705  0.00  0.00     0.048 A 
ATOM      6  C5  UNL d   1      -1.963   1.088  -1.399  0.00  0.00     0.003 A 
ATOM      7  I   UNL d   1       1.296  -0.766   0.786  0.00  0.00    -0.146 I 
ENDROOT
TORSDOF 0
ENDMDL
