MODEL 1
REMARK minimizedAffinity -3.04406357
REMARK minimizedRMSD -1
REMARK  0 active torsions:
REMARK  status: ('A' for Active; 'I' for Inactive)
ROOT
ATOM      1  C   UNL d   1      -1.473   1.897   1.553  0.00  0.00     0.023 A 
ATOM      2  C1  UNL d   1      -1.206   2.128   0.203  0.00  0.00     0.003 A 
ATOM      3  C2  UNL d   1      -0.484   1.189  -0.538  0.00  0.00     0.048 A 
ATOM      4  C3  UNL d   1      -0.033   0.022   0.077  0.00  0.00     0.023 A 
ATOM      5  C4  UNL d   1      -0.298  -0.213   1.427  0.00  0.00     0.048 A 
ATOM      6  C5  UNL d   1      -1.019   0.729   2.164  0.00  0.00     0.003 A 
ATOM      7  I   UNL d   1       1.041  -1.376  -1.023  0.00  0.00    -0.146 I 
ENDROOT
TORSDOF 0
ENDMDL
