MODEL 1
REMARK minimizedAffinity -4.1313343
REMARK minimizedRMSD -1
REMARK  0 active torsions:
REMARK  status: ('A' for Active; 'I' for Inactive)
ROOT
ATOM      1  C   UNL d   1      -1.386   2.870   1.453  0.00  0.00     0.023 A 
ATOM      2  C1  UNL d   1      -1.134   1.744   2.237  0.00  0.00     0.003 A 
ATOM      3  C2  UNL d   1      -0.686   0.563   1.642  0.00  0.00     0.048 A 
ATOM      4  C3  UNL d   1      -0.491   0.515   0.262  0.00  0.00     0.023 A 
ATOM      5  C4  UNL d   1      -0.741   1.639  -0.527  0.00  0.00     0.048 A 
ATOM      6  C5  UNL d   1      -1.190   2.818   0.073  0.00  0.00     0.003 A 
ATOM      7  I   UNL d   1       0.176  -1.241  -0.626  0.00  0.00    -0.146 I 
ENDROOT
TORSDOF 0
ENDMDL
