MODEL 1
REMARK minimizedAffinity -1.80478954
REMARK minimizedRMSD -1
REMARK  0 active torsions:
REMARK  status: ('A' for Active; 'I' for Inactive)
ROOT
ATOM      1  C   UNL d   1       0.025   0.939   0.327  0.00  0.00     0.023 A 
ATOM      2  C1  UNL d   1       1.192   0.678  -0.392  0.00  0.00     0.003 A 
ATOM      3  C2  UNL d   1       1.320  -0.513  -1.110  0.00  0.00     0.048 A 
ATOM      4  C3  UNL d   1       0.276  -1.438  -1.106  0.00  0.00     0.023 A 
ATOM      5  C4  UNL d   1      -0.893  -1.181  -0.389  0.00  0.00     0.048 A 
ATOM      6  C5  UNL d   1      -1.016   0.010   0.328  0.00  0.00     0.003 A 
ATOM      7  I   UNL d   1       0.464  -3.212  -2.174  0.00  0.00    -0.146 I 
ENDROOT
TORSDOF 0
ENDMDL
