MODEL 1
REMARK minimizedAffinity -2.81384444
REMARK minimizedRMSD -1
REMARK  0 active torsions:
REMARK  status: ('A' for Active; 'I' for Inactive)
ROOT
ATOM      1  C   UNL d   1       1.562  -0.015  -0.941  0.00  0.00     0.023 A 
ATOM      2  C1  UNL d   1       0.945  -0.658   0.132  0.00  0.00     0.003 A 
ATOM      3  C2  UNL d   1      -0.107  -0.037   0.809  0.00  0.00     0.048 A 
ATOM      4  C3  UNL d   1      -0.536   1.227   0.407  0.00  0.00     0.023 A 
ATOM      5  C4  UNL d   1       0.078   1.875  -0.666  0.00  0.00     0.048 A 
ATOM      6  C5  UNL d   1       1.130   1.250  -1.339  0.00  0.00     0.003 A 
ATOM      7  I   UNL d   1      -2.101   2.154   1.413  0.00  0.00    -0.146 I 
ENDROOT
TORSDOF 0
ENDMDL
