MODEL 1
REMARK minimizedAffinity -4.4487958
REMARK minimizedRMSD -1
REMARK  0 active torsions:
REMARK  status: ('A' for Active; 'I' for Inactive)
ROOT
ATOM      1  C   UNL d   1      -1.120   1.065   1.645  0.00  0.00     0.023 A 
ATOM      2  C1  UNL d   1      -0.205   0.028   1.828  0.00  0.00     0.003 A 
ATOM      3  C2  UNL d   1       0.086  -0.841   0.774  0.00  0.00     0.048 A 
ATOM      4  C3  UNL d   1      -0.541  -0.667  -0.459  0.00  0.00     0.023 A 
ATOM      5  C4  UNL d   1      -1.456   0.370  -0.647  0.00  0.00     0.048 A 
ATOM      6  C5  UNL d   1      -1.744   1.236   0.410  0.00  0.00     0.003 A 
ATOM      7  I   UNL d   1      -0.109  -1.959  -2.029  0.00  0.00    -0.146 I 
ENDROOT
TORSDOF 0
ENDMDL
