MODEL 1
REMARK minimizedAffinity 0.196765959
REMARK minimizedRMSD -1
REMARK  1 active torsions:
REMARK  status: ('A' for Active; 'I' for Inactive)
REMARK    1  A    between atoms: C1_2  and  C2_3 
ROOT
ATOM      1  C2  UNL d   1       3.478  -1.776   4.073  0.00  0.00    -0.077 A 
ATOM      2  C3  UNL d   1       3.595  -2.104   5.431  0.00  0.00     0.002 A 
ATOM      3  C4  UNL d   1       4.851  -2.321   6.000  0.00  0.00     0.002 A 
ATOM      4  C5  UNL d   1       6.000  -2.209   5.220  0.00  0.00    -0.004 A 
ATOM      5  C6  UNL d   1       5.894  -1.885   3.868  0.00  0.00     0.002 A 
ATOM      6  C7  UNL d   1       4.639  -1.669   3.297  0.00  0.00     0.002 A 
ENDROOT
BRANCH   1   7
ATOM      7  C1  UNL d   1       2.127  -1.493   3.469  0.00  0.00     0.055 C 
ATOM      8  C   UNL d   1       2.253  -0.690   2.183  0.00  0.00     0.019 C 
ENDBRANCH   1   7
TORSDOF 1
ENDMDL
