MODEL 1
REMARK minimizedAffinity 2.59013057
REMARK minimizedRMSD -1
REMARK  1 active torsions:
REMARK  status: ('A' for Active; 'I' for Inactive)
REMARK    1  A    between atoms: C1_2  and  C2_3 
ROOT
ATOM      1  C2  UNL d   1       2.784   0.658   2.545  0.00  0.00    -0.077 A 
ATOM      2  C3  UNL d   1       1.747  -0.028   1.898  0.00  0.00     0.002 A 
ATOM      3  C4  UNL d   1       1.261  -1.229   2.418  0.00  0.00     0.002 A 
ATOM      4  C5  UNL d   1       1.804  -1.753   3.589  0.00  0.00    -0.004 A 
ATOM      5  C6  UNL d   1       2.838  -1.080   4.239  0.00  0.00     0.002 A 
ATOM      6  C7  UNL d   1       3.325   0.120   3.721  0.00  0.00     0.002 A 
ENDROOT
BRANCH   1   7
ATOM      7  C1  UNL d   1       3.275   1.979   2.013  0.00  0.00     0.055 C 
ATOM      8  C   UNL d   1       2.547   2.366   0.734  0.00  0.00     0.019 C 
ENDBRANCH   1   7
TORSDOF 1
ENDMDL
