MODEL 1
REMARK minimizedAffinity 3.42962527
REMARK minimizedRMSD -1
REMARK  1 active torsions:
REMARK  status: ('A' for Active; 'I' for Inactive)
REMARK    1  A    between atoms: C1_2  and  C2_3 
ROOT
ATOM      1  C2  UNL d   1       2.866  -0.274   2.924  0.00  0.00    -0.077 A 
ATOM      2  C3  UNL d   1       3.944  -1.071   3.334  0.00  0.00     0.002 A 
ATOM      3  C4  UNL d   1       3.717  -2.324   3.907  0.00  0.00     0.002 A 
ATOM      4  C5  UNL d   1       2.415  -2.792   4.070  0.00  0.00    -0.004 A 
ATOM      5  C6  UNL d   1       1.336  -2.005   3.667  0.00  0.00     0.002 A 
ATOM      6  C7  UNL d   1       1.561  -0.752   3.096  0.00  0.00     0.002 A 
ENDROOT
BRANCH   1   7
ATOM      7  C1  UNL d   1       3.111   1.057   2.261  0.00  0.00     0.055 C 
ATOM      8  C   UNL d   1       2.836   2.210   3.215  0.00  0.00     0.019 C 
ENDBRANCH   1   7
TORSDOF 1
ENDMDL
