MODEL 1
REMARK minimizedAffinity 0.571338594
REMARK minimizedRMSD -1
REMARK  1 active torsions:
REMARK  status: ('A' for Active; 'I' for Inactive)
REMARK    1  A    between atoms: C1_2  and  C2_3 
ROOT
ATOM      1  C2  UNL d   1       2.243  -2.139   2.958  0.00  0.00    -0.077 A 
ATOM      2  C3  UNL d   1       2.631  -3.436   2.594  0.00  0.00     0.002 A 
ATOM      3  C4  UNL d   1       2.317  -4.522   3.413  0.00  0.00     0.002 A 
ATOM      4  C5  UNL d   1       1.610  -4.323   4.597  0.00  0.00    -0.004 A 
ATOM      5  C6  UNL d   1       1.222  -3.037   4.968  0.00  0.00     0.002 A 
ATOM      6  C7  UNL d   1       1.535  -1.949   4.152  0.00  0.00     0.002 A 
ENDROOT
BRANCH   1   7
ATOM      7  C1  UNL d   1       2.537  -0.972   2.052  0.00  0.00     0.055 C 
ATOM      8  C   UNL d   1       1.357  -0.014   1.981  0.00  0.00     0.019 C 
ENDBRANCH   1   7
TORSDOF 1
ENDMDL
