MODEL 1
REMARK minimizedAffinity 11.9037066
REMARK minimizedRMSD -1
REMARK  1 active torsions:
REMARK  status: ('A' for Active; 'I' for Inactive)
REMARK    1  A    between atoms: C1_2  and  C2_3 
ROOT
ATOM      1  C2  UNL d   1       2.320   2.650   0.528  0.00  0.00    -0.077 A 
ATOM      2  C3  UNL d   1       3.206   1.569   0.408  0.00  0.00     0.002 A 
ATOM      3  C4  UNL d   1       3.042   0.431   1.199  0.00  0.00     0.002 A 
ATOM      4  C5  UNL d   1       1.992   0.359   2.112  0.00  0.00    -0.004 A 
ATOM      5  C6  UNL d   1       1.108   1.429   2.241  0.00  0.00     0.002 A 
ATOM      6  C7  UNL d   1       1.270   2.569   1.452  0.00  0.00     0.002 A 
ENDROOT
BRANCH   1   7
ATOM      7  C1  UNL d   1       2.466   3.859  -0.358  0.00  0.00     0.055 C 
ATOM      8  C   UNL d   1       1.112   4.471  -0.686  0.00  0.00     0.019 C 
ENDBRANCH   1   7
TORSDOF 1
ENDMDL
