MODEL 1
REMARK minimizedAffinity 10.08286
REMARK minimizedRMSD -1
REMARK  0 active torsions:
REMARK  status: ('A' for Active; 'I' for Inactive)
ROOT
ATOM      1  C   UNL d   1      -5.467  -1.651  -4.158  0.00  0.00     0.078 C 
ATOM      2  C1  UNL d   1      -5.640  -3.114  -4.439  0.00  0.00    -0.077 A 
ATOM      3  C2  UNL d   1      -5.631  -3.602  -5.752  0.00  0.00    -0.001 A 
ATOM      4  C3  UNL d   1      -5.804  -4.965  -5.999  0.00  0.00     0.003 A 
ATOM      5  C4  UNL d   1      -5.987  -5.851  -4.939  0.00  0.00    -0.005 A 
ATOM      6  C5  UNL d   1      -6.000  -5.374  -3.630  0.00  0.00     0.003 A 
ATOM      7  C6  UNL d   1      -5.828  -4.012  -3.381  0.00  0.00    -0.001 A 
ENDROOT
TORSDOF 0
ENDMDL
