MODEL 1
REMARK minimizedAffinity 8.2065773
REMARK minimizedRMSD -1
REMARK  0 active torsions:
REMARK  status: ('A' for Active; 'I' for Inactive)
ROOT
ATOM      1  C   UNL d   1       3.283  -2.231   0.078  0.00  0.00     0.078 C 
ATOM      2  C1  UNL d   1       2.509  -2.070   1.352  0.00  0.00    -0.077 A 
ATOM      3  C2  UNL d   1       1.649  -0.982   1.541  0.00  0.00    -0.001 A 
ATOM      4  C3  UNL d   1       0.942  -0.839   2.736  0.00  0.00     0.003 A 
ATOM      5  C4  UNL d   1       1.089  -1.781   3.752  0.00  0.00    -0.005 A 
ATOM      6  C5  UNL d   1       1.945  -2.867   3.575  0.00  0.00     0.003 A 
ATOM      7  C6  UNL d   1       2.652  -3.010   2.380  0.00  0.00    -0.001 A 
ENDROOT
TORSDOF 0
ENDMDL
