MODEL 1
REMARK minimizedAffinity 8.45366192
REMARK minimizedRMSD -1
REMARK  0 active torsions:
REMARK  status: ('A' for Active; 'I' for Inactive)
ROOT
ATOM      1  C   UNL d   1      -1.906  -5.236   0.011  0.00  0.00     0.078 C 
ATOM      2  C1  UNL d   1      -0.488  -5.063  -0.446  0.00  0.00    -0.077 A 
ATOM      3  C2  UNL d   1      -0.134  -5.248  -1.788  0.00  0.00    -0.001 A 
ATOM      4  C3  UNL d   1       1.191  -5.094  -2.196  0.00  0.00     0.003 A 
ATOM      5  C4  UNL d   1       2.174  -4.754  -1.269  0.00  0.00    -0.005 A 
ATOM      6  C5  UNL d   1       1.832  -4.569   0.069  0.00  0.00     0.003 A 
ATOM      7  C6  UNL d   1       0.507  -4.724   0.480  0.00  0.00    -0.001 A 
ENDROOT
TORSDOF 0
ENDMDL
