MODEL 1
REMARK minimizedAffinity 5.50942612
REMARK minimizedRMSD -1
REMARK  0 active torsions:
REMARK  status: ('A' for Active; 'I' for Inactive)
ROOT
ATOM      1  C   UNL d   1       2.784  -4.422   3.366  0.00  0.00     0.078 C 
ATOM      2  C1  UNL d   1       2.316  -3.014   3.149  0.00  0.00    -0.077 A 
ATOM      3  C2  UNL d   1       2.438  -2.398   1.898  0.00  0.00    -0.001 A 
ATOM      4  C3  UNL d   1       2.007  -1.084   1.713  0.00  0.00     0.003 A 
ATOM      5  C4  UNL d   1       1.452  -0.373   2.775  0.00  0.00    -0.005 A 
ATOM      6  C5  UNL d   1       1.329  -0.977   4.025  0.00  0.00     0.003 A 
ATOM      7  C6  UNL d   1       1.759  -2.292   4.212  0.00  0.00    -0.001 A 
ENDROOT
TORSDOF 0
ENDMDL
