MODEL 1
REMARK minimizedAffinity -0.974488556
REMARK minimizedRMSD -1
REMARK  0 active torsions:
REMARK  status: ('A' for Active; 'I' for Inactive)
ROOT
ATOM      1  C   UNL d   1      -3.189   1.106  -3.078  0.00  0.00     0.078 C 
ATOM      2  C1  UNL d   1      -3.595   2.526  -3.338  0.00  0.00    -0.077 A 
ATOM      3  C2  UNL d   1      -3.427   3.103  -4.603  0.00  0.00    -0.001 A 
ATOM      4  C3  UNL d   1      -3.801   4.429  -4.828  0.00  0.00     0.003 A 
ATOM      5  C4  UNL d   1      -4.343   5.189  -3.793  0.00  0.00    -0.005 A 
ATOM      6  C5  UNL d   1      -4.511   4.624  -2.531  0.00  0.00     0.003 A 
ATOM      7  C6  UNL d   1      -4.138   3.298  -2.304  0.00  0.00    -0.001 A 
ENDROOT
TORSDOF 0
ENDMDL
