MODEL 1
REMARK minimizedAffinity 10.8668976
REMARK minimizedRMSD -1
REMARK  0 active torsions:
REMARK  status: ('A' for Active; 'I' for Inactive)
ROOT
ATOM      1  C   UNL d   1       4.079  -1.929  -0.158  0.00  0.00     0.078 C 
ATOM      2  C1  UNL d   1       2.941  -1.665   0.782  0.00  0.00    -0.077 A 
ATOM      3  C2  UNL d   1       2.285  -0.427   0.791  0.00  0.00    -0.001 A 
ATOM      4  C3  UNL d   1       1.234  -0.192   1.678  0.00  0.00     0.003 A 
ATOM      5  C4  UNL d   1       0.829  -1.189   2.564  0.00  0.00    -0.005 A 
ATOM      6  C5  UNL d   1       1.477  -2.422   2.564  0.00  0.00     0.003 A 
ATOM      7  C6  UNL d   1       2.529  -2.659   1.678  0.00  0.00    -0.001 A 
ENDROOT
TORSDOF 0
ENDMDL
