MODEL 1
REMARK minimizedAffinity 2.18184972
REMARK minimizedRMSD -1
REMARK  0 active torsions:
REMARK  status: ('A' for Active; 'I' for Inactive)
ROOT
ATOM      1  C   UNL d   1       1.824  -2.635   6.000  0.00  0.00     0.078 C 
ATOM      2  C1  UNL d   1       1.858  -2.091   4.603  0.00  0.00    -0.077 A 
ATOM      3  C2  UNL d   1       1.361  -0.814   4.314  0.00  0.00    -0.001 A 
ATOM      4  C3  UNL d   1       1.390  -0.325   3.007  0.00  0.00     0.003 A 
ATOM      5  C4  UNL d   1       1.914  -1.106   1.979  0.00  0.00    -0.005 A 
ATOM      6  C5  UNL d   1       2.408  -2.378   2.256  0.00  0.00     0.003 A 
ATOM      7  C6  UNL d   1       2.380  -2.870   3.562  0.00  0.00    -0.001 A 
ENDROOT
TORSDOF 0
ENDMDL
