MODEL 1
REMARK minimizedAffinity 5.40710068
REMARK minimizedRMSD -1
REMARK  0 active torsions:
REMARK  status: ('A' for Active; 'I' for Inactive)
ROOT
ATOM      1  C   UNL d   1      -3.258  -4.269  -0.155  0.00  0.00     0.078 C 
ATOM      2  C1  UNL d   1      -1.770  -4.333  -0.328  0.00  0.00    -0.077 A 
ATOM      3  C2  UNL d   1      -1.191  -4.339  -1.603  0.00  0.00    -0.001 A 
ATOM      4  C3  UNL d   1       0.195  -4.409  -1.750  0.00  0.00     0.003 A 
ATOM      5  C4  UNL d   1       1.015  -4.475  -0.625  0.00  0.00    -0.005 A 
ATOM      6  C5  UNL d   1       0.448  -4.472   0.648  0.00  0.00     0.003 A 
ATOM      7  C6  UNL d   1      -0.938  -4.402   0.796  0.00  0.00    -0.001 A 
ENDROOT
TORSDOF 0
ENDMDL
