MODEL 1
REMARK minimizedAffinity 10.6029568
REMARK minimizedRMSD -1
REMARK  0 active torsions:
REMARK  status: ('A' for Active; 'I' for Inactive)
ROOT
ATOM      1  C   UNL d   1      -2.867  -5.233   0.007  0.00  0.00     0.078 C 
ATOM      2  C1  UNL d   1      -1.395  -5.193  -0.277  0.00  0.00    -0.077 A 
ATOM      3  C2  UNL d   1      -0.902  -5.432  -1.566  0.00  0.00    -0.001 A 
ATOM      4  C3  UNL d   1       0.471  -5.401  -1.814  0.00  0.00     0.003 A 
ATOM      5  C4  UNL d   1       1.363  -5.133  -0.778  0.00  0.00    -0.005 A 
ATOM      6  C5  UNL d   1       0.883  -4.896   0.508  0.00  0.00     0.003 A 
ATOM      7  C6  UNL d   1      -0.490  -4.926   0.758  0.00  0.00    -0.001 A 
ENDROOT
TORSDOF 0
ENDMDL
