MODEL 1
REMARK minimizedAffinity 5.02520943
REMARK minimizedRMSD -1
REMARK  0 active torsions:
REMARK  status: ('A' for Active; 'I' for Inactive)
ROOT
ATOM      1  C   UNL d   1       5.990  -3.006   0.377  0.00  0.00     0.078 C 
ATOM      2  C1  UNL d   1       5.178  -2.766  -0.861  0.00  0.00    -0.077 A 
ATOM      3  C2  UNL d   1       4.874  -3.813  -1.739  0.00  0.00    -0.001 A 
ATOM      4  C3  UNL d   1       4.126  -3.573  -2.893  0.00  0.00     0.003 A 
ATOM      5  C4  UNL d   1       3.677  -2.285  -3.180  0.00  0.00    -0.005 A 
ATOM      6  C5  UNL d   1       3.977  -1.236  -2.314  0.00  0.00     0.003 A 
ATOM      7  C6  UNL d   1       4.725  -1.475  -1.160  0.00  0.00    -0.001 A 
ENDROOT
TORSDOF 0
ENDMDL
