MODEL 1
REMARK minimizedAffinity -1.43334723
REMARK minimizedRMSD -1
REMARK  0 active torsions:
REMARK  status: ('A' for Active; 'I' for Inactive)
ROOT
ATOM      1  C   UNL d   1      -0.028  -1.949  -0.215  0.00  0.00     0.172 C 
ATOM      2  N   UNL d   1      -0.712  -2.684  -1.252  0.00  0.00    -0.070 N 
ATOM      3  C1  UNL d   1      -0.232  -2.921  -2.512  0.00  0.00    -0.004 A 
ATOM      4  C2  UNL d   1      -1.179  -3.654  -3.194  0.00  0.00    -0.047 A 
ATOM      5  C3  UNL d   1      -2.267  -3.865  -2.313  0.00  0.00    -0.047 A 
ATOM      6  C4  UNL d   1      -1.951  -3.254  -1.118  0.00  0.00    -0.004 A 
ENDROOT
TORSDOF 0
ENDMDL
