MODEL 1
REMARK minimizedAffinity -3.51420331
REMARK minimizedRMSD -1
REMARK  0 active torsions:
REMARK  status: ('A' for Active; 'I' for Inactive)
ROOT
ATOM      1  C   UNL d   1       0.008   2.763  -0.020  0.00  0.00     0.172 C 
ATOM      2  N   UNL d   1      -0.156   1.356  -0.301  0.00  0.00    -0.070 N 
ATOM      3  C1  UNL d   1      -0.897   0.828  -1.325  0.00  0.00    -0.004 A 
ATOM      4  C2  UNL d   1      -0.799  -0.545  -1.251  0.00  0.00    -0.047 A 
ATOM      5  C3  UNL d   1       0.028  -0.852  -0.145  0.00  0.00    -0.047 A 
ATOM      6  C4  UNL d   1       0.412   0.343   0.425  0.00  0.00    -0.004 A 
ENDROOT
TORSDOF 0
ENDMDL
