MODEL 1
REMARK minimizedAffinity -3.64497972
REMARK minimizedRMSD -1
REMARK  0 active torsions:
REMARK  status: ('A' for Active; 'I' for Inactive)
ROOT
ATOM      1  C   UNL d   1       0.712  -0.464   0.122  0.00  0.00     0.172 C 
ATOM      2  N   UNL d   1       0.753   0.970   0.284  0.00  0.00    -0.070 N 
ATOM      3  C1  UNL d   1       1.820   1.691   0.752  0.00  0.00    -0.004 A 
ATOM      4  C2  UNL d   1       1.462   3.021   0.755  0.00  0.00    -0.047 A 
ATOM      5  C3  UNL d   1       0.134   3.104   0.272  0.00  0.00    -0.047 A 
ATOM      6  C4  UNL d   1      -0.280   1.819  -0.011  0.00  0.00    -0.004 A 
ENDROOT
TORSDOF 0
ENDMDL
