MODEL 1
REMARK minimizedAffinity -2.59842992
REMARK minimizedRMSD -1
REMARK  0 active torsions:
REMARK  status: ('A' for Active; 'I' for Inactive)
ROOT
ATOM      1  C   UNL d   1      -0.836   1.777   0.279  0.00  0.00     0.172 C 
ATOM      2  N   UNL d   1      -0.438   0.399   0.114  0.00  0.00    -0.070 N 
ATOM      3  C1  UNL d   1       0.756  -0.031  -0.401  0.00  0.00    -0.004 A 
ATOM      4  C2  UNL d   1       0.749  -1.409  -0.391  0.00  0.00    -0.047 A 
ATOM      5  C3  UNL d   1      -0.492  -1.822   0.149  0.00  0.00    -0.047 A 
ATOM      6  C4  UNL d   1      -1.207  -0.683   0.452  0.00  0.00    -0.004 A 
ENDROOT
TORSDOF 0
ENDMDL
