MODEL 1
REMARK minimizedAffinity -3.18238711
REMARK minimizedRMSD -1
REMARK  0 active torsions:
REMARK  status: ('A' for Active; 'I' for Inactive)
ROOT
ATOM      1  C   UNL d   1      -0.182   2.988   0.160  0.00  0.00     0.172 C 
ATOM      2  N   UNL d   1      -0.168   1.544   0.180  0.00  0.00    -0.070 N 
ATOM      3  C1  UNL d   1       0.933   0.753  -0.015  0.00  0.00    -0.004 A 
ATOM      4  C2  UNL d   1       0.531  -0.561   0.082  0.00  0.00    -0.047 A 
ATOM      5  C3  UNL d   1      -0.860  -0.561   0.345  0.00  0.00    -0.047 A 
ATOM      6  C4  UNL d   1      -1.267   0.756   0.400  0.00  0.00    -0.004 A 
ENDROOT
TORSDOF 0
ENDMDL
