MODEL 1
REMARK minimizedAffinity -2.86573529
REMARK minimizedRMSD -1
REMARK  0 active torsions:
REMARK  status: ('A' for Active; 'I' for Inactive)
ROOT
ATOM      1  C   UNL d   1      -0.458  -0.803  -0.205  0.00  0.00     0.172 C 
ATOM      2  N   UNL d   1      -0.618  -1.776  -1.261  0.00  0.00    -0.070 N 
ATOM      3  C1  UNL d   1      -0.986  -3.084  -1.091  0.00  0.00    -0.004 A 
ATOM      4  C2  UNL d   1      -1.024  -3.676  -2.336  0.00  0.00    -0.047 A 
ATOM      5  C3  UNL d   1      -0.667  -2.690  -3.285  0.00  0.00    -0.047 A 
ATOM      6  C4  UNL d   1      -0.420  -1.523  -2.592  0.00  0.00    -0.004 A 
ENDROOT
TORSDOF 0
ENDMDL
