MODEL 1
REMARK minimizedAffinity -3.74792576
REMARK minimizedRMSD -1
REMARK  0 active torsions:
REMARK  status: ('A' for Active; 'I' for Inactive)
ROOT
ATOM      1  C   UNL d   1      -1.520   0.466   1.132  0.00  0.00     0.172 C 
ATOM      2  N   UNL d   1      -0.747   1.561   0.592  0.00  0.00    -0.070 N 
ATOM      3  C1  UNL d   1      -0.790   2.859   1.026  0.00  0.00    -0.004 A 
ATOM      4  C2  UNL d   1       0.090   3.590   0.258  0.00  0.00    -0.047 A 
ATOM      5  C3  UNL d   1       0.682   2.700  -0.670  0.00  0.00    -0.047 A 
ATOM      6  C4  UNL d   1       0.145   1.451  -0.441  0.00  0.00    -0.004 A 
ENDROOT
TORSDOF 0
ENDMDL
