MODEL 1
REMARK minimizedAffinity -3.6651504
REMARK minimizedRMSD -1
REMARK  0 active torsions:
REMARK  status: ('A' for Active; 'I' for Inactive)
ROOT
ATOM      1  C   UNL d   1      -0.396  -1.332  -0.347  0.00  0.00     0.172 C 
ATOM      2  N   UNL d   1      -0.661   0.072  -0.139  0.00  0.00    -0.070 N 
ATOM      3  C1  UNL d   1      -1.266   0.616   0.962  0.00  0.00    -0.004 A 
ATOM      4  C2  UNL d   1      -1.333   1.980   0.777  0.00  0.00    -0.047 A 
ATOM      5  C3  UNL d   1      -0.749   2.266  -0.480  0.00  0.00    -0.047 A 
ATOM      6  C4  UNL d   1      -0.342   1.067  -1.026  0.00  0.00    -0.004 A 
ENDROOT
TORSDOF 0
ENDMDL
