MODEL 1
REMARK minimizedAffinity -3.7050395
REMARK minimizedRMSD -1
REMARK  0 active torsions:
REMARK  status: ('A' for Active; 'I' for Inactive)
ROOT
ATOM      1  C   UNL d   1      -0.000  -0.344  -0.015  0.00  0.00     0.172 C 
ATOM      2  N   UNL d   1       0.679   0.876   0.352  0.00  0.00    -0.070 N 
ATOM      3  C1  UNL d   1       0.073   2.051   0.711  0.00  0.00    -0.004 A 
ATOM      4  C2  UNL d   1       1.062   2.970   0.986  0.00  0.00    -0.047 A 
ATOM      5  C3  UNL d   1       2.306   2.325   0.785  0.00  0.00    -0.047 A 
ATOM      6  C4  UNL d   1       2.039   1.030   0.393  0.00  0.00    -0.004 A 
ENDROOT
TORSDOF 0
ENDMDL
