MODEL 1
REMARK minimizedAffinity -1.98896611
REMARK minimizedRMSD -1
REMARK  0 active torsions:
REMARK  status: ('A' for Active; 'I' for Inactive)
ROOT
ATOM      1  C   UNL d   1      -0.406  -3.002  -1.875  0.00  0.00     0.172 C 
ATOM      2  N   UNL d   1      -0.151  -1.936  -0.935  0.00  0.00    -0.070 N 
ATOM      3  C1  UNL d   1      -0.390  -0.606  -1.152  0.00  0.00    -0.004 A 
ATOM      4  C2  UNL d   1      -0.015   0.081  -0.018  0.00  0.00    -0.047 A 
ATOM      5  C3  UNL d   1       0.467  -0.869   0.913  0.00  0.00    -0.047 A 
ATOM      6  C4  UNL d   1       0.372  -2.110   0.320  0.00  0.00    -0.004 A 
ENDROOT
TORSDOF 0
ENDMDL
