MODEL 1
REMARK minimizedAffinity -3.44921994
REMARK minimizedRMSD -1
REMARK  0 active torsions:
REMARK  status: ('A' for Active; 'I' for Inactive)
ROOT
ATOM      1  C   UNL d   1       0.032  -0.589  -0.524  0.00  0.00     0.172 C 
ATOM      2  N   UNL d   1       0.084   0.822  -0.223  0.00  0.00    -0.070 N 
ATOM      3  C1  UNL d   1      -0.951   1.572   0.269  0.00  0.00    -0.004 A 
ATOM      4  C2  UNL d   1      -0.501   2.866   0.420  0.00  0.00    -0.047 A 
ATOM      5  C3  UNL d   1       0.851   2.895   0.003  0.00  0.00    -0.047 A 
ATOM      6  C4  UNL d   1       1.188   1.617  -0.390  0.00  0.00    -0.004 A 
ENDROOT
TORSDOF 0
ENDMDL
