MODEL 1
REMARK minimizedAffinity -4.06654072
REMARK minimizedRMSD -1
REMARK  0 active torsions:
REMARK  status: ('A' for Active; 'I' for Inactive)
ROOT
ATOM      1  C   UNL d   1       0.035   0.186  -0.026  0.00  0.00     0.172 C 
ATOM      2  N   UNL d   1       0.916   1.264   0.355  0.00  0.00    -0.070 N 
ATOM      3  C1  UNL d   1       0.572   2.588   0.431  0.00  0.00    -0.004 A 
ATOM      4  C2  UNL d   1       1.688   3.292   0.829  0.00  0.00    -0.047 A 
ATOM      5  C3  UNL d   1       2.739   2.360   0.997  0.00  0.00    -0.047 A 
ATOM      6  C4  UNL d   1       2.234   1.112   0.697  0.00  0.00    -0.004 A 
ENDROOT
TORSDOF 0
ENDMDL
