MODEL 1
REMARK minimizedAffinity 0.428375334
REMARK minimizedRMSD -1
REMARK  0 active torsions:
REMARK  status: ('A' for Active; 'I' for Inactive)
ROOT
ATOM      1  C   UNL d   1      -0.387   2.557   0.590  0.00  0.00     0.172 C 
ATOM      2  N   UNL d   1      -0.304   1.128   0.396  0.00  0.00    -0.070 N 
ATOM      3  C1  UNL d   1      -1.113   0.194   0.987  0.00  0.00    -0.004 A 
ATOM      4  C2  UNL d   1      -0.714  -1.049   0.546  0.00  0.00    -0.047 A 
ATOM      5  C3  UNL d   1       0.372  -0.855  -0.340  0.00  0.00    -0.047 A 
ATOM      6  C4  UNL d   1       0.605   0.502  -0.415  0.00  0.00    -0.004 A 
ENDROOT
TORSDOF 0
ENDMDL
