MODEL 1
REMARK minimizedAffinity -0.891411722
REMARK minimizedRMSD -1
REMARK  0 active torsions:
REMARK  status: ('A' for Active; 'I' for Inactive)
ROOT
ATOM      1  C   UNL d   1      -0.292   2.473   0.658  0.00  0.00     0.172 C 
ATOM      2  N   UNL d   1       0.127   1.112   0.421  0.00  0.00    -0.070 N 
ATOM      3  C1  UNL d   1      -0.683   0.089   0.005  0.00  0.00    -0.004 A 
ATOM      4  C2  UNL d   1       0.091  -1.046  -0.103  0.00  0.00    -0.047 A 
ATOM      5  C3  UNL d   1       1.413  -0.693   0.261  0.00  0.00    -0.047 A 
ATOM      6  C4  UNL d   1       1.406   0.649   0.580  0.00  0.00    -0.004 A 
ENDROOT
TORSDOF 0
ENDMDL
