MODEL 1
REMARK minimizedAffinity 3.40758634
REMARK minimizedRMSD -1
REMARK  0 active torsions:
REMARK  status: ('A' for Active; 'I' for Inactive)
ROOT
ATOM      1  C   UNL d   1       1.347  -1.508  -0.537  0.00  0.00     0.172 C 
ATOM      2  N   UNL d   1       0.704  -2.449  -1.424  0.00  0.00    -0.070 N 
ATOM      3  C1  UNL d   1       1.164  -2.827  -2.657  0.00  0.00    -0.004 A 
ATOM      4  C2  UNL d   1       0.270  -3.736  -3.181  0.00  0.00    -0.047 A 
ATOM      5  C3  UNL d   1      -0.763  -3.910  -2.229  0.00  0.00    -0.047 A 
ATOM      6  C4  UNL d   1      -0.470  -3.102  -1.152  0.00  0.00    -0.004 A 
ENDROOT
TORSDOF 0
ENDMDL
