MODEL 1
REMARK minimizedAffinity -1.52400601
REMARK minimizedRMSD -1
REMARK  0 active torsions:
REMARK  status: ('A' for Active; 'I' for Inactive)
ROOT
ATOM      1  C   UNL d   1      -0.013  -0.542   0.098  0.00  0.00     0.172 C 
ATOM      2  N   UNL d   1      -0.512   0.808   0.213  0.00  0.00    -0.070 N 
ATOM      3  C1  UNL d   1      -1.827   1.182   0.135  0.00  0.00    -0.004 A 
ATOM      4  C2  UNL d   1      -1.887   2.549   0.295  0.00  0.00    -0.047 A 
ATOM      5  C3  UNL d   1      -0.562   3.013   0.475  0.00  0.00    -0.047 A 
ATOM      6  C4  UNL d   1       0.269   1.914   0.420  0.00  0.00    -0.004 A 
ENDROOT
TORSDOF 0
ENDMDL
