MODEL 1
REMARK minimizedAffinity 12.0742693
REMARK minimizedRMSD -1
REMARK  1 active torsions:
REMARK  status: ('A' for Active; 'I' for Inactive)
REMARK    1  A    between atoms: C1_2  and  C2_3 
ROOT
ATOM      1  C2  UNL d   1       2.542   2.331   1.619  0.00  0.00    -0.073 A 
ATOM      2  C3  UNL d   1       2.507   1.783   0.332  0.00  0.00    -0.002 A 
ATOM      3  C4  UNL d   1       1.544   2.203  -0.587  0.00  0.00     0.004 A 
ATOM      4  C5  UNL d   1       0.611   3.177  -0.231  0.00  0.00    -0.004 A 
ATOM      5  C6  UNL d   1       0.637   3.744   1.047  0.00  0.00    -0.075 A 
ATOM      6  C7  UNL d   1      -0.361   4.791   1.447  0.00  0.00     0.076 C 
ATOM      7  C8  UNL d   1       1.605   3.316   1.965  0.00  0.00     0.001 A 
ENDROOT
BRANCH   1   8
ATOM      8  C1  UNL d   1       3.584   1.886   2.613  0.00  0.00     0.053 C 
ATOM      9  C   UNL d   1       3.071   1.947   4.043  0.00  0.00     0.018 C 
ENDBRANCH   1   8
TORSDOF 1
ENDMDL
