MODEL 1
REMARK minimizedAffinity 14.3349352
REMARK minimizedRMSD -1
REMARK  1 active torsions:
REMARK  status: ('A' for Active; 'I' for Inactive)
REMARK    1  A    between atoms: C1_2  and  C2_3 
ROOT
ATOM      1  C2  UNL d   1       4.238  -0.305  -3.807  0.00  0.00    -0.073 A 
ATOM      2  C3  UNL d   1       4.889  -1.418  -4.351  0.00  0.00    -0.002 A 
ATOM      3  C4  UNL d   1       5.763  -1.266  -5.429  0.00  0.00     0.004 A 
ATOM      4  C5  UNL d   1       6.000  -0.002  -5.967  0.00  0.00    -0.004 A 
ATOM      5  C6  UNL d   1       5.368   1.124  -5.430  0.00  0.00    -0.075 A 
ATOM      6  C7  UNL d   1       5.611   2.491  -5.999  0.00  0.00     0.076 C 
ATOM      7  C8  UNL d   1       4.490   0.963  -4.350  0.00  0.00     0.001 A 
ENDROOT
BRANCH   1   8
ATOM      8  C1  UNL d   1       3.298  -0.463  -2.639  0.00  0.00     0.053 C 
ATOM      9  C   UNL d   1       2.210  -1.487  -2.918  0.00  0.00     0.018 C 
ENDBRANCH   1   8
TORSDOF 1
ENDMDL
