MODEL 1
REMARK minimizedAffinity 6.36217356
REMARK minimizedRMSD -1
REMARK  1 active torsions:
REMARK  status: ('A' for Active; 'I' for Inactive)
REMARK    1  A    between atoms: C1_2  and  C2_3 
ROOT
ATOM      1  C2  UNL d   1       0.263   0.968  -0.081  0.00  0.00    -0.073 A 
ATOM      2  C3  UNL d   1       0.302   0.054  -1.140  0.00  0.00    -0.002 A 
ATOM      3  C4  UNL d   1       1.296  -0.924  -1.189  0.00  0.00     0.004 A 
ATOM      4  C5  UNL d   1       2.254  -1.004  -0.179  0.00  0.00    -0.004 A 
ATOM      5  C6  UNL d   1       2.225  -0.107   0.893  0.00  0.00    -0.075 A 
ATOM      6  C7  UNL d   1       3.250  -0.177   1.987  0.00  0.00     0.076 C 
ATOM      7  C8  UNL d   1       1.226   0.875   0.935  0.00  0.00     0.001 A 
ENDROOT
BRANCH   1   8
ATOM      8  C1  UNL d   1      -0.812   2.023  -0.019  0.00  0.00     0.053 C 
ATOM      9  C   UNL d   1      -1.935   1.638   0.930  0.00  0.00     0.018 C 
ENDBRANCH   1   8
TORSDOF 1
ENDMDL
