MODEL 1
REMARK minimizedAffinity 10.4118347
REMARK minimizedRMSD -1
REMARK  1 active torsions:
REMARK  status: ('A' for Active; 'I' for Inactive)
REMARK    1  A    between atoms: C1_2  and  C2_3 
ROOT
ATOM      1  C2  UNL d   1       5.294  -1.422  -5.396  0.00  0.00    -0.073 A 
ATOM      2  C3  UNL d   1       5.641  -0.204  -5.992  0.00  0.00    -0.002 A 
ATOM      3  C4  UNL d   1       5.193   1.000  -5.448  0.00  0.00     0.004 A 
ATOM      4  C5  UNL d   1       4.402   1.000  -4.299  0.00  0.00    -0.004 A 
ATOM      5  C6  UNL d   1       4.054  -0.206  -3.682  0.00  0.00    -0.075 A 
ATOM      6  C7  UNL d   1       3.202  -0.223  -2.447  0.00  0.00     0.076 C 
ATOM      7  C8  UNL d   1       4.505  -1.411  -4.236  0.00  0.00     0.001 A 
ENDROOT
BRANCH   1   8
ATOM      8  C1  UNL d   1       5.780  -2.725  -5.976  0.00  0.00     0.053 C 
ATOM      9  C   UNL d   1       4.697  -3.792  -5.967  0.00  0.00     0.018 C 
ENDBRANCH   1   8
TORSDOF 1
ENDMDL
