MODEL 1
REMARK minimizedAffinity 10.828124
REMARK minimizedRMSD -1
REMARK  1 active torsions:
REMARK  status: ('A' for Active; 'I' for Inactive)
REMARK    1  A    between atoms: C1_2  and  C2_3 
ROOT
ATOM      1  C2  UNL d   1       1.677  -1.433   1.542  0.00  0.00    -0.073 A 
ATOM      2  C3  UNL d   1       1.668  -2.291   0.436  0.00  0.00    -0.002 A 
ATOM      3  C4  UNL d   1       0.599  -2.274  -0.461  0.00  0.00     0.004 A 
ATOM      4  C5  UNL d   1      -0.466  -1.395  -0.266  0.00  0.00    -0.004 A 
ATOM      5  C6  UNL d   1      -0.470  -0.522   0.826  0.00  0.00    -0.075 A 
ATOM      6  C7  UNL d   1      -1.610   0.428   1.050  0.00  0.00     0.076 C 
ATOM      7  C8  UNL d   1       0.606  -0.547   1.724  0.00  0.00     0.001 A 
ENDROOT
BRANCH   1   8
ATOM      8  C1  UNL d   1       2.832  -1.443   2.510  0.00  0.00     0.053 C 
ATOM      9  C   UNL d   1       3.156  -2.847   2.996  0.00  0.00     0.018 C 
ENDBRANCH   1   8
TORSDOF 1
ENDMDL
