MODEL 1
REMARK minimizedAffinity 1.52219212
REMARK minimizedRMSD -1
REMARK  1 active torsions:
REMARK  status: ('A' for Active; 'I' for Inactive)
REMARK    1  A    between atoms: C1_2  and  C2_3 
ROOT
ATOM      1  C2  UNL d   1       2.773  -1.026   3.351  0.00  0.00    -0.073 A 
ATOM      2  C3  UNL d   1       1.947  -2.048   3.832  0.00  0.00    -0.002 A 
ATOM      3  C4  UNL d   1       2.434  -2.969   4.761  0.00  0.00     0.004 A 
ATOM      4  C5  UNL d   1       3.746  -2.873   5.223  0.00  0.00    -0.004 A 
ATOM      5  C6  UNL d   1       4.583  -1.852   4.763  0.00  0.00    -0.075 A 
ATOM      6  C7  UNL d   1       5.999  -1.736   5.248  0.00  0.00     0.076 C 
ATOM      7  C8  UNL d   1       4.088  -0.932   3.828  0.00  0.00     0.001 A 
ENDROOT
BRANCH   1   8
ATOM      8  C1  UNL d   1       2.250  -0.025   2.353  0.00  0.00     0.053 C 
ATOM      9  C   UNL d   1       3.374   0.717   1.648  0.00  0.00     0.018 C 
ENDBRANCH   1   8
TORSDOF 1
ENDMDL
