MODEL 1
REMARK minimizedAffinity 8.12642574
REMARK minimizedRMSD -1
REMARK  1 active torsions:
REMARK  status: ('A' for Active; 'I' for Inactive)
REMARK    1  A    between atoms: C1_2  and  C2_3 
ROOT
ATOM      1  C2  UNL d   1       2.660  -1.421   4.000  0.00  0.00    -0.073 A 
ATOM      2  C3  UNL d   1       2.026  -2.664   4.114  0.00  0.00    -0.002 A 
ATOM      3  C4  UNL d   1       2.679  -3.734   4.728  0.00  0.00     0.004 A 
ATOM      4  C5  UNL d   1       3.966  -3.571   5.240  0.00  0.00    -0.004 A 
ATOM      5  C6  UNL d   1       4.611  -2.334   5.146  0.00  0.00    -0.075 A 
ATOM      6  C7  UNL d   1       5.997  -2.143   5.690  0.00  0.00     0.076 C 
ATOM      7  C8  UNL d   1       3.951  -1.265   4.526  0.00  0.00     0.001 A 
ENDROOT
BRANCH   1   8
ATOM      8  C1  UNL d   1       1.957  -0.261   3.344  0.00  0.00     0.053 C 
ATOM      9  C   UNL d   1       2.932   0.681   2.656  0.00  0.00     0.018 C 
ENDBRANCH   1   8
TORSDOF 1
ENDMDL
