MODEL 1
REMARK minimizedAffinity -3.0623982
REMARK minimizedRMSD -1
REMARK  0 active torsions:
REMARK  status: ('A' for Active; 'I' for Inactive)
ROOT
ATOM      1  C1  BNZ d   1       2.522   1.756   1.352  0.00  0.00     0.000 A 
ATOM      2  C2  BNZ d   1       2.859   1.549   0.041  0.00  0.00     0.000 A 
ATOM      3  C3  BNZ d   1       3.334   2.572  -0.730  0.00  0.00     0.000 A 
ATOM      4  C4  BNZ d   1       3.434   3.809  -0.202  0.00  0.00     0.000 A 
ATOM      5  C5  BNZ d   1       3.090   4.036   1.116  0.00  0.00     0.000 A 
ATOM      6  C6  BNZ d   1       2.648   2.995   1.900  0.00  0.00     0.000 A 
ENDROOT
TORSDOF 0
ENDMDL
