MODEL 1
REMARK minimizedAffinity -3.66722059
REMARK minimizedRMSD -1
REMARK  0 active torsions:
REMARK  status: ('A' for Active; 'I' for Inactive)
ROOT
ATOM      1  C1  BNZ d   1       3.683   3.320   0.170  0.00  0.00     0.000 A 
ATOM      2  C2  BNZ d   1       3.093   3.483   1.394  0.00  0.00     0.000 A 
ATOM      3  C3  BNZ d   1       2.322   2.494   1.938  0.00  0.00     0.000 A 
ATOM      4  C4  BNZ d   1       2.110   1.360   1.239  0.00  0.00     0.000 A 
ATOM      5  C5  BNZ d   1       2.691   1.184  -0.001  0.00  0.00     0.000 A 
ATOM      6  C6  BNZ d   1       3.497   2.167  -0.528  0.00  0.00     0.000 A 
ENDROOT
TORSDOF 0
ENDMDL
