MODEL 1
REMARK minimizedAffinity -3.6219461
REMARK minimizedRMSD -1
REMARK  0 active torsions:
REMARK  status: ('A' for Active; 'I' for Inactive)
ROOT
ATOM      1  C1  BNZ d   1       0.312  -1.585   1.711  0.00  0.00     0.000 A 
ATOM      2  C2  BNZ d   1      -1.005  -1.394   1.388  0.00  0.00     0.000 A 
ATOM      3  C3  BNZ d   1      -1.361  -0.565   0.361  0.00  0.00     0.000 A 
ATOM      4  C4  BNZ d   1      -0.403   0.102  -0.314  0.00  0.00     0.000 A 
ATOM      5  C5  BNZ d   1       0.929  -0.073   0.005  0.00  0.00     0.000 A 
ATOM      6  C6  BNZ d   1       1.285  -0.938   1.014  0.00  0.00     0.000 A 
ENDROOT
TORSDOF 0
ENDMDL
