MODEL 1
REMARK minimizedAffinity -2.60095406
REMARK minimizedRMSD -1
REMARK  0 active torsions:
REMARK  status: ('A' for Active; 'I' for Inactive)
ROOT
ATOM      1  C1  BNZ d   1      -2.328  -0.607   0.840  0.00  0.00     0.000 A 
ATOM      2  C2  BNZ d   1      -3.104  -1.008  -0.215  0.00  0.00     0.000 A 
ATOM      3  C3  BNZ d   1      -2.617  -0.981  -1.492  0.00  0.00     0.000 A 
ATOM      4  C4  BNZ d   1      -1.371  -0.518  -1.716  0.00  0.00     0.000 A 
ATOM      5  C5  BNZ d   1      -0.579  -0.102  -0.664  0.00  0.00     0.000 A 
ATOM      6  C6  BNZ d   1      -1.059  -0.166   0.624  0.00  0.00     0.000 A 
ENDROOT
TORSDOF 0
ENDMDL
