MODEL 1
REMARK minimizedAffinity -3.61097217
REMARK minimizedRMSD -1
REMARK  0 active torsions:
REMARK  status: ('A' for Active; 'I' for Inactive)
ROOT
ATOM      1  C1  BNZ d   1       0.450  -0.454  -1.854  0.00  0.00     0.000 A 
ATOM      2  C2  BNZ d   1       1.426  -0.580  -2.806  0.00  0.00     0.000 A 
ATOM      3  C3  BNZ d   1       2.739  -0.355  -2.498  0.00  0.00     0.000 A 
ATOM      4  C4  BNZ d   1       3.069   0.035  -1.250  0.00  0.00     0.000 A 
ATOM      5  C5  BNZ d   1       2.096   0.176  -0.281  0.00  0.00     0.000 A 
ATOM      6  C6  BNZ d   1       0.780  -0.090  -0.585  0.00  0.00     0.000 A 
ENDROOT
TORSDOF 0
ENDMDL
