MODEL 1
REMARK minimizedAffinity -4.75988483
REMARK minimizedRMSD -1
REMARK  0 active torsions:
REMARK  status: ('A' for Active; 'I' for Inactive)
ROOT
ATOM      1  C1  BNZ d   1      -2.138  -0.610  -1.446  0.00  0.00     0.000 A 
ATOM      2  C2  BNZ d   1      -3.027  -0.864  -0.436  0.00  0.00     0.000 A 
ATOM      3  C3  BNZ d   1      -2.699  -0.607   0.866  0.00  0.00     0.000 A 
ATOM      4  C4  BNZ d   1      -1.470  -0.135   1.159  0.00  0.00     0.000 A 
ATOM      5  C5  BNZ d   1      -0.560   0.118   0.152  0.00  0.00     0.000 A 
ATOM      6  C6  BNZ d   1      -0.907  -0.106  -1.160  0.00  0.00     0.000 A 
ENDROOT
TORSDOF 0
ENDMDL
