MODEL 1
REMARK minimizedAffinity -3.52007437
REMARK minimizedRMSD -1
REMARK  0 active torsions:
REMARK  status: ('A' for Active; 'I' for Inactive)
ROOT
ATOM      1  C1  BNZ d   1      -1.533  -1.244   1.563  0.00  0.00     0.000 A 
ATOM      2  C2  BNZ d   1      -0.216  -0.868   1.534  0.00  0.00     0.000 A 
ATOM      3  C3  BNZ d   1       0.272  -0.106   0.510  0.00  0.00     0.000 A 
ATOM      4  C4  BNZ d   1      -0.545   0.244  -0.504  0.00  0.00     0.000 A 
ATOM      5  C5  BNZ d   1      -1.873  -0.135  -0.495  0.00  0.00     0.000 A 
ATOM      6  C6  BNZ d   1      -2.370  -0.869   0.558  0.00  0.00     0.000 A 
ENDROOT
TORSDOF 0
ENDMDL
