MODEL 1
REMARK minimizedAffinity -1.24506092
REMARK minimizedRMSD -1
REMARK  0 active torsions:
REMARK  status: ('A' for Active; 'I' for Inactive)
ROOT
ATOM      1  C1  BNZ d   1       2.715   4.166   1.915  0.00  0.00     0.000 A 
ATOM      2  C2  BNZ d   1       2.726   3.413   3.059  0.00  0.00     0.000 A 
ATOM      3  C3  BNZ d   1       2.980   2.071   3.011  0.00  0.00     0.000 A 
ATOM      4  C4  BNZ d   1       3.183   1.477   1.817  0.00  0.00     0.000 A 
ATOM      5  C5  BNZ d   1       3.167   2.221   0.654  0.00  0.00     0.000 A 
ATOM      6  C6  BNZ d   1       2.949   3.579   0.710  0.00  0.00     0.000 A 
ENDROOT
TORSDOF 0
ENDMDL
