MODEL 1
REMARK minimizedAffinity -2.7774055
REMARK minimizedRMSD -1
REMARK  0 active torsions:
REMARK  status: ('A' for Active; 'I' for Inactive)
ROOT
ATOM      1  C1  BNZ d   1      -1.448  -0.388  -2.047  0.00  0.00     0.000 A 
ATOM      2  C2  BNZ d   1      -0.217   0.210  -2.082  0.00  0.00     0.000 A 
ATOM      3  C3  BNZ d   1       0.543   0.314  -0.951  0.00  0.00     0.000 A 
ATOM      4  C4  BNZ d   1       0.055  -0.142   0.220  0.00  0.00     0.000 A 
ATOM      5  C5  BNZ d   1      -1.189  -0.738   0.274  0.00  0.00     0.000 A 
ATOM      6  C6  BNZ d   1      -1.935  -0.877  -0.874  0.00  0.00     0.000 A 
ENDROOT
TORSDOF 0
ENDMDL
