MODEL 1
REMARK minimizedAffinity -4.0136466
REMARK minimizedRMSD -1
REMARK  0 active torsions:
REMARK  status: ('A' for Active; 'I' for Inactive)
ROOT
ATOM      1  C1  BNZ d   1      -0.020  -0.118  -1.615  0.00  0.00     0.000 A 
ATOM      2  C2  BNZ d   1      -1.301  -0.511  -1.331  0.00  0.00     0.000 A 
ATOM      3  C3  BNZ d   1      -1.624  -1.000  -0.096  0.00  0.00     0.000 A 
ATOM      4  C4  BNZ d   1      -0.661  -1.132   0.838  0.00  0.00     0.000 A 
ATOM      5  C5  BNZ d   1       0.636  -0.748   0.564  0.00  0.00     0.000 A 
ATOM      6  C6  BNZ d   1       0.951  -0.220  -0.668  0.00  0.00     0.000 A 
ENDROOT
TORSDOF 0
ENDMDL
