MODEL 1
REMARK minimizedAffinity -1.50377142
REMARK minimizedRMSD -1
REMARK  0 active torsions:
REMARK  status: ('A' for Active; 'I' for Inactive)
ROOT
ATOM      1  C1  BNZ d   1       4.091   4.739  -0.782  0.00  0.00     0.000 A 
ATOM      2  C2  BNZ d   1       3.479   4.400   0.395  0.00  0.00     0.000 A 
ATOM      3  C3  BNZ d   1       3.326   3.089   0.752  0.00  0.00     0.000 A 
ATOM      4  C4  BNZ d   1       3.747   2.120  -0.086  0.00  0.00     0.000 A 
ATOM      5  C5  BNZ d   1       4.357   2.446  -1.281  0.00  0.00     0.000 A 
ATOM      6  C6  BNZ d   1       4.545   3.766  -1.619  0.00  0.00     0.000 A 
ENDROOT
TORSDOF 0
ENDMDL
