MODEL 1
REMARK minimizedAffinity -0.54532218
REMARK minimizedRMSD -1
REMARK  0 active torsions:
REMARK  status: ('A' for Active; 'I' for Inactive)
ROOT
ATOM      1  C1  BNZ d   1       0.655  -0.307  -3.160  0.00  0.00     0.000 A 
ATOM      2  C2  BNZ d   1       1.926  -0.640  -3.547  0.00  0.00     0.000 A 
ATOM      3  C3  BNZ d   1       2.959  -0.617  -2.652  0.00  0.00     0.000 A 
ATOM      4  C4  BNZ d   1       2.728  -0.223  -1.383  0.00  0.00     0.000 A 
ATOM      5  C5  BNZ d   1       1.455   0.125  -0.980  0.00  0.00     0.000 A 
ATOM      6  C6  BNZ d   1       0.410   0.063  -1.873  0.00  0.00     0.000 A 
ENDROOT
TORSDOF 0
ENDMDL
