MODEL 1
REMARK minimizedAffinity -4.71843433
REMARK minimizedRMSD -1
REMARK  0 active torsions:
REMARK  status: ('A' for Active; 'I' for Inactive)
ROOT
ATOM      1  C1  BNZ d   1      -1.356  -0.831   1.010  0.00  0.00     0.000 A 
ATOM      2  C2  BNZ d   1      -2.432  -1.539   0.545  0.00  0.00     0.000 A 
ATOM      3  C3  BNZ d   1      -2.742  -1.547  -0.786  0.00  0.00     0.000 A 
ATOM      4  C4  BNZ d   1      -2.000  -0.817  -1.644  0.00  0.00     0.000 A 
ATOM      5  C5  BNZ d   1      -0.918  -0.091  -1.189  0.00  0.00     0.000 A 
ATOM      6  C6  BNZ d   1      -0.586  -0.116   0.146  0.00  0.00     0.000 A 
ENDROOT
TORSDOF 0
ENDMDL
