MODEL 1
REMARK minimizedAffinity -3.8143487
REMARK minimizedRMSD -1
REMARK  0 active torsions:
REMARK  status: ('A' for Active; 'I' for Inactive)
ROOT
ATOM      1  C1  BNZ d   1       2.443   1.020  -0.481  0.00  0.00     0.000 A 
ATOM      2  C2  BNZ d   1       3.217   1.367  -1.556  0.00  0.00     0.000 A 
ATOM      3  C3  BNZ d   1       3.483   2.679  -1.833  0.00  0.00     0.000 A 
ATOM      4  C4  BNZ d   1       2.942   3.642  -1.059  0.00  0.00     0.000 A 
ATOM      5  C5  BNZ d   1       2.152   3.309   0.023  0.00  0.00     0.000 A 
ATOM      6  C6  BNZ d   1       1.919   1.986   0.322  0.00  0.00     0.000 A 
ENDROOT
TORSDOF 0
ENDMDL
