MODEL 1
REMARK minimizedAffinity 0.877735555
REMARK minimizedRMSD -1
REMARK  0 active torsions:
REMARK  status: ('A' for Active; 'I' for Inactive)
ROOT
ATOM      1  C   UNL d   1       1.907  -2.608   0.689  0.00  0.00     0.172 C 
ATOM      2  N   UNL d   1       2.453  -1.277   0.564  0.00  0.00    -0.070 N 
ATOM      3  C1  UNL d   1       1.858  -0.125   1.005  0.00  0.00    -0.004 A 
ATOM      4  C2  UNL d   1       2.695   0.926   0.699  0.00  0.00    -0.047 A 
ATOM      5  C3  UNL d   1       3.831   0.388   0.050  0.00  0.00    -0.047 A 
ATOM      6  C4  UNL d   1       3.656  -0.978  -0.020  0.00  0.00    -0.004 A 
ENDROOT
TORSDOF 0
ENDMDL
