MODEL 1
REMARK minimizedAffinity -0.5966416
REMARK minimizedRMSD -1
REMARK  0 active torsions:
REMARK  status: ('A' for Active; 'I' for Inactive)
ROOT
ATOM      1  C   UNL d   1      -5.362   2.525  -3.757  0.00  0.00     0.172 C 
ATOM      2  N   UNL d   1      -4.443   1.438  -3.515  0.00  0.00    -0.070 N 
ATOM      3  C1  UNL d   1      -3.271   1.219  -4.189  0.00  0.00    -0.004 A 
ATOM      4  C2  UNL d   1      -2.686   0.088  -3.662  0.00  0.00    -0.047 A 
ATOM      5  C3  UNL d   1      -3.536  -0.390  -2.636  0.00  0.00    -0.047 A 
ATOM      6  C4  UNL d   1      -4.616   0.465  -2.567  0.00  0.00    -0.004 A 
ENDROOT
TORSDOF 0
ENDMDL
