MODEL 1
REMARK minimizedAffinity -2.06861925
REMARK minimizedRMSD -1
REMARK  0 active torsions:
REMARK  status: ('A' for Active; 'I' for Inactive)
ROOT
ATOM      1  C   UNL d   1      -4.510   3.512  -2.160  0.00  0.00     0.172 C 
ATOM      2  N   UNL d   1      -4.175   2.379  -2.990  0.00  0.00    -0.070 N 
ATOM      3  C1  UNL d   1      -2.907   1.978  -3.320  0.00  0.00    -0.004 A 
ATOM      4  C2  UNL d   1      -3.013   0.863  -4.123  0.00  0.00    -0.047 A 
ATOM      5  C3  UNL d   1      -4.391   0.584  -4.282  0.00  0.00    -0.047 A 
ATOM      6  C4  UNL d   1      -5.088   1.538  -3.570  0.00  0.00    -0.004 A 
ENDROOT
TORSDOF 0
ENDMDL
