MODEL 1
REMARK minimizedAffinity 1.31113553
REMARK minimizedRMSD -1
REMARK  0 active torsions:
REMARK  status: ('A' for Active; 'I' for Inactive)
ROOT
ATOM      1  C   UNL d   1      -6.000   2.982  -2.621  0.00  0.00     0.172 C 
ATOM      2  N   UNL d   1      -5.357   2.019  -3.483  0.00  0.00    -0.070 N 
ATOM      3  C1  UNL d   1      -5.995   1.175  -4.352  0.00  0.00    -0.004 A 
ATOM      4  C2  UNL d   1      -5.034   0.417  -4.987  0.00  0.00    -0.047 A 
ATOM      5  C3  UNL d   1      -3.775   0.819  -4.480  0.00  0.00    -0.047 A 
ATOM      6  C4  UNL d   1      -4.004   1.812  -3.550  0.00  0.00    -0.004 A 
ENDROOT
TORSDOF 0
ENDMDL
