MODEL 1
REMARK minimizedAffinity 8.91676426
REMARK minimizedRMSD -1
REMARK  0 active torsions:
REMARK  status: ('A' for Active; 'I' for Inactive)
ROOT
ATOM      1  C2' OXE d   1      -3.394   0.507   1.430  0.00  0.00     0.078 C 
ATOM      2  C1' OXE d   1      -3.444  -1.588   3.298  0.00  0.00     0.078 C 
ATOM      3  C1  OXE d   1      -2.197  -0.743   3.222  0.00  0.00    -0.078 A 
ATOM      4  C2  OXE d   1      -2.163   0.251   2.273  0.00  0.00    -0.078 A 
ATOM      5  C3  OXE d   1      -1.059   1.094   2.197  0.00  0.00     0.003 A 
ATOM      6  C4  OXE d   1       0.079   0.843   2.974  0.00  0.00    -0.002 A 
ATOM      7  C5  OXE d   1       0.081  -0.188   3.918  0.00  0.00    -0.002 A 
ATOM      8  C6  OXE d   1      -1.062  -0.962   4.085  0.00  0.00     0.003 A 
ENDROOT
TORSDOF 0
ENDMDL
