MODEL 1
REMARK minimizedAffinity 4.57519484
REMARK minimizedRMSD -1
REMARK  0 active torsions:
REMARK  status: ('A' for Active; 'I' for Inactive)
ROOT
ATOM      1  C2' OXE d   1       4.596  -0.566  -1.496  0.00  0.00     0.078 C 
ATOM      2  C1' OXE d   1       2.001   0.018  -0.599  0.00  0.00     0.078 C 
ATOM      3  C1  OXE d   1       2.282   0.151  -2.075  0.00  0.00    -0.078 A 
ATOM      4  C2  OXE d   1       3.566  -0.091  -2.499  0.00  0.00    -0.078 A 
ATOM      5  C3  OXE d   1       3.866  -0.036  -3.857  0.00  0.00     0.003 A 
ATOM      6  C4  OXE d   1       2.910   0.413  -4.776  0.00  0.00    -0.002 A 
ATOM      7  C5  OXE d   1       1.607   0.704  -4.360  0.00  0.00    -0.002 A 
ATOM      8  C6  OXE d   1       1.265   0.537  -3.022  0.00  0.00     0.003 A 
ENDROOT
TORSDOF 0
ENDMDL
