MODEL 1
REMARK minimizedAffinity 9.00145054
REMARK minimizedRMSD -1
REMARK  0 active torsions:
REMARK  status: ('A' for Active; 'I' for Inactive)
ROOT
ATOM      1  C2' OXE d   1       0.048  -0.598  -5.626  0.00  0.00     0.078 C 
ATOM      2  C1' OXE d   1      -0.808  -1.378  -3.069  0.00  0.00     0.078 C 
ATOM      3  C1  OXE d   1       0.394  -0.472  -3.162  0.00  0.00    -0.078 A 
ATOM      4  C2  OXE d   1       0.834  -0.133  -4.419  0.00  0.00    -0.078 A 
ATOM      5  C3  OXE d   1       1.906   0.744  -4.561  0.00  0.00     0.003 A 
ATOM      6  C4  OXE d   1       2.634   1.161  -3.440  0.00  0.00    -0.002 A 
ATOM      7  C5  OXE d   1       2.227   0.795  -2.153  0.00  0.00    -0.002 A 
ATOM      8  C6  OXE d   1       1.086   0.015  -1.995  0.00  0.00     0.003 A 
ENDROOT
TORSDOF 0
ENDMDL
