MODEL 1
REMARK minimizedAffinity 6.17185974
REMARK minimizedRMSD -1
REMARK  0 active torsions:
REMARK  status: ('A' for Active; 'I' for Inactive)
ROOT
ATOM      1  C2' OXE d   1       2.233  -6.000  -5.976  0.00  0.00     0.078 C 
ATOM      2  C1' OXE d   1       2.785  -3.248  -5.938  0.00  0.00     0.078 C 
ATOM      3  C1  OXE d   1       1.404  -3.694  -5.527  0.00  0.00    -0.078 A 
ATOM      4  C2  OXE d   1       1.128  -5.039  -5.594  0.00  0.00    -0.078 A 
ATOM      5  C3  OXE d   1      -0.113  -5.509  -5.174  0.00  0.00     0.003 A 
ATOM      6  C4  OXE d   1      -1.132  -4.613  -4.832  0.00  0.00    -0.002 A 
ATOM      7  C5  OXE d   1      -0.885  -3.237  -4.796  0.00  0.00    -0.002 A 
ATOM      8  C6  OXE d   1       0.388  -2.765  -5.099  0.00  0.00     0.003 A 
ENDROOT
TORSDOF 0
ENDMDL
