MODEL 1
REMARK minimizedAffinity 3.49426579
REMARK minimizedRMSD -1
REMARK  0 active torsions:
REMARK  status: ('A' for Active; 'I' for Inactive)
ROOT
ATOM      1  C2' OXE d   1       2.672   1.492  -2.212  0.00  0.00     0.078 C 
ATOM      2  C1' OXE d   1       1.418  -0.476  -0.652  0.00  0.00     0.078 C 
ATOM      3  C1  OXE d   1       0.907  -0.259  -2.054  0.00  0.00    -0.078 A 
ATOM      4  C2  OXE d   1       1.496   0.738  -2.794  0.00  0.00    -0.078 A 
ATOM      5  C3  OXE d   1       1.100   0.943  -4.113  0.00  0.00     0.003 A 
ATOM      6  C4  OXE d   1       0.004   0.248  -4.640  0.00  0.00    -0.002 A 
ATOM      7  C5  OXE d   1      -0.635  -0.744  -3.890  0.00  0.00    -0.002 A 
ATOM      8  C6  OXE d   1      -0.170  -1.039  -2.613  0.00  0.00     0.003 A 
ENDROOT
TORSDOF 0
ENDMDL
