MODEL 1
REMARK minimizedAffinity 2.66870594
REMARK minimizedRMSD -1
REMARK  0 active torsions:
REMARK  status: ('A' for Active; 'I' for Inactive)
ROOT
ATOM      1  C2' OXE d   1       1.870   1.131  -2.561  0.00  0.00     0.078 C 
ATOM      2  C1' OXE d   1       2.223   3.001  -0.497  0.00  0.00     0.078 C 
ATOM      3  C1  OXE d   1       2.034   1.555  -0.112  0.00  0.00    -0.078 A 
ATOM      4  C2  OXE d   1       1.815   0.654  -1.126  0.00  0.00    -0.078 A 
ATOM      5  C3  OXE d   1       1.689  -0.700  -0.829  0.00  0.00     0.003 A 
ATOM      6  C4  OXE d   1       1.629  -1.132   0.502  0.00  0.00    -0.002 A 
ATOM      7  C5  OXE d   1       1.810  -0.224   1.551  0.00  0.00    -0.002 A 
ATOM      8  C6  OXE d   1       2.055   1.113   1.261  0.00  0.00     0.003 A 
ENDROOT
TORSDOF 0
ENDMDL
