MODEL 1
REMARK minimizedAffinity 7.154737
REMARK minimizedRMSD -1
REMARK  0 active torsions:
REMARK  status: ('A' for Active; 'I' for Inactive)
ROOT
ATOM      1  C2' OXE d   1       3.787   1.074  -3.122  0.00  0.00     0.078 C 
ATOM      2  C1' OXE d   1       2.069  -0.221  -1.318  0.00  0.00     0.078 C 
ATOM      3  C1  OXE d   1       1.601  -0.059  -2.743  0.00  0.00    -0.078 A 
ATOM      4  C2  OXE d   1       2.428   0.617  -3.607  0.00  0.00    -0.078 A 
ATOM      5  C3  OXE d   1       2.069   0.746  -4.946  0.00  0.00     0.003 A 
ATOM      6  C4  OXE d   1       0.806   0.329  -5.384  0.00  0.00    -0.002 A 
ATOM      7  C5  OXE d   1      -0.068  -0.326  -4.510  0.00  0.00    -0.002 A 
ATOM      8  C6  OXE d   1       0.331  -0.566  -3.200  0.00  0.00     0.003 A 
ENDROOT
TORSDOF 0
ENDMDL
