MODEL 1
REMARK minimizedAffinity 5.326159
REMARK minimizedRMSD -1
REMARK  0 active torsions:
REMARK  status: ('A' for Active; 'I' for Inactive)
ROOT
ATOM      1  C2' OXE d   1      -0.411  -0.369  -5.995  0.00  0.00     0.078 C 
ATOM      2  C1' OXE d   1      -0.830  -1.324  -3.389  0.00  0.00     0.078 C 
ATOM      3  C1  OXE d   1       0.304  -0.355  -3.609  0.00  0.00    -0.078 A 
ATOM      4  C2  OXE d   1       0.532   0.071  -4.896  0.00  0.00    -0.078 A 
ATOM      5  C3  OXE d   1       1.531   1.007  -5.146  0.00  0.00     0.003 A 
ATOM      6  C4  OXE d   1       2.404   1.402  -4.125  0.00  0.00    -0.002 A 
ATOM      7  C5  OXE d   1       2.215   0.949  -2.815  0.00  0.00    -0.002 A 
ATOM      8  C6  OXE d   1       1.146   0.105  -2.533  0.00  0.00     0.003 A 
ENDROOT
TORSDOF 0
ENDMDL
