MODEL 1
REMARK minimizedAffinity 6.46720743
REMARK minimizedRMSD -1
REMARK  0 active torsions:
REMARK  status: ('A' for Active; 'I' for Inactive)
ROOT
ATOM      1  C2' OXE d   1       1.896   2.519  -3.031  0.00  0.00     0.078 C 
ATOM      2  C1' OXE d   1       0.623   0.229  -4.038  0.00  0.00     0.078 C 
ATOM      3  C1  OXE d   1       2.119   0.178  -3.855  0.00  0.00    -0.078 A 
ATOM      4  C2  OXE d   1       2.740   1.319  -3.405  0.00  0.00    -0.078 A 
ATOM      5  C3  OXE d   1       4.111   1.309  -3.166  0.00  0.00     0.003 A 
ATOM      6  C4  OXE d   1       4.885   0.198  -3.524  0.00  0.00    -0.002 A 
ATOM      7  C5  OXE d   1       4.277  -0.960  -4.021  0.00  0.00    -0.002 A 
ATOM      8  C6  OXE d   1       2.894  -1.001  -4.152  0.00  0.00     0.003 A 
ENDROOT
TORSDOF 0
ENDMDL
