MODEL 1
REMARK minimizedAffinity 0.795744717
REMARK minimizedRMSD -1
REMARK  1 active torsions:
REMARK  status: ('A' for Active; 'I' for Inactive)
REMARK    1  A    between atoms: C1_2  and  C2_3 
ROOT
ATOM      1  C2  UNL d   1       4.340  -3.761  -2.733  0.00  0.00    -0.077 A 
ATOM      2  C3  UNL d   1       5.666  -4.144  -2.487  0.00  0.00     0.002 A 
ATOM      3  C4  UNL d   1       5.943  -5.256  -1.690  0.00  0.00     0.002 A 
ATOM      4  C5  UNL d   1       4.900  -5.996  -1.136  0.00  0.00    -0.004 A 
ATOM      5  C6  UNL d   1       3.578  -5.621  -1.374  0.00  0.00     0.002 A 
ATOM      6  C7  UNL d   1       3.299  -4.509  -2.169  0.00  0.00     0.002 A 
ENDROOT
BRANCH   1   7
ATOM      7  C1  UNL d   1       4.038  -2.591  -3.633  0.00  0.00     0.055 C 
ATOM      8  C   UNL d   1       3.340  -1.473  -2.873  0.00  0.00     0.019 C 
ENDBRANCH   1   7
TORSDOF 1
ENDMDL
