MODEL 1
REMARK minimizedAffinity 3.24703836
REMARK minimizedRMSD -1
REMARK  1 active torsions:
REMARK  status: ('A' for Active; 'I' for Inactive)
REMARK    1  A    between atoms: C1_2  and  C2_3 
ROOT
ATOM      1  C2  UNL d   1       0.192   2.773   1.233  0.00  0.00    -0.077 A 
ATOM      2  C3  UNL d   1       1.548   2.998   1.509  0.00  0.00     0.002 A 
ATOM      3  C4  UNL d   1       2.044   2.823   2.802  0.00  0.00     0.002 A 
ATOM      4  C5  UNL d   1       1.193   2.419   3.828  0.00  0.00    -0.004 A 
ATOM      5  C6  UNL d   1      -0.158   2.195   3.565  0.00  0.00     0.002 A 
ATOM      6  C7  UNL d   1      -0.656   2.371   2.273  0.00  0.00     0.002 A 
ENDROOT
BRANCH   1   7
ATOM      7  C1  UNL d   1      -0.336   2.914  -0.171  0.00  0.00     0.055 C 
ATOM      8  C   UNL d   1       0.164   4.194  -0.825  0.00  0.00     0.019 C 
ENDBRANCH   1   7
TORSDOF 1
ENDMDL
