MODEL 1
REMARK minimizedAffinity -4.01580572
REMARK minimizedRMSD -1
REMARK  1 active torsions:
REMARK  status: ('A' for Active; 'I' for Inactive)
REMARK    1  A    between atoms: C1_2  and  C2_3 
ROOT
ATOM      1  C2  UNL d   1       4.340  -3.008  -1.473  0.00  0.00    -0.077 A 
ATOM      2  C3  UNL d   1       3.681  -2.907  -2.706  0.00  0.00     0.002 A 
ATOM      3  C4  UNL d   1       3.741  -3.955  -3.627  0.00  0.00     0.002 A 
ATOM      4  C5  UNL d   1       4.456  -5.112  -3.323  0.00  0.00    -0.004 A 
ATOM      5  C6  UNL d   1       5.116  -5.221  -2.100  0.00  0.00     0.002 A 
ATOM      6  C7  UNL d   1       5.058  -4.174  -1.179  0.00  0.00     0.002 A 
ENDROOT
BRANCH   1   7
ATOM      7  C1  UNL d   1       4.235  -1.899  -0.459  0.00  0.00     0.055 C 
ATOM      8  C   UNL d   1       2.900  -1.941   0.271  0.00  0.00     0.019 C 
ENDBRANCH   1   7
TORSDOF 1
ENDMDL
