MODEL 1
REMARK minimizedAffinity 2.30806541
REMARK minimizedRMSD -1
REMARK  1 active torsions:
REMARK  status: ('A' for Active; 'I' for Inactive)
REMARK    1  A    between atoms: C1_2  and  C2_3 
ROOT
ATOM      1  C2  UNL d   1       3.343  -4.334  -1.971  0.00  0.00    -0.077 A 
ATOM      2  C3  UNL d   1       3.858  -4.475  -0.675  0.00  0.00     0.002 A 
ATOM      3  C4  UNL d   1       4.501  -3.405  -0.050  0.00  0.00     0.002 A 
ATOM      4  C5  UNL d   1       4.632  -2.186  -0.712  0.00  0.00    -0.004 A 
ATOM      5  C6  UNL d   1       4.125  -2.037  -2.003  0.00  0.00     0.002 A 
ATOM      6  C7  UNL d   1       3.483  -3.106  -2.629  0.00  0.00     0.002 A 
ENDROOT
BRANCH   1   7
ATOM      7  C1  UNL d   1       2.605  -5.472  -2.627  0.00  0.00     0.055 C 
ATOM      8  C   UNL d   1       1.493  -6.000  -1.732  0.00  0.00     0.019 C 
ENDBRANCH   1   7
TORSDOF 1
ENDMDL
