MODEL 1
REMARK minimizedAffinity 7.92960596
REMARK minimizedRMSD -1
REMARK  1 active torsions:
REMARK  status: ('A' for Active; 'I' for Inactive)
REMARK    1  A    between atoms: C3_4  and  O_7 
ROOT
ATOM      1  C   UNL d   1       1.218  -3.133   1.209  0.00  0.00    -0.033 A 
ATOM      2  C1  UNL d   1       1.960  -4.316   1.220  0.00  0.00     0.039 A 
ATOM      3  C2  UNL d   1       2.893  -4.547   2.233  0.00  0.00    -0.080 A 
ATOM      4  C3  UNL d   1       3.073  -3.590   3.228  0.00  0.00     0.150 A 
ATOM      5  C4  UNL d   1       2.334  -2.412   3.225  0.00  0.00    -0.007 A 
ATOM      6  C5  UNL d   1       1.404  -2.182   2.212  0.00  0.00     0.039 A 
ENDROOT
BRANCH   4   7
ATOM      7  O   UNL d   1       3.974  -3.770   4.234  0.00  0.00    -0.526 OA
ATOM      8  H5  UNL d   1       4.431  -4.615   4.091  0.00  0.00     0.418 HD
ENDBRANCH   4   7
TORSDOF 1
ENDMDL
