MODEL 1
REMARK minimizedAffinity 4.56960392
REMARK minimizedRMSD -1
REMARK  1 active torsions:
REMARK  status: ('A' for Active; 'I' for Inactive)
REMARK    1  A    between atoms: C3_4  and  O_7 
ROOT
ATOM      1  C   UNL d   1      -3.403  -0.170   0.568  0.00  0.00    -0.033 A 
ATOM      2  C1  UNL d   1      -3.432   0.392   1.846  0.00  0.00     0.039 A 
ATOM      3  C2  UNL d   1      -2.447   0.061   2.779  0.00  0.00    -0.080 A 
ATOM      4  C3  UNL d   1      -1.440  -0.831   2.422  0.00  0.00     0.150 A 
ATOM      5  C4  UNL d   1      -1.403  -1.392   1.150  0.00  0.00    -0.007 A 
ATOM      6  C5  UNL d   1      -2.388  -1.062   0.220  0.00  0.00     0.039 A 
ENDROOT
BRANCH   4   7
ATOM      7  O   UNL d   1      -0.460  -1.188   3.300  0.00  0.00    -0.526 OA
ATOM      8  H5  UNL d   1      -0.630  -0.745   4.148  0.00  0.00     0.418 HD
ENDBRANCH   4   7
TORSDOF 1
ENDMDL
