MODEL 1
REMARK minimizedAffinity 8.70715141
REMARK minimizedRMSD -1
REMARK  1 active torsions:
REMARK  status: ('A' for Active; 'I' for Inactive)
REMARK    1  A    between atoms: C3_4  and  O_7 
ROOT
ATOM      1  C   UNL d   1       1.076  -1.271   1.285  0.00  0.00    -0.033 A 
ATOM      2  C1  UNL d   1       0.628  -2.148   2.274  0.00  0.00     0.039 A 
ATOM      3  C2  UNL d   1       1.159  -3.437   2.360  0.00  0.00    -0.080 A 
ATOM      4  C3  UNL d   1       2.137  -3.834   1.453  0.00  0.00     0.150 A 
ATOM      5  C4  UNL d   1       2.591  -2.964   0.467  0.00  0.00    -0.007 A 
ATOM      6  C5  UNL d   1       2.059  -1.678   0.383  0.00  0.00     0.039 A 
ENDROOT
BRANCH   4   7
ATOM      7  O   UNL d   1       2.682  -5.083   1.494  0.00  0.00    -0.526 OA
ATOM      8  H5  UNL d   1       2.252  -5.583   2.208  0.00  0.00     0.418 HD
ENDBRANCH   4   7
TORSDOF 1
ENDMDL
