MODEL 1
REMARK minimizedAffinity 0.218292654
REMARK minimizedRMSD -1
REMARK  1 active torsions:
REMARK  status: ('A' for Active; 'I' for Inactive)
REMARK    1  A    between atoms: C3_4  and  O_7 
ROOT
ATOM      1  C   UNL d   1       6.000   1.501   0.836  0.00  0.00    -0.033 A 
ATOM      2  C1  UNL d   1       5.043   2.475   1.128  0.00  0.00     0.039 A 
ATOM      3  C2  UNL d   1       3.694   2.234   0.860  0.00  0.00    -0.080 A 
ATOM      4  C3  UNL d   1       3.316   1.017   0.301  0.00  0.00     0.150 A 
ATOM      5  C4  UNL d   1       4.263   0.040   0.011  0.00  0.00    -0.007 A 
ATOM      6  C5  UNL d   1       5.609   0.282   0.279  0.00  0.00     0.039 A 
ENDROOT
BRANCH   4   7
ATOM      7  O   UNL d   1       2.012   0.738   0.017  0.00  0.00    -0.526 OA
ATOM      8  H5  UNL d   1       1.474   1.516   0.243  0.00  0.00     0.418 HD
ENDBRANCH   4   7
TORSDOF 1
ENDMDL
