MODEL 1
REMARK minimizedAffinity 1.76213813
REMARK minimizedRMSD -1
REMARK  1 active torsions:
REMARK  status: ('A' for Active; 'I' for Inactive)
REMARK    1  A    between atoms: C3_4  and  O_7 
ROOT
ATOM      1  C   UNL d   1       1.324  -3.043   2.861  0.00  0.00    -0.033 A 
ATOM      2  C1  UNL d   1       2.069  -3.713   1.890  0.00  0.00     0.039 A 
ATOM      3  C2  UNL d   1       2.154  -3.198   0.594  0.00  0.00    -0.080 A 
ATOM      4  C3  UNL d   1       1.491  -2.014   0.285  0.00  0.00     0.150 A 
ATOM      5  C4  UNL d   1       0.749  -1.340   1.249  0.00  0.00    -0.007 A 
ATOM      6  C5  UNL d   1       0.665  -1.855   2.542  0.00  0.00     0.039 A 
ENDROOT
BRANCH   4   7
ATOM      7  O   UNL d   1       1.540  -1.476  -0.967  0.00  0.00    -0.526 OA
ATOM      8  H5  UNL d   1       2.064  -2.065  -1.535  0.00  0.00     0.418 HD
ENDBRANCH   4   7
TORSDOF 1
ENDMDL
