MODEL 1
REMARK minimizedAffinity 2.76899886
REMARK minimizedRMSD -1
REMARK  0 active torsions:
REMARK  status: ('A' for Active; 'I' for Inactive)
ROOT
ATOM      1  C2' OXE d   1       0.979   3.000  -3.000  0.00  0.00     0.078 C 
ATOM      2  C1' OXE d   1       3.750   3.375  -3.247  0.00  0.00     0.078 C 
ATOM      3  C1  OXE d   1       3.241   2.688  -2.005  0.00  0.00    -0.078 A 
ATOM      4  C2  OXE d   1       1.881   2.550  -1.871  0.00  0.00    -0.078 A 
ATOM      5  C3  OXE d   1       1.361   1.875  -0.770  0.00  0.00     0.003 A 
ATOM      6  C4  OXE d   1       2.201   1.471   0.275  0.00  0.00    -0.002 A 
ATOM      7  C5  OXE d   1       3.587   1.637   0.177  0.00  0.00    -0.002 A 
ATOM      8  C6  OXE d   1       4.125   2.204  -0.973  0.00  0.00     0.003 A 
ENDROOT
TORSDOF 0
ENDMDL
