MODEL 1
REMARK minimizedAffinity 2.68585992
REMARK minimizedRMSD -1
REMARK  0 active torsions:
REMARK  status: ('A' for Active; 'I' for Inactive)
ROOT
ATOM      1  C2' OXE d   1      -2.101   1.287   4.300  0.00  0.00     0.078 C 
ATOM      2  C1' OXE d   1      -0.548   0.019   2.336  0.00  0.00     0.078 C 
ATOM      3  C1  OXE d   1      -1.998  -0.381   2.453  0.00  0.00    -0.078 A 
ATOM      4  C2  OXE d   1      -2.738   0.211   3.448  0.00  0.00    -0.078 A 
ATOM      5  C3  OXE d   1      -4.094  -0.082   3.565  0.00  0.00     0.003 A 
ATOM      6  C4  OXE d   1      -4.673  -1.086   2.779  0.00  0.00    -0.002 A 
ATOM      7  C5  OXE d   1      -3.926  -1.729   1.787  0.00  0.00    -0.002 A 
ATOM      8  C6  OXE d   1      -2.601  -1.359   1.583  0.00  0.00     0.003 A 
ENDROOT
TORSDOF 0
ENDMDL
