MODEL 1
REMARK minimizedAffinity 10.5608778
REMARK minimizedRMSD -1
REMARK  0 active torsions:
REMARK  status: ('A' for Active; 'I' for Inactive)
ROOT
ATOM      1  C2' OXE d   1      -4.256  -3.229   5.997  0.00  0.00     0.078 C 
ATOM      2  C1' OXE d   1      -4.711  -5.999   5.999  0.00  0.00     0.078 C 
ATOM      3  C1  OXE d   1      -4.683  -5.292   4.668  0.00  0.00    -0.078 A 
ATOM      4  C2  OXE d   1      -4.506  -3.929   4.679  0.00  0.00    -0.078 A 
ATOM      5  C3  OXE d   1      -4.418  -3.235   3.476  0.00  0.00     0.003 A 
ATOM      6  C4  OXE d   1      -4.661  -3.888   2.261  0.00  0.00    -0.002 A 
ATOM      7  C5  OXE d   1      -4.882  -5.269   2.230  0.00  0.00    -0.002 A 
ATOM      8  C6  OXE d   1      -4.854  -5.991   3.418  0.00  0.00     0.003 A 
ENDROOT
TORSDOF 0
ENDMDL
