MODEL 1
REMARK minimizedAffinity 9.016922
REMARK minimizedRMSD -1
REMARK  0 active torsions:
REMARK  status: ('A' for Active; 'I' for Inactive)
ROOT
ATOM      1  C2' OXE d   1      -3.199   1.301   3.546  0.00  0.00     0.078 C 
ATOM      2  C1' OXE d   1      -5.037   0.409   1.621  0.00  0.00     0.078 C 
ATOM      3  C1  OXE d   1      -3.677  -0.242   1.650  0.00  0.00    -0.078 A 
ATOM      4  C2  OXE d   1      -2.768   0.233   2.564  0.00  0.00    -0.078 A 
ATOM      5  C3  OXE d   1      -1.517  -0.369   2.670  0.00  0.00     0.003 A 
ATOM      6  C4  OXE d   1      -1.123  -1.350   1.751  0.00  0.00    -0.002 A 
ATOM      7  C5  OXE d   1      -2.020  -1.820   0.786  0.00  0.00    -0.002 A 
ATOM      8  C6  OXE d   1      -3.312  -1.308   0.750  0.00  0.00     0.003 A 
ENDROOT
TORSDOF 0
ENDMDL
