MODEL 1
REMARK minimizedAffinity 14.1949501
REMARK minimizedRMSD -1
REMARK  0 active torsions:
REMARK  status: ('A' for Active; 'I' for Inactive)
ROOT
ATOM      1  C2' OXE d   1       3.549   2.904  -5.746  0.00  0.00     0.078 C 
ATOM      2  C1' OXE d   1       2.257   2.449  -3.296  0.00  0.00     0.078 C 
ATOM      3  C1  OXE d   1       3.561   3.206  -3.273  0.00  0.00    -0.078 A 
ATOM      4  C2  OXE d   1       4.210   3.383  -4.472  0.00  0.00    -0.078 A 
ATOM      5  C3  OXE d   1       5.389   4.121  -4.515  0.00  0.00     0.003 A 
ATOM      6  C4  OXE d   1       6.000   4.551  -3.330  0.00  0.00    -0.002 A 
ATOM      7  C5  OXE d   1       5.376   4.347  -2.095  0.00  0.00    -0.002 A 
ATOM      8  C6  OXE d   1       4.138   3.714  -2.053  0.00  0.00     0.003 A 
ENDROOT
TORSDOF 0
ENDMDL
