MODEL 1
REMARK minimizedAffinity 6.6253109
REMARK minimizedRMSD -1
REMARK  0 active torsions:
REMARK  status: ('A' for Active; 'I' for Inactive)
ROOT
ATOM      1  C2' OXE d   1      -3.224  -0.115   2.443  0.00  0.00     0.078 C 
ATOM      2  C1' OXE d   1      -5.997   0.305   2.318  0.00  0.00     0.078 C 
ATOM      3  C1  OXE d   1      -5.299   0.601   3.622  0.00  0.00    -0.078 A 
ATOM      4  C2  OXE d   1      -3.949   0.348   3.688  0.00  0.00    -0.078 A 
ATOM      5  C3  OXE d   1      -3.247   0.655   4.850  0.00  0.00     0.003 A 
ATOM      6  C4  OXE d   1      -3.926   1.073   6.000  0.00  0.00    -0.002 A 
ATOM      7  C5  OXE d   1      -5.307   1.298   5.966  0.00  0.00    -0.002 A 
ATOM      8  C6  OXE d   1      -5.999   1.108   4.776  0.00  0.00     0.003 A 
ENDROOT
TORSDOF 0
ENDMDL
