MODEL 1
REMARK minimizedAffinity 20.8913956
REMARK minimizedRMSD -1
REMARK  0 active torsions:
REMARK  status: ('A' for Active; 'I' for Inactive)
ROOT
ATOM      1  C2' OXE d   1      -1.466  -2.975   0.491  0.00  0.00     0.078 C 
ATOM      2  C1' OXE d   1       0.473  -1.892   2.208  0.00  0.00     0.078 C 
ATOM      3  C1  OXE d   1      -0.813  -1.126   2.027  0.00  0.00    -0.078 A 
ATOM      4  C2  OXE d   1      -1.737  -1.640   1.149  0.00  0.00    -0.078 A 
ATOM      5  C3  OXE d   1      -2.963  -1.001   0.987  0.00  0.00     0.003 A 
ATOM      6  C4  OXE d   1      -3.202   0.239   1.592  0.00  0.00    -0.002 A 
ATOM      7  C5  OXE d   1      -2.258   0.800   2.459  0.00  0.00    -0.002 A 
ATOM      8  C6  OXE d   1      -1.079   0.111   2.720  0.00  0.00     0.003 A 
ENDROOT
TORSDOF 0
ENDMDL
