MODEL 1
REMARK minimizedAffinity 14.8260584
REMARK minimizedRMSD -1
REMARK  0 active torsions:
REMARK  status: ('A' for Active; 'I' for Inactive)
ROOT
ATOM      1  C2' OXE d   1      -4.914  -4.801   1.671  0.00  0.00     0.078 C 
ATOM      2  C1' OXE d   1      -4.917  -2.346   3.031  0.00  0.00     0.078 C 
ATOM      3  C1  OXE d   1      -4.938  -3.608   3.857  0.00  0.00    -0.078 A 
ATOM      4  C2  OXE d   1      -4.984  -4.804   3.183  0.00  0.00    -0.078 A 
ATOM      5  C3  OXE d   1      -4.950  -5.999   3.896  0.00  0.00     0.003 A 
ATOM      6  C4  OXE d   1      -5.025  -5.993   5.294  0.00  0.00    -0.002 A 
ATOM      7  C5  OXE d   1      -5.019  -4.785   6.000  0.00  0.00    -0.002 A 
ATOM      8  C6  OXE d   1      -4.933  -3.587   5.299  0.00  0.00     0.003 A 
ENDROOT
TORSDOF 0
ENDMDL
