MODEL 1
REMARK minimizedAffinity 9.07789803
REMARK minimizedRMSD -1
REMARK  0 active torsions:
REMARK  status: ('A' for Active; 'I' for Inactive)
ROOT
ATOM      1  C2' OXE d   1      -0.332  -4.915  -1.859  0.00  0.00     0.078 C 
ATOM      2  C1' OXE d   1       1.771  -5.673  -3.556  0.00  0.00     0.078 C 
ATOM      3  C1  OXE d   1       0.378  -5.641  -4.133  0.00  0.00    -0.078 A 
ATOM      4  C2  OXE d   1      -0.651  -5.313  -3.283  0.00  0.00    -0.078 A 
ATOM      5  C3  OXE d   1      -1.949  -5.215  -3.778  0.00  0.00     0.003 A 
ATOM      6  C4  OXE d   1      -2.236  -5.595  -5.094  0.00  0.00    -0.002 A 
ATOM      7  C5  OXE d   1      -1.208  -5.970  -5.966  0.00  0.00    -0.002 A 
ATOM      8  C6  OXE d   1       0.107  -5.957  -5.514  0.00  0.00     0.003 A 
ENDROOT
TORSDOF 0
ENDMDL
