MODEL 1
REMARK minimizedAffinity 8.18268204
REMARK minimizedRMSD -1
REMARK  0 active torsions:
REMARK  status: ('A' for Active; 'I' for Inactive)
ROOT
ATOM      1  C2' OXE d   1      -2.148  -5.990  -5.995  0.00  0.00     0.078 C 
ATOM      2  C1' OXE d   1      -2.747  -4.217  -3.902  0.00  0.00     0.078 C 
ATOM      3  C1  OXE d   1      -1.318  -4.677  -4.047  0.00  0.00    -0.078 A 
ATOM      4  C2  OXE d   1      -1.043  -5.580  -5.045  0.00  0.00    -0.078 A 
ATOM      5  C3  OXE d   1       0.269  -5.994  -5.258  0.00  0.00     0.003 A 
ATOM      6  C4  OXE d   1       1.284  -5.618  -4.369  0.00  0.00    -0.002 A 
ATOM      7  C5  OXE d   1       1.017  -4.730  -3.322  0.00  0.00    -0.002 A 
ATOM      8  C6  OXE d   1      -0.267  -4.217  -3.173  0.00  0.00     0.003 A 
ENDROOT
TORSDOF 0
ENDMDL
