MODEL 1
REMARK minimizedAffinity 5.08702469
REMARK minimizedRMSD -1
REMARK  0 active torsions:
REMARK  status: ('A' for Active; 'I' for Inactive)
ROOT
ATOM      1  C2' OXE d   1      -4.890  -1.514   2.280  0.00  0.00     0.078 C 
ATOM      2  C1' OXE d   1      -5.249   1.269   2.217  0.00  0.00     0.078 C 
ATOM      3  C1  OXE d   1      -5.044   0.616   3.562  0.00  0.00    -0.078 A 
ATOM      4  C2  OXE d   1      -4.915  -0.752   3.587  0.00  0.00    -0.078 A 
ATOM      5  C3  OXE d   1      -4.669  -1.398   4.795  0.00  0.00     0.003 A 
ATOM      6  C4  OXE d   1      -4.705  -0.687   6.000  0.00  0.00    -0.002 A 
ATOM      7  C5  OXE d   1      -4.874   0.702   6.000  0.00  0.00    -0.002 A 
ATOM      8  C6  OXE d   1      -5.002   1.373   4.789  0.00  0.00     0.003 A 
ENDROOT
TORSDOF 0
ENDMDL
