MODEL 1
REMARK minimizedAffinity 9.25047016
REMARK minimizedRMSD -1
REMARK  0 active torsions:
REMARK  status: ('A' for Active; 'I' for Inactive)
ROOT
ATOM      1  C2' OXE d   1       0.120  -1.240   2.548  0.00  0.00     0.078 C 
ATOM      2  C1' OXE d   1      -1.804  -2.314   0.808  0.00  0.00     0.078 C 
ATOM      3  C1  OXE d   1      -2.205  -1.136   1.660  0.00  0.00    -0.078 A 
ATOM      4  C2  OXE d   1      -1.272  -0.646   2.542  0.00  0.00    -0.078 A 
ATOM      5  C3  OXE d   1      -1.573   0.474   3.312  0.00  0.00     0.003 A 
ATOM      6  C4  OXE d   1      -2.866   1.010   3.308  0.00  0.00    -0.002 A 
ATOM      7  C5  OXE d   1      -3.843   0.502   2.447  0.00  0.00    -0.002 A 
ATOM      8  C6  OXE d   1      -3.517  -0.542   1.587  0.00  0.00     0.003 A 
ENDROOT
TORSDOF 0
ENDMDL
