MODEL 1
REMARK minimizedAffinity 13.3631554
REMARK minimizedRMSD -1
REMARK  0 active torsions:
REMARK  status: ('A' for Active; 'I' for Inactive)
ROOT
ATOM      1  C2' OXE d   1      -4.629   0.322   1.863  0.00  0.00     0.078 C 
ATOM      2  C1' OXE d   1      -2.762   1.295   3.720  0.00  0.00     0.078 C 
ATOM      3  C1  OXE d   1      -2.288   0.278   2.712  0.00  0.00    -0.078 A 
ATOM      4  C2  OXE d   1      -3.219  -0.227   1.838  0.00  0.00    -0.078 A 
ATOM      5  C3  OXE d   1      -2.823  -1.127   0.853  0.00  0.00     0.003 A 
ATOM      6  C4  OXE d   1      -1.519  -1.638   0.842  0.00  0.00    -0.002 A 
ATOM      7  C5  OXE d   1      -0.565  -1.166   1.749  0.00  0.00    -0.002 A 
ATOM      8  C6  OXE d   1      -0.921  -0.179   2.662  0.00  0.00     0.003 A 
ENDROOT
TORSDOF 0
ENDMDL
