MODEL 1
REMARK minimizedAffinity 12.2094011
REMARK minimizedRMSD -1
REMARK  0 active torsions:
REMARK  status: ('A' for Active; 'I' for Inactive)
ROOT
ATOM      1  C2' OXE d   1      -2.286  -1.908   1.086  0.00  0.00     0.078 C 
ATOM      2  C1' OXE d   1      -4.491  -0.287   1.710  0.00  0.00     0.078 C 
ATOM      3  C1  OXE d   1      -3.219  -0.076   2.492  0.00  0.00    -0.078 A 
ATOM      4  C2  OXE d   1      -2.160  -0.905   2.212  0.00  0.00    -0.078 A 
ATOM      5  C3  OXE d   1      -0.945  -0.717   2.866  0.00  0.00     0.003 A 
ATOM      6  C4  OXE d   1      -0.840   0.207   3.913  0.00  0.00    -0.002 A 
ATOM      7  C5  OXE d   1      -1.919   1.034   4.242  0.00  0.00    -0.002 A 
ATOM      8  C6  OXE d   1      -3.100   0.935   3.514  0.00  0.00     0.003 A 
ENDROOT
TORSDOF 0
ENDMDL
