MODEL 1
REMARK minimizedAffinity 14.0678406
REMARK minimizedRMSD -1
REMARK  0 active torsions:
REMARK  status: ('A' for Active; 'I' for Inactive)
ROOT
ATOM      1  C2' OXE d   1       2.968   0.868   1.878  0.00  0.00     0.078 C 
ATOM      2  C1' OXE d   1       3.263   1.568  -0.824  0.00  0.00     0.078 C 
ATOM      3  C1  OXE d   1       4.190   2.213   0.175  0.00  0.00    -0.078 A 
ATOM      4  C2  OXE d   1       4.008   1.900   1.500  0.00  0.00    -0.078 A 
ATOM      5  C3  OXE d   1       4.872   2.425   2.458  0.00  0.00     0.003 A 
ATOM      6  C4  OXE d   1       5.825   3.388   2.101  0.00  0.00    -0.002 A 
ATOM      7  C5  OXE d   1       6.000   3.751   0.761  0.00  0.00    -0.002 A 
ATOM      8  C6  OXE d   1       5.221   3.142  -0.217  0.00  0.00     0.003 A 
ENDROOT
TORSDOF 0
ENDMDL
