MODEL 1
REMARK minimizedAffinity 6.61262751
REMARK minimizedRMSD -1
REMARK  0 active torsions:
REMARK  status: ('A' for Active; 'I' for Inactive)
ROOT
ATOM      1  C2' OXE d   1       2.541   1.180   1.133  0.00  0.00     0.078 C 
ATOM      2  C1' OXE d   1       3.416   1.484  -1.517  0.00  0.00     0.078 C 
ATOM      3  C1  OXE d   1       4.137   2.262  -0.445  0.00  0.00    -0.078 A 
ATOM      4  C2  OXE d   1       3.673   2.143   0.843  0.00  0.00    -0.078 A 
ATOM      5  C3  OXE d   1       4.336   2.796   1.878  0.00  0.00     0.003 A 
ATOM      6  C4  OXE d   1       5.375   3.692   1.599  0.00  0.00    -0.002 A 
ATOM      7  C5  OXE d   1       5.838   3.858   0.290  0.00  0.00    -0.002 A 
ATOM      8  C6  OXE d   1       5.259   3.120  -0.736  0.00  0.00     0.003 A 
ENDROOT
TORSDOF 0
ENDMDL
