MODEL 1
REMARK minimizedAffinity 4.29828739
REMARK minimizedRMSD -1
REMARK  0 active torsions:
REMARK  status: ('A' for Active; 'I' for Inactive)
ROOT
ATOM      1  C2' OXE d   1       1.197  -1.100   3.974  0.00  0.00     0.078 C 
ATOM      2  C1' OXE d   1       0.213   0.763   2.120  0.00  0.00     0.078 C 
ATOM      3  C1  OXE d   1      -0.483   0.664   3.455  0.00  0.00    -0.078 A 
ATOM      4  C2  OXE d   1      -0.024  -0.283   4.338  0.00  0.00    -0.078 A 
ATOM      5  C3  OXE d   1      -0.594  -0.379   5.604  0.00  0.00     0.003 A 
ATOM      6  C4  OXE d   1      -1.730   0.374   5.929  0.00  0.00    -0.002 A 
ATOM      7  C5  OXE d   1      -2.238   1.316   5.028  0.00  0.00    -0.002 A 
ATOM      8  C6  OXE d   1      -1.602   1.503   3.806  0.00  0.00     0.003 A 
ENDROOT
TORSDOF 0
ENDMDL
