MODEL 1
REMARK minimizedAffinity 15.2146826
REMARK minimizedRMSD -1
REMARK  0 active torsions:
REMARK  status: ('A' for Active; 'I' for Inactive)
ROOT
ATOM      1  C2' OXE d   1      -5.726  -0.390  -2.506  0.00  0.00     0.078 C 
ATOM      2  C1' OXE d   1      -5.157   2.279  -1.846  0.00  0.00     0.078 C 
ATOM      3  C1  OXE d   1      -5.432   1.318  -0.716  0.00  0.00    -0.078 A 
ATOM      4  C2  OXE d   1      -5.756   0.025  -1.050  0.00  0.00    -0.078 A 
ATOM      5  C3  OXE d   1      -5.965  -0.915  -0.045  0.00  0.00     0.003 A 
ATOM      6  C4  OXE d   1      -6.000  -0.521   1.298  0.00  0.00    -0.002 A 
ATOM      7  C5  OXE d   1      -5.712   0.800   1.658  0.00  0.00    -0.002 A 
ATOM      8  C6  OXE d   1      -5.385   1.721   0.668  0.00  0.00     0.003 A 
ENDROOT
TORSDOF 0
ENDMDL
