MODEL 1
REMARK minimizedAffinity 21.9519482
REMARK minimizedRMSD -1
REMARK  0 active torsions:
REMARK  status: ('A' for Active; 'I' for Inactive)
ROOT
ATOM      1  C2' OXE d   1       0.733   3.010  -3.431  0.00  0.00     0.078 C 
ATOM      2  C1' OXE d   1       3.478   2.681  -3.916  0.00  0.00     0.078 C 
ATOM      3  C1  OXE d   1       2.923   2.143  -2.621  0.00  0.00    -0.078 A 
ATOM      4  C2  OXE d   1       1.587   2.350  -2.371  0.00  0.00    -0.078 A 
ATOM      5  C3  OXE d   1       1.013   1.827  -1.216  0.00  0.00     0.003 A 
ATOM      6  C4  OXE d   1       1.812   1.226  -0.236  0.00  0.00    -0.002 A 
ATOM      7  C5  OXE d   1       3.182   1.041  -0.453  0.00  0.00    -0.002 A 
ATOM      8  C6  OXE d   1       3.744   1.455  -1.655  0.00  0.00     0.003 A 
ENDROOT
TORSDOF 0
ENDMDL
