MODEL 1
REMARK minimizedAffinity -4.51333332
REMARK minimizedRMSD -1
REMARK  1 active torsions:
REMARK  status: ('A' for Active; 'I' for Inactive)
REMARK    1  A    between atoms: C1_2  and  C2_3 
ROOT
ATOM      1  C2  UNL d   1       1.203   1.129  -0.970  0.00  0.00    -0.077 A 
ATOM      2  C3  UNL d   1       1.878  -0.096  -0.875  0.00  0.00     0.002 A 
ATOM      3  C4  UNL d   1       1.372  -1.121  -0.074  0.00  0.00     0.002 A 
ATOM      4  C5  UNL d   1       0.188  -0.933   0.635  0.00  0.00    -0.004 A 
ATOM      5  C6  UNL d   1      -0.490   0.282   0.549  0.00  0.00     0.002 A 
ATOM      6  C7  UNL d   1       0.014   1.308  -0.250  0.00  0.00     0.002 A 
ENDROOT
BRANCH   1   7
ATOM      7  C1  UNL d   1       1.721   2.219  -1.872  0.00  0.00     0.055 C 
ATOM      8  C   UNL d   1       0.944   2.270  -3.180  0.00  0.00     0.019 C 
ENDBRANCH   1   7
TORSDOF 1
ENDMDL
