MODEL 1
REMARK minimizedAffinity -3.08307528
REMARK minimizedRMSD -1
REMARK  1 active torsions:
REMARK  status: ('A' for Active; 'I' for Inactive)
REMARK    1  A    between atoms: C1_2  and  C2_3 
ROOT
ATOM      1  C2  UNL d   1       0.295   1.207  -1.291  0.00  0.00    -0.077 A 
ATOM      2  C3  UNL d   1       1.509   0.957  -0.636  0.00  0.00     0.002 A 
ATOM      3  C4  UNL d   1       1.584  -0.008   0.370  0.00  0.00     0.002 A 
ATOM      4  C5  UNL d   1       0.449  -0.733   0.728  0.00  0.00    -0.004 A 
ATOM      5  C6  UNL d   1      -0.764  -0.490   0.085  0.00  0.00     0.002 A 
ATOM      6  C7  UNL d   1      -0.840   0.475  -0.921  0.00  0.00     0.002 A 
ENDROOT
BRANCH   1   7
ATOM      7  C1  UNL d   1       0.224   2.212  -2.410  0.00  0.00     0.055 C 
ATOM      8  C   UNL d   1       0.929   1.701  -3.658  0.00  0.00     0.019 C 
ENDBRANCH   1   7
TORSDOF 1
ENDMDL
