MODEL 1
REMARK minimizedAffinity -5.21955967
REMARK minimizedRMSD -1
REMARK  1 active torsions:
REMARK  status: ('A' for Active; 'I' for Inactive)
REMARK    1  A    between atoms: C1_2  and  C2_3 
ROOT
ATOM      1  C2  UNL d   1       0.693  -1.325   0.917  0.00  0.00    -0.077 A 
ATOM      2  C3  UNL d   1       1.593  -0.288   0.633  0.00  0.00     0.002 A 
ATOM      3  C4  UNL d   1       1.124   0.998   0.359  0.00  0.00     0.002 A 
ATOM      4  C5  UNL d   1      -0.245   1.260   0.369  0.00  0.00    -0.004 A 
ATOM      5  C6  UNL d   1      -1.147   0.235   0.649  0.00  0.00     0.002 A 
ATOM      6  C7  UNL d   1      -0.680  -1.052   0.922  0.00  0.00     0.002 A 
ENDROOT
BRANCH   1   7
ATOM      7  C1  UNL d   1       1.199  -2.701   1.262  0.00  0.00     0.055 C 
ATOM      8  C   UNL d   1       2.558  -2.966   0.631  0.00  0.00     0.019 C 
ENDBRANCH   1   7
TORSDOF 1
ENDMDL
