MODEL 1
REMARK minimizedAffinity -2.67193317
REMARK minimizedRMSD -1
REMARK  1 active torsions:
REMARK  status: ('A' for Active; 'I' for Inactive)
REMARK    1  A    between atoms: C1_2  and  C2_3 
ROOT
ATOM      1  C2  UNL d   1       0.496  -1.785   1.441  0.00  0.00    -0.077 A 
ATOM      2  C3  UNL d   1       1.425  -1.025   0.716  0.00  0.00     0.002 A 
ATOM      3  C4  UNL d   1       0.991  -0.080  -0.215  0.00  0.00     0.002 A 
ATOM      4  C5  UNL d   1      -0.372   0.117  -0.427  0.00  0.00    -0.004 A 
ATOM      5  C6  UNL d   1      -1.303  -0.635   0.287  0.00  0.00     0.002 A 
ATOM      6  C7  UNL d   1      -0.872  -1.581   1.217  0.00  0.00     0.002 A 
ENDROOT
BRANCH   1   7
ATOM      7  C1  UNL d   1       0.961  -2.770   2.481  0.00  0.00     0.055 C 
ATOM      8  C   UNL d   1       0.292  -2.514   3.824  0.00  0.00     0.019 C 
ENDBRANCH   1   7
TORSDOF 1
ENDMDL
