MODEL 1
REMARK minimizedAffinity -4.49053955
REMARK minimizedRMSD -1
REMARK  1 active torsions:
REMARK  status: ('A' for Active; 'I' for Inactive)
REMARK    1  A    between atoms: C1_2  and  C2_3 
ROOT
ATOM      1  C2  UNL d   1      -1.268  -0.431   1.242  0.00  0.00    -0.077 A 
ATOM      2  C3  UNL d   1      -1.042  -1.699   1.796  0.00  0.00     0.002 A 
ATOM      3  C4  UNL d   1       0.039  -2.473   1.369  0.00  0.00     0.002 A 
ATOM      4  C5  UNL d   1       0.903  -1.988   0.391  0.00  0.00    -0.004 A 
ATOM      5  C6  UNL d   1       0.685  -0.729  -0.168  0.00  0.00     0.002 A 
ATOM      6  C7  UNL d   1      -0.395   0.046   0.256  0.00  0.00     0.002 A 
ENDROOT
BRANCH   1   7
ATOM      7  C1  UNL d   1      -2.404   0.427   1.736  0.00  0.00     0.055 C 
ATOM      8  C   UNL d   1      -2.251   1.868   1.272  0.00  0.00     0.019 C 
ENDBRANCH   1   7
TORSDOF 1
ENDMDL
