MODEL 1
REMARK minimizedAffinity -3.0139451
REMARK minimizedRMSD -1
REMARK  1 active torsions:
REMARK  status: ('A' for Active; 'I' for Inactive)
REMARK    1  A    between atoms: C1_2  and  C2_3 
ROOT
ATOM      1  C2  UNL d   1      -1.765  -0.822   0.433  0.00  0.00    -0.077 A 
ATOM      2  C3  UNL d   1      -0.635  -0.573  -0.359  0.00  0.00     0.002 A 
ATOM      3  C4  UNL d   1      -0.278   0.735  -0.689  0.00  0.00     0.002 A 
ATOM      4  C5  UNL d   1      -1.042   1.805  -0.229  0.00  0.00    -0.004 A 
ATOM      5  C6  UNL d   1      -2.169   1.569   0.557  0.00  0.00     0.002 A 
ATOM      6  C7  UNL d   1      -2.528   0.261   0.888  0.00  0.00     0.002 A 
ENDROOT
BRANCH   1   7
ATOM      7  C1  UNL d   1      -2.123  -2.229   0.832  0.00  0.00     0.055 C 
ATOM      8  C   UNL d   1      -1.347  -2.670   2.064  0.00  0.00     0.019 C 
ENDBRANCH   1   7
TORSDOF 1
ENDMDL
