MODEL 1
REMARK minimizedAffinity 0.574634492
REMARK minimizedRMSD -1
REMARK  1 active torsions:
REMARK  status: ('A' for Active; 'I' for Inactive)
REMARK    1  A    between atoms: C1_2  and  C2_3 
ROOT
ATOM      1  C2  UNL d   1      -0.811  -0.519   1.025  0.00  0.00    -0.077 A 
ATOM      2  C3  UNL d   1       0.416  -0.157   0.451  0.00  0.00     0.002 A 
ATOM      3  C4  UNL d   1       0.694   1.181   0.165  0.00  0.00     0.002 A 
ATOM      4  C5  UNL d   1      -0.247   2.167   0.453  0.00  0.00    -0.004 A 
ATOM      5  C6  UNL d   1      -1.471   1.817   1.022  0.00  0.00     0.002 A 
ATOM      6  C7  UNL d   1      -1.751   0.480   1.307  0.00  0.00     0.002 A 
ENDROOT
BRANCH   1   7
ATOM      7  C1  UNL d   1      -1.093  -1.955   1.380  0.00  0.00     0.055 C 
ATOM      8  C   UNL d   1      -0.241  -2.413   2.554  0.00  0.00     0.019 C 
ENDBRANCH   1   7
TORSDOF 1
ENDMDL
