MODEL 1
REMARK minimizedAffinity -2.9424603
REMARK minimizedRMSD -1
REMARK  1 active torsions:
REMARK  status: ('A' for Active; 'I' for Inactive)
REMARK    1  A    between atoms: C1_2  and  C2_3 
ROOT
ATOM      1  C2  UNL d   1      -0.382  -0.704   1.208  0.00  0.00    -0.077 A 
ATOM      2  C3  UNL d   1       0.126  -0.651  -0.097  0.00  0.00     0.002 A 
ATOM      3  C4  UNL d   1       0.969  -1.659  -0.569  0.00  0.00     0.002 A 
ATOM      4  C5  UNL d   1       1.307  -2.730   0.256  0.00  0.00    -0.004 A 
ATOM      5  C6  UNL d   1       0.808  -2.791   1.556  0.00  0.00     0.002 A 
ATOM      6  C7  UNL d   1      -0.033  -1.783   2.030  0.00  0.00     0.002 A 
ENDROOT
BRANCH   1   7
ATOM      7  C1  UNL d   1      -1.330   0.357   1.702  0.00  0.00     0.055 C 
ATOM      8  C   UNL d   1      -2.289  -0.200   2.745  0.00  0.00     0.019 C 
ENDBRANCH   1   7
TORSDOF 1
ENDMDL
