MODEL 1
REMARK minimizedAffinity -4.39909935
REMARK minimizedRMSD -1
REMARK  1 active torsions:
REMARK  status: ('A' for Active; 'I' for Inactive)
REMARK    1  A    between atoms: C1_2  and  C2_3 
ROOT
ATOM      1  C2  UNL d   1      -0.408  -0.619   0.403  0.00  0.00    -0.077 A 
ATOM      2  C3  UNL d   1      -1.591  -0.196   1.024  0.00  0.00     0.002 A 
ATOM      3  C4  UNL d   1      -2.262  -1.038   1.913  0.00  0.00     0.002 A 
ATOM      4  C5  UNL d   1      -1.756  -2.305   2.191  0.00  0.00    -0.004 A 
ATOM      5  C6  UNL d   1      -0.581  -2.736   1.577  0.00  0.00     0.002 A 
ATOM      6  C7  UNL d   1       0.091  -1.897   0.687  0.00  0.00     0.002 A 
ENDROOT
BRANCH   1   7
ATOM      7  C1  UNL d   1       0.344   0.306  -0.518  0.00  0.00     0.055 C 
ATOM      8  C   UNL d   1       0.110   1.764  -0.150  0.00  0.00     0.019 C 
ENDBRANCH   1   7
TORSDOF 1
ENDMDL
