MODEL 1
REMARK minimizedAffinity -4.50027943
REMARK minimizedRMSD -1
REMARK  1 active torsions:
REMARK  status: ('A' for Active; 'I' for Inactive)
REMARK    1  A    between atoms: C1_2  and  C2_3 
ROOT
ATOM      1  C2  UNL d   1       0.326  -0.037  -0.168  0.00  0.00    -0.077 A 
ATOM      2  C3  UNL d   1      -0.619  -0.322   0.828  0.00  0.00     0.002 A 
ATOM      3  C4  UNL d   1      -0.718  -1.608   1.361  0.00  0.00     0.002 A 
ATOM      4  C5  UNL d   1       0.127  -2.619   0.908  0.00  0.00    -0.004 A 
ATOM      5  C6  UNL d   1       1.069  -2.346  -0.084  0.00  0.00     0.002 A 
ATOM      6  C7  UNL d   1       1.168  -1.061  -0.618  0.00  0.00     0.002 A 
ENDROOT
BRANCH   1   7
ATOM      7  C1  UNL d   1       0.467   1.362  -0.708  0.00  0.00     0.055 C 
ATOM      8  C   UNL d   1       1.495   1.421  -1.829  0.00  0.00     0.019 C 
ENDBRANCH   1   7
TORSDOF 1
ENDMDL
