MODEL 1
REMARK minimizedAffinity -5.65932846
REMARK minimizedRMSD -1
REMARK  1 active torsions:
REMARK  status: ('A' for Active; 'I' for Inactive)
REMARK    1  A    between atoms: C1_2  and  C2_3 
ROOT
ATOM      1  C2  UNL d   1       0.081  -0.539   0.333  0.00  0.00    -0.077 A 
ATOM      2  C3  UNL d   1      -1.307  -0.662   0.182  0.00  0.00     0.002 A 
ATOM      3  C4  UNL d   1      -1.964  -1.816   0.613  0.00  0.00     0.002 A 
ATOM      4  C5  UNL d   1      -1.243  -2.853   1.201  0.00  0.00    -0.004 A 
ATOM      5  C6  UNL d   1       0.139  -2.740   1.354  0.00  0.00     0.002 A 
ATOM      6  C7  UNL d   1       0.798  -1.588   0.923  0.00  0.00     0.002 A 
ENDROOT
BRANCH   1   7
ATOM      7  C1  UNL d   1       0.786   0.725  -0.086  0.00  0.00     0.055 C 
ATOM      8  C   UNL d   1       0.102   1.957   0.490  0.00  0.00     0.019 C 
ENDBRANCH   1   7
TORSDOF 1
ENDMDL
