MODEL 1
REMARK minimizedAffinity -5.11791515
REMARK minimizedRMSD -1
REMARK  1 active torsions:
REMARK  status: ('A' for Active; 'I' for Inactive)
REMARK    1  A    between atoms: C1_2  and  C2_3 
ROOT
ATOM      1  C2  UNL d   1      -0.227  -1.242   0.571  0.00  0.00    -0.077 A 
ATOM      2  C3  UNL d   1      -1.369  -0.430   0.636  0.00  0.00     0.002 A 
ATOM      3  C4  UNL d   1      -1.281   0.936   0.359  0.00  0.00     0.002 A 
ATOM      4  C5  UNL d   1      -0.055   1.501   0.012  0.00  0.00    -0.004 A 
ATOM      5  C6  UNL d   1       1.086   0.702  -0.053  0.00  0.00     0.002 A 
ATOM      6  C7  UNL d   1       1.000  -0.663   0.224  0.00  0.00     0.002 A 
ENDROOT
BRANCH   1   7
ATOM      7  C1  UNL d   1      -0.330  -2.724   0.821  0.00  0.00     0.055 C 
ATOM      8  C   UNL d   1      -1.771  -3.146   1.066  0.00  0.00     0.019 C 
ENDBRANCH   1   7
TORSDOF 1
ENDMDL
