MODEL 1
REMARK minimizedAffinity -4.94967318
REMARK minimizedRMSD -1
REMARK  1 active torsions:
REMARK  status: ('A' for Active; 'I' for Inactive)
REMARK    1  A    between atoms: C1_2  and  C2_3 
ROOT
ATOM      1  C2  UNL d   1       0.266  -1.027   0.352  0.00  0.00    -0.077 A 
ATOM      2  C3  UNL d   1       0.287  -2.305   0.927  0.00  0.00     0.002 A 
ATOM      3  C4  UNL d   1      -0.905  -2.993   1.165  0.00  0.00     0.002 A 
ATOM      4  C5  UNL d   1      -2.125  -2.412   0.826  0.00  0.00    -0.004 A 
ATOM      5  C6  UNL d   1      -2.157  -1.141   0.255  0.00  0.00     0.002 A 
ATOM      6  C7  UNL d   1      -0.967  -0.452   0.018  0.00  0.00     0.002 A 
ENDROOT
BRANCH   1   7
ATOM      7  C1  UNL d   1       1.553  -0.305   0.049  0.00  0.00     0.055 C 
ATOM      8  C   UNL d   1       1.290   1.103  -0.465  0.00  0.00     0.019 C 
ENDBRANCH   1   7
TORSDOF 1
ENDMDL
