MODEL 1
REMARK minimizedAffinity -5.68191862
REMARK minimizedRMSD -1
REMARK  1 active torsions:
REMARK  status: ('A' for Active; 'I' for Inactive)
REMARK    1  A    between atoms: C1_2  and  C2_3 
ROOT
ATOM      1  C2  UNL d   1      -0.638   0.076   0.336  0.00  0.00    -0.077 A 
ATOM      2  C3  UNL d   1      -1.810   0.626   0.872  0.00  0.00     0.002 A 
ATOM      3  C4  UNL d   1      -2.821  -0.204   1.360  0.00  0.00     0.002 A 
ATOM      4  C5  UNL d   1      -2.668  -1.588   1.321  0.00  0.00    -0.004 A 
ATOM      5  C6  UNL d   1      -1.506  -2.145   0.788  0.00  0.00     0.002 A 
ATOM      6  C7  UNL d   1      -0.495  -1.317   0.298  0.00  0.00     0.002 A 
ENDROOT
BRANCH   1   7
ATOM      7  C1  UNL d   1       0.475   0.970  -0.146  0.00  0.00     0.055 C 
ATOM      8  C   UNL d   1       0.188   2.431   0.172  0.00  0.00     0.019 C 
ENDBRANCH   1   7
TORSDOF 1
ENDMDL
