MODEL 1
REMARK minimizedAffinity -5.83472633
REMARK minimizedRMSD -1
REMARK  2 active torsions:
REMARK  status: ('A' for Active; 'I' for Inactive)
REMARK    1  A    between atoms: C1_2  and  C2_3 
REMARK    2  A    between atoms: C2_3  and  C3_4 
ROOT
ATOM      1  C3  UNL d   1       0.804  -0.511   0.402  0.00  0.00    -0.075 A 
ATOM      2  C4  UNL d   1       0.556  -1.488   1.378  0.00  0.00     0.002 A 
ATOM      3  C5  UNL d   1       1.614  -2.145   2.007  0.00  0.00     0.002 A 
ATOM      4  C6  UNL d   1       2.929  -1.843   1.662  0.00  0.00    -0.004 A 
ATOM      5  C7  UNL d   1       3.187  -0.887   0.682  0.00  0.00     0.002 A 
ATOM      6  C8  UNL d   1       2.131  -0.224   0.055  0.00  0.00     0.002 A 
ENDROOT
BRANCH   1   7
ATOM      7  C2  UNL d   1      -0.335   0.225  -0.261  0.00  0.00     0.056 C 
BRANCH   7   8
ATOM      8  C1  UNL d   1      -1.707  -0.424  -0.046  0.00  0.00     0.007 C 
ATOM      9  C   UNL d   1      -2.475  -0.646  -1.342  0.00  0.00     0.009 C 
ENDBRANCH   7   8
ENDBRANCH   1   7
TORSDOF 2
ENDMDL
