MODEL 1
REMARK minimizedAffinity -2.66749835
REMARK minimizedRMSD -1
REMARK  2 active torsions:
REMARK  status: ('A' for Active; 'I' for Inactive)
REMARK    1  A    between atoms: C1_2  and  C2_3 
REMARK    2  A    between atoms: C2_3  and  C3_4 
ROOT
ATOM      1  C3  UNL d   1      -0.434   0.566  -0.538  0.00  0.00    -0.075 A 
ATOM      2  C4  UNL d   1      -0.044  -0.206   0.566  0.00  0.00     0.002 A 
ATOM      3  C5  UNL d   1       1.143   0.075   1.242  0.00  0.00     0.002 A 
ATOM      4  C6  UNL d   1       1.959   1.122   0.819  0.00  0.00    -0.004 A 
ATOM      5  C7  UNL d   1       1.589   1.885  -0.287  0.00  0.00     0.002 A 
ATOM      6  C8  UNL d   1       0.400   1.609  -0.963  0.00  0.00     0.002 A 
ENDROOT
BRANCH   1   7
ATOM      7  C2  UNL d   1      -1.733   0.286  -1.257  0.00  0.00     0.056 C 
BRANCH   7   8
ATOM      8  C1  UNL d   1      -1.567  -0.508  -2.557  0.00  0.00     0.007 C 
ATOM      9  C   UNL d   1      -2.585  -0.130  -3.625  0.00  0.00     0.009 C 
ENDBRANCH   7   8
ENDBRANCH   1   7
TORSDOF 2
ENDMDL
