MODEL 1
REMARK minimizedAffinity -5.26783609
REMARK minimizedRMSD -1
REMARK  2 active torsions:
REMARK  status: ('A' for Active; 'I' for Inactive)
REMARK    1  A    between atoms: C1_2  and  C2_3 
REMARK    2  A    between atoms: C2_3  and  C3_4 
ROOT
ATOM      1  C3  UNL d   1       0.638  -0.222   0.525  0.00  0.00    -0.075 A 
ATOM      2  C4  UNL d   1       0.459  -1.513   1.044  0.00  0.00     0.002 A 
ATOM      3  C5  UNL d   1       1.422  -2.081   1.878  0.00  0.00     0.002 A 
ATOM      4  C6  UNL d   1       2.578  -1.372   2.196  0.00  0.00    -0.004 A 
ATOM      5  C7  UNL d   1       2.775  -0.096   1.674  0.00  0.00     0.002 A 
ATOM      6  C8  UNL d   1       1.811   0.477   0.842  0.00  0.00     0.002 A 
ENDROOT
BRANCH   1   7
ATOM      7  C2  UNL d   1      -0.413   0.410  -0.355  0.00  0.00     0.056 C 
BRANCH   7   8
ATOM      8  C1  UNL d   1      -1.822  -0.155  -0.147  0.00  0.00     0.007 C 
ATOM      9  C   UNL d   1      -2.636  -0.226  -1.433  0.00  0.00     0.009 C 
ENDBRANCH   7   8
ENDBRANCH   1   7
TORSDOF 2
ENDMDL
