MODEL 1
REMARK minimizedAffinity -5.31025314
REMARK minimizedRMSD -1
REMARK  2 active torsions:
REMARK  status: ('A' for Active; 'I' for Inactive)
REMARK    1  A    between atoms: C1_2  and  C2_3 
REMARK    2  A    between atoms: C2_3  and  C3_4 
ROOT
ATOM      1  C3  UNL d   1       0.625  -0.369   0.057  0.00  0.00    -0.075 A 
ATOM      2  C4  UNL d   1       1.064  -1.636   0.468  0.00  0.00     0.002 A 
ATOM      3  C5  UNL d   1       2.321  -1.794   1.053  0.00  0.00     0.002 A 
ATOM      4  C6  UNL d   1       3.157  -0.693   1.223  0.00  0.00    -0.004 A 
ATOM      5  C7  UNL d   1       2.737   0.567   0.803  0.00  0.00     0.002 A 
ATOM      6  C8  UNL d   1       1.478   0.729   0.222  0.00  0.00     0.002 A 
ENDROOT
BRANCH   1   7
ATOM      7  C2  UNL d   1      -0.746  -0.187  -0.550  0.00  0.00     0.056 C 
BRANCH   7   8
ATOM      8  C1  UNL d   1      -0.886  -0.763  -1.962  0.00  0.00     0.007 C 
ATOM      9  C   UNL d   1      -2.224  -0.441  -2.613  0.00  0.00     0.009 C 
ENDBRANCH   7   8
ENDBRANCH   1   7
TORSDOF 2
ENDMDL
