MODEL 1
REMARK minimizedAffinity -5.17725515
REMARK minimizedRMSD -1
REMARK  2 active torsions:
REMARK  status: ('A' for Active; 'I' for Inactive)
REMARK    1  A    between atoms: C1_2  and  C2_3 
REMARK    2  A    between atoms: C2_3  and  C3_4 
ROOT
ATOM      1  C3  UNL d   1       0.199  -0.482   0.407  0.00  0.00    -0.075 A 
ATOM      2  C4  UNL d   1       1.002  -1.551   0.832  0.00  0.00     0.002 A 
ATOM      3  C5  UNL d   1       2.316  -1.329   1.245  0.00  0.00     0.002 A 
ATOM      4  C6  UNL d   1       2.847  -0.041   1.227  0.00  0.00    -0.004 A 
ATOM      5  C7  UNL d   1       2.064   1.026   0.790  0.00  0.00     0.002 A 
ATOM      6  C8  UNL d   1       0.747   0.807   0.381  0.00  0.00     0.002 A 
ENDROOT
BRANCH   1   7
ATOM      7  C2  UNL d   1      -1.233  -0.711  -0.013  0.00  0.00     0.056 C 
BRANCH   7   8
ATOM      8  C1  UNL d   1      -1.657   0.091  -1.247  0.00  0.00     0.007 C 
ATOM      9  C   UNL d   1      -2.477  -0.723  -2.240  0.00  0.00     0.009 C 
ENDBRANCH   7   8
ENDBRANCH   1   7
TORSDOF 2
ENDMDL
