MODEL 1
REMARK minimizedAffinity -4.5468812
REMARK minimizedRMSD -1
REMARK  1 active torsions:
REMARK  status: ('A' for Active; 'I' for Inactive)
REMARK    1  A    between atoms: N_2  and  C1_3 
ROOT
ATOM      1  C1  UNL d   1       0.223   0.249  -0.051  0.00  0.00     0.143 A 
ATOM      2  C2  UNL d   1       1.334   1.047  -0.347  0.00  0.00    -0.057 A 
ATOM      3  C3  UNL d   1       2.026   0.907  -1.556  0.00  0.00     0.033 A 
ATOM      4  C4  UNL d   1       1.636  -0.056  -2.481  0.00  0.00    -0.042 A 
ATOM      5  C5  UNL d   1       0.550  -0.876  -2.197  0.00  0.00     0.033 A 
ATOM      6  C6  UNL d   1      -0.141  -0.728  -0.991  0.00  0.00    -0.057 A 
ENDROOT
BRANCH   1   7
ATOM      7  N   UNL d   1      -0.446   0.273   1.175  0.00  0.00    -0.732 N 
ATOM      8  C   UNL d   1      -1.834   0.677   1.249  0.00  0.00     0.284 C 
ATOM      9  H3  UNL d   1      -0.215  -0.528   1.759  0.00  0.00     0.395 HD
ENDBRANCH   1   7
TORSDOF 1
ENDMDL
