MODEL 1
REMARK minimizedAffinity -3.27818322
REMARK minimizedRMSD -1
REMARK  1 active torsions:
REMARK  status: ('A' for Active; 'I' for Inactive)
REMARK    1  A    between atoms: N_2  and  C1_3 
ROOT
ATOM      1  C1  UNL d   1      -1.443   0.470   0.995  0.00  0.00     0.143 A 
ATOM      2  C2  UNL d   1      -1.709   1.829   1.192  0.00  0.00    -0.057 A 
ATOM      3  C3  UNL d   1      -3.015   2.289   1.403  0.00  0.00     0.033 A 
ATOM      4  C4  UNL d   1      -4.083   1.399   1.391  0.00  0.00    -0.042 A 
ATOM      5  C5  UNL d   1      -3.845   0.047   1.172  0.00  0.00     0.033 A 
ATOM      6  C6  UNL d   1      -2.538  -0.408   0.969  0.00  0.00    -0.057 A 
ENDROOT
BRANCH   1   7
ATOM      7  N   UNL d   1      -0.179  -0.038   0.682  0.00  0.00    -0.732 N 
ATOM      8  C   UNL d   1       0.693   0.668  -0.232  0.00  0.00     0.284 C 
ATOM      9  H3  UNL d   1       0.296  -0.425   1.494  0.00  0.00     0.395 HD
ENDBRANCH   1   7
TORSDOF 1
ENDMDL
