MODEL 1
REMARK minimizedAffinity -3.39915156
REMARK minimizedRMSD -1
REMARK  1 active torsions:
REMARK  status: ('A' for Active; 'I' for Inactive)
REMARK    1  A    between atoms: N_2  and  C1_3 
ROOT
ATOM      1  C1  UNL d   1      -5.099   1.435  -5.824  0.00  0.00     0.143 A 
ATOM      2  C2  UNL d   1      -6.000   2.491  -6.000  0.00  0.00    -0.057 A 
ATOM      3  C3  UNL d   1      -5.569   3.823  -5.981  0.00  0.00     0.033 A 
ATOM      4  C4  UNL d   1      -4.230   4.125  -5.758  0.00  0.00    -0.042 A 
ATOM      5  C5  UNL d   1      -3.321   3.092  -5.556  0.00  0.00     0.033 A 
ATOM      6  C6  UNL d   1      -3.756   1.763  -5.582  0.00  0.00    -0.057 A 
ENDROOT
BRANCH   1   7
ATOM      7  N   UNL d   1      -5.481   0.094  -5.734  0.00  0.00    -0.732 N 
ATOM      8  C   UNL d   1      -4.518  -0.963  -5.955  0.00  0.00     0.284 C 
ATOM      9  H3  UNL d   1      -6.115  -0.077  -4.957  0.00  0.00     0.395 HD
ENDBRANCH   1   7
TORSDOF 1
ENDMDL
