MODEL 1
REMARK minimizedAffinity -2.98850179
REMARK minimizedRMSD -1
REMARK  1 active torsions:
REMARK  status: ('A' for Active; 'I' for Inactive)
REMARK    1  A    between atoms: N_2  and  C1_3 
ROOT
ATOM      1  C1  UNL d   1       0.654   0.217   0.235  0.00  0.00     0.143 A 
ATOM      2  C2  UNL d   1       1.795   1.009   0.071  0.00  0.00    -0.057 A 
ATOM      3  C3  UNL d   1       2.477   1.055  -1.151  0.00  0.00     0.033 A 
ATOM      4  C4  UNL d   1       2.045   0.283  -2.225  0.00  0.00    -0.042 A 
ATOM      5  C5  UNL d   1       0.928  -0.531  -2.077  0.00  0.00     0.033 A 
ATOM      6  C6  UNL d   1       0.247  -0.567  -0.856  0.00  0.00    -0.057 A 
ENDROOT
BRANCH   1   7
ATOM      7  N   UNL d   1      -0.011   0.054   1.453  0.00  0.00    -0.732 N 
ATOM      8  C   UNL d   1      -1.456   0.088   1.515  0.00  0.00     0.284 C 
ATOM      9  H3  UNL d   1       0.413  -0.667   2.033  0.00  0.00     0.395 HD
ENDBRANCH   1   7
TORSDOF 1
ENDMDL
