MODEL 1
REMARK minimizedAffinity -2.27018905
REMARK minimizedRMSD -1
REMARK  1 active torsions:
REMARK  status: ('A' for Active; 'I' for Inactive)
REMARK    1  A    between atoms: N_2  and  C1_3 
ROOT
ATOM      1  C1  UNL d   1       0.780   0.330  -0.658  0.00  0.00     0.143 A 
ATOM      2  C2  UNL d   1       1.635   1.192   0.037  0.00  0.00    -0.057 A 
ATOM      3  C3  UNL d   1       2.955   1.399  -0.381  0.00  0.00     0.033 A 
ATOM      4  C4  UNL d   1       3.454   0.724  -1.490  0.00  0.00    -0.042 A 
ATOM      5  C5  UNL d   1       2.630  -0.157  -2.182  0.00  0.00     0.033 A 
ATOM      6  C6  UNL d   1       1.310  -0.355  -1.763  0.00  0.00    -0.057 A 
ENDROOT
BRANCH   1   7
ATOM      7  N   UNL d   1      -0.511   0.007  -0.235  0.00  0.00    -0.732 N 
ATOM      8  C   UNL d   1      -0.768  -0.344   1.145  0.00  0.00     0.284 C 
ATOM      9  H3  UNL d   1      -1.218   0.610  -0.650  0.00  0.00     0.395 HD
ENDBRANCH   1   7
TORSDOF 1
ENDMDL
