MODEL 1
REMARK minimizedAffinity -4.77442503
REMARK minimizedRMSD -1
REMARK  1 active torsions:
REMARK  status: ('A' for Active; 'I' for Inactive)
REMARK    1  A    between atoms: N_2  and  C1_3 
ROOT
ATOM      1  C1  UNL d   1       0.426   0.053  -0.248  0.00  0.00     0.143 A 
ATOM      2  C2  UNL d   1       1.121   1.260  -0.382  0.00  0.00    -0.057 A 
ATOM      3  C3  UNL d   1       1.917   1.518  -1.505  0.00  0.00     0.033 A 
ATOM      4  C4  UNL d   1       2.056   0.559  -2.502  0.00  0.00    -0.042 A 
ATOM      5  C5  UNL d   1       1.394  -0.658  -2.378  0.00  0.00     0.033 A 
ATOM      6  C6  UNL d   1       0.595  -0.907  -1.258  0.00  0.00    -0.057 A 
ENDROOT
BRANCH   1   7
ATOM      7  N   UNL d   1      -0.303  -0.303   0.889  0.00  0.00    -0.732 N 
ATOM      8  C   UNL d   1      -1.139   0.668   1.562  0.00  0.00     0.284 C 
ATOM      9  H3  UNL d   1      -0.721  -1.227   0.810  0.00  0.00     0.395 HD
ENDBRANCH   1   7
TORSDOF 1
ENDMDL
