MODEL 1
REMARK minimizedAffinity -4.06126928
REMARK minimizedRMSD -1
REMARK  1 active torsions:
REMARK  status: ('A' for Active; 'I' for Inactive)
REMARK    1  A    between atoms: N_2  and  C1_3 
ROOT
ATOM      1  C1  UNL d   1       0.343  -0.271  -1.260  0.00  0.00     0.143 A 
ATOM      2  C2  UNL d   1       0.239  -1.568  -0.745  0.00  0.00    -0.057 A 
ATOM      3  C3  UNL d   1      -0.257  -1.799   0.543  0.00  0.00     0.033 A 
ATOM      4  C4  UNL d   1      -0.632  -0.732   1.353  0.00  0.00    -0.042 A 
ATOM      5  C5  UNL d   1      -0.513   0.566   0.871  0.00  0.00     0.033 A 
ATOM      6  C6  UNL d   1      -0.023   0.791  -0.419  0.00  0.00    -0.057 A 
ENDROOT
BRANCH   1   7
ATOM      7  N   UNL d   1       0.921   0.031  -2.496  0.00  0.00    -0.732 N 
ATOM      8  C   UNL d   1       2.359   0.083  -2.645  0.00  0.00     0.284 C 
ATOM      9  H3  UNL d   1       0.439  -0.421  -3.270  0.00  0.00     0.395 HD
ENDBRANCH   1   7
TORSDOF 1
ENDMDL
