MODEL 1
REMARK minimizedAffinity -1.47272778
REMARK minimizedRMSD -1
REMARK  1 active torsions:
REMARK  status: ('A' for Active; 'I' for Inactive)
REMARK    1  A    between atoms: N_2  and  C1_3 
ROOT
ATOM      1  C1  UNL d   1       2.357  -0.722  -1.391  0.00  0.00     0.143 A 
ATOM      2  C2  UNL d   1       2.631   0.641  -1.551  0.00  0.00    -0.057 A 
ATOM      3  C3  UNL d   1       1.815   1.619  -0.970  0.00  0.00     0.033 A 
ATOM      4  C4  UNL d   1       0.690   1.251  -0.240  0.00  0.00    -0.042 A 
ATOM      5  C5  UNL d   1       0.384  -0.097  -0.088  0.00  0.00     0.033 A 
ATOM      6  C6  UNL d   1       1.206  -1.069  -0.665  0.00  0.00    -0.057 A 
ENDROOT
BRANCH   1   7
ATOM      7  N   UNL d   1       3.073  -1.739  -2.025  0.00  0.00    -0.732 N 
ATOM      8  C   UNL d   1       3.403  -2.959  -1.320  0.00  0.00     0.284 C 
ATOM      9  H3  UNL d   1       2.774  -1.883  -2.987  0.00  0.00     0.395 HD
ENDBRANCH   1   7
TORSDOF 1
ENDMDL
