MODEL 1
REMARK minimizedAffinity -1.50967216
REMARK minimizedRMSD -1
REMARK  1 active torsions:
REMARK  status: ('A' for Active; 'I' for Inactive)
REMARK    1  A    between atoms: N_2  and  C1_3 
ROOT
ATOM      1  C1  UNL d   1       1.206  -1.888  -1.322  0.00  0.00     0.143 A 
ATOM      2  C2  UNL d   1       0.575  -0.958  -0.489  0.00  0.00    -0.057 A 
ATOM      3  C3  UNL d   1       0.613   0.413  -0.772  0.00  0.00     0.033 A 
ATOM      4  C4  UNL d   1       1.309   0.881  -1.882  0.00  0.00    -0.042 A 
ATOM      5  C5  UNL d   1       1.964  -0.023  -2.710  0.00  0.00     0.033 A 
ATOM      6  C6  UNL d   1       1.917  -1.391  -2.425  0.00  0.00    -0.057 A 
ENDROOT
BRANCH   1   7
ATOM      7  N   UNL d   1       1.287  -3.254  -1.040  0.00  0.00    -0.732 N 
ATOM      8  C   UNL d   1       0.668  -4.226  -1.916  0.00  0.00     0.284 C 
ATOM      9  H3  UNL d   1       2.207  -3.526  -0.702  0.00  0.00     0.395 HD
ENDBRANCH   1   7
TORSDOF 1
ENDMDL
