MODEL 1
REMARK minimizedAffinity -3.68774509
REMARK minimizedRMSD -1
REMARK  1 active torsions:
REMARK  status: ('A' for Active; 'I' for Inactive)
REMARK    1  A    between atoms: N_2  and  C1_3 
ROOT
ATOM      1  C1  UNL d   1       0.468   0.322  -0.478  0.00  0.00     0.143 A 
ATOM      2  C2  UNL d   1       1.378   1.334  -0.804  0.00  0.00    -0.057 A 
ATOM      3  C3  UNL d   1       2.032   1.350  -2.042  0.00  0.00     0.033 A 
ATOM      4  C4  UNL d   1       1.809   0.335  -2.967  0.00  0.00    -0.042 A 
ATOM      5  C5  UNL d   1       0.928  -0.694  -2.654  0.00  0.00     0.033 A 
ATOM      6  C6  UNL d   1       0.273  -0.701  -1.419  0.00  0.00    -0.057 A 
ENDROOT
BRANCH   1   7
ATOM      7  N   UNL d   1      -0.139   0.197   0.774  0.00  0.00    -0.732 N 
ATOM      8  C   UNL d   1      -0.627  -1.087   1.231  0.00  0.00     0.284 C 
ATOM      9  H3  UNL d   1       0.334   0.741   1.491  0.00  0.00     0.395 HD
ENDBRANCH   1   7
TORSDOF 1
ENDMDL
