MODEL 1
REMARK minimizedAffinity -3.83177757
REMARK minimizedRMSD -1
REMARK  0 active torsions:
REMARK  status: ('A' for Active; 'I' for Inactive)
ROOT
ATOM      1  N1  IND d   1       0.736  -0.390  -3.885  0.00  0.00    -0.196 N 
ATOM      2  C2  IND d   1       1.431  -1.563  -3.987  0.00  0.00     0.054 A 
ATOM      3  C3  IND d   1       1.566  -2.137  -2.771  0.00  0.00    -0.031 A 
ATOM      4  C4  IND d   1       0.639  -1.379  -0.492  0.00  0.00     0.051 A 
ATOM      5  C5  IND d   1      -0.028  -0.350   0.111  0.00  0.00    -0.031 A 
ATOM      6  C6  IND d   1      -0.487   0.739  -0.602  0.00  0.00     0.015 A 
ATOM      7  C7  IND d   1      -0.304   0.834  -1.953  0.00  0.00    -0.016 A 
ATOM      8  C8  IND d   1       0.380  -0.205  -2.567  0.00  0.00    -0.047 A 
ATOM      9  C9  IND d   1       0.884  -1.293  -1.842  0.00  0.00    -0.096 A 
ATOM     10  HN1 IND d   1       0.552   0.142  -4.535  0.00  0.00     0.298 HD
ENDROOT
TORSDOF 0
ENDMDL
