MODEL 1
REMARK minimizedAffinity -0.75378865
REMARK minimizedRMSD -1
REMARK  0 active torsions:
REMARK  status: ('A' for Active; 'I' for Inactive)
ROOT
ATOM      1  N1  IND d   1      -0.775   0.572   2.180  0.00  0.00    -0.196 N 
ATOM      2  C2  IND d   1       0.446   0.286   2.724  0.00  0.00     0.054 A 
ATOM      3  C3  IND d   1       1.323  -0.059   1.755  0.00  0.00    -0.031 A 
ATOM      4  C4  IND d   1       0.999  -0.125  -0.798  0.00  0.00     0.051 A 
ATOM      5  C5  IND d   1       0.045   0.019  -1.767  0.00  0.00    -0.031 A 
ATOM      6  C6  IND d   1      -1.256   0.365  -1.464  0.00  0.00     0.015 A 
ATOM      7  C7  IND d   1      -1.651   0.591  -0.176  0.00  0.00    -0.016 A 
ATOM      8  C8  IND d   1      -0.688   0.439   0.811  0.00  0.00    -0.047 A 
ATOM      9  C9  IND d   1       0.624   0.047   0.514  0.00  0.00    -0.096 A 
ATOM     10  HN1 IND d   1      -1.480   0.797   2.618  0.00  0.00     0.298 HD
ENDROOT
TORSDOF 0
ENDMDL
