MODEL 1
REMARK minimizedAffinity -3.92929173
REMARK minimizedRMSD -1
REMARK  0 active torsions:
REMARK  status: ('A' for Active; 'I' for Inactive)
ROOT
ATOM      1  N1  IND d   1      -0.908   0.605   0.066  0.00  0.00    -0.196 N 
ATOM      2  C2  IND d   1       0.416   0.264   0.070  0.00  0.00     0.054 A 
ATOM      3  C3  IND d   1       0.735  -0.370   1.220  0.00  0.00    -0.031 A 
ATOM      4  C4  IND d   1      -0.779  -1.046   3.189  0.00  0.00     0.051 A 
ATOM      5  C5  IND d   1      -2.056  -0.920   3.658  0.00  0.00    -0.031 A 
ATOM      6  C6  IND d   1      -3.037  -0.268   2.938  0.00  0.00     0.015 A 
ATOM      7  C7  IND d   1      -2.777   0.274   1.711  0.00  0.00    -0.016 A 
ATOM      8  C8  IND d   1      -1.480   0.154   1.235  0.00  0.00    -0.047 A 
ATOM      9  C9  IND d   1      -0.470  -0.469   1.980  0.00  0.00    -0.096 A 
ATOM     10  HN1 IND d   1      -1.315   1.029  -0.562  0.00  0.00     0.298 HD
ENDROOT
TORSDOF 0
ENDMDL
