MODEL 1
REMARK minimizedAffinity -1.41961324
REMARK minimizedRMSD -1
REMARK  0 active torsions:
REMARK  status: ('A' for Active; 'I' for Inactive)
ROOT
ATOM      1  N1  IND d   1      -0.576   0.116  -0.999  0.00  0.00    -0.196 N 
ATOM      2  C2  IND d   1       0.705  -0.326  -1.180  0.00  0.00     0.054 A 
ATOM      3  C3  IND d   1       1.364  -0.354  -0.000  0.00  0.00    -0.031 A 
ATOM      4  C4  IND d   1       0.506   0.186   2.366  0.00  0.00     0.051 A 
ATOM      5  C5  IND d   1      -0.587   0.667   3.032  0.00  0.00    -0.031 A 
ATOM      6  C6  IND d   1      -1.756   0.992   2.376  0.00  0.00     0.015 A 
ATOM      7  C7  IND d   1      -1.881   0.838   1.024  0.00  0.00    -0.016 A 
ATOM      8  C8  IND d   1      -0.771   0.357   0.343  0.00  0.00    -0.047 A 
ATOM      9  C9  IND d   1       0.432   0.065   0.998  0.00  0.00    -0.096 A 
ATOM     10  HN1 IND d   1      -1.162   0.226  -1.619  0.00  0.00     0.298 HD
ENDROOT
TORSDOF 0
ENDMDL
