MODEL 1
REMARK minimizedAffinity -3.05295539
REMARK minimizedRMSD -1
REMARK  0 active torsions:
REMARK  status: ('A' for Active; 'I' for Inactive)
ROOT
ATOM      1  N1  IND d   1      -0.835  -0.458  -0.746  0.00  0.00    -0.196 N 
ATOM      2  C2  IND d   1      -0.232   0.577  -0.086  0.00  0.00     0.054 A 
ATOM      3  C3  IND d   1       0.904   0.942  -0.721  0.00  0.00    -0.031 A 
ATOM      4  C4  IND d   1       1.912   0.047  -2.914  0.00  0.00     0.051 A 
ATOM      5  C5  IND d   1       1.740  -0.923  -3.862  0.00  0.00    -0.031 A 
ATOM      6  C6  IND d   1       0.678  -1.803  -3.820  0.00  0.00     0.015 A 
ATOM      7  C7  IND d   1      -0.262  -1.739  -2.831  0.00  0.00    -0.016 A 
ATOM      8  C8  IND d   1      -0.087  -0.760  -1.863  0.00  0.00    -0.047 A 
ATOM      9  C9  IND d   1       1.012   0.109  -1.876  0.00  0.00    -0.096 A 
ATOM     10  HN1 IND d   1      -1.559  -0.853  -0.505  0.00  0.00     0.298 HD
ENDROOT
TORSDOF 0
ENDMDL
