MODEL 1
REMARK minimizedAffinity -3.47046328
REMARK minimizedRMSD -1
REMARK  0 active torsions:
REMARK  status: ('A' for Active; 'I' for Inactive)
ROOT
ATOM      1  N1  IND d   1      -2.665   1.081   0.461  0.00  0.00    -0.196 N 
ATOM      2  C2  IND d   1      -3.131   1.206   1.740  0.00  0.00     0.054 A 
ATOM      3  C3  IND d   1      -2.155   0.910   2.628  0.00  0.00    -0.031 A 
ATOM      4  C4  IND d   1       0.309   0.297   2.205  0.00  0.00     0.051 A 
ATOM      5  C5  IND d   1       1.194   0.023   1.200  0.00  0.00    -0.031 A 
ATOM      6  C6  IND d   1       0.831   0.093  -0.129  0.00  0.00     0.015 A 
ATOM      7  C7  IND d   1      -0.432   0.450  -0.505  0.00  0.00    -0.016 A 
ATOM      8  C8  IND d   1      -1.336   0.722   0.512  0.00  0.00    -0.047 A 
ATOM      9  C9  IND d   1      -0.985   0.612   1.864  0.00  0.00    -0.096 A 
ATOM     10  HN1 IND d   1      -3.124   1.205  -0.255  0.00  0.00     0.298 HD
ENDROOT
TORSDOF 0
ENDMDL
