MODEL 1
REMARK minimizedAffinity -2.38534403
REMARK minimizedRMSD -1
REMARK  0 active torsions:
REMARK  status: ('A' for Active; 'I' for Inactive)
ROOT
ATOM      1  N1  IND d   1      -1.010   1.107  -0.904  0.00  0.00    -0.196 N 
ATOM      2  C2  IND d   1      -0.128   0.820  -1.908  0.00  0.00     0.054 A 
ATOM      3  C3  IND d   1       0.996   0.265  -1.402  0.00  0.00    -0.031 A 
ATOM      4  C4  IND d   1       1.561  -0.358   1.031  0.00  0.00     0.051 A 
ATOM      5  C5  IND d   1       1.084  -0.257   2.307  0.00  0.00    -0.031 A 
ATOM      6  C6  IND d   1      -0.142   0.313   2.584  0.00  0.00     0.015 A 
ATOM      7  C7  IND d   1      -0.945   0.795   1.589  0.00  0.00    -0.016 A 
ATOM      8  C8  IND d   1      -0.460   0.700   0.292  0.00  0.00    -0.047 A 
ATOM      9  C9  IND d   1       0.802   0.161   0.009  0.00  0.00    -0.096 A 
ATOM     10  HN1 IND d   1      -1.779   1.478  -1.002  0.00  0.00     0.298 HD
ENDROOT
TORSDOF 0
ENDMDL
