MODEL 1
REMARK minimizedAffinity -2.10194325
REMARK minimizedRMSD -1
REMARK  0 active torsions:
REMARK  status: ('A' for Active; 'I' for Inactive)
ROOT
ATOM      1  N1  IND d   1       0.365   0.389  -0.789  0.00  0.00    -0.196 N 
ATOM      2  C2  IND d   1       1.574   0.430  -0.152  0.00  0.00     0.054 A 
ATOM      3  C3  IND d   1       1.398   0.522   1.185  0.00  0.00    -0.031 A 
ATOM      4  C4  IND d   1      -0.784   0.518   2.552  0.00  0.00     0.051 A 
ATOM      5  C5  IND d   1      -2.143   0.533   2.412  0.00  0.00    -0.031 A 
ATOM      6  C6  IND d   1      -2.748   0.498   1.172  0.00  0.00     0.015 A 
ATOM      7  C7  IND d   1      -2.013   0.435   0.022  0.00  0.00    -0.016 A 
ATOM      8  C8  IND d   1      -0.633   0.426   0.161  0.00  0.00    -0.047 A 
ATOM      9  C9  IND d   1      -0.012   0.504   1.414  0.00  0.00    -0.096 A 
ATOM     10  HN1 IND d   1       0.247   0.348  -1.640  0.00  0.00     0.298 HD
ENDROOT
TORSDOF 0
ENDMDL
