MODEL 1
REMARK minimizedAffinity 2.48009133
REMARK minimizedRMSD -1
REMARK  0 active torsions:
REMARK  status: ('A' for Active; 'I' for Inactive)
ROOT
ATOM      1  N1  IND d   1      -2.160   0.717   0.750  0.00  0.00    -0.196 N 
ATOM      2  C2  IND d   1      -2.282   0.598  -0.607  0.00  0.00     0.054 A 
ATOM      3  C3  IND d   1      -1.063   0.494  -1.181  0.00  0.00    -0.031 A 
ATOM      4  C4  IND d   1       1.261   0.392  -0.079  0.00  0.00     0.051 A 
ATOM      5  C5  IND d   1       1.884   0.499   1.133  0.00  0.00    -0.031 A 
ATOM      6  C6  IND d   1       1.176   0.684   2.303  0.00  0.00     0.015 A 
ATOM      7  C7  IND d   1      -0.188   0.759   2.306  0.00  0.00    -0.016 A 
ATOM      8  C8  IND d   1      -0.823   0.659   1.076  0.00  0.00    -0.047 A 
ATOM      9  C9  IND d   1      -0.108   0.513  -0.119  0.00  0.00    -0.096 A 
ATOM     10  HN1 IND d   1      -2.810   0.812   1.305  0.00  0.00     0.298 HD
ENDROOT
TORSDOF 0
ENDMDL
