MODEL 1
REMARK minimizedAffinity -4.99041271
REMARK minimizedRMSD -1
REMARK  0 active torsions:
REMARK  status: ('A' for Active; 'I' for Inactive)
ROOT
ATOM      1  N1  IND d   1      -0.893   0.456  -0.541  0.00  0.00    -0.196 N 
ATOM      2  C2  IND d   1       0.466   0.326  -0.471  0.00  0.00     0.054 A 
ATOM      3  C3  IND d   1       0.860   0.192   0.815  0.00  0.00    -0.031 A 
ATOM      4  C4  IND d   1      -0.563   0.057   2.956  0.00  0.00     0.051 A 
ATOM      5  C5  IND d   1      -1.850   0.163   3.402  0.00  0.00    -0.031 A 
ATOM      6  C6  IND d   1      -2.906   0.375   2.539  0.00  0.00     0.015 A 
ATOM      7  C7  IND d   1      -2.714   0.476   1.190  0.00  0.00    -0.016 A 
ATOM      8  C8  IND d   1      -1.407   0.376   0.734  0.00  0.00    -0.047 A 
ATOM      9  C9  IND d   1      -0.327   0.204   1.609  0.00  0.00    -0.096 A 
ATOM     10  HN1 IND d   1      -1.350   0.570  -1.261  0.00  0.00     0.298 HD
ENDROOT
TORSDOF 0
ENDMDL
