MODEL 1
REMARK minimizedAffinity -0.00877374969
REMARK minimizedRMSD -1
REMARK  0 active torsions:
REMARK  status: ('A' for Active; 'I' for Inactive)
ROOT
ATOM      1  N1  IND d   1      -1.679   0.388  -0.247  0.00  0.00    -0.196 N 
ATOM      2  C2  IND d   1      -1.045   0.254  -1.450  0.00  0.00     0.054 A 
ATOM      3  C3  IND d   1       0.292   0.173  -1.271  0.00  0.00    -0.031 A 
ATOM      4  C4  IND d   1       1.650   0.137   0.916  0.00  0.00     0.051 A 
ATOM      5  C5  IND d   1       1.516   0.269   2.269  0.00  0.00    -0.031 A 
ATOM      6  C6  IND d   1       0.284   0.448   2.866  0.00  0.00     0.015 A 
ATOM      7  C7  IND d   1      -0.865   0.491   2.128  0.00  0.00    -0.016 A 
ATOM      8  C8  IND d   1      -0.732   0.365   0.753  0.00  0.00    -0.047 A 
ATOM      9  C9  IND d   1       0.519   0.225   0.138  0.00  0.00    -0.096 A 
ATOM     10  HN1 IND d   1      -2.527   0.473  -0.133  0.00  0.00     0.298 HD
ENDROOT
TORSDOF 0
ENDMDL
