MODEL 1
REMARK minimizedAffinity 1.02023602
REMARK minimizedRMSD -1
REMARK  0 active torsions:
REMARK  status: ('A' for Active; 'I' for Inactive)
ROOT
ATOM      1  N1  IND d   1      -0.885   0.386  -0.864  0.00  0.00    -0.196 N 
ATOM      2  C2  IND d   1       0.000   0.173  -1.883  0.00  0.00     0.054 A 
ATOM      3  C3  IND d   1       1.238  -0.056  -1.391  0.00  0.00    -0.031 A 
ATOM      4  C4  IND d   1       2.019  -0.229   1.056  0.00  0.00     0.051 A 
ATOM      5  C5  IND d   1       1.579  -0.073   2.341  0.00  0.00    -0.031 A 
ATOM      6  C6  IND d   1       0.268   0.248   2.629  0.00  0.00     0.015 A 
ATOM      7  C7  IND d   1      -0.658   0.414   1.639  0.00  0.00    -0.016 A 
ATOM      8  C8  IND d   1      -0.214   0.263   0.333  0.00  0.00    -0.047 A 
ATOM      9  C9  IND d   1       1.125  -0.020   0.033  0.00  0.00    -0.096 A 
ATOM     10  HN1 IND d   1      -1.721   0.566  -0.954  0.00  0.00     0.298 HD
ENDROOT
TORSDOF 0
ENDMDL
