MODEL 1
REMARK minimizedAffinity -5.12392902
REMARK minimizedRMSD -1
REMARK  0 active torsions:
REMARK  status: ('A' for Active; 'I' for Inactive)
ROOT
ATOM      1  N1  IND d   1      -0.814   0.453  -0.922  0.00  0.00    -0.196 N 
ATOM      2  C2  IND d   1       0.544   0.498  -1.067  0.00  0.00     0.054 A 
ATOM      3  C3  IND d   1       1.152   0.271   0.119  0.00  0.00    -0.031 A 
ATOM      4  C4  IND d   1       0.115  -0.298   2.406  0.00  0.00     0.051 A 
ATOM      5  C5  IND d   1      -1.088  -0.417   3.043  0.00  0.00    -0.031 A 
ATOM      6  C6  IND d   1      -2.285  -0.251   2.378  0.00  0.00     0.015 A 
ATOM      7  C7  IND d   1      -2.325   0.030   1.042  0.00  0.00    -0.016 A 
ATOM      8  C8  IND d   1      -1.105   0.158   0.392  0.00  0.00    -0.047 A 
ATOM      9  C9  IND d   1       0.114   0.033   1.071  0.00  0.00    -0.096 A 
ATOM     10  HN1 IND d   1      -1.390   0.586  -1.546  0.00  0.00     0.298 HD
ENDROOT
TORSDOF 0
ENDMDL
