MODEL 1
REMARK minimizedAffinity -0.255586147
REMARK minimizedRMSD -1
REMARK  0 active torsions:
REMARK  status: ('A' for Active; 'I' for Inactive)
ROOT
ATOM      1  N1  IND d   1      -0.801  -0.384  -0.877  0.00  0.00    -0.196 N 
ATOM      2  C2  IND d   1      -0.102   0.560  -0.179  0.00  0.00     0.054 A 
ATOM      3  C3  IND d   1       1.122   0.738  -0.724  0.00  0.00    -0.031 A 
ATOM      4  C4  IND d   1       2.149  -0.340  -2.825  0.00  0.00     0.051 A 
ATOM      5  C5  IND d   1       1.906  -1.291  -3.776  0.00  0.00    -0.031 A 
ATOM      6  C6  IND d   1       0.723  -2.000  -3.812  0.00  0.00     0.015 A 
ATOM      7  C7  IND d   1      -0.270  -1.776  -2.900  0.00  0.00    -0.016 A 
ATOM      8  C8  IND d   1      -0.024  -0.817  -1.929  0.00  0.00    -0.047 A 
ATOM      9  C9  IND d   1       1.192  -0.123  -1.862  0.00  0.00    -0.096 A 
ATOM     10  HN1 IND d   1      -1.593  -0.661  -0.690  0.00  0.00     0.298 HD
ENDROOT
TORSDOF 0
ENDMDL
