MODEL 1
REMARK minimizedAffinity -4.50899458
REMARK minimizedRMSD -1
REMARK  0 active torsions:
REMARK  status: ('A' for Active; 'I' for Inactive)
ROOT
ATOM      1  N1  IND d   1      -1.934   0.762   2.217  0.00  0.00    -0.196 N 
ATOM      2  C2  IND d   1      -2.892   0.924   1.255  0.00  0.00     0.054 A 
ATOM      3  C3  IND d   1      -2.335   0.880   0.024  0.00  0.00    -0.031 A 
ATOM      4  C4  IND d   1       0.113   0.449  -0.649  0.00  0.00     0.051 A 
ATOM      5  C5  IND d   1       1.362   0.281  -0.120  0.00  0.00    -0.031 A 
ATOM      6  C6  IND d   1       1.580   0.260   1.242  0.00  0.00     0.015 A 
ATOM      7  C7  IND d   1       0.551   0.397   2.131  0.00  0.00    -0.016 A 
ATOM      8  C8  IND d   1      -0.717   0.576   1.597  0.00  0.00    -0.047 A 
ATOM      9  C9  IND d   1      -0.939   0.640   0.216  0.00  0.00    -0.096 A 
ATOM     10  HN1 IND d   1      -2.068   0.773   3.066  0.00  0.00     0.298 HD
ENDROOT
TORSDOF 0
ENDMDL
