MODEL 1
REMARK minimizedAffinity -5.42878389
REMARK minimizedRMSD -1
REMARK  0 active torsions:
REMARK  status: ('A' for Active; 'I' for Inactive)
ROOT
ATOM      1  N1  IND d   1      -3.337   0.896   0.902  0.00  0.00    -0.196 N 
ATOM      2  C2  IND d   1      -3.817   0.925   2.181  0.00  0.00     0.054 A 
ATOM      3  C3  IND d   1      -2.822   0.682   3.063  0.00  0.00    -0.031 A 
ATOM      4  C4  IND d   1      -0.311   0.311   2.633  0.00  0.00     0.051 A 
ATOM      5  C5  IND d   1       0.599   0.161   1.624  0.00  0.00    -0.031 A 
ATOM      6  C6  IND d   1       0.236   0.252   0.296  0.00  0.00     0.015 A 
ATOM      7  C7  IND d   1      -1.053   0.510  -0.074  0.00  0.00    -0.016 A 
ATOM      8  C8  IND d   1      -1.981   0.656   0.948  0.00  0.00    -0.047 A 
ATOM      9  C9  IND d   1      -1.627   0.522   2.296  0.00  0.00    -0.096 A 
ATOM     10  HN1 IND d   1      -3.803   1.009   0.188  0.00  0.00     0.298 HD
ENDROOT
TORSDOF 0
ENDMDL
