MODEL 1
REMARK minimizedAffinity -2.84120131
REMARK minimizedRMSD -1
REMARK  1 active torsions:
REMARK  status: ('A' for Active; 'I' for Inactive)
REMARK    1  A    between atoms: C1_2  and  C2_3 
ROOT
ATOM      1  C2  UNL d   1      -1.763   0.780   0.709  0.00  0.00    -0.081 A 
ATOM      2  C3  UNL d   1      -1.702  -0.595   0.969  0.00  0.00     0.006 A 
ATOM      3  C4  UNL d   1      -0.619  -1.354   0.519  0.00  0.00     0.002 A 
ATOM      4  C5  UNL d   1       0.424  -0.750  -0.191  0.00  0.00    -0.080 A 
ATOM      5  C6  UNL d   1       1.607  -1.548  -0.653  0.00  0.00     0.076 C 
ATOM      6  C7  UNL d   1       0.356   0.620  -0.465  0.00  0.00     0.002 A 
ATOM      7  C8  UNL d   1      -0.727   1.379  -0.016  0.00  0.00     0.006 A 
ENDROOT
BRANCH   1   8
ATOM      8  C1  UNL d   1      -2.897   1.613   1.249  0.00  0.00     0.054 C 
ATOM      9  C   UNL d   1      -4.239   1.130   0.717  0.00  0.00     0.018 C 
ENDBRANCH   1   8
TORSDOF 1
ENDMDL
