MODEL 1
REMARK minimizedAffinity -3.83317637
REMARK minimizedRMSD -1
REMARK  1 active torsions:
REMARK  status: ('A' for Active; 'I' for Inactive)
REMARK    1  A    between atoms: C1_2  and  C2_3 
ROOT
ATOM      1  C2  UNL d   1      -1.242   0.511  -0.250  0.00  0.00    -0.081 A 
ATOM      2  C3  UNL d   1      -1.260  -0.886  -0.157  0.00  0.00     0.006 A 
ATOM      3  C4  UNL d   1      -0.065  -1.605  -0.075  0.00  0.00     0.002 A 
ATOM      4  C5  UNL d   1       1.166  -0.940  -0.077  0.00  0.00    -0.080 A 
ATOM      5  C6  UNL d   1       2.454  -1.698   0.041  0.00  0.00     0.076 C 
ATOM      6  C7  UNL d   1       1.184   0.455  -0.187  0.00  0.00     0.002 A 
ATOM      7  C8  UNL d   1      -0.010   1.174  -0.270  0.00  0.00     0.006 A 
ENDROOT
BRANCH   1   8
ATOM      8  C1  UNL d   1      -2.530   1.294  -0.273  0.00  0.00     0.054 C 
ATOM      9  C   UNL d   1      -3.339   1.066   0.996  0.00  0.00     0.018 C 
ENDBRANCH   1   8
TORSDOF 1
ENDMDL
