MODEL 1
REMARK minimizedAffinity -1.33348572
REMARK minimizedRMSD -1
REMARK  1 active torsions:
REMARK  status: ('A' for Active; 'I' for Inactive)
REMARK    1  A    between atoms: C3_4  and  O_7 
ROOT
ATOM      1  C   UNL d   1       0.204   0.755   1.087  0.00  0.00    -0.033 A 
ATOM      2  C1  UNL d   1      -0.944  -0.038   1.142  0.00  0.00     0.039 A 
ATOM      3  C2  UNL d   1      -2.147   0.436   0.614  0.00  0.00    -0.080 A 
ATOM      4  C3  UNL d   1      -2.188   1.701   0.035  0.00  0.00     0.150 A 
ATOM      5  C4  UNL d   1      -1.047   2.494  -0.027  0.00  0.00    -0.007 A 
ATOM      6  C5  UNL d   1       0.153   2.020   0.502  0.00  0.00     0.039 A 
ENDROOT
BRANCH   4   7
ATOM      7  O   UNL d   1      -3.340   2.208  -0.489  0.00  0.00    -0.526 OA
ATOM      8  H5  UNL d   1      -4.052   1.561  -0.351  0.00  0.00     0.418 HD
ENDBRANCH   4   7
TORSDOF 1
ENDMDL
