MODEL 1
REMARK minimizedAffinity 2.74607801
REMARK minimizedRMSD -1
REMARK  1 active torsions:
REMARK  status: ('A' for Active; 'I' for Inactive)
REMARK    1  A    between atoms: C3_4  and  O_7 
ROOT
ATOM      1  C   UNL d   1      -0.831   2.515   0.138  0.00  0.00    -0.033 A 
ATOM      2  C1  UNL d   1      -2.201   2.258   0.218  0.00  0.00     0.039 A 
ATOM      3  C2  UNL d   1      -2.662   1.119   0.881  0.00  0.00    -0.080 A 
ATOM      4  C3  UNL d   1      -1.743   0.246   1.459  0.00  0.00     0.150 A 
ATOM      5  C4  UNL d   1      -0.377   0.498   1.386  0.00  0.00    -0.007 A 
ATOM      6  C5  UNL d   1       0.081   1.636   0.723  0.00  0.00     0.039 A 
ENDROOT
BRANCH   4   7
ATOM      7  O   UNL d   1      -2.145  -0.881   2.112  0.00  0.00    -0.526 OA
ATOM      8  H5  UNL d   1      -3.113  -0.939   2.058  0.00  0.00     0.418 HD
ENDBRANCH   4   7
TORSDOF 1
ENDMDL
