MODEL 1
REMARK minimizedAffinity 4.2492795
REMARK minimizedRMSD -1
REMARK  1 active torsions:
REMARK  status: ('A' for Active; 'I' for Inactive)
REMARK    1  A    between atoms: C3_4  and  O_7 
ROOT
ATOM      1  C   UNL d   1      -0.049   3.494   2.803  0.00  0.00    -0.033 A 
ATOM      2  C1  UNL d   1      -0.716   2.268   2.749  0.00  0.00     0.039 A 
ATOM      3  C2  UNL d   1      -0.223   1.237   1.948  0.00  0.00    -0.080 A 
ATOM      4  C3  UNL d   1       0.937   1.444   1.206  0.00  0.00     0.150 A 
ATOM      5  C4  UNL d   1       1.609   2.661   1.257  0.00  0.00    -0.007 A 
ATOM      6  C5  UNL d   1       1.114   3.689   2.058  0.00  0.00     0.039 A 
ENDROOT
BRANCH   4   7
ATOM      7  O   UNL d   1       1.454   0.469   0.405  0.00  0.00    -0.526 OA
ATOM      8  H5  UNL d   1       0.869  -0.306   0.447  0.00  0.00     0.418 HD
ENDBRANCH   4   7
TORSDOF 1
ENDMDL
