MODEL 1
REMARK minimizedAffinity 1.06074619
REMARK minimizedRMSD -1
REMARK  1 active torsions:
REMARK  status: ('A' for Active; 'I' for Inactive)
REMARK    1  A    between atoms: C3_4  and  O_7 
ROOT
ATOM      1  C   UNL d   1      -1.510  -4.188   1.690  0.00  0.00    -0.033 A 
ATOM      2  C1  UNL d   1      -1.168  -3.314   2.724  0.00  0.00     0.039 A 
ATOM      3  C2  UNL d   1      -0.454  -3.782   3.829  0.00  0.00    -0.080 A 
ATOM      4  C3  UNL d   1      -0.089  -5.124   3.887  0.00  0.00     0.150 A 
ATOM      5  C4  UNL d   1      -0.423  -6.000   2.859  0.00  0.00    -0.007 A 
ATOM      6  C5  UNL d   1      -1.136  -5.531   1.757  0.00  0.00     0.039 A 
ENDROOT
BRANCH   4   7
ATOM      7  O   UNL d   1       0.604  -5.629   4.948  0.00  0.00    -0.526 OA
ATOM      8  H5  UNL d   1       0.739  -4.916   5.594  0.00  0.00     0.418 HD
ENDBRANCH   4   7
TORSDOF 1
ENDMDL
