MODEL 1
REMARK minimizedAffinity -0.262335747
REMARK minimizedRMSD -1
REMARK  1 active torsions:
REMARK  status: ('A' for Active; 'I' for Inactive)
REMARK    1  A    between atoms: C3_4  and  O_7 
ROOT
ATOM      1  C   UNL d   1      -0.404   2.683   2.580  0.00  0.00    -0.033 A 
ATOM      2  C1  UNL d   1      -0.168   1.735   1.583  0.00  0.00     0.039 A 
ATOM      3  C2  UNL d   1       1.136   1.319   1.306  0.00  0.00    -0.080 A 
ATOM      4  C3  UNL d   1       2.194   1.858   2.034  0.00  0.00     0.150 A 
ATOM      5  C4  UNL d   1       1.966   2.799   3.032  0.00  0.00    -0.007 A 
ATOM      6  C5  UNL d   1       0.663   3.214   3.306  0.00  0.00     0.039 A 
ENDROOT
BRANCH   4   7
ATOM      7  O   UNL d   1       3.484   1.486   1.797  0.00  0.00    -0.526 OA
ATOM      8  H5  UNL d   1       3.491   0.851   1.062  0.00  0.00     0.418 HD
ENDBRANCH   4   7
TORSDOF 1
ENDMDL
