MODEL 1
REMARK minimizedAffinity 0.632655144
REMARK minimizedRMSD -1
REMARK  1 active torsions:
REMARK  status: ('A' for Active; 'I' for Inactive)
REMARK    1  A    between atoms: C3_4  and  O_7 
ROOT
ATOM      1  C   UNL d   1       1.962   1.937   1.813  0.00  0.00    -0.033 A 
ATOM      2  C1  UNL d   1       0.837   1.512   1.104  0.00  0.00     0.039 A 
ATOM      3  C2  UNL d   1      -0.436   1.940   1.488  0.00  0.00    -0.080 A 
ATOM      4  C3  UNL d   1      -0.569   2.791   2.581  0.00  0.00     0.150 A 
ATOM      5  C4  UNL d   1       0.548   3.221   3.290  0.00  0.00    -0.007 A 
ATOM      6  C5  UNL d   1       1.817   2.792   2.906  0.00  0.00     0.039 A 
ENDROOT
BRANCH   4   7
ATOM      7  O   UNL d   1      -1.791   3.231   2.997  0.00  0.00    -0.526 OA
ATOM      8  H5  UNL d   1      -2.471   2.830   2.431  0.00  0.00     0.418 HD
ENDBRANCH   4   7
TORSDOF 1
ENDMDL
