MODEL 1
REMARK minimizedAffinity -0.294072866
REMARK minimizedRMSD -1
REMARK  1 active torsions:
REMARK  status: ('A' for Active; 'I' for Inactive)
REMARK    1  A    between atoms: C3_4  and  O_7 
ROOT
ATOM      1  C   UNL d   1       1.775   1.655   1.585  0.00  0.00    -0.033 A 
ATOM      2  C1  UNL d   1       0.603   1.317   0.906  0.00  0.00     0.039 A 
ATOM      3  C2  UNL d   1      -0.618   1.866   1.301  0.00  0.00    -0.080 A 
ATOM      4  C3  UNL d   1      -0.653   2.751   2.376  0.00  0.00     0.150 A 
ATOM      5  C4  UNL d   1       0.511   3.095   3.055  0.00  0.00    -0.007 A 
ATOM      6  C5  UNL d   1       1.729   2.545   2.659  0.00  0.00     0.039 A 
ENDROOT
BRANCH   4   7
ATOM      7  O   UNL d   1      -1.822   3.309   2.801  0.00  0.00    -0.526 OA
ATOM      8  H5  UNL d   1      -2.547   2.957   2.257  0.00  0.00     0.418 HD
ENDBRANCH   4   7
TORSDOF 1
ENDMDL
