MODEL 1
REMARK minimizedAffinity 0.909232259
REMARK minimizedRMSD -1
REMARK  1 active torsions:
REMARK  status: ('A' for Active; 'I' for Inactive)
REMARK    1  A    between atoms: C3_4  and  O_7 
ROOT
ATOM      1  C   UNL d   1       2.873   5.992   3.410  0.00  0.00    -0.033 A 
ATOM      2  C1  UNL d   1       2.280   5.992   2.146  0.00  0.00     0.039 A 
ATOM      3  C2  UNL d   1       3.076   5.993   0.999  0.00  0.00    -0.080 A 
ATOM      4  C3  UNL d   1       4.462   5.994   1.129  0.00  0.00     0.150 A 
ATOM      5  C4  UNL d   1       5.060   5.990   2.385  0.00  0.00    -0.007 A 
ATOM      6  C5  UNL d   1       4.263   5.990   3.529  0.00  0.00     0.039 A 
ENDROOT
BRANCH   4   7
ATOM      7  O   UNL d   1       5.280   6.000   0.039  0.00  0.00    -0.526 OA
ATOM      8  H5  UNL d   1       4.728   6.030  -0.760  0.00  0.00     0.418 HD
ENDBRANCH   4   7
TORSDOF 1
ENDMDL
