MODEL 1
REMARK minimizedAffinity 2.81781816
REMARK minimizedRMSD -1
REMARK  1 active torsions:
REMARK  status: ('A' for Active; 'I' for Inactive)
REMARK    1  A    between atoms: C3_4  and  O_7 
ROOT
ATOM      1  C   UNL d   1       1.512   1.575   1.714  0.00  0.00    -0.033 A 
ATOM      2  C1  UNL d   1       0.372   1.120   1.049  0.00  0.00     0.039 A 
ATOM      3  C2  UNL d   1      -0.869   1.709   1.304  0.00  0.00    -0.080 A 
ATOM      4  C3  UNL d   1      -0.954   2.750   2.224  0.00  0.00     0.150 A 
ATOM      5  C4  UNL d   1       0.179   3.211   2.887  0.00  0.00    -0.007 A 
ATOM      6  C5  UNL d   1       1.416   2.621   2.632  0.00  0.00     0.039 A 
ENDROOT
BRANCH   4   7
ATOM      7  O   UNL d   1      -2.143   3.353   2.510  0.00  0.00    -0.526 OA
ATOM      8  H5  UNL d   1      -2.842   2.912   1.999  0.00  0.00     0.418 HD
ENDBRANCH   4   7
TORSDOF 1
ENDMDL
