MODEL 1
REMARK minimizedAffinity -3.32420182
REMARK minimizedRMSD -1
REMARK  1 active torsions:
REMARK  status: ('A' for Active; 'I' for Inactive)
REMARK    1  A    between atoms: C3_4  and  O_7 
ROOT
ATOM      1  C   UNL d   1      -0.361   0.726   0.147  0.00  0.00    -0.033 A 
ATOM      2  C1  UNL d   1      -1.207   1.379   1.045  0.00  0.00     0.039 A 
ATOM      3  C2  UNL d   1      -0.685   1.962   2.201  0.00  0.00    -0.080 A 
ATOM      4  C3  UNL d   1       0.684   1.886   2.446  0.00  0.00     0.150 A 
ATOM      5  C4  UNL d   1       1.533   1.240   1.554  0.00  0.00    -0.007 A 
ATOM      6  C5  UNL d   1       1.009   0.658   0.401  0.00  0.00     0.039 A 
ENDROOT
BRANCH   4   7
ATOM      7  O   UNL d   1       1.239   2.436   3.563  0.00  0.00    -0.526 OA
ATOM      8  H5  UNL d   1       0.528   2.823   4.101  0.00  0.00     0.418 HD
ENDBRANCH   4   7
TORSDOF 1
ENDMDL
