MODEL 1
REMARK minimizedAffinity -0.00136381097
REMARK minimizedRMSD -1
REMARK  1 active torsions:
REMARK  status: ('A' for Active; 'I' for Inactive)
REMARK    1  A    between atoms: C3_4  and  O_7 
ROOT
ATOM      1  C   UNL d   1       1.025  -6.000   2.034  0.00  0.00    -0.033 A 
ATOM      2  C1  UNL d   1       1.899  -5.951   3.121  0.00  0.00     0.039 A 
ATOM      3  C2  UNL d   1       1.396  -5.868   4.421  0.00  0.00    -0.080 A 
ATOM      4  C3  UNL d   1       0.018  -5.835   4.619  0.00  0.00     0.150 A 
ATOM      5  C4  UNL d   1      -0.859  -5.887   3.541  0.00  0.00    -0.007 A 
ATOM      6  C5  UNL d   1      -0.354  -5.969   2.244  0.00  0.00     0.039 A 
ENDROOT
BRANCH   4   7
ATOM      7  O   UNL d   1      -0.520  -5.750   5.869  0.00  0.00    -0.526 OA
ATOM      8  H5  UNL d   1       0.206  -5.693   6.513  0.00  0.00     0.418 HD
ENDBRANCH   4   7
TORSDOF 1
ENDMDL
