MODEL 1
REMARK minimizedAffinity -1.51868665
REMARK minimizedRMSD -1
REMARK  1 active torsions:
REMARK  status: ('A' for Active; 'I' for Inactive)
REMARK    1  A    between atoms: C3_4  and  O_7 
ROOT
ATOM      1  C   UNL d   1       1.378   1.018   0.835  0.00  0.00    -0.033 A 
ATOM      2  C1  UNL d   1       1.840   1.898   1.815  0.00  0.00     0.039 A 
ATOM      3  C2  UNL d   1       0.934   2.666   2.550  0.00  0.00    -0.080 A 
ATOM      4  C3  UNL d   1      -0.429   2.544   2.295  0.00  0.00     0.150 A 
ATOM      5  C4  UNL d   1      -0.897   1.666   1.322  0.00  0.00    -0.007 A 
ATOM      6  C5  UNL d   1       0.009   0.901   0.589  0.00  0.00     0.039 A 
ENDROOT
BRANCH   4   7
ATOM      7  O   UNL d   1      -1.351   3.275   2.983  0.00  0.00    -0.526 OA
ATOM      8  H5  UNL d   1      -0.882   3.859   3.602  0.00  0.00     0.418 HD
ENDBRANCH   4   7
TORSDOF 1
ENDMDL
