MODEL 1
REMARK minimizedAffinity -0.247174174
REMARK minimizedRMSD -1
REMARK  1 active torsions:
REMARK  status: ('A' for Active; 'I' for Inactive)
REMARK    1  A    between atoms: C3_4  and  O_7 
ROOT
ATOM      1  C   UNL d   1       0.368   1.158  -0.156  0.00  0.00    -0.033 A 
ATOM      2  C1  UNL d   1      -0.692   1.586   0.646  0.00  0.00     0.039 A 
ATOM      3  C2  UNL d   1      -0.436   2.194   1.877  0.00  0.00    -0.080 A 
ATOM      4  C3  UNL d   1       0.881   2.369   2.292  0.00  0.00     0.150 A 
ATOM      5  C4  UNL d   1       1.941   1.949   1.496  0.00  0.00    -0.007 A 
ATOM      6  C5  UNL d   1       1.684   1.341   0.268  0.00  0.00     0.039 A 
ENDROOT
BRANCH   4   7
ATOM      7  O   UNL d   1       1.179   2.953   3.487  0.00  0.00    -0.526 OA
ATOM      8  H5  UNL d   1       0.347   3.166   3.942  0.00  0.00     0.418 HD
ENDBRANCH   4   7
TORSDOF 1
ENDMDL
