MODEL 1
REMARK minimizedAffinity 5.46686316
REMARK minimizedRMSD -1
REMARK  1 active torsions:
REMARK  status: ('A' for Active; 'I' for Inactive)
REMARK    1  A    between atoms: C3_4  and  O_7 
ROOT
ATOM      1  C   UNL d   1      -3.401  -3.754  -0.980  0.00  0.00    -0.033 A 
ATOM      2  C1  UNL d   1      -2.887  -5.029  -0.732  0.00  0.00     0.039 A 
ATOM      3  C2  UNL d   1      -2.188  -5.708  -1.732  0.00  0.00    -0.080 A 
ATOM      4  C3  UNL d   1      -2.010  -5.102  -2.973  0.00  0.00     0.150 A 
ATOM      5  C4  UNL d   1      -2.515  -3.831  -3.225  0.00  0.00    -0.007 A 
ATOM      6  C5  UNL d   1      -3.214  -3.155  -2.226  0.00  0.00     0.039 A 
ENDROOT
BRANCH   4   7
ATOM      7  O   UNL d   1      -1.339  -5.728  -3.981  0.00  0.00    -0.526 OA
ATOM      8  H5  UNL d   1      -1.072  -6.610  -3.672  0.00  0.00     0.418 HD
ENDBRANCH   4   7
TORSDOF 1
ENDMDL
