MODEL 1
REMARK minimizedAffinity -4.78756332
REMARK minimizedRMSD -1
REMARK  0 active torsions:
REMARK  status: ('A' for Active; 'I' for Inactive)
ROOT
ATOM      1  C   UNL d   1      -2.096  -2.565   1.245  0.00  0.00     0.078 C 
ATOM      2  C1  UNL d   1      -1.423  -1.264   0.925  0.00  0.00    -0.077 A 
ATOM      3  C2  UNL d   1      -0.143  -1.235   0.358  0.00  0.00    -0.001 A 
ATOM      4  C3  UNL d   1       0.476  -0.016   0.074  0.00  0.00     0.003 A 
ATOM      5  C4  UNL d   1      -0.177   1.182   0.355  0.00  0.00    -0.005 A 
ATOM      6  C5  UNL d   1      -1.450   1.163   0.921  0.00  0.00     0.003 A 
ATOM      7  C6  UNL d   1      -2.071  -0.054   1.206  0.00  0.00    -0.001 A 
ENDROOT
TORSDOF 0
ENDMDL
