MODEL 1
REMARK minimizedAffinity -4.52259588
REMARK minimizedRMSD -1
REMARK  0 active torsions:
REMARK  status: ('A' for Active; 'I' for Inactive)
ROOT
ATOM      1  C   UNL d   1       4.553   1.410  -2.220  0.00  0.00     0.078 C 
ATOM      2  C1  UNL d   1       3.076   1.578  -2.422  0.00  0.00    -0.077 A 
ATOM      3  C2  UNL d   1       2.296   2.273  -1.490  0.00  0.00    -0.001 A 
ATOM      4  C3  UNL d   1       0.921   2.414  -1.686  0.00  0.00     0.003 A 
ATOM      5  C4  UNL d   1       0.314   1.861  -2.812  0.00  0.00    -0.005 A 
ATOM      6  C5  UNL d   1       1.083   1.167  -3.744  0.00  0.00     0.003 A 
ATOM      7  C6  UNL d   1       2.457   1.025  -3.550  0.00  0.00    -0.001 A 
ENDROOT
TORSDOF 0
ENDMDL
