MODEL 1
REMARK minimizedAffinity -4.7319355
REMARK minimizedRMSD -1
REMARK  0 active torsions:
REMARK  status: ('A' for Active; 'I' for Inactive)
ROOT
ATOM      1  C   UNL d   1      -1.852  -2.867   1.983  0.00  0.00     0.078 C 
ATOM      2  C1  UNL d   1      -1.191  -1.744   1.242  0.00  0.00    -0.077 A 
ATOM      3  C2  UNL d   1      -1.922  -0.622   0.830  0.00  0.00    -0.001 A 
ATOM      4  C3  UNL d   1      -1.295   0.412   0.133  0.00  0.00     0.003 A 
ATOM      5  C4  UNL d   1       0.065   0.334  -0.160  0.00  0.00    -0.005 A 
ATOM      6  C5  UNL d   1       0.800  -0.779   0.243  0.00  0.00     0.003 A 
ATOM      7  C6  UNL d   1       0.175  -1.814   0.940  0.00  0.00    -0.001 A 
ENDROOT
TORSDOF 0
ENDMDL
