MODEL 1
REMARK minimizedAffinity -5.6647315
REMARK minimizedRMSD -1
REMARK  0 active torsions:
REMARK  status: ('A' for Active; 'I' for Inactive)
ROOT
ATOM      1  C   UNL d   1      -0.089   0.351  -0.567  0.00  0.00     0.078 C 
ATOM      2  C1  UNL d   1      -1.028  -0.300   0.404  0.00  0.00    -0.077 A 
ATOM      3  C2  UNL d   1      -1.892   0.465   1.196  0.00  0.00    -0.001 A 
ATOM      4  C3  UNL d   1      -2.754  -0.154   2.103  0.00  0.00     0.003 A 
ATOM      5  C4  UNL d   1      -2.759  -1.542   2.227  0.00  0.00    -0.005 A 
ATOM      6  C5  UNL d   1      -1.901  -2.312   1.444  0.00  0.00     0.003 A 
ATOM      7  C6  UNL d   1      -1.039  -1.695   0.537  0.00  0.00    -0.001 A 
ENDROOT
TORSDOF 0
ENDMDL
