MODEL 1
REMARK minimizedAffinity -5.80096149
REMARK minimizedRMSD -1
REMARK  0 active torsions:
REMARK  status: ('A' for Active; 'I' for Inactive)
ROOT
ATOM      1  C   UNL d   1      -1.544  -3.049   1.596  0.00  0.00     0.078 C 
ATOM      2  C1  UNL d   1      -1.243  -1.681   1.063  0.00  0.00    -0.077 A 
ATOM      3  C2  UNL d   1      -1.769  -0.536   1.675  0.00  0.00    -0.001 A 
ATOM      4  C3  UNL d   1      -1.488   0.731   1.162  0.00  0.00     0.003 A 
ATOM      5  C4  UNL d   1      -0.681   0.866   0.034  0.00  0.00    -0.005 A 
ATOM      6  C5  UNL d   1      -0.155  -0.267  -0.583  0.00  0.00     0.003 A 
ATOM      7  C6  UNL d   1      -0.435  -1.535  -0.071  0.00  0.00    -0.001 A 
ENDROOT
TORSDOF 0
ENDMDL
