MODEL 1
REMARK minimizedAffinity -3.87246227
REMARK minimizedRMSD -1
REMARK  0 active torsions:
REMARK  status: ('A' for Active; 'I' for Inactive)
ROOT
ATOM      1  C   UNL d   1       0.371   0.975  -0.618  0.00  0.00     0.078 C 
ATOM      2  C1  UNL d   1      -0.224  -0.271  -0.033  0.00  0.00    -0.077 A 
ATOM      3  C2  UNL d   1      -1.568  -0.599  -0.250  0.00  0.00    -0.001 A 
ATOM      4  C3  UNL d   1      -2.111  -1.757   0.309  0.00  0.00     0.003 A 
ATOM      5  C4  UNL d   1      -1.318  -2.596   1.089  0.00  0.00    -0.005 A 
ATOM      6  C5  UNL d   1       0.020  -2.277   1.312  0.00  0.00     0.003 A 
ATOM      7  C6  UNL d   1       0.565  -1.119   0.754  0.00  0.00    -0.001 A 
ENDROOT
TORSDOF 0
ENDMDL
