MODEL 1
REMARK minimizedAffinity 1.28626752
REMARK minimizedRMSD -1
REMARK  0 active torsions:
REMARK  status: ('A' for Active; 'I' for Inactive)
ROOT
ATOM      1  C   UNL d   1      -1.574   0.712   0.612  0.00  0.00     0.078 C 
ATOM      2  C1  UNL d   1      -1.034  -0.576   1.156  0.00  0.00    -0.077 A 
ATOM      3  C2  UNL d   1      -1.724  -1.288   2.144  0.00  0.00    -0.001 A 
ATOM      4  C3  UNL d   1      -1.204  -2.481   2.649  0.00  0.00     0.003 A 
ATOM      5  C4  UNL d   1       0.009  -2.973   2.171  0.00  0.00    -0.005 A 
ATOM      6  C5  UNL d   1       0.705  -2.270   1.189  0.00  0.00     0.003 A 
ATOM      7  C6  UNL d   1       0.186  -1.077   0.684  0.00  0.00    -0.001 A 
ENDROOT
TORSDOF 0
ENDMDL
