MODEL 1
REMARK minimizedAffinity -1.92837989
REMARK minimizedRMSD -1
REMARK  0 active torsions:
REMARK  status: ('A' for Active; 'I' for Inactive)
ROOT
ATOM      1  C   UNL d   1       0.910   1.579  -0.429  0.00  0.00     0.078 C 
ATOM      2  C1  UNL d   1      -0.399   0.932  -0.089  0.00  0.00    -0.077 A 
ATOM      3  C2  UNL d   1      -1.404   1.644   0.578  0.00  0.00    -0.001 A 
ATOM      4  C3  UNL d   1      -2.614   1.025   0.897  0.00  0.00     0.003 A 
ATOM      5  C4  UNL d   1      -2.830  -0.308   0.555  0.00  0.00    -0.005 A 
ATOM      6  C5  UNL d   1      -1.835  -1.025  -0.107  0.00  0.00     0.003 A 
ATOM      7  C6  UNL d   1      -0.625  -0.408  -0.427  0.00  0.00    -0.001 A 
ENDROOT
TORSDOF 0
ENDMDL
