MODEL 1
REMARK minimizedAffinity -5.02062798
REMARK minimizedRMSD -1
REMARK  0 active torsions:
REMARK  status: ('A' for Active; 'I' for Inactive)
ROOT
ATOM      1  C   UNL d   1       0.408   0.366  -0.967  0.00  0.00     0.078 C 
ATOM      2  C1  UNL d   1      -0.173  -0.671  -0.053  0.00  0.00    -0.077 A 
ATOM      3  C2  UNL d   1       0.640  -1.388   0.834  0.00  0.00    -0.001 A 
ATOM      4  C3  UNL d   1       0.087  -2.358   1.672  0.00  0.00     0.003 A 
ATOM      5  C4  UNL d   1      -1.281  -2.620   1.632  0.00  0.00    -0.005 A 
ATOM      6  C5  UNL d   1      -2.098  -1.913   0.752  0.00  0.00     0.003 A 
ATOM      7  C6  UNL d   1      -1.547  -0.943  -0.087  0.00  0.00    -0.001 A 
ENDROOT
TORSDOF 0
ENDMDL
