MODEL 1
REMARK minimizedAffinity -3.45179296
REMARK minimizedRMSD -1
REMARK  0 active torsions:
REMARK  status: ('A' for Active; 'I' for Inactive)
ROOT
ATOM      1  C   UNL d   1       1.860   0.010   0.540  0.00  0.00     0.078 C 
ATOM      2  C1  UNL d   1       0.578  -0.750   0.707  0.00  0.00    -0.077 A 
ATOM      3  C2  UNL d   1      -0.528  -0.485  -0.110  0.00  0.00    -0.001 A 
ATOM      4  C3  UNL d   1      -1.719  -1.193   0.062  0.00  0.00     0.003 A 
ATOM      5  C4  UNL d   1      -1.816  -2.169   1.052  0.00  0.00    -0.005 A 
ATOM      6  C5  UNL d   1      -0.721  -2.437   1.872  0.00  0.00     0.003 A 
ATOM      7  C6  UNL d   1       0.470  -1.730   1.701  0.00  0.00    -0.001 A 
ENDROOT
TORSDOF 0
ENDMDL
