MODEL 1
REMARK minimizedAffinity -5.03480721
REMARK minimizedRMSD -1
REMARK  0 active torsions:
REMARK  status: ('A' for Active; 'I' for Inactive)
ROOT
ATOM      1  C   UNL d   1      -0.662  -2.640   1.340  0.00  0.00     0.078 C 
ATOM      2  C1  UNL d   1      -0.316  -1.257   0.874  0.00  0.00    -0.077 A 
ATOM      3  C2  UNL d   1       0.790  -1.030   0.046  0.00  0.00    -0.001 A 
ATOM      4  C3  UNL d   1       1.106   0.263  -0.372  0.00  0.00     0.003 A 
ATOM      5  C4  UNL d   1       0.321   1.341   0.033  0.00  0.00    -0.005 A 
ATOM      6  C5  UNL d   1      -0.781   1.125   0.858  0.00  0.00     0.003 A 
ATOM      7  C6  UNL d   1      -1.098  -0.168   1.278  0.00  0.00    -0.001 A 
ENDROOT
TORSDOF 0
ENDMDL
