MODEL 1
REMARK minimizedAffinity -4.80044508
REMARK minimizedRMSD -1
REMARK  0 active torsions:
REMARK  status: ('A' for Active; 'I' for Inactive)
ROOT
ATOM      1  C   UNL d   1      -1.539  -2.682   1.153  0.00  0.00     0.078 C 
ATOM      2  C1  UNL d   1      -0.898  -1.366   0.826  0.00  0.00    -0.077 A 
ATOM      3  C2  UNL d   1       0.397  -1.307   0.295  0.00  0.00    -0.001 A 
ATOM      4  C3  UNL d   1       0.985  -0.075   0.006  0.00  0.00     0.003 A 
ATOM      5  C4  UNL d   1       0.286   1.107   0.244  0.00  0.00    -0.005 A 
ATOM      6  C5  UNL d   1      -1.001   1.058   0.775  0.00  0.00     0.003 A 
ATOM      7  C6  UNL d   1      -1.591  -0.173   1.065  0.00  0.00    -0.001 A 
ENDROOT
TORSDOF 0
ENDMDL
