MODEL 1
REMARK minimizedAffinity -3.67039943
REMARK minimizedRMSD -1
REMARK  0 active torsions:
REMARK  status: ('A' for Active; 'I' for Inactive)
ROOT
ATOM      1  C   UNL d   1      -1.425  -2.804   0.806  0.00  0.00     0.078 C 
ATOM      2  C1  UNL d   1      -0.560  -1.599   0.586  0.00  0.00    -0.077 A 
ATOM      3  C2  UNL d   1       0.829  -1.723   0.457  0.00  0.00    -0.001 A 
ATOM      4  C3  UNL d   1       1.623  -0.592   0.262  0.00  0.00     0.003 A 
ATOM      5  C4  UNL d   1       1.038   0.671   0.194  0.00  0.00    -0.005 A 
ATOM      6  C5  UNL d   1      -0.343   0.804   0.323  0.00  0.00     0.003 A 
ATOM      7  C6  UNL d   1      -1.139  -0.326   0.519  0.00  0.00    -0.001 A 
ENDROOT
TORSDOF 0
ENDMDL
