MODEL 1
REMARK minimizedAffinity -2.25243521
REMARK minimizedRMSD -1
REMARK  1 active torsions:
REMARK  status: ('A' for Active; 'I' for Inactive)
REMARK    1  A    between atoms: C3_4  and  O_7 
ROOT
ATOM      1  C   UNL d   1      -2.595   3.668  -5.997  0.00  0.00    -0.033 A 
ATOM      2  C1  UNL d   1      -1.482   2.825  -5.999  0.00  0.00     0.039 A 
ATOM      3  C2  UNL d   1      -0.194   3.366  -5.997  0.00  0.00    -0.080 A 
ATOM      4  C3  UNL d   1      -0.035   4.749  -5.992  0.00  0.00     0.150 A 
ATOM      5  C4  UNL d   1      -1.139   5.594  -5.987  0.00  0.00    -0.007 A 
ATOM      6  C5  UNL d   1      -2.424   5.052  -5.990  0.00  0.00     0.039 A 
ENDROOT
BRANCH   4   7
ATOM      7  O   UNL d   1       1.202   5.324  -5.995  0.00  0.00    -0.526 OA
ATOM      8  H5  UNL d   1       1.869   4.618  -6.028  0.00  0.00     0.418 HD
ENDBRANCH   4   7
TORSDOF 1
ENDMDL
