MODEL 1
REMARK minimizedAffinity -2.99150229
REMARK minimizedRMSD -1
REMARK  1 active torsions:
REMARK  status: ('A' for Active; 'I' for Inactive)
REMARK    1  A    between atoms: C3_4  and  O_7 
ROOT
ATOM      1  C   UNL d   1      -3.160   3.324  -5.995  0.00  0.00    -0.033 A 
ATOM      2  C1  UNL d   1      -2.147   2.364  -5.985  0.00  0.00     0.039 A 
ATOM      3  C2  UNL d   1      -0.808   2.760  -5.977  0.00  0.00    -0.080 A 
ATOM      4  C3  UNL d   1      -0.496   4.117  -5.979  0.00  0.00     0.150 A 
ATOM      5  C4  UNL d   1      -1.501   5.079  -5.985  0.00  0.00    -0.007 A 
ATOM      6  C5  UNL d   1      -2.837   4.682  -5.994  0.00  0.00     0.039 A 
ENDROOT
BRANCH   4   7
ATOM      7  O   UNL d   1       0.796   4.551  -5.976  0.00  0.00    -0.526 OA
ATOM      8  H5  UNL d   1       1.381   3.776  -6.001  0.00  0.00     0.418 HD
ENDBRANCH   4   7
TORSDOF 1
ENDMDL
