MODEL 1
REMARK minimizedAffinity 0.77225256
REMARK minimizedRMSD -1
REMARK  1 active torsions:
REMARK  status: ('A' for Active; 'I' for Inactive)
REMARK    1  A    between atoms: C3_4  and  O_7 
ROOT
ATOM      1  C   UNL d   1       2.839   2.750  -2.119  0.00  0.00    -0.033 A 
ATOM      2  C1  UNL d   1       2.062   3.573  -1.302  0.00  0.00     0.039 A 
ATOM      3  C2  UNL d   1       2.677   4.433  -0.389  0.00  0.00    -0.080 A 
ATOM      4  C3  UNL d   1       4.066   4.461  -0.305  0.00  0.00     0.150 A 
ATOM      5  C4  UNL d   1       4.846   3.646  -1.119  0.00  0.00    -0.007 A 
ATOM      6  C5  UNL d   1       4.230   2.787  -2.029  0.00  0.00     0.039 A 
ENDROOT
BRANCH   4   7
ATOM      7  O   UNL d   1       4.710   5.280   0.574  0.00  0.00    -0.526 OA
ATOM      8  H5  UNL d   1       4.044   5.763   1.090  0.00  0.00     0.418 HD
ENDBRANCH   4   7
TORSDOF 1
ENDMDL
