MODEL 1
REMARK minimizedAffinity -1.61375225
REMARK minimizedRMSD -1
REMARK  1 active torsions:
REMARK  status: ('A' for Active; 'I' for Inactive)
REMARK    1  A    between atoms: C3_4  and  O_7 
ROOT
ATOM      1  C   UNL d   1       4.935   4.546  -5.916  0.00  0.00    -0.033 A 
ATOM      2  C1  UNL d   1       4.093   3.432  -5.878  0.00  0.00     0.039 A 
ATOM      3  C2  UNL d   1       2.707   3.601  -5.899  0.00  0.00    -0.080 A 
ATOM      4  C3  UNL d   1       2.176   4.886  -5.957  0.00  0.00     0.150 A 
ATOM      5  C4  UNL d   1       3.009   6.000  -5.999  0.00  0.00    -0.007 A 
ATOM      6  C5  UNL d   1       4.392   5.830  -5.978  0.00  0.00     0.039 A 
ENDROOT
BRANCH   4   7
ATOM      7  O   UNL d   1       0.830   5.101  -5.974  0.00  0.00    -0.526 OA
ATOM      8  H5  UNL d   1       0.381   4.242  -5.912  0.00  0.00     0.418 HD
ENDBRANCH   4   7
TORSDOF 1
ENDMDL
