MODEL 1
REMARK minimizedAffinity 1.64090192
REMARK minimizedRMSD -1
REMARK  1 active torsions:
REMARK  status: ('A' for Active; 'I' for Inactive)
REMARK    1  A    between atoms: C3_4  and  O_7 
ROOT
ATOM      1  C   UNL d   1       1.101  -3.387  -3.509  0.00  0.00    -0.033 A 
ATOM      2  C1  UNL d   1       1.460  -3.162  -2.178  0.00  0.00     0.039 A 
ATOM      3  C2  UNL d   1       2.737  -2.693  -1.868  0.00  0.00    -0.080 A 
ATOM      4  C3  UNL d   1       3.645  -2.451  -2.896  0.00  0.00     0.150 A 
ATOM      5  C4  UNL d   1       3.293  -2.670  -4.224  0.00  0.00    -0.007 A 
ATOM      6  C5  UNL d   1       2.017  -3.139  -4.532  0.00  0.00     0.039 A 
ENDROOT
BRANCH   4   7
ATOM      7  O   UNL d   1       4.905  -1.997  -2.642  0.00  0.00    -0.526 OA
ATOM      8  H5  UNL d   1       5.016  -1.920  -1.679  0.00  0.00     0.418 HD
ENDBRANCH   4   7
TORSDOF 1
ENDMDL
