MODEL 1
REMARK minimizedAffinity -2.29962945
REMARK minimizedRMSD -1
REMARK  1 active torsions:
REMARK  status: ('A' for Active; 'I' for Inactive)
REMARK    1  A    between atoms: C3_4  and  O_7 
ROOT
ATOM      1  C   UNL d   1       0.855   2.242  -5.997  0.00  0.00    -0.033 A 
ATOM      2  C1  UNL d   1       0.257   3.504  -5.999  0.00  0.00     0.039 A 
ATOM      3  C2  UNL d   1       1.048   4.653  -6.000  0.00  0.00    -0.080 A 
ATOM      4  C3  UNL d   1       2.435   4.528  -5.998  0.00  0.00     0.150 A 
ATOM      5  C4  UNL d   1       3.037   3.275  -6.000  0.00  0.00    -0.007 A 
ATOM      6  C5  UNL d   1       2.245   2.127  -5.998  0.00  0.00     0.039 A 
ENDROOT
BRANCH   4   7
ATOM      7  O   UNL d   1       3.249   5.622  -5.994  0.00  0.00    -0.526 OA
ATOM      8  H5  UNL d   1       2.694   6.419  -5.964  0.00  0.00     0.418 HD
ENDBRANCH   4   7
TORSDOF 1
ENDMDL
