MODEL 1
REMARK minimizedAffinity -3.20019627
REMARK minimizedRMSD -1
REMARK  1 active torsions:
REMARK  status: ('A' for Active; 'I' for Inactive)
REMARK    1  A    between atoms: C3_4  and  O_7 
ROOT
ATOM      1  C   UNL d   1       0.319   2.454  -5.998  0.00  0.00    -0.033 A 
ATOM      2  C1  UNL d   1       0.962   3.693  -5.994  0.00  0.00     0.039 A 
ATOM      3  C2  UNL d   1       0.213   4.871  -5.989  0.00  0.00    -0.080 A 
ATOM      4  C3  UNL d   1      -1.177   4.796  -5.988  0.00  0.00     0.150 A 
ATOM      5  C4  UNL d   1      -1.825   3.565  -5.989  0.00  0.00    -0.007 A 
ATOM      6  C5  UNL d   1      -1.075   2.390  -5.994  0.00  0.00     0.039 A 
ENDROOT
BRANCH   4   7
ATOM      7  O   UNL d   1      -1.951   5.919  -5.989  0.00  0.00    -0.526 OA
ATOM      8  H5  UNL d   1      -1.367   6.695  -6.018  0.00  0.00     0.418 HD
ENDBRANCH   4   7
TORSDOF 1
ENDMDL
