MODEL 1
REMARK minimizedAffinity 0.588654697
REMARK minimizedRMSD -1
REMARK  1 active torsions:
REMARK  status: ('A' for Active; 'I' for Inactive)
REMARK    1  A    between atoms: C3_4  and  O_7 
ROOT
ATOM      1  C   UNL d   1       1.004   3.686  -5.993  0.00  0.00    -0.033 A 
ATOM      2  C1  UNL d   1       1.108   5.078  -5.974  0.00  0.00     0.039 A 
ATOM      3  C2  UNL d   1      -0.044   5.866  -5.961  0.00  0.00    -0.080 A 
ATOM      4  C3  UNL d   1      -1.293   5.250  -5.966  0.00  0.00     0.150 A 
ATOM      5  C4  UNL d   1      -1.404   3.864  -5.981  0.00  0.00    -0.007 A 
ATOM      6  C5  UNL d   1      -0.252   3.079  -5.995  0.00  0.00     0.039 A 
ENDROOT
BRANCH   4   7
ATOM      7  O   UNL d   1      -2.446   5.978  -5.959  0.00  0.00    -0.526 OA
ATOM      8  H5  UNL d   1      -2.215   6.921  -5.978  0.00  0.00     0.418 HD
ENDBRANCH   4   7
TORSDOF 1
ENDMDL
