MODEL 1
REMARK minimizedAffinity -2.46206522
REMARK minimizedRMSD -1
REMARK  1 active torsions:
REMARK  status: ('A' for Active; 'I' for Inactive)
REMARK    1  A    between atoms: C3_4  and  O_7 
ROOT
ATOM      1  C   UNL d   1      -3.425   3.883  -5.999  0.00  0.00    -0.033 A 
ATOM      2  C1  UNL d   1      -2.347   2.996  -5.997  0.00  0.00     0.039 A 
ATOM      3  C2  UNL d   1      -1.039   3.484  -5.995  0.00  0.00    -0.080 A 
ATOM      4  C3  UNL d   1      -0.823   4.859  -5.995  0.00  0.00     0.150 A 
ATOM      5  C4  UNL d   1      -1.893   5.749  -5.993  0.00  0.00    -0.007 A 
ATOM      6  C5  UNL d   1      -3.198   5.259  -5.995  0.00  0.00     0.039 A 
ENDROOT
BRANCH   4   7
ATOM      7  O   UNL d   1       0.436   5.383  -5.998  0.00  0.00    -0.526 OA
ATOM      8  H5  UNL d   1       1.073   4.650  -6.029  0.00  0.00     0.418 HD
ENDBRANCH   4   7
TORSDOF 1
ENDMDL
