MODEL 1
REMARK minimizedAffinity -0.951954663
REMARK minimizedRMSD -1
REMARK  1 active torsions:
REMARK  status: ('A' for Active; 'I' for Inactive)
REMARK    1  A    between atoms: C3_4  and  O_7 
ROOT
ATOM      1  C   UNL d   1       0.669   3.996  -5.997  0.00  0.00    -0.033 A 
ATOM      2  C1  UNL d   1      -0.465   3.182  -5.999  0.00  0.00     0.039 A 
ATOM      3  C2  UNL d   1      -1.738   3.755  -5.999  0.00  0.00    -0.080 A 
ATOM      4  C3  UNL d   1      -1.863   5.142  -5.998  0.00  0.00     0.150 A 
ATOM      5  C4  UNL d   1      -0.737   5.959  -6.000  0.00  0.00    -0.007 A 
ATOM      6  C5  UNL d   1       0.533   5.384  -5.998  0.00  0.00     0.039 A 
ENDROOT
BRANCH   4   7
ATOM      7  O   UNL d   1      -3.084   5.747  -5.994  0.00  0.00    -0.526 OA
ATOM      8  H5  UNL d   1      -3.769   5.059  -5.964  0.00  0.00     0.418 HD
ENDBRANCH   4   7
TORSDOF 1
ENDMDL
