MODEL 1
REMARK minimizedAffinity -2.44643736
REMARK minimizedRMSD -1
REMARK  1 active torsions:
REMARK  status: ('A' for Active; 'I' for Inactive)
REMARK    1  A    between atoms: C3_4  and  O_7 
ROOT
ATOM      1  C   UNL d   1       2.517   2.632  -5.993  0.00  0.00    -0.033 A 
ATOM      2  C1  UNL d   1       1.331   1.894  -5.998  0.00  0.00     0.039 A 
ATOM      3  C2  UNL d   1       0.099   2.551  -6.000  0.00  0.00    -0.080 A 
ATOM      4  C3  UNL d   1       0.066   3.943  -5.999  0.00  0.00     0.150 A 
ATOM      5  C4  UNL d   1       1.244   4.683  -5.998  0.00  0.00    -0.007 A 
ATOM      6  C5  UNL d   1       2.473   4.026  -5.995  0.00  0.00     0.039 A 
ENDROOT
BRANCH   4   7
ATOM      7  O   UNL d   1      -1.112   4.628  -5.996  0.00  0.00    -0.526 OA
ATOM      8  H5  UNL d   1      -1.841   3.986  -5.968  0.00  0.00     0.418 HD
ENDBRANCH   4   7
TORSDOF 1
ENDMDL
