MODEL 1
REMARK minimizedAffinity -1.63717401
REMARK minimizedRMSD -1
REMARK  1 active torsions:
REMARK  status: ('A' for Active; 'I' for Inactive)
REMARK    1  A    between atoms: C3_4  and  O_7 
ROOT
ATOM      1  C   UNL d   1       1.402   4.249  -5.997  0.00  0.00    -0.033 A 
ATOM      2  C1  UNL d   1       2.413   3.286  -5.998  0.00  0.00     0.039 A 
ATOM      3  C2  UNL d   1       3.753   3.678  -5.997  0.00  0.00    -0.080 A 
ATOM      4  C3  UNL d   1       4.068   5.034  -5.994  0.00  0.00     0.150 A 
ATOM      5  C4  UNL d   1       3.065   5.999  -5.990  0.00  0.00    -0.007 A 
ATOM      6  C5  UNL d   1       1.728   5.605  -5.992  0.00  0.00     0.039 A 
ENDROOT
BRANCH   4   7
ATOM      7  O   UNL d   1       5.361   5.466  -5.998  0.00  0.00    -0.526 OA
ATOM      8  H5  UNL d   1       5.944   4.689  -6.030  0.00  0.00     0.418 HD
ENDBRANCH   4   7
TORSDOF 1
ENDMDL
