MODEL 1
REMARK minimizedAffinity -0.757671058
REMARK minimizedRMSD -1
REMARK  1 active torsions:
REMARK  status: ('A' for Active; 'I' for Inactive)
REMARK    1  A    between atoms: C3_4  and  O_7 
ROOT
ATOM      1  C   UNL d   1      -4.541   4.951  -5.982  0.00  0.00    -0.033 A 
ATOM      2  C1  UNL d   1      -3.589   5.973  -5.984  0.00  0.00     0.039 A 
ATOM      3  C2  UNL d   1      -2.228   5.661  -5.991  0.00  0.00    -0.080 A 
ATOM      4  C3  UNL d   1      -1.833   4.326  -5.997  0.00  0.00     0.150 A 
ATOM      5  C4  UNL d   1      -2.776   3.303  -6.000  0.00  0.00    -0.007 A 
ATOM      6  C5  UNL d   1      -4.134   3.616  -5.992  0.00  0.00     0.039 A 
ENDROOT
BRANCH   4   7
ATOM      7  O   UNL d   1      -0.516   3.973  -6.000  0.00  0.00    -0.526 OA
ATOM      8  H5  UNL d   1       0.020   4.783  -5.968  0.00  0.00     0.418 HD
ENDBRANCH   4   7
TORSDOF 1
ENDMDL
