MODEL 1
REMARK minimizedAffinity -2.63837385
REMARK minimizedRMSD -1
REMARK  1 active torsions:
REMARK  status: ('A' for Active; 'I' for Inactive)
REMARK    1  A    between atoms: C3_4  and  O_7 
ROOT
ATOM      1  C   UNL d   1       1.913   4.206  -5.990  0.00  0.00    -0.033 A 
ATOM      2  C1  UNL d   1       2.950   3.271  -6.000  0.00  0.00     0.039 A 
ATOM      3  C2  UNL d   1       4.279   3.699  -5.993  0.00  0.00    -0.080 A 
ATOM      4  C3  UNL d   1       4.557   5.063  -5.975  0.00  0.00     0.150 A 
ATOM      5  C4  UNL d   1       3.529   6.000  -5.961  0.00  0.00    -0.007 A 
ATOM      6  C5  UNL d   1       2.203   5.570  -5.969  0.00  0.00     0.039 A 
ENDROOT
BRANCH   4   7
ATOM      7  O   UNL d   1       5.838   5.529  -5.972  0.00  0.00    -0.526 OA
ATOM      8  H5  UNL d   1       6.442   4.769  -6.012  0.00  0.00     0.418 HD
ENDBRANCH   4   7
TORSDOF 1
ENDMDL
