MODEL 1
REMARK minimizedAffinity 1.81398714
REMARK minimizedRMSD -1
REMARK  2 active torsions:
REMARK  status: ('A' for Active; 'I' for Inactive)
REMARK    1  A    between atoms: C1_2  and  C2_3 
REMARK    2  A    between atoms: C2_3  and  C3_4 
ROOT
ATOM      1  C3  UNL d   1      -0.497  -3.399  -4.764  0.00  0.00    -0.075 A 
ATOM      2  C4  UNL d   1      -0.400  -2.874  -3.468  0.00  0.00     0.002 A 
ATOM      3  C5  UNL d   1      -0.191  -1.508  -3.271  0.00  0.00     0.002 A 
ATOM      4  C6  UNL d   1      -0.066  -0.655  -4.364  0.00  0.00    -0.004 A 
ATOM      5  C7  UNL d   1      -0.144  -1.169  -5.657  0.00  0.00     0.002 A 
ATOM      6  C8  UNL d   1      -0.358  -2.534  -5.857  0.00  0.00     0.002 A 
ENDROOT
BRANCH   1   7
ATOM      7  C2  UNL d   1      -0.753  -4.871  -4.984  0.00  0.00     0.056 C 
BRANCH   7   8
ATOM      8  C1  UNL d   1      -2.149  -5.333  -4.551  0.00  0.00     0.007 C 
ATOM      9  C   UNL d   1      -3.273  -4.565  -5.233  0.00  0.00     0.009 C 
ENDBRANCH   7   8
ENDBRANCH   1   7
TORSDOF 2
ENDMDL
