MODEL 1
REMARK minimizedAffinity -1.6566565
REMARK minimizedRMSD -1
REMARK  0 active torsions:
REMARK  status: ('A' for Active; 'I' for Inactive)
ROOT
ATOM      1  C   UNL d   1      -1.095   0.089   1.063  0.00  0.00     0.023 A 
ATOM      2  C1  UNL d   1      -1.671   0.103   2.334  0.00  0.00     0.003 A 
ATOM      3  C2  UNL d   1      -0.958  -0.384   3.431  0.00  0.00     0.048 A 
ATOM      4  C3  UNL d   1       0.332  -0.884   3.251  0.00  0.00     0.023 A 
ATOM      5  C4  UNL d   1       0.913  -0.899   1.982  0.00  0.00     0.048 A 
ATOM      6  C5  UNL d   1       0.195  -0.412   0.888  0.00  0.00     0.003 A 
ATOM      7  I   UNL d   1       1.395  -1.609   4.883  0.00  0.00    -0.146 I 
ENDROOT
TORSDOF 0
ENDMDL
