MODEL 1
REMARK minimizedAffinity 3.4820323
REMARK minimizedRMSD -1
REMARK  0 active torsions:
REMARK  status: ('A' for Active; 'I' for Inactive)
ROOT
ATOM      1  C   UNL d   1      -2.972  -0.477  -0.228  0.00  0.00     0.023 A 
ATOM      2  C1  UNL d   1      -2.545   0.023   1.002  0.00  0.00     0.003 A 
ATOM      3  C2  UNL d   1      -1.188   0.001   1.333  0.00  0.00     0.048 A 
ATOM      4  C3  UNL d   1      -0.264  -0.521   0.429  0.00  0.00     0.023 A 
ATOM      5  C4  UNL d   1      -0.687  -1.022  -0.804  0.00  0.00     0.048 A 
ATOM      6  C5  UNL d   1      -2.045  -0.999  -1.129  0.00  0.00     0.003 A 
ATOM      7  I   UNL d   1       1.755  -0.555   0.918  0.00  0.00    -0.146 I 
ENDROOT
TORSDOF 0
ENDMDL
