MODEL 1
REMARK minimizedAffinity -0.72967118
REMARK minimizedRMSD -1
REMARK  0 active torsions:
REMARK  status: ('A' for Active; 'I' for Inactive)
ROOT
ATOM      1  C   UNL d   1      -1.521  -0.350   0.400  0.00  0.00     0.023 A 
ATOM      2  C1  UNL d   1      -0.205  -0.736   0.144  0.00  0.00     0.003 A 
ATOM      3  C2  UNL d   1       0.678  -0.957   1.203  0.00  0.00     0.048 A 
ATOM      4  C3  UNL d   1       0.238  -0.791   2.516  0.00  0.00     0.023 A 
ATOM      5  C4  UNL d   1      -1.078  -0.406   2.777  0.00  0.00     0.048 A 
ATOM      6  C5  UNL d   1      -1.957  -0.186   1.714  0.00  0.00     0.003 A 
ATOM      7  I   UNL d   1       1.550  -1.119   4.094  0.00  0.00    -0.146 I 
ENDROOT
TORSDOF 0
ENDMDL
