MODEL 1
REMARK minimizedAffinity 3.1384356
REMARK minimizedRMSD -1
REMARK  0 active torsions:
REMARK  status: ('A' for Active; 'I' for Inactive)
ROOT
ATOM      1  C   UNL d   1       2.598  -1.544   3.882  0.00  0.00     0.023 A 
ATOM      2  C1  UNL d   1       2.577  -0.972   2.610  0.00  0.00     0.003 A 
ATOM      3  C2  UNL d   1       1.363  -0.591   2.035  0.00  0.00     0.048 A 
ATOM      4  C3  UNL d   1       0.174  -0.784   2.738  0.00  0.00     0.023 A 
ATOM      5  C4  UNL d   1       0.191  -1.355   4.011  0.00  0.00     0.048 A 
ATOM      6  C5  UNL d   1       1.407  -1.735   4.582  0.00  0.00     0.003 A 
ATOM      7  I   UNL d   1      -1.635  -0.218   1.884  0.00  0.00    -0.146 I 
ENDROOT
TORSDOF 0
ENDMDL
