MODEL 1
REMARK minimizedAffinity 4.49491262
REMARK minimizedRMSD -1
REMARK  0 active torsions:
REMARK  status: ('A' for Active; 'I' for Inactive)
ROOT
ATOM      1  C   UNL d   1       2.117  -1.448   4.316  0.00  0.00     0.023 A 
ATOM      2  C1  UNL d   1       2.452  -1.041   3.024  0.00  0.00     0.003 A 
ATOM      3  C2  UNL d   1       1.452  -0.648   2.133  0.00  0.00     0.048 A 
ATOM      4  C3  UNL d   1       0.118  -0.662   2.541  0.00  0.00     0.023 A 
ATOM      5  C4  UNL d   1      -0.222  -1.066   3.832  0.00  0.00     0.048 A 
ATOM      6  C5  UNL d   1       0.782  -1.460   4.719  0.00  0.00     0.003 A 
ATOM      7  I   UNL d   1      -1.373  -0.076   1.216  0.00  0.00    -0.146 I 
ENDROOT
TORSDOF 0
ENDMDL
