MODEL 1
REMARK minimizedAffinity -2.20263195
REMARK minimizedRMSD -1
REMARK  0 active torsions:
REMARK  status: ('A' for Active; 'I' for Inactive)
ROOT
ATOM      1  C   UNL d   1       3.085  -0.535   2.948  0.00  0.00     0.023 A 
ATOM      2  C1  UNL d   1       2.789   0.070   1.726  0.00  0.00     0.003 A 
ATOM      3  C2  UNL d   1       1.466   0.362   1.392  0.00  0.00     0.048 A 
ATOM      4  C3  UNL d   1       0.442   0.048   2.285  0.00  0.00     0.023 A 
ATOM      5  C4  UNL d   1       0.732  -0.557   3.509  0.00  0.00     0.048 A 
ATOM      6  C5  UNL d   1       2.057  -0.848   3.838  0.00  0.00     0.003 A 
ATOM      7  I   UNL d   1      -1.530   0.482   1.790  0.00  0.00    -0.146 I 
ENDROOT
TORSDOF 0
ENDMDL
