MODEL 1
REMARK minimizedAffinity 7.46193314
REMARK minimizedRMSD -1
REMARK  0 active torsions:
REMARK  status: ('A' for Active; 'I' for Inactive)
ROOT
ATOM      1  C   UNL d   1       2.328  -1.370   4.282  0.00  0.00     0.023 A 
ATOM      2  C1  UNL d   1       2.325  -0.993   2.939  0.00  0.00     0.003 A 
ATOM      3  C2  UNL d   1       1.135  -0.593   2.327  0.00  0.00     0.048 A 
ATOM      4  C3  UNL d   1      -0.048  -0.570   3.065  0.00  0.00     0.023 A 
ATOM      5  C4  UNL d   1      -0.049  -0.945   4.410  0.00  0.00     0.048 A 
ATOM      6  C5  UNL d   1       1.143  -1.345   5.017  0.00  0.00     0.003 A 
ATOM      7  I   UNL d   1      -1.820   0.026   2.158  0.00  0.00    -0.146 I 
ENDROOT
TORSDOF 0
ENDMDL
