MODEL 1
REMARK minimizedAffinity 2.21748447
REMARK minimizedRMSD -1
REMARK  0 active torsions:
REMARK  status: ('A' for Active; 'I' for Inactive)
ROOT
ATOM      1  C   UNL d   1      -3.185   0.001  -0.302  0.00  0.00     0.023 A 
ATOM      2  C1  UNL d   1      -2.240  -0.642  -1.102  0.00  0.00     0.003 A 
ATOM      3  C2  UNL d   1      -0.912  -0.735  -0.678  0.00  0.00     0.048 A 
ATOM      4  C3  UNL d   1      -0.537  -0.183   0.546  0.00  0.00     0.023 A 
ATOM      5  C4  UNL d   1      -1.479   0.461   1.350  0.00  0.00     0.048 A 
ATOM      6  C5  UNL d   1      -2.805   0.552   0.922  0.00  0.00     0.003 A 
ATOM      7  I   UNL d   1       1.438  -0.321   1.178  0.00  0.00    -0.146 I 
ENDROOT
TORSDOF 0
ENDMDL
