MODEL 1
REMARK minimizedAffinity -3.05308032
REMARK minimizedRMSD -1
REMARK  0 active torsions:
REMARK  status: ('A' for Active; 'I' for Inactive)
ROOT
ATOM      1  C   UNL d   1      -0.738   0.240   1.280  0.00  0.00     0.023 A 
ATOM      2  C1  UNL d   1      -1.301   0.174   2.554  0.00  0.00     0.003 A 
ATOM      3  C2  UNL d   1      -0.548  -0.303   3.628  0.00  0.00     0.048 A 
ATOM      4  C3  UNL d   1       0.770  -0.710   3.422  0.00  0.00     0.023 A 
ATOM      5  C4  UNL d   1       1.338  -0.645   2.149  0.00  0.00     0.048 A 
ATOM      6  C5  UNL d   1       0.580  -0.169   1.077  0.00  0.00     0.003 A 
ATOM      7  I   UNL d   1       1.894  -1.419   5.020  0.00  0.00    -0.146 I 
ENDROOT
TORSDOF 0
ENDMDL
