MODEL 1
REMARK minimizedAffinity -0.481016278
REMARK minimizedRMSD -1
REMARK  0 active torsions:
REMARK  status: ('A' for Active; 'I' for Inactive)
ROOT
ATOM      1  C   UNL d   1      -0.523  -2.444   5.413  0.00  0.00     0.023 A 
ATOM      2  C1  UNL d   1       0.374  -1.729   4.619  0.00  0.00     0.003 A 
ATOM      3  C2  UNL d   1      -0.100  -0.902   3.598  0.00  0.00     0.048 A 
ATOM      4  C3  UNL d   1      -1.472  -0.794   3.378  0.00  0.00     0.023 A 
ATOM      5  C4  UNL d   1      -2.374  -1.506   4.170  0.00  0.00     0.048 A 
ATOM      6  C5  UNL d   1      -1.896  -2.333   5.188  0.00  0.00     0.003 A 
ATOM      7  I   UNL d   1      -2.180   0.436   1.859  0.00  0.00    -0.146 I 
ENDROOT
TORSDOF 0
ENDMDL
