MODEL 1
REMARK minimizedAffinity 3.68686557
REMARK minimizedRMSD -1
REMARK  0 active torsions:
REMARK  status: ('A' for Active; 'I' for Inactive)
ROOT
ATOM      1  C   UNL d   1      -2.688  -0.613   0.839  0.00  0.00     0.023 A 
ATOM      2  C1  UNL d   1      -2.029  -0.498  -0.385  0.00  0.00     0.003 A 
ATOM      3  C2  UNL d   1      -0.779   0.120  -0.451  0.00  0.00     0.048 A 
ATOM      4  C3  UNL d   1      -0.192   0.619   0.711  0.00  0.00     0.023 A 
ATOM      5  C4  UNL d   1      -0.847   0.505   1.938  0.00  0.00     0.048 A 
ATOM      6  C5  UNL d   1      -2.098  -0.113   1.999  0.00  0.00     0.003 A 
ATOM      7  I   UNL d   1       1.669   1.539   0.615  0.00  0.00    -0.146 I 
ENDROOT
TORSDOF 0
ENDMDL
