MODEL 1
REMARK minimizedAffinity 7.46842194
REMARK minimizedRMSD -1
REMARK  0 active torsions:
REMARK  status: ('A' for Active; 'I' for Inactive)
ROOT
ATOM      1  C   UNL d   1      -3.164  -0.290   0.320  0.00  0.00     0.023 A 
ATOM      2  C1  UNL d   1      -2.370  -1.099  -0.493  0.00  0.00     0.003 A 
ATOM      3  C2  UNL d   1      -0.980  -1.073  -0.361  0.00  0.00     0.048 A 
ATOM      4  C3  UNL d   1      -0.391  -0.236   0.586  0.00  0.00     0.023 A 
ATOM      5  C4  UNL d   1      -1.181   0.575   1.401  0.00  0.00     0.048 A 
ATOM      6  C5  UNL d   1      -2.570   0.546   1.266  0.00  0.00     0.003 A 
ATOM      7  I   UNL d   1       1.678  -0.195   0.784  0.00  0.00    -0.146 I 
ENDROOT
TORSDOF 0
ENDMDL
