MODEL 1
REMARK minimizedAffinity -1.91040099
REMARK minimizedRMSD -1
REMARK  0 active torsions:
REMARK  status: ('A' for Active; 'I' for Inactive)
ROOT
ATOM      1  O1  BZF d   1       0.561   1.659  -0.876  0.00  0.00    -0.204 OA
ATOM      2  C2  BZF d   1       1.344   0.698  -1.486  0.00  0.00     0.174 A 
ATOM      3  C3  BZF d   1       1.394  -0.423  -0.738  0.00  0.00    -0.012 A 
ATOM      4  C3A BZF d   1       0.518  -0.179   0.366  0.00  0.00    -0.107 A 
ATOM      5  C4  BZF d   1       0.135  -0.925   1.444  0.00  0.00     0.055 A 
ATOM      6  C5  BZF d   1      -0.679  -0.366   2.378  0.00  0.00    -0.016 A 
ATOM      7  C6  BZF d   1      -1.123   0.935   2.269  0.00  0.00     0.022 A 
ATOM      8  C7  BZF d   1      -0.775   1.712   1.215  0.00  0.00     0.029 A 
ATOM      9  C7A BZF d   1       0.021   1.140   0.252  0.00  0.00     0.058 A 
ENDROOT
TORSDOF 0
ENDMDL
