MODEL 1
REMARK minimizedAffinity -0.0537679978
REMARK minimizedRMSD -1
REMARK  0 active torsions:
REMARK  status: ('A' for Active; 'I' for Inactive)
ROOT
ATOM      1  O1  BZF d   1      -0.838   1.929   2.805  0.00  0.00    -0.204 OA
ATOM      2  C2  BZF d   1      -0.620   3.165   2.230  0.00  0.00     0.174 A 
ATOM      3  C3  BZF d   1      -0.038   3.034   1.020  0.00  0.00    -0.012 A 
ATOM      4  C3A BZF d   1       0.031   1.624   0.787  0.00  0.00    -0.107 A 
ATOM      5  C4  BZF d   1       0.493   0.866  -0.251  0.00  0.00     0.055 A 
ATOM      6  C5  BZF d   1       0.484  -0.488  -0.134  0.00  0.00    -0.016 A 
ATOM      7  C6  BZF d   1       0.026  -1.116   1.005  0.00  0.00     0.022 A 
ATOM      8  C7  BZF d   1      -0.447  -0.406   2.058  0.00  0.00     0.029 A 
ATOM      9  C7A BZF d   1      -0.470   0.961   1.931  0.00  0.00     0.058 A 
ENDROOT
TORSDOF 0
ENDMDL
