MODEL 1
REMARK minimizedAffinity -5.33719063
REMARK minimizedRMSD -1
REMARK  0 active torsions:
REMARK  status: ('A' for Active; 'I' for Inactive)
ROOT
ATOM      1  O1  BZF d   1       0.702   2.253  -0.914  0.00  0.00    -0.204 OA
ATOM      2  C2  BZF d   1       0.499   3.579  -0.580  0.00  0.00     0.174 A 
ATOM      3  C3  BZF d   1      -0.217   3.681   0.559  0.00  0.00    -0.012 A 
ATOM      4  C3A BZF d   1      -0.398   2.336   1.011  0.00  0.00    -0.107 A 
ATOM      5  C4  BZF d   1      -1.016   1.786   2.098  0.00  0.00     0.055 A 
ATOM      6  C5  BZF d   1      -1.079   0.433   2.208  0.00  0.00    -0.016 A 
ATOM      7  C6  BZF d   1      -0.539  -0.399   1.249  0.00  0.00     0.022 A 
ATOM      8  C7  BZF d   1       0.088   0.100   0.156  0.00  0.00     0.029 A 
ATOM      9  C7A BZF d   1       0.181   1.467   0.058  0.00  0.00     0.058 A 
ENDROOT
TORSDOF 0
ENDMDL
