MODEL 1
REMARK minimizedAffinity -2.46347618
REMARK minimizedRMSD -1
REMARK  0 active torsions:
REMARK  status: ('A' for Active; 'I' for Inactive)
ROOT
ATOM      1  O1  BZF d   1      -0.518   3.252   0.590  0.00  0.00    -0.204 OA
ATOM      2  C2  BZF d   1      -1.195   3.095   1.784  0.00  0.00     0.174 A 
ATOM      3  C3  BZF d   1      -1.211   1.799   2.159  0.00  0.00    -0.012 A 
ATOM      4  C3A BZF d   1      -0.420   1.116   1.182  0.00  0.00    -0.107 A 
ATOM      5  C4  BZF d   1      -0.050  -0.189   1.019  0.00  0.00     0.055 A 
ATOM      6  C5  BZF d   1       0.667  -0.540  -0.081  0.00  0.00    -0.016 A 
ATOM      7  C6  BZF d   1       1.025   0.385  -1.039  0.00  0.00     0.022 A 
ATOM      8  C7  BZF d   1       0.686   1.692  -0.919  0.00  0.00     0.029 A 
ATOM      9  C7A BZF d   1      -0.010   2.056   0.208  0.00  0.00     0.058 A 
ENDROOT
TORSDOF 0
ENDMDL
