MODEL 1
REMARK minimizedAffinity -1.36853862
REMARK minimizedRMSD -1
REMARK  0 active torsions:
REMARK  status: ('A' for Active; 'I' for Inactive)
ROOT
ATOM      1  O1  BZF d   1       1.374  -1.639  -1.978  0.00  0.00    -0.204 OA
ATOM      2  C2  BZF d   1       0.573  -2.705  -2.340  0.00  0.00     0.174 A 
ATOM      3  C3  BZF d   1      -0.373  -2.931  -1.406  0.00  0.00    -0.012 A 
ATOM      4  C3A BZF d   1      -0.207  -1.888  -0.441  0.00  0.00    -0.107 A 
ATOM      5  C4  BZF d   1      -0.860  -1.565   0.714  0.00  0.00     0.055 A 
ATOM      6  C5  BZF d   1      -0.402  -0.527   1.463  0.00  0.00    -0.016 A 
ATOM      7  C6  BZF d   1       0.706   0.205   1.089  0.00  0.00     0.022 A 
ATOM      8  C7  BZF d   1       1.383  -0.075  -0.051  0.00  0.00     0.029 A 
ATOM      9  C7A BZF d   1       0.904  -1.102  -0.826  0.00  0.00     0.058 A 
ENDROOT
TORSDOF 0
ENDMDL
