MODEL 1
REMARK minimizedAffinity -4.39353323
REMARK minimizedRMSD -1
REMARK  0 active torsions:
REMARK  status: ('A' for Active; 'I' for Inactive)
ROOT
ATOM      1  O1  BZF d   1       0.651   2.904  -0.764  0.00  0.00    -0.204 OA
ATOM      2  C2  BZF d   1       0.143   4.001  -0.095  0.00  0.00     0.174 A 
ATOM      3  C3  BZF d   1      -0.522   3.619   1.014  0.00  0.00    -0.012 A 
ATOM      4  C3A BZF d   1      -0.344   2.201   1.091  0.00  0.00    -0.107 A 
ATOM      5  C4  BZF d   1      -0.756   1.250   1.980  0.00  0.00     0.055 A 
ATOM      6  C5  BZF d   1      -0.477  -0.055   1.727  0.00  0.00    -0.016 A 
ATOM      7  C6  BZF d   1       0.206  -0.445   0.594  0.00  0.00     0.022 A 
ATOM      8  C7  BZF d   1       0.639   0.462  -0.315  0.00  0.00     0.029 A 
ATOM      9  C7A BZF d   1       0.387   1.785  -0.046  0.00  0.00     0.058 A 
ENDROOT
TORSDOF 0
ENDMDL
