MODEL 1
REMARK minimizedAffinity -3.4617362
REMARK minimizedRMSD -1
REMARK  0 active torsions:
REMARK  status: ('A' for Active; 'I' for Inactive)
ROOT
ATOM      1  O1  BZF d   1      -0.565  -0.233   0.899  0.00  0.00    -0.204 OA
ATOM      2  C2  BZF d   1      -0.921  -0.102   2.228  0.00  0.00     0.174 A 
ATOM      3  C3  BZF d   1      -0.920   1.194   2.598  0.00  0.00    -0.012 A 
ATOM      4  C3A BZF d   1      -0.629   1.927   1.404  0.00  0.00    -0.107 A 
ATOM      5  C4  BZF d   1      -0.506   3.258   1.126  0.00  0.00     0.055 A 
ATOM      6  C5  BZF d   1      -0.142   3.640  -0.127  0.00  0.00    -0.016 A 
ATOM      7  C6  BZF d   1       0.111   2.719  -1.122  0.00  0.00     0.022 A 
ATOM      8  C7  BZF d   1      -0.002   1.388  -0.895  0.00  0.00     0.029 A 
ATOM      9  C7A BZF d   1      -0.402   1.000   0.361  0.00  0.00     0.058 A 
ENDROOT
TORSDOF 0
ENDMDL
