MODEL 1
REMARK minimizedAffinity -4.30713654
REMARK minimizedRMSD -1
REMARK  0 active torsions:
REMARK  status: ('A' for Active; 'I' for Inactive)
ROOT
ATOM      1  O1  BZF d   1       1.021  -2.725  -1.827  0.00  0.00    -0.204 OA
ATOM      2  C2  BZF d   1       0.377  -2.597  -3.042  0.00  0.00     0.174 A 
ATOM      3  C3  BZF d   1      -0.243  -1.402  -3.132  0.00  0.00    -0.012 A 
ATOM      4  C3A BZF d   1       0.108  -0.706  -1.932  0.00  0.00    -0.107 A 
ATOM      5  C4  BZF d   1      -0.188   0.536  -1.446  0.00  0.00     0.055 A 
ATOM      6  C5  BZF d   1       0.251   0.883  -0.208  0.00  0.00    -0.016 A 
ATOM      7  C6  BZF d   1       0.984   0.013   0.572  0.00  0.00     0.022 A 
ATOM      8  C7  BZF d   1       1.308  -1.227   0.131  0.00  0.00     0.029 A 
ATOM      9  C7A BZF d   1       0.893  -1.569  -1.133  0.00  0.00     0.058 A 
ENDROOT
TORSDOF 0
ENDMDL
