MODEL 1
REMARK minimizedAffinity -4.10741663
REMARK minimizedRMSD -1
REMARK  0 active torsions:
REMARK  status: ('A' for Active; 'I' for Inactive)
ROOT
ATOM      1  O1  BZF d   1       0.389   2.377  -0.704  0.00  0.00    -0.204 OA
ATOM      2  C2  BZF d   1      -0.001   3.573  -0.132  0.00  0.00     0.174 A 
ATOM      3  C3  BZF d   1      -0.611   3.361   1.052  0.00  0.00    -0.012 A 
ATOM      4  C3A BZF d   1      -0.518   1.951   1.275  0.00  0.00    -0.107 A 
ATOM      5  C4  BZF d   1      -0.927   1.132   2.289  0.00  0.00     0.055 A 
ATOM      6  C5  BZF d   1      -0.749  -0.209   2.168  0.00  0.00    -0.016 A 
ATOM      7  C6  BZF d   1      -0.172  -0.766   1.045  0.00  0.00     0.022 A 
ATOM      8  C7  BZF d   1       0.254   0.006   0.016  0.00  0.00     0.029 A 
ATOM      9  C7A BZF d   1       0.106   1.364   0.150  0.00  0.00     0.058 A 
ENDROOT
TORSDOF 0
ENDMDL
