MODEL 1
REMARK minimizedAffinity -2.66994286
REMARK minimizedRMSD -1
REMARK  0 active torsions:
REMARK  status: ('A' for Active; 'I' for Inactive)
ROOT
ATOM      1  O1  BZF d   1       0.368   2.143  -1.203  0.00  0.00    -0.204 OA
ATOM      2  C2  BZF d   1       1.016   1.129  -1.881  0.00  0.00     0.174 A 
ATOM      3  C3  BZF d   1       1.086   0.016  -1.124  0.00  0.00    -0.012 A 
ATOM      4  C3A BZF d   1       0.360   0.326   0.070  0.00  0.00    -0.107 A 
ATOM      5  C4  BZF d   1       0.061  -0.383   1.198  0.00  0.00     0.055 A 
ATOM      6  C5  BZF d   1      -0.604   0.235   2.209  0.00  0.00    -0.016 A 
ATOM      7  C6  BZF d   1      -0.980   1.560   2.128  0.00  0.00     0.022 A 
ATOM      8  C7  BZF d   1      -0.710   2.302   1.027  0.00  0.00     0.029 A 
ATOM      9  C7A BZF d   1      -0.068   1.672  -0.010  0.00  0.00     0.058 A 
ENDROOT
TORSDOF 0
ENDMDL
