MODEL 1
REMARK minimizedAffinity -2.98256063
REMARK minimizedRMSD -1
REMARK  0 active torsions:
REMARK  status: ('A' for Active; 'I' for Inactive)
ROOT
ATOM      1  O1  BZF d   1       0.712   0.645  -1.329  0.00  0.00    -0.204 OA
ATOM      2  C2  BZF d   1       1.317  -0.596  -1.281  0.00  0.00     0.174 A 
ATOM      3  C3  BZF d   1       1.132  -1.172  -0.076  0.00  0.00    -0.012 A 
ATOM      4  C3A BZF d   1       0.285  -0.272   0.646  0.00  0.00    -0.107 A 
ATOM      5  C4  BZF d   1      -0.263  -0.297   1.896  0.00  0.00     0.055 A 
ATOM      6  C5  BZF d   1      -0.983   0.773   2.323  0.00  0.00    -0.016 A 
ATOM      7  C6  BZF d   1      -1.171   1.886   1.530  0.00  0.00     0.022 A 
ATOM      8  C7  BZF d   1      -0.651   1.955   0.280  0.00  0.00     0.029 A 
ATOM      9  C7A BZF d   1       0.050   0.861  -0.167  0.00  0.00     0.058 A 
ENDROOT
TORSDOF 0
ENDMDL
