MODEL 1
REMARK minimizedAffinity 4.53155184
REMARK minimizedRMSD -1
REMARK  0 active torsions:
REMARK  status: ('A' for Active; 'I' for Inactive)
ROOT
ATOM      1  O1  BZF d   1      -0.051   2.543   1.567  0.00  0.00    -0.204 OA
ATOM      2  C2  BZF d   1      -0.514   2.317   2.849  0.00  0.00     0.174 A 
ATOM      3  C3  BZF d   1      -0.641   0.996   3.086  0.00  0.00    -0.012 A 
ATOM      4  C3A BZF d   1      -0.145   0.352   1.909  0.00  0.00    -0.107 A 
ATOM      5  C4  BZF d   1       0.004  -0.955   1.545  0.00  0.00     0.055 A 
ATOM      6  C5  BZF d   1       0.451  -1.247   0.295  0.00  0.00    -0.016 A 
ATOM      7  C6  BZF d   1       0.755  -0.257  -0.616  0.00  0.00     0.022 A 
ATOM      8  C7  BZF d   1       0.628   1.055  -0.300  0.00  0.00     0.029 A 
ATOM      9  C7A BZF d   1       0.208   1.353   0.973  0.00  0.00     0.058 A 
ENDROOT
TORSDOF 0
ENDMDL
