MODEL 1
REMARK minimizedAffinity -0.550222754
REMARK minimizedRMSD -1
REMARK  0 active torsions:
REMARK  status: ('A' for Active; 'I' for Inactive)
ROOT
ATOM      1  O1  BZF d   1      -2.355   1.299   2.156  0.00  0.00    -0.204 OA
ATOM      2  C2  BZF d   1      -2.764   0.460   1.137  0.00  0.00     0.174 A 
ATOM      3  C3  BZF d   1      -1.826  -0.475   0.882  0.00  0.00    -0.012 A 
ATOM      4  C3A BZF d   1      -0.804  -0.261   1.860  0.00  0.00    -0.107 A 
ATOM      5  C4  BZF d   1       0.381  -0.882   2.132  0.00  0.00     0.055 A 
ATOM      6  C5  BZF d   1       1.181  -0.381   3.109  0.00  0.00    -0.016 A 
ATOM      7  C6  BZF d   1       0.830   0.741   3.830  0.00  0.00     0.022 A 
ATOM      8  C7  BZF d   1      -0.338   1.389   3.600  0.00  0.00     0.029 A 
ATOM      9  C7A BZF d   1      -1.164   0.866   2.635  0.00  0.00     0.058 A 
ENDROOT
TORSDOF 0
ENDMDL
