MODEL 1
REMARK minimizedAffinity -3.05626845
REMARK minimizedRMSD -1
REMARK  0 active torsions:
REMARK  status: ('A' for Active; 'I' for Inactive)
ROOT
ATOM      1  O1  BZF d   1       0.392   2.649  -0.733  0.00  0.00    -0.204 OA
ATOM      2  C2  BZF d   1       0.067   3.739   0.051  0.00  0.00     0.174 A 
ATOM      3  C3  BZF d   1      -0.485   3.343   1.216  0.00  0.00    -0.012 A 
ATOM      4  C3A BZF d   1      -0.422   1.913   1.195  0.00  0.00    -0.107 A 
ATOM      5  C4  BZF d   1      -0.799   0.944   2.079  0.00  0.00     0.055 A 
ATOM      6  C5  BZF d   1      -0.667  -0.361   1.725  0.00  0.00    -0.016 A 
ATOM      7  C6  BZF d   1      -0.166  -0.732   0.494  0.00  0.00     0.022 A 
ATOM      8  C7  BZF d   1       0.226   0.193  -0.414  0.00  0.00     0.029 A 
ATOM      9  C7A BZF d   1       0.125   1.513  -0.046  0.00  0.00     0.058 A 
ENDROOT
TORSDOF 0
ENDMDL
