MODEL 1
REMARK minimizedAffinity 5.62593555
REMARK minimizedRMSD -1
REMARK  0 active torsions:
REMARK  status: ('A' for Active; 'I' for Inactive)
ROOT
ATOM      1  O1  BZF d   1      -0.675   0.639  -0.479  0.00  0.00    -0.204 OA
ATOM      2  C2  BZF d   1       0.192  -0.212  -1.136  0.00  0.00     0.174 A 
ATOM      3  C3  BZF d   1       0.870  -0.977  -0.255  0.00  0.00    -0.012 A 
ATOM      4  C3A BZF d   1       0.330  -0.643   1.027  0.00  0.00    -0.107 A 
ATOM      5  C4  BZF d   1       0.584  -1.081   2.295  0.00  0.00     0.055 A 
ATOM      6  C5  BZF d   1      -0.067  -0.499   3.337  0.00  0.00    -0.016 A 
ATOM      7  C6  BZF d   1      -0.972   0.524   3.147  0.00  0.00     0.022 A 
ATOM      8  C7  BZF d   1      -1.261   0.988   1.907  0.00  0.00     0.029 A 
ATOM      9  C7A BZF d   1      -0.630   0.380   0.850  0.00  0.00     0.058 A 
ENDROOT
TORSDOF 0
ENDMDL
