MODEL 1
REMARK minimizedAffinity -2.3681674
REMARK minimizedRMSD -1
REMARK  0 active torsions:
REMARK  status: ('A' for Active; 'I' for Inactive)
ROOT
ATOM      1  O1  BZF d   1       0.359  -0.013  -2.595  0.00  0.00    -0.204 OA
ATOM      2  C2  BZF d   1       0.877   0.458  -1.404  0.00  0.00     0.174 A 
ATOM      3  C3  BZF d   1       1.111  -0.559  -0.549  0.00  0.00    -0.012 A 
ATOM      4  C3A BZF d   1       0.801  -1.747  -1.284  0.00  0.00    -0.107 A 
ATOM      5  C4  BZF d   1       0.849  -3.078  -0.980  0.00  0.00     0.055 A 
ATOM      6  C5  BZF d   1       0.410  -3.980  -1.897  0.00  0.00    -0.016 A 
ATOM      7  C6  BZF d   1      -0.087  -3.588  -3.122  0.00  0.00     0.022 A 
ATOM      8  C7  BZF d   1      -0.150  -2.279  -3.470  0.00  0.00     0.029 A 
ATOM      9  C7A BZF d   1       0.324  -1.367  -2.559  0.00  0.00     0.058 A 
ENDROOT
TORSDOF 0
ENDMDL
