MODEL 1
REMARK minimizedAffinity 6.20948982
REMARK minimizedRMSD -1
REMARK  1 active torsions:
REMARK  status: ('A' for Active; 'I' for Inactive)
REMARK    1  A    between atoms: C3_4  and  O_7 
ROOT
ATOM      1  C   UNL d   1       5.996  -4.504  -4.841  0.00  0.00    -0.033 A 
ATOM      2  C1  UNL d   1       4.925  -3.985  -4.112  0.00  0.00     0.039 A 
ATOM      3  C2  UNL d   1       3.633  -4.470  -4.324  0.00  0.00    -0.080 A 
ATOM      4  C3  UNL d   1       3.427  -5.473  -5.267  0.00  0.00     0.150 A 
ATOM      5  C4  UNL d   1       4.490  -5.998  -5.994  0.00  0.00    -0.007 A 
ATOM      6  C5  UNL d   1       5.779  -5.511  -5.782  0.00  0.00     0.039 A 
ENDROOT
BRANCH   4   7
ATOM      7  O   UNL d   1       2.183  -5.975  -5.513  0.00  0.00    -0.526 OA
ATOM      8  H5  UNL d   1       1.544  -5.498  -4.958  0.00  0.00     0.418 HD
ENDBRANCH   4   7
TORSDOF 1
ENDMDL
