MODEL 1
REMARK minimizedAffinity 5.8512516
REMARK minimizedRMSD -1
REMARK  1 active torsions:
REMARK  status: ('A' for Active; 'I' for Inactive)
REMARK    1  A    between atoms: C3_4  and  O_7 
ROOT
ATOM      1  C   UNL d   1       5.995  -4.516  -5.250  0.00  0.00    -0.033 A 
ATOM      2  C1  UNL d   1       5.061  -3.768  -4.530  0.00  0.00     0.039 A 
ATOM      3  C2  UNL d   1       3.713  -4.134  -4.541  0.00  0.00    -0.080 A 
ATOM      4  C3  UNL d   1       3.313  -5.248  -5.275  0.00  0.00     0.150 A 
ATOM      5  C4  UNL d   1       4.239  -5.999  -5.991  0.00  0.00    -0.007 A 
ATOM      6  C5  UNL d   1       5.584  -5.632  -5.980  0.00  0.00     0.039 A 
ENDROOT
BRANCH   4   7
ATOM      7  O   UNL d   1       2.009  -5.640  -5.320  0.00  0.00    -0.526 OA
ATOM      8  H5  UNL d   1       1.480  -5.011  -4.801  0.00  0.00     0.418 HD
ENDBRANCH   4   7
TORSDOF 1
ENDMDL
