MODEL 1
REMARK minimizedAffinity 5.84892225
REMARK minimizedRMSD -1
REMARK  1 active torsions:
REMARK  status: ('A' for Active; 'I' for Inactive)
REMARK    1  A    between atoms: C3_4  and  O_7 
ROOT
ATOM      1  C   UNL d   1       3.144   1.640   2.988  0.00  0.00    -0.033 A 
ATOM      2  C1  UNL d   1       2.483   1.942   1.796  0.00  0.00     0.039 A 
ATOM      3  C2  UNL d   1       3.214   2.287   0.658  0.00  0.00    -0.080 A 
ATOM      4  C3  UNL d   1       4.604   2.325   0.725  0.00  0.00     0.150 A 
ATOM      5  C4  UNL d   1       5.270   2.022   1.908  0.00  0.00    -0.007 A 
ATOM      6  C5  UNL d   1       4.537   1.679   3.044  0.00  0.00     0.039 A 
ENDROOT
BRANCH   4   7
ATOM      7  O   UNL d   1       5.361   2.661  -0.358  0.00  0.00    -0.526 OA
ATOM      8  H5  UNL d   1       4.765   2.873  -1.096  0.00  0.00     0.418 HD
ENDBRANCH   4   7
TORSDOF 1
ENDMDL
