MODEL 1
REMARK minimizedAffinity 1.44338572
REMARK minimizedRMSD -1
REMARK  1 active torsions:
REMARK  status: ('A' for Active; 'I' for Inactive)
REMARK    1  A    between atoms: C3_4  and  O_7 
ROOT
ATOM      1  C   UNL d   1       2.647   2.550  -0.061  0.00  0.00    -0.033 A 
ATOM      2  C1  UNL d   1       1.706   3.451  -0.563  0.00  0.00     0.039 A 
ATOM      3  C2  UNL d   1       0.417   3.487  -0.028  0.00  0.00    -0.080 A 
ATOM      4  C3  UNL d   1       0.083   2.619   1.008  0.00  0.00     0.150 A 
ATOM      5  C4  UNL d   1       1.016   1.721   1.516  0.00  0.00    -0.007 A 
ATOM      6  C5  UNL d   1       2.303   1.686   0.979  0.00  0.00     0.039 A 
ENDROOT
BRANCH   4   7
ATOM      7  O   UNL d   1      -1.164   2.614   1.559  0.00  0.00    -0.526 OA
ATOM      8  H5  UNL d   1      -1.711   3.266   1.089  0.00  0.00     0.418 HD
ENDBRANCH   4   7
TORSDOF 1
ENDMDL
