MODEL 1
REMARK minimizedAffinity 3.18810654
REMARK minimizedRMSD -1
REMARK  1 active torsions:
REMARK  status: ('A' for Active; 'I' for Inactive)
REMARK    1  A    between atoms: C3_4  and  O_7 
ROOT
ATOM      1  C   UNL d   1      -1.716   2.517   1.257  0.00  0.00    -0.033 A 
ATOM      2  C1  UNL d   1      -1.021   3.071   0.180  0.00  0.00     0.039 A 
ATOM      3  C2  UNL d   1       0.371   2.978   0.123  0.00  0.00    -0.080 A 
ATOM      4  C3  UNL d   1       1.055   2.329   1.148  0.00  0.00     0.150 A 
ATOM      5  C4  UNL d   1       0.368   1.772   2.222  0.00  0.00    -0.007 A 
ATOM      6  C5  UNL d   1      -1.022   1.866   2.277  0.00  0.00     0.039 A 
ENDROOT
BRANCH   4   7
ATOM      7  O   UNL d   1       2.413   2.218   1.139  0.00  0.00    -0.526 OA
ATOM      8  H5  UNL d   1       2.754   2.674   0.352  0.00  0.00     0.418 HD
ENDBRANCH   4   7
TORSDOF 1
ENDMDL
