MODEL 1
REMARK minimizedAffinity 1.86965573
REMARK minimizedRMSD -1
REMARK  1 active torsions:
REMARK  status: ('A' for Active; 'I' for Inactive)
REMARK    1  A    between atoms: C3_4  and  O_7 
ROOT
ATOM      1  C   UNL d   1       1.474   1.830   0.374  0.00  0.00    -0.033 A 
ATOM      2  C1  UNL d   1       2.719   1.529   0.927  0.00  0.00     0.039 A 
ATOM      3  C2  UNL d   1       2.888   1.530   2.314  0.00  0.00    -0.080 A 
ATOM      4  C3  UNL d   1       1.804   1.832   3.133  0.00  0.00     0.150 A 
ATOM      5  C4  UNL d   1       0.559   2.129   2.588  0.00  0.00    -0.007 A 
ATOM      6  C5  UNL d   1       0.393   2.129   1.204  0.00  0.00     0.039 A 
ENDROOT
BRANCH   4   7
ATOM      7  O   UNL d   1       1.921   1.850   4.491  0.00  0.00    -0.526 OA
ATOM      8  H5  UNL d   1       2.844   1.654   4.723  0.00  0.00     0.418 HD
ENDBRANCH   4   7
TORSDOF 1
ENDMDL
