MODEL 1
REMARK minimizedAffinity 1.45947313
REMARK minimizedRMSD -1
REMARK  1 active torsions:
REMARK  status: ('A' for Active; 'I' for Inactive)
REMARK    1  A    between atoms: C3_4  and  O_7 
ROOT
ATOM      1  C   UNL d   1       5.914   3.311   0.758  0.00  0.00    -0.033 A 
ATOM      2  C1  UNL d   1       5.086   4.259   1.363  0.00  0.00     0.039 A 
ATOM      3  C2  UNL d   1       3.705   4.061   1.399  0.00  0.00    -0.080 A 
ATOM      4  C3  UNL d   1       3.164   2.912   0.829  0.00  0.00     0.150 A 
ATOM      5  C4  UNL d   1       3.982   1.962   0.228  0.00  0.00    -0.007 A 
ATOM      6  C5  UNL d   1       5.362   2.161   0.192  0.00  0.00     0.039 A 
ENDROOT
BRANCH   4   7
ATOM      7  O   UNL d   1       1.821   2.678   0.836  0.00  0.00    -0.526 OA
ATOM      8  H5  UNL d   1       1.379   3.433   1.258  0.00  0.00     0.418 HD
ENDBRANCH   4   7
TORSDOF 1
ENDMDL
