MODEL 1
REMARK minimizedAffinity 8.36725044
REMARK minimizedRMSD -1
REMARK  1 active torsions:
REMARK  status: ('A' for Active; 'I' for Inactive)
REMARK    1  A    between atoms: C3_4  and  O_7 
ROOT
ATOM      1  C   UNL d   1       1.549   1.188   1.670  0.00  0.00    -0.033 A 
ATOM      2  C1  UNL d   1       1.139   0.861   2.964  0.00  0.00     0.039 A 
ATOM      3  C2  UNL d   1       2.038   0.958   4.028  0.00  0.00    -0.080 A 
ATOM      4  C3  UNL d   1       3.341   1.383   3.785  0.00  0.00     0.150 A 
ATOM      5  C4  UNL d   1       3.755   1.714   2.499  0.00  0.00    -0.007 A 
ATOM      6  C5  UNL d   1       2.856   1.616   1.438  0.00  0.00     0.039 A 
ENDROOT
BRANCH   4   7
ATOM      7  O   UNL d   1       4.256   1.489   4.791  0.00  0.00    -0.526 OA
ATOM      8  H5  UNL d   1       3.837   1.201   5.619  0.00  0.00     0.418 HD
ENDBRANCH   4   7
TORSDOF 1
ENDMDL
