MODEL 1
REMARK minimizedAffinity 4.9637537
REMARK minimizedRMSD -1
REMARK  1 active torsions:
REMARK  status: ('A' for Active; 'I' for Inactive)
REMARK    1  A    between atoms: C3_4  and  O_7 
ROOT
ATOM      1  C   UNL d   1       1.725   1.363   0.646  0.00  0.00    -0.033 A 
ATOM      2  C1  UNL d   1       1.400   1.694   1.963  0.00  0.00     0.039 A 
ATOM      3  C2  UNL d   1       2.377   1.645   2.959  0.00  0.00    -0.080 A 
ATOM      4  C3  UNL d   1       3.674   1.264   2.626  0.00  0.00     0.150 A 
ATOM      5  C4  UNL d   1       4.006   0.937   1.315  0.00  0.00    -0.007 A 
ATOM      6  C5  UNL d   1       3.029   0.986   0.322  0.00  0.00     0.039 A 
ENDROOT
BRANCH   4   7
ATOM      7  O   UNL d   1       4.660   1.196   3.564  0.00  0.00    -0.526 OA
ATOM      8  H5  UNL d   1       4.278   1.422   4.429  0.00  0.00     0.418 HD
ENDBRANCH   4   7
TORSDOF 1
ENDMDL
