MODEL 1
REMARK minimizedAffinity 0.981532156
REMARK minimizedRMSD -1
REMARK  1 active torsions:
REMARK  status: ('A' for Active; 'I' for Inactive)
REMARK    1  A    between atoms: C3_4  and  O_7 
ROOT
ATOM      1  C   UNL d   1       5.365   3.820   5.993  0.00  0.00    -0.033 A 
ATOM      2  C1  UNL d   1       5.614   5.194   5.996  0.00  0.00     0.039 A 
ATOM      3  C2  UNL d   1       5.414   5.944   4.836  0.00  0.00    -0.080 A 
ATOM      4  C3  UNL d   1       4.965   5.310   3.681  0.00  0.00     0.150 A 
ATOM      5  C4  UNL d   1       4.711   3.942   3.672  0.00  0.00    -0.007 A 
ATOM      6  C5  UNL d   1       4.912   3.194   4.831  0.00  0.00     0.039 A 
ENDROOT
BRANCH   4   7
ATOM      7  O   UNL d   1       4.760   6.000   2.523  0.00  0.00    -0.526 OA
ATOM      8  H5  UNL d   1       5.004   6.929   2.671  0.00  0.00     0.418 HD
ENDBRANCH   4   7
TORSDOF 1
ENDMDL
