MODEL 1
REMARK minimizedAffinity -4.6157546
REMARK minimizedRMSD -1
REMARK  1 active torsions:
REMARK  status: ('A' for Active; 'I' for Inactive)
REMARK    1  A    between atoms: C3_4  and  O_7 
ROOT
ATOM      1  C   UNL d   1       0.025   1.727  -5.175  0.00  0.00    -0.033 A 
ATOM      2  C1  UNL d   1       0.597   2.699  -5.998  0.00  0.00     0.039 A 
ATOM      3  C2  UNL d   1       1.766   3.352  -5.603  0.00  0.00    -0.080 A 
ATOM      4  C3  UNL d   1       2.354   3.023  -4.385  0.00  0.00     0.150 A 
ATOM      5  C4  UNL d   1       1.792   2.052  -3.561  0.00  0.00    -0.007 A 
ATOM      6  C5  UNL d   1       0.624   1.402  -3.957  0.00  0.00     0.039 A 
ENDROOT
BRANCH   4   7
ATOM      7  O   UNL d   1       3.493   3.636  -3.954  0.00  0.00    -0.526 OA
ATOM      8  H5  UNL d   1       3.750   4.303  -4.612  0.00  0.00     0.418 HD
ENDBRANCH   4   7
TORSDOF 1
ENDMDL
