MODEL 1
REMARK minimizedAffinity 4.24521494
REMARK minimizedRMSD -1
REMARK  1 active torsions:
REMARK  status: ('A' for Active; 'I' for Inactive)
REMARK    1  A    between atoms: C3_4  and  O_7 
ROOT
ATOM      1  C   UNL d   1       0.531   2.238   2.802  0.00  0.00    -0.033 A 
ATOM      2  C1  UNL d   1      -0.802   2.598   2.597  0.00  0.00     0.039 A 
ATOM      3  C2  UNL d   1      -1.216   3.072   1.351  0.00  0.00    -0.080 A 
ATOM      4  C3  UNL d   1      -0.288   3.181   0.319  0.00  0.00     0.150 A 
ATOM      5  C4  UNL d   1       1.041   2.821   0.515  0.00  0.00    -0.007 A 
ATOM      6  C5  UNL d   1       1.452   2.348   1.760  0.00  0.00     0.039 A 
ENDROOT
BRANCH   4   7
ATOM      7  O   UNL d   1      -0.644   3.644  -0.913  0.00  0.00    -0.526 OA
ATOM      8  H5  UNL d   1      -1.586   3.881  -0.893  0.00  0.00     0.418 HD
ENDBRANCH   4   7
TORSDOF 1
ENDMDL
