MODEL 1
REMARK minimizedAffinity -0.285847127
REMARK minimizedRMSD -1
REMARK  1 active torsions:
REMARK  status: ('A' for Active; 'I' for Inactive)
REMARK    1  A    between atoms: C3_4  and  O_7 
ROOT
ATOM      1  C   UNL d   1       3.729   4.923   2.008  0.00  0.00    -0.033 A 
ATOM      2  C1  UNL d   1       4.491   5.996   1.541  0.00  0.00     0.039 A 
ATOM      3  C2  UNL d   1       5.259   5.858   0.384  0.00  0.00    -0.080 A 
ATOM      4  C3  UNL d   1       5.256   4.644  -0.298  0.00  0.00     0.150 A 
ATOM      5  C4  UNL d   1       4.496   3.572   0.159  0.00  0.00    -0.007 A 
ATOM      6  C5  UNL d   1       3.730   3.711   1.316  0.00  0.00     0.039 A 
ENDROOT
BRANCH   4   7
ATOM      7  O   UNL d   1       5.993   4.460  -1.429  0.00  0.00    -0.526 OA
ATOM      8  H5  UNL d   1       6.489   5.276  -1.610  0.00  0.00     0.418 HD
ENDBRANCH   4   7
TORSDOF 1
ENDMDL
