MODEL 1
REMARK minimizedAffinity 5.47082949
REMARK minimizedRMSD -1
REMARK  1 active torsions:
REMARK  status: ('A' for Active; 'I' for Inactive)
REMARK    1  A    between atoms: C3_4  and  O_7 
ROOT
ATOM      1  C   UNL d   1       5.033   6.000   1.639  0.00  0.00    -0.033 A 
ATOM      2  C1  UNL d   1       5.584   4.815   1.146  0.00  0.00     0.039 A 
ATOM      3  C2  UNL d   1       4.852   3.627   1.201  0.00  0.00    -0.080 A 
ATOM      4  C3  UNL d   1       3.573   3.637   1.749  0.00  0.00     0.150 A 
ATOM      5  C4  UNL d   1       3.016   4.815   2.238  0.00  0.00    -0.007 A 
ATOM      6  C5  UNL d   1       3.748   6.000   2.183  0.00  0.00     0.039 A 
ENDROOT
BRANCH   4   7
ATOM      7  O   UNL d   1       2.822   2.502   1.829  0.00  0.00    -0.526 OA
ATOM      8  H5  UNL d   1       3.346   1.762   1.479  0.00  0.00     0.418 HD
ENDBRANCH   4   7
TORSDOF 1
ENDMDL
