MODEL 1
REMARK minimizedAffinity 6.14217329
REMARK minimizedRMSD -1
REMARK  1 active torsions:
REMARK  status: ('A' for Active; 'I' for Inactive)
REMARK    1  A    between atoms: C3_4  and  O_7 
ROOT
ATOM      1  C   UNL d   1      -1.587   2.774   1.599  0.00  0.00    -0.033 A 
ATOM      2  C1  UNL d   1      -0.990   2.262   2.753  0.00  0.00     0.039 A 
ATOM      3  C2  UNL d   1       0.323   1.789   2.710  0.00  0.00    -0.080 A 
ATOM      4  C3  UNL d   1       1.027   1.836   1.510  0.00  0.00     0.150 A 
ATOM      5  C4  UNL d   1       0.440   2.348   0.358  0.00  0.00    -0.007 A 
ATOM      6  C5  UNL d   1      -0.872   2.819   0.403  0.00  0.00     0.039 A 
ENDROOT
BRANCH   4   7
ATOM      7  O   UNL d   1       2.309   1.382   1.419  0.00  0.00    -0.526 OA
ATOM      8  H5  UNL d   1       2.574   1.030   2.285  0.00  0.00     0.418 HD
ENDBRANCH   4   7
TORSDOF 1
ENDMDL
