MODEL 1
REMARK minimizedAffinity -3.25181127
REMARK minimizedRMSD -1
REMARK  0 active torsions:
REMARK  status: ('A' for Active; 'I' for Inactive)
ROOT
ATOM      1  O1  BZF d   1      -2.357  -0.042  -1.481  0.00  0.00    -0.204 OA
ATOM      2  C2  BZF d   1      -1.846   0.914  -2.338  0.00  0.00     0.174 A 
ATOM      3  C3  BZF d   1      -0.552   1.168  -2.054  0.00  0.00    -0.012 A 
ATOM      4  C3A BZF d   1      -0.209   0.250  -1.011  0.00  0.00    -0.107 A 
ATOM      5  C4  BZF d   1       0.942   0.005  -0.318  0.00  0.00     0.055 A 
ATOM      6  C5  BZF d   1       0.924  -0.909   0.688  0.00  0.00    -0.016 A 
ATOM      7  C6  BZF d   1      -0.225  -1.590   1.031  0.00  0.00     0.022 A 
ATOM      8  C7  BZF d   1      -1.390  -1.384   0.369  0.00  0.00     0.029 A 
ATOM      9  C7A BZF d   1      -1.367  -0.485  -0.670  0.00  0.00     0.058 A 
ENDROOT
TORSDOF 0
ENDMDL
