MODEL 1
REMARK minimizedAffinity -1.47690439
REMARK minimizedRMSD -1
REMARK  0 active torsions:
REMARK  status: ('A' for Active; 'I' for Inactive)
ROOT
ATOM      1  O1  BZF d   1      -1.711  -1.519   0.716  0.00  0.00    -0.204 OA
ATOM      2  C2  BZF d   1      -2.694  -1.534  -0.255  0.00  0.00     0.174 A 
ATOM      3  C3  BZF d   1      -2.354  -0.741  -1.292  0.00  0.00    -0.012 A 
ATOM      4  C3A BZF d   1      -1.038  -0.269  -0.989  0.00  0.00    -0.107 A 
ATOM      5  C4  BZF d   1      -0.158   0.544  -1.644  0.00  0.00     0.055 A 
ATOM      6  C5  BZF d   1       1.017   0.867  -1.043  0.00  0.00    -0.016 A 
ATOM      7  C6  BZF d   1       1.342   0.399   0.214  0.00  0.00     0.022 A 
ATOM      8  C7  BZF d   1       0.503  -0.414   0.901  0.00  0.00     0.029 A 
ATOM      9  C7A BZF d   1      -0.670  -0.769   0.282  0.00  0.00     0.058 A 
ENDROOT
TORSDOF 0
ENDMDL
