MODEL 1
REMARK minimizedAffinity -0.362740427
REMARK minimizedRMSD -1
REMARK  0 active torsions:
REMARK  status: ('A' for Active; 'I' for Inactive)
ROOT
ATOM      1  O1  BZF d   1      -1.062  -2.353   1.045  0.00  0.00    -0.204 OA
ATOM      2  C2  BZF d   1      -0.017  -2.670   1.891  0.00  0.00     0.174 A 
ATOM      3  C3  BZF d   1       1.022  -1.831   1.703  0.00  0.00    -0.012 A 
ATOM      4  C3A BZF d   1       0.565  -0.876   0.740  0.00  0.00    -0.107 A 
ATOM      5  C4  BZF d   1       1.139   0.218   0.157  0.00  0.00     0.055 A 
ATOM      6  C5  BZF d   1       0.450   0.893  -0.800  0.00  0.00    -0.016 A 
ATOM      7  C6  BZF d   1      -0.810   0.501  -1.202  0.00  0.00     0.022 A 
ATOM      8  C7  BZF d   1      -1.422  -0.575  -0.649  0.00  0.00     0.029 A 
ATOM      9  C7A BZF d   1      -0.742  -1.241   0.342  0.00  0.00     0.058 A 
ENDROOT
TORSDOF 0
ENDMDL
