MODEL 1
REMARK minimizedAffinity -2.75352788
REMARK minimizedRMSD -1
REMARK  0 active torsions:
REMARK  status: ('A' for Active; 'I' for Inactive)
ROOT
ATOM      1  O1  BZF d   1       0.782  -0.902   1.095  0.00  0.00    -0.204 OA
ATOM      2  C2  BZF d   1       0.263  -0.648  -0.160  0.00  0.00     0.174 A 
ATOM      3  C3  BZF d   1       0.608   0.586  -0.579  0.00  0.00    -0.012 A 
ATOM      4  C3A BZF d   1       1.469   1.103   0.440  0.00  0.00    -0.107 A 
ATOM      5  C4  BZF d   1       2.146   2.280   0.590  0.00  0.00     0.055 A 
ATOM      6  C5  BZF d   1       2.840   2.501   1.737  0.00  0.00    -0.016 A 
ATOM      7  C6  BZF d   1       2.874   1.572   2.756  0.00  0.00     0.022 A 
ATOM      8  C7  BZF d   1       2.223   0.388   2.651  0.00  0.00     0.029 A 
ATOM      9  C7A BZF d   1       1.548   0.147   1.479  0.00  0.00     0.058 A 
ENDROOT
TORSDOF 0
ENDMDL
