MODEL 1
REMARK minimizedAffinity -1.33361232
REMARK minimizedRMSD -1
REMARK  0 active torsions:
REMARK  status: ('A' for Active; 'I' for Inactive)
ROOT
ATOM      1  O1  BZF d   1       2.912   0.227   1.169  0.00  0.00    -0.204 OA
ATOM      2  C2  BZF d   1       2.971   1.415   0.466  0.00  0.00     0.174 A 
ATOM      3  C3  BZF d   1       1.818   1.637  -0.196  0.00  0.00    -0.012 A 
ATOM      4  C3A BZF d   1       0.952   0.564   0.186  0.00  0.00    -0.107 A 
ATOM      5  C4  BZF d   1      -0.337   0.240  -0.128  0.00  0.00     0.055 A 
ATOM      6  C5  BZF d   1      -0.864  -0.915   0.356  0.00  0.00    -0.016 A 
ATOM      7  C6  BZF d   1      -0.131  -1.770   1.152  0.00  0.00     0.022 A 
ATOM      8  C7  BZF d   1       1.149  -1.489   1.496  0.00  0.00     0.029 A 
ATOM      9  C7A BZF d   1       1.675  -0.306   1.035  0.00  0.00     0.058 A 
ENDROOT
TORSDOF 0
ENDMDL
