MODEL 1
REMARK minimizedAffinity -1.66645646
REMARK minimizedRMSD -1
REMARK  0 active torsions:
REMARK  status: ('A' for Active; 'I' for Inactive)
ROOT
ATOM      1  O1  BZF d   1       0.261   0.759   1.233  0.00  0.00    -0.204 OA
ATOM      2  C2  BZF d   1       0.506  -0.309   0.391  0.00  0.00     0.174 A 
ATOM      3  C3  BZF d   1       1.683  -0.153  -0.249  0.00  0.00    -0.012 A 
ATOM      4  C3A BZF d   1       2.249   1.046   0.290  0.00  0.00    -0.107 A 
ATOM      5  C4  BZF d   1       3.416   1.717   0.065  0.00  0.00     0.055 A 
ATOM      6  C5  BZF d   1       3.634   2.897   0.703  0.00  0.00    -0.016 A 
ATOM      7  C6  BZF d   1       2.705   3.436   1.568  0.00  0.00     0.022 A 
ATOM      8  C7  BZF d   1       1.534   2.804   1.827  0.00  0.00     0.029 A 
ATOM      9  C7A BZF d   1       1.326   1.596   1.209  0.00  0.00     0.058 A 
ENDROOT
TORSDOF 0
ENDMDL
