MODEL 1
REMARK minimizedAffinity 13.5290289
REMARK minimizedRMSD -1
REMARK  0 active torsions:
REMARK  status: ('A' for Active; 'I' for Inactive)
ROOT
ATOM      1  O1  BZF d   1       1.137  -0.633   0.029  0.00  0.00    -0.204 OA
ATOM      2  C2  BZF d   1       1.216  -1.162   1.303  0.00  0.00     0.174 A 
ATOM      3  C3  BZF d   1       0.016  -1.631   1.702  0.00  0.00    -0.012 A 
ATOM      4  C3A BZF d   1      -0.847  -1.464   0.573  0.00  0.00    -0.107 A 
ATOM      5  C4  BZF d   1      -2.162  -1.756   0.344  0.00  0.00     0.055 A 
ATOM      6  C5  BZF d   1      -2.721  -1.399  -0.842  0.00  0.00    -0.016 A 
ATOM      7  C6  BZF d   1      -1.999  -0.745  -1.818  0.00  0.00     0.022 A 
ATOM      8  C7  BZF d   1      -0.691  -0.437  -1.639  0.00  0.00     0.029 A 
ATOM      9  C7A BZF d   1      -0.114  -0.826  -0.454  0.00  0.00     0.058 A 
ENDROOT
TORSDOF 0
ENDMDL
