MODEL 1
REMARK minimizedAffinity 4.20696878
REMARK minimizedRMSD -1
REMARK  0 active torsions:
REMARK  status: ('A' for Active; 'I' for Inactive)
ROOT
ATOM      1  O1  BZF d   1      -3.253  -0.712  -1.621  0.00  0.00    -0.204 OA
ATOM      2  C2  BZF d   1      -2.408   0.173  -2.263  0.00  0.00     0.174 A 
ATOM      3  C3  BZF d   1      -1.250   0.305  -1.586  0.00  0.00    -0.012 A 
ATOM      4  C3A BZF d   1      -1.341  -0.621  -0.499  0.00  0.00    -0.107 A 
ATOM      5  C4  BZF d   1      -0.495  -0.963   0.517  0.00  0.00     0.055 A 
ATOM      6  C5  BZF d   1      -0.916  -1.850   1.457  0.00  0.00    -0.016 A 
ATOM      7  C6  BZF d   1      -2.176  -2.409   1.415  0.00  0.00     0.022 A 
ATOM      8  C7  BZF d   1      -3.049  -2.104   0.424  0.00  0.00     0.029 A 
ATOM      9  C7A BZF d   1      -2.615  -1.234  -0.546  0.00  0.00     0.058 A 
ENDROOT
TORSDOF 0
ENDMDL
