MODEL 1
REMARK minimizedAffinity -1.1730355
REMARK minimizedRMSD -1
REMARK  0 active torsions:
REMARK  status: ('A' for Active; 'I' for Inactive)
ROOT
ATOM      1  O1  BZF d   1       1.127  -0.136   1.086  0.00  0.00    -0.204 OA
ATOM      2  C2  BZF d   1       1.804   0.991   0.661  0.00  0.00     0.174 A 
ATOM      3  C3  BZF d   1       1.258   1.479  -0.471  0.00  0.00    -0.012 A 
ATOM      4  C3A BZF d   1       0.115   0.656  -0.723  0.00  0.00    -0.107 A 
ATOM      5  C4  BZF d   1      -0.843   0.652  -1.696  0.00  0.00     0.055 A 
ATOM      6  C5  BZF d   1      -1.781  -0.332  -1.696  0.00  0.00    -0.016 A 
ATOM      7  C6  BZF d   1      -1.787  -1.329  -0.742  0.00  0.00     0.022 A 
ATOM      8  C7  BZF d   1      -0.860  -1.364   0.245  0.00  0.00     0.029 A 
ATOM      9  C7A BZF d   1       0.069  -0.353   0.267  0.00  0.00     0.058 A 
ENDROOT
TORSDOF 0
ENDMDL
