MODEL 1
REMARK minimizedAffinity -4.32513809
REMARK minimizedRMSD -1
REMARK  0 active torsions:
REMARK  status: ('A' for Active; 'I' for Inactive)
ROOT
ATOM      1  O1  BZF d   1      -1.874  -1.142  -0.745  0.00  0.00    -0.204 OA
ATOM      2  C2  BZF d   1      -2.101  -0.048  -1.557  0.00  0.00     0.174 A 
ATOM      3  C3  BZF d   1      -1.108   0.856  -1.432  0.00  0.00    -0.012 A 
ATOM      4  C3A BZF d   1      -0.156   0.250  -0.552  0.00  0.00    -0.107 A 
ATOM      5  C4  BZF d   1       1.052   0.649  -0.057  0.00  0.00     0.055 A 
ATOM      6  C5  BZF d   1       1.695  -0.146   0.838  0.00  0.00    -0.016 A 
ATOM      7  C6  BZF d   1       1.156  -1.343   1.263  0.00  0.00     0.022 A 
ATOM      8  C7  BZF d   1      -0.037  -1.783   0.797  0.00  0.00     0.029 A 
ATOM      9  C7A BZF d   1      -0.674  -0.998  -0.133  0.00  0.00     0.058 A 
ENDROOT
TORSDOF 0
ENDMDL
