MODEL 1
REMARK minimizedAffinity -2.50349808
REMARK minimizedRMSD -1
REMARK  0 active torsions:
REMARK  status: ('A' for Active; 'I' for Inactive)
ROOT
ATOM      1  O1  BZF d   1       0.057   0.384   0.822  0.00  0.00    -0.204 OA
ATOM      2  C2  BZF d   1      -0.041  -0.418  -0.298  0.00  0.00     0.174 A 
ATOM      3  C3  BZF d   1       0.942  -0.135  -1.177  0.00  0.00    -0.012 A 
ATOM      4  C3A BZF d   1       1.756   0.846  -0.527  0.00  0.00    -0.107 A 
ATOM      5  C4  BZF d   1       2.894   1.510  -0.888  0.00  0.00     0.055 A 
ATOM      6  C5  BZF d   1       3.397   2.459  -0.055  0.00  0.00    -0.016 A 
ATOM      7  C6  BZF d   1       2.786   2.773   1.142  0.00  0.00     0.022 A 
ATOM      8  C7  BZF d   1       1.658   2.138   1.544  0.00  0.00     0.029 A 
ATOM      9  C7A BZF d   1       1.166   1.155   0.720  0.00  0.00     0.058 A 
ENDROOT
TORSDOF 0
ENDMDL
