MODEL 1
REMARK minimizedAffinity 1.40115952
REMARK minimizedRMSD -1
REMARK  0 active torsions:
REMARK  status: ('A' for Active; 'I' for Inactive)
ROOT
ATOM      1  O1  BZF d   1      -1.967  -1.711   0.702  0.00  0.00    -0.204 OA
ATOM      2  C2  BZF d   1      -2.823  -1.560  -0.372  0.00  0.00     0.174 A 
ATOM      3  C3  BZF d   1      -2.303  -0.712  -1.283  0.00  0.00    -0.012 A 
ATOM      4  C3A BZF d   1      -1.002  -0.380  -0.788  0.00  0.00    -0.107 A 
ATOM      5  C4  BZF d   1       0.008   0.410  -1.258  0.00  0.00     0.055 A 
ATOM      6  C5  BZF d   1       1.122   0.580  -0.498  0.00  0.00    -0.016 A 
ATOM      7  C6  BZF d   1       1.256  -0.019   0.737  0.00  0.00     0.022 A 
ATOM      8  C7  BZF d   1       0.283  -0.815   1.244  0.00  0.00     0.029 A 
ATOM      9  C7A BZF d   1      -0.829  -1.016   0.464  0.00  0.00     0.058 A 
ENDROOT
TORSDOF 0
ENDMDL
