MODEL 1
REMARK minimizedAffinity -2.21658778
REMARK minimizedRMSD -1
REMARK  0 active torsions:
REMARK  status: ('A' for Active; 'I' for Inactive)
ROOT
ATOM      1  O1  BZF d   1      -1.174   0.095  -1.410  0.00  0.00    -0.204 OA
ATOM      2  C2  BZF d   1      -2.311  -0.679  -1.286  0.00  0.00     0.174 A 
ATOM      3  C3  BZF d   1      -2.119  -1.672  -0.394  0.00  0.00    -0.012 A 
ATOM      4  C3A BZF d   1      -0.808  -1.453   0.136  0.00  0.00    -0.107 A 
ATOM      5  C4  BZF d   1      -0.055  -2.100   1.074  0.00  0.00     0.055 A 
ATOM      6  C5  BZF d   1       1.215  -1.675   1.309  0.00  0.00    -0.016 A 
ATOM      7  C6  BZF d   1       1.764  -0.612   0.621  0.00  0.00     0.022 A 
ATOM      8  C7  BZF d   1       1.053   0.063  -0.315  0.00  0.00     0.029 A 
ATOM      9  C7A BZF d   1      -0.241  -0.343  -0.531  0.00  0.00     0.058 A 
ENDROOT
TORSDOF 0
ENDMDL
