MODEL 1
REMARK minimizedAffinity -3.92686677
REMARK minimizedRMSD -1
REMARK  0 active torsions:
REMARK  status: ('A' for Active; 'I' for Inactive)
ROOT
ATOM      1  O1  BZF d   1       0.722  -0.848   0.736  0.00  0.00    -0.204 OA
ATOM      2  C2  BZF d   1       1.543   0.177   0.307  0.00  0.00     0.174 A 
ATOM      3  C3  BZF d   1       0.947   0.891  -0.670  0.00  0.00    -0.012 A 
ATOM      4  C3A BZF d   1      -0.363   0.330  -0.799  0.00  0.00    -0.107 A 
ATOM      5  C4  BZF d   1      -1.435   0.622  -1.593  0.00  0.00     0.055 A 
ATOM      6  C5  BZF d   1      -2.542  -0.164  -1.524  0.00  0.00    -0.016 A 
ATOM      7  C6  BZF d   1      -2.609  -1.250  -0.676  0.00  0.00     0.022 A 
ATOM      8  C7  BZF d   1      -1.573  -1.575   0.135  0.00  0.00     0.029 A 
ATOM      9  C7A BZF d   1      -0.466  -0.764   0.091  0.00  0.00     0.058 A 
ENDROOT
TORSDOF 0
ENDMDL
