MODEL 1
REMARK minimizedAffinity -4.17888451
REMARK minimizedRMSD -1
REMARK  0 active torsions:
REMARK  status: ('A' for Active; 'I' for Inactive)
ROOT
ATOM      1  O1  BZF d   1       0.035   1.151   1.447  0.00  0.00    -0.204 OA
ATOM      2  C2  BZF d   1       0.202  -0.041   0.769  0.00  0.00     0.174 A 
ATOM      3  C3  BZF d   1       1.290   0.008  -0.026  0.00  0.00    -0.012 A 
ATOM      4  C3A BZF d   1       1.890   1.280   0.237  0.00  0.00    -0.107 A 
ATOM      5  C4  BZF d   1       3.008   1.907  -0.236  0.00  0.00     0.055 A 
ATOM      6  C5  BZF d   1       3.275   3.176   0.169  0.00  0.00    -0.016 A 
ATOM      7  C6  BZF d   1       2.444   3.850   1.040  0.00  0.00     0.022 A 
ATOM      8  C7  BZF d   1       1.326   3.269   1.539  0.00  0.00     0.029 A 
ATOM      9  C7A BZF d   1       1.071   1.974   1.158  0.00  0.00     0.058 A 
ENDROOT
TORSDOF 0
ENDMDL
