MODEL 1
REMARK minimizedAffinity -2.94356894
REMARK minimizedRMSD -1
REMARK  0 active torsions:
REMARK  status: ('A' for Active; 'I' for Inactive)
ROOT
ATOM      1  O1  BZF d   1       2.547   1.357   0.798  0.00  0.00    -0.204 OA
ATOM      2  C2  BZF d   1       2.205   2.475   1.535  0.00  0.00     0.174 A 
ATOM      3  C3  BZF d   1       0.894   2.757   1.395  0.00  0.00    -0.012 A 
ATOM      4  C3A BZF d   1       0.365   1.700   0.590  0.00  0.00    -0.107 A 
ATOM      5  C4  BZF d   1      -0.885   1.413   0.120  0.00  0.00     0.055 A 
ATOM      6  C5  BZF d   1      -1.052   0.343  -0.702  0.00  0.00    -0.016 A 
ATOM      7  C6  BZF d   1       0.007  -0.457  -1.076  0.00  0.00     0.022 A 
ATOM      8  C7  BZF d   1       1.264  -0.215  -0.631  0.00  0.00     0.029 A 
ATOM      9  C7A BZF d   1       1.431   0.845   0.225  0.00  0.00     0.058 A 
ENDROOT
TORSDOF 0
ENDMDL
