MODEL 1
REMARK minimizedAffinity 0.302070767
REMARK minimizedRMSD -1
REMARK  0 active torsions:
REMARK  status: ('A' for Active; 'I' for Inactive)
ROOT
ATOM      1  O1  BZF d   1       1.658  -0.210   0.503  0.00  0.00    -0.204 OA
ATOM      2  C2  BZF d   1       0.410  -0.113  -0.081  0.00  0.00     0.174 A 
ATOM      3  C3  BZF d   1       0.016   1.175  -0.157  0.00  0.00    -0.012 A 
ATOM      4  C3A BZF d   1       1.124   1.937   0.332  0.00  0.00    -0.107 A 
ATOM      5  C4  BZF d   1       1.346   3.275   0.488  0.00  0.00     0.055 A 
ATOM      6  C5  BZF d   1       2.507   3.689   1.061  0.00  0.00    -0.016 A 
ATOM      7  C6  BZF d   1       3.463   2.793   1.493  0.00  0.00     0.022 A 
ATOM      8  C7  BZF d   1       3.289   1.456   1.355  0.00  0.00     0.029 A 
ATOM      9  C7A BZF d   1       2.132   1.036   0.746  0.00  0.00     0.058 A 
ENDROOT
TORSDOF 0
ENDMDL
