MODEL 1
REMARK minimizedAffinity 4.75318432
REMARK minimizedRMSD -1
REMARK  3 active torsions:
REMARK  status: ('A' for Active; 'I' for Inactive)
REMARK    1  A    between atoms: C3'_2  and  C2'_3 
REMARK    2  A    between atoms: C2'_3  and  C1'_4 
REMARK    3  A    between atoms: C1'_4  and  C1_5 
ROOT
ATOM      1  C1  N4B d   1      -4.067   3.253   4.393  0.00  0.00    -0.075 A 
ATOM      2  C2  N4B d   1      -4.241   4.133   3.302  0.00  0.00     0.002 A 
ATOM      3  C3  N4B d   1      -5.197   5.118   3.361  0.00  0.00     0.002 A 
ATOM      4  C4  N4B d   1      -6.000   5.229   4.486  0.00  0.00    -0.004 A 
ATOM      5  C5  N4B d   1      -5.808   4.391   5.545  0.00  0.00     0.002 A 
ATOM      6  C6  N4B d   1      -4.849   3.399   5.502  0.00  0.00     0.002 A 
ENDROOT
BRANCH   1   7
ATOM      7  C1' N4B d   1      -3.094   2.107   4.341  0.00  0.00     0.057 C 
BRANCH   7   8
ATOM      8  C2' N4B d   1      -3.230   1.395   2.999  0.00  0.00     0.009 C 
BRANCH   8   9
ATOM      9  C3' N4B d   1      -2.248   0.244   2.864  0.00  0.00     0.004 C 
ATOM     10  C4' N4B d   1      -2.252  -0.366   1.494  0.00  0.00     0.003 C 
ENDBRANCH   8   9
ENDBRANCH   7   8
ENDBRANCH   1   7
TORSDOF 3
ENDMDL
