MODEL 1
REMARK minimizedAffinity -2.40950584
REMARK minimizedRMSD -1
REMARK  3 active torsions:
REMARK  status: ('A' for Active; 'I' for Inactive)
REMARK    1  A    between atoms: C3'_2  and  C2'_3 
REMARK    2  A    between atoms: C2'_3  and  C1'_4 
REMARK    3  A    between atoms: C1'_4  and  C1_5 
ROOT
ATOM      1  C1  N4B d   1      -4.470   4.348   3.791  0.00  0.00    -0.075 A 
ATOM      2  C2  N4B d   1      -5.468   5.335   3.947  0.00  0.00     0.002 A 
ATOM      3  C3  N4B d   1      -5.955   5.998   2.847  0.00  0.00     0.002 A 
ATOM      4  C4  N4B d   1      -5.447   5.707   1.590  0.00  0.00    -0.004 A 
ATOM      5  C5  N4B d   1      -4.501   4.735   1.445  0.00  0.00     0.002 A 
ATOM      6  C6  N4B d   1      -4.006   4.057   2.541  0.00  0.00     0.002 A 
ENDROOT
BRANCH   1   7
ATOM      7  C1' N4B d   1      -3.846   3.657   4.972  0.00  0.00     0.057 C 
BRANCH   7   8
ATOM      8  C2' N4B d   1      -4.930   3.343   5.999  0.00  0.00     0.009 C 
BRANCH   8   9
ATOM      9  C3' N4B d   1      -5.999   2.424   5.434  0.00  0.00     0.004 C 
ATOM     10  C4' N4B d   1      -5.797   0.990   5.822  0.00  0.00     0.003 C 
ENDBRANCH   8   9
ENDBRANCH   7   8
ENDBRANCH   1   7
TORSDOF 3
ENDMDL
