MODEL 1
REMARK minimizedAffinity 5.34457922
REMARK minimizedRMSD -1
REMARK  3 active torsions:
REMARK  status: ('A' for Active; 'I' for Inactive)
REMARK    1  A    between atoms: C3'_2  and  C2'_3 
REMARK    2  A    between atoms: C2'_3  and  C1'_4 
REMARK    3  A    between atoms: C1'_4  and  C1_5 
ROOT
ATOM      1  C1  N4B d   1      -4.877   3.331   2.451  0.00  0.00    -0.075 A 
ATOM      2  C2  N4B d   1      -5.643   3.807   3.538  0.00  0.00     0.002 A 
ATOM      3  C3  N4B d   1      -5.999   5.132   3.598  0.00  0.00     0.002 A 
ATOM      4  C4  N4B d   1      -5.587   5.999   2.597  0.00  0.00    -0.004 A 
ATOM      5  C5  N4B d   1      -4.868   5.526   1.538  0.00  0.00     0.002 A 
ATOM      6  C6  N4B d   1      -4.507   4.196   1.463  0.00  0.00     0.002 A 
ENDROOT
BRANCH   1   7
ATOM      7  C1' N4B d   1      -4.391   1.909   2.386  0.00  0.00     0.057 C 
BRANCH   7   8
ATOM      8  C2' N4B d   1      -4.124   1.537   0.930  0.00  0.00     0.009 C 
BRANCH   8   9
ATOM      9  C3' N4B d   1      -3.742   0.075   0.778  0.00  0.00     0.004 C 
ATOM     10  C4' N4B d   1      -3.014  -0.463   1.974  0.00  0.00     0.003 C 
ENDBRANCH   8   9
ENDBRANCH   7   8
ENDBRANCH   1   7
TORSDOF 3
ENDMDL
