MODEL 1
REMARK minimizedAffinity -3.11552405
REMARK minimizedRMSD -1
REMARK  3 active torsions:
REMARK  status: ('A' for Active; 'I' for Inactive)
REMARK    1  A    between atoms: C3'_2  and  C2'_3 
REMARK    2  A    between atoms: C2'_3  and  C1'_4 
REMARK    3  A    between atoms: C1'_4  and  C1_5 
ROOT
ATOM      1  C1  N4B d   1      -4.503   4.463   3.807  0.00  0.00    -0.075 A 
ATOM      2  C2  N4B d   1      -3.787   4.503   5.024  0.00  0.00     0.002 A 
ATOM      3  C3  N4B d   1      -3.826   3.429   5.879  0.00  0.00     0.002 A 
ATOM      4  C4  N4B d   1      -4.585   2.316   5.548  0.00  0.00    -0.004 A 
ATOM      5  C5  N4B d   1      -5.253   2.276   4.359  0.00  0.00     0.002 A 
ATOM      6  C6  N4B d   1      -5.220   3.346   3.489  0.00  0.00     0.002 A 
ENDROOT
BRANCH   1   7
ATOM      7  C1' N4B d   1      -4.560   5.647   2.881  0.00  0.00     0.057 C 
BRANCH   7   8
ATOM      8  C2' N4B d   1      -5.980   5.794   2.343  0.00  0.00     0.009 C 
BRANCH   8   9
ATOM      9  C3' N4B d   1      -6.000   5.999   0.838  0.00  0.00     0.004 C 
ATOM     10  C4' N4B d   1      -5.166   4.992   0.103  0.00  0.00     0.003 C 
ENDBRANCH   8   9
ENDBRANCH   7   8
ENDBRANCH   1   7
TORSDOF 3
ENDMDL
