MODEL 1
REMARK minimizedAffinity -3.05842829
REMARK minimizedRMSD -1
REMARK  3 active torsions:
REMARK  status: ('A' for Active; 'I' for Inactive)
REMARK    1  A    between atoms: C3'_2  and  C2'_3 
REMARK    2  A    between atoms: C2'_3  and  C1'_4 
REMARK    3  A    between atoms: C1'_4  and  C1_5 
ROOT
ATOM      1  C1  N4B d   1      -4.819   5.000   3.716  0.00  0.00    -0.075 A 
ATOM      2  C2  N4B d   1      -4.467   3.640   3.573  0.00  0.00     0.002 A 
ATOM      3  C3  N4B d   1      -4.565   2.789   4.646  0.00  0.00     0.002 A 
ATOM      4  C4  N4B d   1      -4.994   3.277   5.872  0.00  0.00    -0.004 A 
ATOM      5  C5  N4B d   1      -5.357   4.586   5.995  0.00  0.00     0.002 A 
ATOM      6  C6  N4B d   1      -5.267   5.452   4.924  0.00  0.00     0.002 A 
ENDROOT
BRANCH   1   7
ATOM      7  C1' N4B d   1      -4.647   5.987   2.594  0.00  0.00     0.057 C 
BRANCH   7   8
ATOM      8  C2' N4B d   1      -5.911   6.000   1.740  0.00  0.00     0.009 C 
BRANCH   8   9
ATOM      9  C3' N4B d   1      -5.752   5.169   0.478  0.00  0.00     0.004 C 
ATOM     10  C4' N4B d   1      -5.417   5.999  -0.726  0.00  0.00     0.003 C 
ENDBRANCH   8   9
ENDBRANCH   7   8
ENDBRANCH   1   7
TORSDOF 3
ENDMDL
