MODEL 1
REMARK minimizedAffinity 2.21621084
REMARK minimizedRMSD -1
REMARK  3 active torsions:
REMARK  status: ('A' for Active; 'I' for Inactive)
REMARK    1  A    between atoms: C3'_2  and  C2'_3 
REMARK    2  A    between atoms: C2'_3  and  C1'_4 
REMARK    3  A    between atoms: C1'_4  and  C1_5 
ROOT
ATOM      1  C1  N4B d   1      -4.131   4.414   3.303  0.00  0.00    -0.075 A 
ATOM      2  C2  N4B d   1      -3.803   4.305   1.933  0.00  0.00     0.002 A 
ATOM      3  C3  N4B d   1      -4.534   4.992   0.995  0.00  0.00     0.002 A 
ATOM      4  C4  N4B d   1      -5.604   5.775   1.399  0.00  0.00    -0.004 A 
ATOM      5  C5  N4B d   1      -5.899   5.896   2.726  0.00  0.00     0.002 A 
ATOM      6  C6  N4B d   1      -5.170   5.214   3.680  0.00  0.00     0.002 A 
ENDROOT
BRANCH   1   7
ATOM      7  C1' N4B d   1      -3.415   3.615   4.357  0.00  0.00     0.057 C 
BRANCH   7   8
ATOM      8  C2' N4B d   1      -4.028   2.220   4.430  0.00  0.00     0.009 C 
BRANCH   8   9
ATOM      9  C3' N4B d   1      -5.053   2.107   5.546  0.00  0.00     0.004 C 
ATOM     10  C4' N4B d   1      -5.566   3.441   5.999  0.00  0.00     0.003 C 
ENDBRANCH   8   9
ENDBRANCH   7   8
ENDBRANCH   1   7
TORSDOF 3
ENDMDL
