MODEL 1
REMARK minimizedAffinity -2.16681647
REMARK minimizedRMSD -1
REMARK  3 active torsions:
REMARK  status: ('A' for Active; 'I' for Inactive)
REMARK    1  A    between atoms: C3'_2  and  C2'_3 
REMARK    2  A    between atoms: C2'_3  and  C1'_4 
REMARK    3  A    between atoms: C1'_4  and  C1_5 
ROOT
ATOM      1  C1  N4B d   1      -5.589   4.238   4.577  0.00  0.00    -0.075 A 
ATOM      2  C2  N4B d   1      -5.034   5.508   4.302  0.00  0.00     0.002 A 
ATOM      3  C3  N4B d   1      -4.863   5.915   3.001  0.00  0.00     0.002 A 
ATOM      4  C4  N4B d   1      -5.220   5.066   1.964  0.00  0.00    -0.004 A 
ATOM      5  C5  N4B d   1      -5.779   3.852   2.238  0.00  0.00     0.002 A 
ATOM      6  C6  N4B d   1      -5.960   3.431   3.541  0.00  0.00     0.002 A 
ENDROOT
BRANCH   1   7
ATOM      7  C1' N4B d   1      -5.715   3.715   5.981  0.00  0.00     0.057 C 
BRANCH   7   8
ATOM      8  C2' N4B d   1      -5.746   2.190   5.946  0.00  0.00     0.009 C 
BRANCH   8   9
ATOM      9  C3' N4B d   1      -4.351   1.591   5.998  0.00  0.00     0.004 C 
ATOM     10  C4' N4B d   1      -4.362   0.092   5.996  0.00  0.00     0.003 C 
ENDBRANCH   8   9
ENDBRANCH   7   8
ENDBRANCH   1   7
TORSDOF 3
ENDMDL
