MODEL 1
REMARK minimizedAffinity -4.0107789
REMARK minimizedRMSD -1
REMARK  3 active torsions:
REMARK  status: ('A' for Active; 'I' for Inactive)
REMARK    1  A    between atoms: C3'_2  and  C2'_3 
REMARK    2  A    between atoms: C2'_3  and  C1'_4 
REMARK    3  A    between atoms: C1'_4  and  C1_5 
ROOT
ATOM      1  C1  N4B d   1      -4.925   3.991   4.283  0.00  0.00    -0.075 A 
ATOM      2  C2  N4B d   1      -3.760   3.195   4.333  0.00  0.00     0.002 A 
ATOM      3  C3  N4B d   1      -3.712   2.099   5.160  0.00  0.00     0.002 A 
ATOM      4  C4  N4B d   1      -4.805   1.792   5.957  0.00  0.00    -0.004 A 
ATOM      5  C5  N4B d   1      -5.936   2.552   5.883  0.00  0.00     0.002 A 
ATOM      6  C6  N4B d   1      -6.000   3.653   5.054  0.00  0.00     0.002 A 
ENDROOT
BRANCH   1   7
ATOM      7  C1' N4B d   1      -4.994   5.247   3.459  0.00  0.00     0.057 C 
BRANCH   7   8
ATOM      8  C2' N4B d   1      -5.416   4.891   2.037  0.00  0.00     0.009 C 
BRANCH   8   9
ATOM      9  C3' N4B d   1      -4.691   5.732   1.001  0.00  0.00     0.004 C 
ATOM     10  C4' N4B d   1      -5.514   5.977  -0.229  0.00  0.00     0.003 C 
ENDBRANCH   8   9
ENDBRANCH   7   8
ENDBRANCH   1   7
TORSDOF 3
ENDMDL
