MODEL 1
REMARK minimizedAffinity -3.54127932
REMARK minimizedRMSD -1
REMARK  3 active torsions:
REMARK  status: ('A' for Active; 'I' for Inactive)
REMARK    1  A    between atoms: C3'_2  and  C2'_3 
REMARK    2  A    between atoms: C2'_3  and  C1'_4 
REMARK    3  A    between atoms: C1'_4  and  C1_5 
ROOT
ATOM      1  C1  N4B d   1      -4.995   4.540   4.015  0.00  0.00    -0.075 A 
ATOM      2  C2  N4B d   1      -5.711   3.510   3.366  0.00  0.00     0.002 A 
ATOM      3  C3  N4B d   1      -5.998   2.346   4.037  0.00  0.00     0.002 A 
ATOM      4  C4  N4B d   1      -5.564   2.183   5.344  0.00  0.00    -0.004 A 
ATOM      5  C5  N4B d   1      -4.895   3.193   5.971  0.00  0.00     0.002 A 
ATOM      6  C6  N4B d   1      -4.604   4.369   5.311  0.00  0.00     0.002 A 
ENDROOT
BRANCH   1   7
ATOM      7  C1' N4B d   1      -4.584   5.795   3.295  0.00  0.00     0.057 C 
BRANCH   7   8
ATOM      8  C2' N4B d   1      -4.540   5.521   1.795  0.00  0.00     0.009 C 
BRANCH   8   9
ATOM      9  C3' N4B d   1      -5.813   5.971   1.098  0.00  0.00     0.004 C 
ATOM     10  C4' N4B d   1      -5.805   5.674  -0.372  0.00  0.00     0.003 C 
ENDBRANCH   8   9
ENDBRANCH   7   8
ENDBRANCH   1   7
TORSDOF 3
ENDMDL
