MODEL 1
REMARK minimizedAffinity -1.13677597
REMARK minimizedRMSD -1
REMARK  3 active torsions:
REMARK  status: ('A' for Active; 'I' for Inactive)
REMARK    1  A    between atoms: C3'_2  and  C2'_3 
REMARK    2  A    between atoms: C2'_3  and  C1'_4 
REMARK    3  A    between atoms: C1'_4  and  C1_5 
ROOT
ATOM      1  C1  N4B d   1      -4.788   4.579   4.195  0.00  0.00    -0.075 A 
ATOM      2  C2  N4B d   1      -5.880   4.440   5.080  0.00  0.00     0.002 A 
ATOM      3  C3  N4B d   1      -6.000   3.310   5.850  0.00  0.00     0.002 A 
ATOM      4  C4  N4B d   1      -5.054   2.301   5.741  0.00  0.00    -0.004 A 
ATOM      5  C5  N4B d   1      -3.988   2.455   4.903  0.00  0.00     0.002 A 
ATOM      6  C6  N4B d   1      -3.853   3.587   4.126  0.00  0.00     0.002 A 
ENDROOT
BRANCH   1   7
ATOM      7  C1' N4B d   1      -4.661   5.758   3.270  0.00  0.00     0.057 C 
BRANCH   7   8
ATOM      8  C2' N4B d   1      -5.999   6.000   2.579  0.00  0.00     0.009 C 
BRANCH   8   9
ATOM      9  C3' N4B d   1      -5.948   5.651   1.102  0.00  0.00     0.004 C 
ATOM     10  C4' N4B d   1      -4.665   4.980   0.708  0.00  0.00     0.003 C 
ENDBRANCH   8   9
ENDBRANCH   7   8
ENDBRANCH   1   7
TORSDOF 3
ENDMDL
