MODEL 1
REMARK minimizedAffinity 3.68014121
REMARK minimizedRMSD -1
REMARK  0 active torsions:
REMARK  status: ('A' for Active; 'I' for Inactive)
ROOT
ATOM      1  C   UNL d   1       0.926  -1.209   3.407  0.00  0.00     0.023 A 
ATOM      2  C1  UNL d   1      -0.416  -1.247   3.786  0.00  0.00     0.003 A 
ATOM      3  C2  UNL d   1      -1.400  -0.753   2.926  0.00  0.00     0.048 A 
ATOM      4  C3  UNL d   1      -1.034  -0.223   1.689  0.00  0.00     0.023 A 
ATOM      5  C4  UNL d   1       0.308  -0.183   1.306  0.00  0.00     0.048 A 
ATOM      6  C5  UNL d   1       1.287  -0.678   2.169  0.00  0.00     0.003 A 
ATOM      7  I   UNL d   1      -2.496   0.513   0.408  0.00  0.00    -0.146 I 
ENDROOT
TORSDOF 0
ENDMDL
