MODEL 1
REMARK minimizedAffinity 5.37302828
REMARK minimizedRMSD -1
REMARK  0 active torsions:
REMARK  status: ('A' for Active; 'I' for Inactive)
ROOT
ATOM      1  C   UNL d   1      -3.114  -0.182   0.765  0.00  0.00     0.023 A 
ATOM      2  C1  UNL d   1      -2.274   0.325   1.757  0.00  0.00     0.003 A 
ATOM      3  C2  UNL d   1      -0.903   0.445   1.519  0.00  0.00     0.048 A 
ATOM      4  C3  UNL d   1      -0.379   0.057   0.287  0.00  0.00     0.023 A 
ATOM      5  C4  UNL d   1      -1.216  -0.451  -0.709  0.00  0.00     0.048 A 
ATOM      6  C5  UNL d   1      -2.585  -0.570  -0.466  0.00  0.00     0.003 A 
ATOM      7  I   UNL d   1       1.661   0.234  -0.070  0.00  0.00    -0.146 I 
ENDROOT
TORSDOF 0
ENDMDL
