MODEL 1
REMARK minimizedAffinity 7.72580481
REMARK minimizedRMSD -1
REMARK  0 active torsions:
REMARK  status: ('A' for Active; 'I' for Inactive)
ROOT
ATOM      1  C   UNL d   1       2.840   5.450   0.005  0.00  0.00     0.023 A 
ATOM      2  C1  UNL d   1       2.171   5.840  -1.155  0.00  0.00     0.003 A 
ATOM      3  C2  UNL d   1       0.783   5.998  -1.143  0.00  0.00     0.048 A 
ATOM      4  C3  UNL d   1       0.071   5.765   0.033  0.00  0.00     0.023 A 
ATOM      5  C4  UNL d   1       0.736   5.375   1.196  0.00  0.00     0.048 A 
ATOM      6  C5  UNL d   1       2.123   5.217   1.179  0.00  0.00     0.003 A 
ATOM      7  I   UNL d   1      -1.994   6.000   0.053  0.00  0.00    -0.146 I 
ENDROOT
TORSDOF 0
ENDMDL
