MODEL 1
REMARK minimizedAffinity 4.94491339
REMARK minimizedRMSD -1
REMARK  0 active torsions:
REMARK  status: ('A' for Active; 'I' for Inactive)
ROOT
ATOM      1  C   UNL d   1      -1.184   0.288  -0.068  0.00  0.00     0.023 A 
ATOM      2  C1  UNL d   1       0.170  -0.046  -0.103  0.00  0.00     0.003 A 
ATOM      3  C2  UNL d   1       0.825  -0.434   1.067  0.00  0.00     0.048 A 
ATOM      4  C3  UNL d   1       0.120  -0.487   2.269  0.00  0.00     0.023 A 
ATOM      5  C4  UNL d   1      -1.235  -0.154   2.309  0.00  0.00     0.048 A 
ATOM      6  C5  UNL d   1      -1.886   0.234   1.136  0.00  0.00     0.003 A 
ATOM      7  I   UNL d   1       1.093  -1.065   4.013  0.00  0.00    -0.146 I 
ENDROOT
TORSDOF 0
ENDMDL
