MODEL 1
REMARK minimizedAffinity 2.61927271
REMARK minimizedRMSD -1
REMARK  0 active torsions:
REMARK  status: ('A' for Active; 'I' for Inactive)
ROOT
ATOM      1  C   UNL d   1      -0.849  -0.384   4.331  0.00  0.00     0.023 A 
ATOM      2  C1  UNL d   1      -2.199  -0.152   4.068  0.00  0.00     0.003 A 
ATOM      3  C2  UNL d   1      -2.617   0.145   2.769  0.00  0.00     0.048 A 
ATOM      4  C3  UNL d   1      -1.680   0.207   1.738  0.00  0.00     0.023 A 
ATOM      5  C4  UNL d   1      -0.328  -0.026   1.997  0.00  0.00     0.048 A 
ATOM      6  C5  UNL d   1       0.085  -0.322   3.298  0.00  0.00     0.003 A 
ATOM      7  I   UNL d   1      -2.299   0.649  -0.196  0.00  0.00    -0.146 I 
ENDROOT
TORSDOF 0
ENDMDL
