MODEL 1
REMARK minimizedAffinity 7.53698158
REMARK minimizedRMSD -1
REMARK  0 active torsions:
REMARK  status: ('A' for Active; 'I' for Inactive)
ROOT
ATOM      1  C   UNL d   1      -0.882  -0.382  -0.914  0.00  0.00     0.023 A 
ATOM      2  C1  UNL d   1      -2.226  -0.659  -0.666  0.00  0.00     0.003 A 
ATOM      3  C2  UNL d   1      -2.697  -0.716   0.647  0.00  0.00     0.048 A 
ATOM      4  C3  UNL d   1      -1.819  -0.494   1.707  0.00  0.00     0.023 A 
ATOM      5  C4  UNL d   1      -0.473  -0.215   1.463  0.00  0.00     0.048 A 
ATOM      6  C5  UNL d   1      -0.006  -0.160   0.149  0.00  0.00     0.003 A 
ATOM      7  I   UNL d   1      -2.519  -0.578   3.663  0.00  0.00    -0.146 I 
ENDROOT
TORSDOF 0
ENDMDL
