MODEL 1
REMARK minimizedAffinity -2.26328301
REMARK minimizedRMSD -1
REMARK  0 active torsions:
REMARK  status: ('A' for Active; 'I' for Inactive)
ROOT
ATOM      1  C1  BNZ d   1       1.401   0.116  -1.255  0.00  0.00     0.000 A 
ATOM      2  C2  BNZ d   1       0.713  -0.918  -0.677  0.00  0.00     0.000 A 
ATOM      3  C3  BNZ d   1       0.084  -0.756   0.526  0.00  0.00     0.000 A 
ATOM      4  C4  BNZ d   1       0.178   0.427   1.168  0.00  0.00     0.000 A 
ATOM      5  C5  BNZ d   1       0.876   1.476   0.603  0.00  0.00     0.000 A 
ATOM      6  C6  BNZ d   1       1.474   1.320  -0.626  0.00  0.00     0.000 A 
ENDROOT
TORSDOF 0
ENDMDL
