MODEL 1
REMARK minimizedAffinity -1.8285377
REMARK minimizedRMSD -1
REMARK  0 active torsions:
REMARK  status: ('A' for Active; 'I' for Inactive)
ROOT
ATOM      1  C1  BNZ d   1       1.076   1.672   0.643  0.00  0.00     0.000 A 
ATOM      2  C2  BNZ d   1       0.196   1.117   1.533  0.00  0.00     0.000 A 
ATOM      3  C3  BNZ d   1      -0.432  -0.064   1.253  0.00  0.00     0.000 A 
ATOM      4  C4  BNZ d   1      -0.211  -0.667   0.068  0.00  0.00     0.000 A 
ATOM      5  C5  BNZ d   1       0.666  -0.116  -0.845  0.00  0.00     0.000 A 
ATOM      6  C6  BNZ d   1       1.326   1.053  -0.543  0.00  0.00     0.000 A 
ENDROOT
TORSDOF 0
ENDMDL
