MODEL 1
REMARK minimizedAffinity -2.9948957
REMARK minimizedRMSD -1
REMARK  0 active torsions:
REMARK  status: ('A' for Active; 'I' for Inactive)
ROOT
ATOM      1  C1  BNZ d   1       1.095  -0.398  -1.187  0.00  0.00     0.000 A 
ATOM      2  C2  BNZ d   1      -0.272  -0.461  -1.232  0.00  0.00     0.000 A 
ATOM      3  C3  BNZ d   1      -1.034   0.622  -0.893  0.00  0.00     0.000 A 
ATOM      4  C4  BNZ d   1      -0.430   1.751  -0.471  0.00  0.00     0.000 A 
ATOM      5  C5  BNZ d   1       0.948   1.827  -0.412  0.00  0.00     0.000 A 
ATOM      6  C6  BNZ d   1       1.712   0.748  -0.791  0.00  0.00     0.000 A 
ENDROOT
TORSDOF 0
ENDMDL
