MODEL 1
REMARK minimizedAffinity 3.55203557
REMARK minimizedRMSD -1
REMARK  0 active torsions:
REMARK  status: ('A' for Active; 'I' for Inactive)
ROOT
ATOM      1  C1  BNZ d   1      -5.949   4.510  -5.889  0.00  0.00     0.000 A 
ATOM      2  C2  BNZ d   1      -5.153   3.397  -5.832  0.00  0.00     0.000 A 
ATOM      3  C3  BNZ d   1      -3.791   3.509  -5.833  0.00  0.00     0.000 A 
ATOM      4  C4  BNZ d   1      -3.227   4.730  -5.932  0.00  0.00     0.000 A 
ATOM      5  C5  BNZ d   1      -4.015   5.861  -6.000  0.00  0.00     0.000 A 
ATOM      6  C6  BNZ d   1      -5.386   5.747  -5.959  0.00  0.00     0.000 A 
ENDROOT
TORSDOF 0
ENDMDL
