MODEL 1
REMARK minimizedAffinity -2.89441013
REMARK minimizedRMSD -1
REMARK  0 active torsions:
REMARK  status: ('A' for Active; 'I' for Inactive)
ROOT
ATOM      1  C1  BNZ d   1       0.896   0.773  -0.466  0.00  0.00     0.000 A 
ATOM      2  C2  BNZ d   1       1.263   0.608  -1.774  0.00  0.00     0.000 A 
ATOM      3  C3  BNZ d   1       0.951  -0.538  -2.450  0.00  0.00     0.000 A 
ATOM      4  C4  BNZ d   1       0.308  -1.534  -1.807  0.00  0.00     0.000 A 
ATOM      5  C5  BNZ d   1      -0.061  -1.387  -0.484  0.00  0.00     0.000 A 
ATOM      6  C6  BNZ d   1       0.220  -0.216   0.182  0.00  0.00     0.000 A 
ENDROOT
TORSDOF 0
ENDMDL
