MODEL 1
REMARK minimizedAffinity -0.814949572
REMARK minimizedRMSD -1
REMARK  0 active torsions:
REMARK  status: ('A' for Active; 'I' for Inactive)
ROOT
ATOM      1  C1  BNZ d   1       0.735  -0.645  -3.219  0.00  0.00     0.000 A 
ATOM      2  C2  BNZ d   1       0.311   0.450  -2.514  0.00  0.00     0.000 A 
ATOM      3  C3  BNZ d   1       0.329   0.453  -1.148  0.00  0.00     0.000 A 
ATOM      4  C4  BNZ d   1       0.733  -0.652  -0.488  0.00  0.00     0.000 A 
ATOM      5  C5  BNZ d   1       1.155  -1.767  -1.184  0.00  0.00     0.000 A 
ATOM      6  C6  BNZ d   1       1.172  -1.752  -2.560  0.00  0.00     0.000 A 
ENDROOT
TORSDOF 0
ENDMDL
