MODEL 1
REMARK minimizedAffinity 3.0331533
REMARK minimizedRMSD -1
REMARK  0 active torsions:
REMARK  status: ('A' for Active; 'I' for Inactive)
ROOT
ATOM      1  C1  BNZ d   1      -4.846   0.881  -5.999  0.00  0.00     0.000 A 
ATOM      2  C2  BNZ d   1      -4.862   2.250  -5.996  0.00  0.00     0.000 A 
ATOM      3  C3  BNZ d   1      -3.697   2.964  -5.985  0.00  0.00     0.000 A 
ATOM      4  C4  BNZ d   1      -2.519   2.309  -5.937  0.00  0.00     0.000 A 
ATOM      5  C5  BNZ d   1      -2.486   0.929  -5.931  0.00  0.00     0.000 A 
ATOM      6  C6  BNZ d   1      -3.660   0.213  -5.981  0.00  0.00     0.000 A 
ENDROOT
TORSDOF 0
ENDMDL
