MODEL 1
REMARK minimizedAffinity 3.69120526
REMARK minimizedRMSD -1
REMARK  0 active torsions:
REMARK  status: ('A' for Active; 'I' for Inactive)
ROOT
ATOM      1  C1  BNZ d   1      -0.957   6.000  -3.701  0.00  0.00     0.000 A 
ATOM      2  C2  BNZ d   1      -0.544   6.000  -5.007  0.00  0.00     0.000 A 
ATOM      3  C3  BNZ d   1      -1.146   5.193  -5.932  0.00  0.00     0.000 A 
ATOM      4  C4  BNZ d   1      -2.132   4.359  -5.542  0.00  0.00     0.000 A 
ATOM      5  C5  BNZ d   1      -2.553   4.341  -4.228  0.00  0.00     0.000 A 
ATOM      6  C6  BNZ d   1      -1.971   5.182  -3.308  0.00  0.00     0.000 A 
ENDROOT
TORSDOF 0
ENDMDL
