MODEL 1
REMARK minimizedAffinity 3.75766635
REMARK minimizedRMSD -1
REMARK  0 active torsions:
REMARK  status: ('A' for Active; 'I' for Inactive)
ROOT
ATOM      1  C1  BNZ d   1       1.305   4.968   0.282  0.00  0.00     0.000 A 
ATOM      2  C2  BNZ d   1       1.109   4.120  -0.775  0.00  0.00     0.000 A 
ATOM      3  C3  BNZ d   1       1.082   2.766  -0.591  0.00  0.00     0.000 A 
ATOM      4  C4  BNZ d   1       1.292   2.260   0.641  0.00  0.00     0.000 A 
ATOM      5  C5  BNZ d   1       1.500   3.101   1.716  0.00  0.00     0.000 A 
ATOM      6  C6  BNZ d   1       1.488   4.465   1.533  0.00  0.00     0.000 A 
ENDROOT
TORSDOF 0
ENDMDL
