MODEL 1
REMARK minimizedAffinity 9.57106972
REMARK minimizedRMSD -1
REMARK  0 active torsions:
REMARK  status: ('A' for Active; 'I' for Inactive)
ROOT
ATOM      1  C1  BNZ d   1      -4.381   1.506   2.910  0.00  0.00     0.000 A 
ATOM      2  C2  BNZ d   1      -3.576   1.867   3.958  0.00  0.00     0.000 A 
ATOM      3  C3  BNZ d   1      -2.611   2.823   3.803  0.00  0.00     0.000 A 
ATOM      4  C4  BNZ d   1      -2.427   3.389   2.592  0.00  0.00     0.000 A 
ATOM      5  C5  BNZ d   1      -3.225   3.029   1.524  0.00  0.00     0.000 A 
ATOM      6  C6  BNZ d   1      -4.220   2.094   1.694  0.00  0.00     0.000 A 
ENDROOT
TORSDOF 0
ENDMDL
