MODEL 1
REMARK minimizedAffinity 5.11434889
REMARK minimizedRMSD -1
REMARK  0 active torsions:
REMARK  status: ('A' for Active; 'I' for Inactive)
ROOT
ATOM      1  C1  BNZ d   1      -4.663   1.578   2.981  0.00  0.00     0.000 A 
ATOM      2  C2  BNZ d   1      -4.312   2.530   2.061  0.00  0.00     0.000 A 
ATOM      3  C3  BNZ d   1      -3.188   3.289   2.234  0.00  0.00     0.000 A 
ATOM      4  C4  BNZ d   1      -2.441   3.125   3.344  0.00  0.00     0.000 A 
ATOM      5  C5  BNZ d   1      -2.787   2.176   4.286  0.00  0.00     0.000 A 
ATOM      6  C6  BNZ d   1      -3.896   1.386   4.089  0.00  0.00     0.000 A 
ENDROOT
TORSDOF 0
ENDMDL
