MODEL 1
REMARK minimizedAffinity 1.01159763
REMARK minimizedRMSD -1
REMARK  0 active torsions:
REMARK  status: ('A' for Active; 'I' for Inactive)
ROOT
ATOM      1  C1  BNZ d   1      -3.390   2.333   2.481  0.00  0.00     0.000 A 
ATOM      2  C2  BNZ d   1      -4.270   1.328   2.181  0.00  0.00     0.000 A 
ATOM      3  C3  BNZ d   1      -4.482   0.299   3.056  0.00  0.00     0.000 A 
ATOM      4  C4  BNZ d   1      -3.785   0.255   4.210  0.00  0.00     0.000 A 
ATOM      5  C5  BNZ d   1      -2.886   1.256   4.522  0.00  0.00     0.000 A 
ATOM      6  C6  BNZ d   1      -2.704   2.310   3.657  0.00  0.00     0.000 A 
ENDROOT
TORSDOF 0
ENDMDL
