MODEL 1
REMARK minimizedAffinity -2.47535157
REMARK minimizedRMSD -1
REMARK  0 active torsions:
REMARK  status: ('A' for Active; 'I' for Inactive)
ROOT
ATOM      1  C1  BNZ d   1       2.059  -0.032  -0.812  0.00  0.00     0.000 A 
ATOM      2  C2  BNZ d   1       1.501  -1.046  -0.080  0.00  0.00     0.000 A 
ATOM      3  C3  BNZ d   1       0.619  -0.777   0.929  0.00  0.00     0.000 A 
ATOM      4  C4  BNZ d   1       0.327   0.504   1.231  0.00  0.00     0.000 A 
ATOM      5  C5  BNZ d   1       0.888   1.538   0.509  0.00  0.00     0.000 A 
ATOM      6  C6  BNZ d   1       1.746   1.263  -0.532  0.00  0.00     0.000 A 
ENDROOT
TORSDOF 0
ENDMDL
