MODEL 1
REMARK minimizedAffinity -2.74899864
REMARK minimizedRMSD -1
REMARK  0 active torsions:
REMARK  status: ('A' for Active; 'I' for Inactive)
ROOT
ATOM      1  C   UNL d   1      -1.815  -0.949   0.884  0.00  0.00     0.124 A 
ATOM      2  C1  UNL d   1      -1.708   0.402   1.187  0.00  0.00     0.062 A 
ATOM      3  C2  UNL d   1      -0.828   1.211   0.474  0.00  0.00     0.162 A 
ATOM      4  C3  UNL d   1      -0.048   0.672  -0.549  0.00  0.00    -0.034 A 
ATOM      5  C4  UNL d   1      -0.160  -0.688  -0.847  0.00  0.00     0.162 A 
ATOM      6  C5  UNL d   1      -1.042  -1.492  -0.131  0.00  0.00     0.062 A 
ATOM      7  F   UNL d   1      -1.144  -2.796  -0.425  0.00  0.00    -0.097 F 
ATOM      8  F1  UNL d   1       0.574  -1.238  -1.824  0.00  0.00    -0.096 F 
ATOM      9  I   UNL d   1       1.270   1.878  -1.617  0.00  0.00    -0.060 I 
ATOM     10  F2  UNL d   1      -0.745   2.512   0.787  0.00  0.00    -0.096 F 
ATOM     11  F3  UNL d   1      -2.454   0.929   2.168  0.00  0.00    -0.097 F 
ATOM     12  F4  UNL d   1      -2.662  -1.725   1.572  0.00  0.00    -0.092 F 
ENDROOT
TORSDOF 0
ENDMDL
