MODEL 1
REMARK minimizedAffinity -0.0399226621
REMARK minimizedRMSD -1
REMARK  0 active torsions:
REMARK  status: ('A' for Active; 'I' for Inactive)
ROOT
ATOM      1  C   UNL d   1      -1.539  -1.363   1.811  0.00  0.00     0.124 A 
ATOM      2  C1  UNL d   1      -0.661  -1.938   0.903  0.00  0.00     0.062 A 
ATOM      3  C2  UNL d   1       0.099  -1.133   0.058  0.00  0.00     0.162 A 
ATOM      4  C3  UNL d   1      -0.016   0.256   0.118  0.00  0.00    -0.034 A 
ATOM      5  C4  UNL d   1      -0.902   0.826   1.034  0.00  0.00     0.162 A 
ATOM      6  C5  UNL d   1      -1.659   0.018   1.876  0.00  0.00     0.062 A 
ATOM      7  F   UNL d   1      -2.507   0.575   2.752  0.00  0.00    -0.097 F 
ATOM      8  F1  UNL d   1      -1.037   2.158   1.118  0.00  0.00    -0.096 F 
ATOM      9  I   UNL d   1       1.118   1.462  -1.143  0.00  0.00    -0.060 I 
ATOM     10  F2  UNL d   1       0.939  -1.716  -0.810  0.00  0.00    -0.096 F 
ATOM     11  F3  UNL d   1      -0.544  -3.272   0.838  0.00  0.00    -0.097 F 
ATOM     12  F4  UNL d   1      -2.269  -2.140   2.622  0.00  0.00    -0.092 F 
ENDROOT
TORSDOF 0
ENDMDL
