MODEL 1
REMARK minimizedAffinity -4.15869808
REMARK minimizedRMSD -1
REMARK  0 active torsions:
REMARK  status: ('A' for Active; 'I' for Inactive)
ROOT
ATOM      1  C   UNL d   1      -1.577  -1.226   1.845  0.00  0.00     0.124 A 
ATOM      2  C1  UNL d   1      -1.919   0.119   1.855  0.00  0.00     0.062 A 
ATOM      3  C2  UNL d   1      -1.279   1.011   0.999  0.00  0.00     0.162 A 
ATOM      4  C3  UNL d   1      -0.291   0.560   0.124  0.00  0.00    -0.034 A 
ATOM      5  C4  UNL d   1       0.048  -0.795   0.120  0.00  0.00     0.162 A 
ATOM      6  C5  UNL d   1      -0.594  -1.681   0.978  0.00  0.00     0.062 A 
ATOM      7  F   UNL d   1      -0.263  -2.981   0.966  0.00  0.00    -0.097 F 
ATOM      8  F1  UNL d   1       0.994  -1.262  -0.709  0.00  0.00    -0.096 F 
ATOM      9  I   UNL d   1       0.668   1.889  -1.158  0.00  0.00    -0.060 I 
ATOM     10  F2  UNL d   1      -1.629   2.305   1.031  0.00  0.00    -0.096 F 
ATOM     11  F3  UNL d   1      -2.867   0.562   2.693  0.00  0.00    -0.097 F 
ATOM     12  F4  UNL d   1      -2.193  -2.081   2.671  0.00  0.00    -0.092 F 
ENDROOT
TORSDOF 0
ENDMDL
