MODEL 1
REMARK minimizedAffinity 0.362884134
REMARK minimizedRMSD -1
REMARK  0 active torsions:
REMARK  status: ('A' for Active; 'I' for Inactive)
ROOT
ATOM      1  C   UNL d   1      -1.236  -1.505   1.841  0.00  0.00     0.124 A 
ATOM      2  C1  UNL d   1      -0.253  -1.936   0.961  0.00  0.00     0.062 A 
ATOM      3  C2  UNL d   1       0.339  -1.037   0.078  0.00  0.00     0.162 A 
ATOM      4  C3  UNL d   1      -0.051   0.302   0.070  0.00  0.00    -0.034 A 
ATOM      5  C4  UNL d   1      -1.042   0.727   0.957  0.00  0.00     0.162 A 
ATOM      6  C5  UNL d   1      -1.630  -0.175   1.838  0.00  0.00     0.062 A 
ATOM      7  F   UNL d   1      -2.580   0.243   2.687  0.00  0.00    -0.097 F 
ATOM      8  F1  UNL d   1      -1.441   2.008   0.976  0.00  0.00    -0.096 F 
ATOM      9  I   UNL d   1       0.830   1.648  -1.249  0.00  0.00    -0.060 I 
ATOM     10  F2  UNL d   1       1.287  -1.481  -0.761  0.00  0.00    -0.096 F 
ATOM     11  F3  UNL d   1       0.129  -3.221   0.962  0.00  0.00    -0.097 F 
ATOM     12  F4  UNL d   1      -1.804  -2.372   2.689  0.00  0.00    -0.092 F 
ENDROOT
TORSDOF 0
ENDMDL
