MODEL 1
REMARK minimizedAffinity 1.9105444
REMARK minimizedRMSD -1
REMARK  0 active torsions:
REMARK  status: ('A' for Active; 'I' for Inactive)
ROOT
ATOM      1  C   UNL d   1       0.615   1.540  -1.892  0.00  0.00     0.124 A 
ATOM      2  C1  UNL d   1      -0.113   1.692  -0.720  0.00  0.00     0.062 A 
ATOM      3  C2  UNL d   1      -0.358   0.595   0.100  0.00  0.00     0.162 A 
ATOM      4  C3  UNL d   1       0.127  -0.666  -0.249  0.00  0.00    -0.034 A 
ATOM      5  C4  UNL d   1       0.857  -0.812  -1.429  0.00  0.00     0.162 A 
ATOM      6  C5  UNL d   1       1.099   0.288  -2.245  0.00  0.00     0.062 A 
ATOM      7  F   UNL d   1       1.803   0.139  -3.377  0.00  0.00    -0.097 F 
ATOM      8  F1  UNL d   1       1.338  -2.010  -1.795  0.00  0.00    -0.096 F 
ATOM      9  I   UNL d   1      -0.237  -2.310   0.974  0.00  0.00    -0.060 I 
ATOM     10  F2  UNL d   1      -1.064   0.771   1.226  0.00  0.00    -0.096 F 
ATOM     11  F3  UNL d   1      -0.583   2.900  -0.376  0.00  0.00    -0.097 F 
ATOM     12  F4  UNL d   1       0.848   2.598  -2.679  0.00  0.00    -0.092 F 
ENDROOT
TORSDOF 0
ENDMDL
