MODEL 1
REMARK minimizedAffinity -3.50093269
REMARK minimizedRMSD -1
REMARK  0 active torsions:
REMARK  status: ('A' for Active; 'I' for Inactive)
ROOT
ATOM      1  C   UNL d   1       0.775   1.684   0.254  0.00  0.00     0.124 A 
ATOM      2  C1  UNL d   1      -0.566   1.646   0.612  0.00  0.00     0.062 A 
ATOM      3  C2  UNL d   1      -1.217   0.424   0.756  0.00  0.00     0.162 A 
ATOM      4  C3  UNL d   1      -0.528  -0.770   0.545  0.00  0.00    -0.034 A 
ATOM      5  C4  UNL d   1       0.820  -0.723   0.184  0.00  0.00     0.162 A 
ATOM      6  C5  UNL d   1       1.466   0.500   0.041  0.00  0.00     0.062 A 
ATOM      7  F   UNL d   1       2.761   0.536  -0.304  0.00  0.00    -0.097 F 
ATOM      8  F1  UNL d   1       1.513  -1.852  -0.027  0.00  0.00    -0.096 F 
ATOM      9  I   UNL d   1      -1.497  -2.599   0.760  0.00  0.00    -0.060 I 
ATOM     10  F2  UNL d   1      -2.513   0.417   1.103  0.00  0.00    -0.096 F 
ATOM     11  F3  UNL d   1      -1.237   2.788   0.817  0.00  0.00    -0.097 F 
ATOM     12  F4  UNL d   1       1.398   2.861   0.115  0.00  0.00    -0.092 F 
ENDROOT
TORSDOF 0
ENDMDL
