MODEL 1
REMARK minimizedAffinity -3.358217
REMARK minimizedRMSD -1
REMARK  0 active torsions:
REMARK  status: ('A' for Active; 'I' for Inactive)
ROOT
ATOM      1  C   UNL d   1      -1.287  -1.324   0.983  0.00  0.00     0.124 A 
ATOM      2  C1  UNL d   1      -1.669  -0.022   0.693  0.00  0.00     0.062 A 
ATOM      3  C2  UNL d   1      -0.822   0.811  -0.033  0.00  0.00     0.162 A 
ATOM      4  C3  UNL d   1       0.415   0.343  -0.475  0.00  0.00    -0.034 A 
ATOM      5  C4  UNL d   1       0.793  -0.967  -0.178  0.00  0.00     0.162 A 
ATOM      6  C5  UNL d   1      -0.057  -1.796   0.548  0.00  0.00     0.062 A 
ATOM      7  F   UNL d   1       0.314  -3.054   0.827  0.00  0.00    -0.097 F 
ATOM      8  F1  UNL d   1       1.976  -1.449  -0.587  0.00  0.00    -0.096 F 
ATOM      9  I   UNL d   1       1.685   1.585  -1.560  0.00  0.00    -0.060 I 
ATOM     10  F2  UNL d   1      -1.217   2.065  -0.299  0.00  0.00    -0.096 F 
ATOM     11  F3  UNL d   1      -2.857   0.437   1.113  0.00  0.00    -0.097 F 
ATOM     12  F4  UNL d   1      -2.104  -2.123   1.682  0.00  0.00    -0.092 F 
ENDROOT
TORSDOF 0
ENDMDL
