MODEL 1
REMARK minimizedAffinity 5.58592033
REMARK minimizedRMSD -1
REMARK  0 active torsions:
REMARK  status: ('A' for Active; 'I' for Inactive)
ROOT
ATOM      1  C   UNL d   1       1.090   2.341  -3.935  0.00  0.00     0.124 A 
ATOM      2  C1  UNL d   1       2.028   2.899  -4.793  0.00  0.00     0.062 A 
ATOM      3  C2  UNL d   1       3.362   2.991  -4.406  0.00  0.00     0.162 A 
ATOM      4  C3  UNL d   1       3.766   2.524  -3.155  0.00  0.00    -0.034 A 
ATOM      5  C4  UNL d   1       2.817   1.966  -2.298  0.00  0.00     0.162 A 
ATOM      6  C5  UNL d   1       1.485   1.875  -2.689  0.00  0.00     0.062 A 
ATOM      7  F   UNL d   1       0.580   1.336  -1.859  0.00  0.00    -0.097 F 
ATOM      8  F1  UNL d   1       3.171   1.507  -1.088  0.00  0.00    -0.096 F 
ATOM      9  I   UNL d   1       5.760   2.661  -2.574  0.00  0.00    -0.060 I 
ATOM     10  F2  UNL d   1       4.247   3.535  -5.255  0.00  0.00    -0.096 F 
ATOM     11  F3  UNL d   1       1.649   3.350  -5.997  0.00  0.00    -0.097 F 
ATOM     12  F4  UNL d   1      -0.193   2.254  -4.310  0.00  0.00    -0.092 F 
ENDROOT
TORSDOF 0
ENDMDL
