MODEL 1
REMARK minimizedAffinity -1.15376961
REMARK minimizedRMSD -1
REMARK  0 active torsions:
REMARK  status: ('A' for Active; 'I' for Inactive)
ROOT
ATOM      1  C   UNL d   1      -1.560  -2.196   1.209  0.00  0.00     0.124 A 
ATOM      2  C1  UNL d   1      -2.208  -0.997   0.947  0.00  0.00     0.062 A 
ATOM      3  C2  UNL d   1      -1.518   0.056   0.354  0.00  0.00     0.162 A 
ATOM      4  C3  UNL d   1      -0.171  -0.085   0.018  0.00  0.00    -0.034 A 
ATOM      5  C4  UNL d   1       0.474  -1.294   0.286  0.00  0.00     0.162 A 
ATOM      6  C5  UNL d   1      -0.221  -2.344   0.878  0.00  0.00     0.062 A 
ATOM      7  F   UNL d   1       0.407  -3.502   1.131  0.00  0.00    -0.097 F 
ATOM      8  F1  UNL d   1       1.767  -1.464  -0.025  0.00  0.00    -0.096 F 
ATOM      9  I   UNL d   1       0.864   1.487  -0.869  0.00  0.00    -0.060 I 
ATOM     10  F2  UNL d   1      -2.169   1.204   0.112  0.00  0.00    -0.096 F 
ATOM     11  F3  UNL d   1      -3.502  -0.851   1.267  0.00  0.00    -0.097 F 
ATOM     12  F4  UNL d   1      -2.226  -3.208   1.781  0.00  0.00    -0.092 F 
ENDROOT
TORSDOF 0
ENDMDL
