MODEL 1
REMARK minimizedAffinity -4.58362913
REMARK minimizedRMSD -1
REMARK  0 active torsions:
REMARK  status: ('A' for Active; 'I' for Inactive)
ROOT
ATOM      1  C   UNL d   1      -1.720  -1.493   1.543  0.00  0.00     0.124 A 
ATOM      2  C1  UNL d   1      -1.914  -0.118   1.542  0.00  0.00     0.062 A 
ATOM      3  C2  UNL d   1      -1.055   0.709   0.824  0.00  0.00     0.162 A 
ATOM      4  C3  UNL d   1       0.005   0.164   0.100  0.00  0.00    -0.034 A 
ATOM      5  C4  UNL d   1       0.194  -1.219   0.106  0.00  0.00     0.162 A 
ATOM      6  C5  UNL d   1      -0.667  -2.041   0.826  0.00  0.00     0.062 A 
ATOM      7  F   UNL d   1      -0.478  -3.369   0.825  0.00  0.00    -0.097 F 
ATOM      8  F1  UNL d   1       1.204  -1.776  -0.579  0.00  0.00    -0.096 F 
ATOM      9  I   UNL d   1       1.291   1.398  -0.975  0.00  0.00    -0.060 I 
ATOM     10  F2  UNL d   1      -1.267   2.034   0.841  0.00  0.00    -0.096 F 
ATOM     11  F3  UNL d   1      -2.931   0.415   2.235  0.00  0.00    -0.097 F 
ATOM     12  F4  UNL d   1      -2.547  -2.286   2.235  0.00  0.00    -0.092 F 
ENDROOT
TORSDOF 0
ENDMDL
