MODEL 1
REMARK minimizedAffinity 2.62890244
REMARK minimizedRMSD -1
REMARK  0 active torsions:
REMARK  status: ('A' for Active; 'I' for Inactive)
ROOT
ATOM      1  C   UNL d   1      -0.969  -1.633   1.166  0.00  0.00     0.124 A 
ATOM      2  C1  UNL d   1       0.417  -1.705   1.123  0.00  0.00     0.062 A 
ATOM      3  C2  UNL d   1       1.139  -0.817   0.331  0.00  0.00     0.162 A 
ATOM      4  C3  UNL d   1       0.478   0.153  -0.423  0.00  0.00    -0.034 A 
ATOM      5  C4  UNL d   1      -0.916   0.218  -0.375  0.00  0.00     0.162 A 
ATOM      6  C5  UNL d   1      -1.634  -0.672   0.418  0.00  0.00     0.062 A 
ATOM      7  F   UNL d   1      -2.972  -0.601   0.458  0.00  0.00    -0.097 F 
ATOM      8  F1  UNL d   1      -1.584   1.138  -1.087  0.00  0.00    -0.096 F 
ATOM      9  I   UNL d   1       1.554   1.483  -1.607  0.00  0.00    -0.060 I 
ATOM     10  F2  UNL d   1       2.477  -0.909   0.309  0.00  0.00    -0.096 F 
ATOM     11  F3  UNL d   1       1.061  -2.633   1.844  0.00  0.00    -0.097 F 
ATOM     12  F4  UNL d   1      -1.662  -2.489   1.928  0.00  0.00    -0.092 F 
ENDROOT
TORSDOF 0
ENDMDL
