MODEL 1
REMARK minimizedAffinity 0.431689024
REMARK minimizedRMSD -1
REMARK  0 active torsions:
REMARK  status: ('A' for Active; 'I' for Inactive)
ROOT
ATOM      1  C   UNL d   1      -0.791  -0.791   1.481  0.00  0.00     0.124 A 
ATOM      2  C1  UNL d   1       0.111  -1.372   0.600  0.00  0.00     0.062 A 
ATOM      3  C2  UNL d   1       0.668  -0.618  -0.429  0.00  0.00     0.162 A 
ATOM      4  C3  UNL d   1       0.325   0.725  -0.583  0.00  0.00    -0.034 A 
ATOM      5  C4  UNL d   1      -0.584   1.302   0.306  0.00  0.00     0.162 A 
ATOM      6  C5  UNL d   1      -1.138   0.544   1.333  0.00  0.00     0.062 A 
ATOM      7  F   UNL d   1      -2.009   1.107   2.184  0.00  0.00    -0.097 F 
ATOM      8  F1  UNL d   1      -0.935   2.591   0.188  0.00  0.00    -0.096 F 
ATOM      9  I   UNL d   1       1.155   1.856  -2.120  0.00  0.00    -0.060 I 
ATOM     10  F2  UNL d   1       1.537  -1.205  -1.266  0.00  0.00    -0.096 F 
ATOM     11  F3  UNL d   1       0.446  -2.662   0.739  0.00  0.00    -0.097 F 
ATOM     12  F4  UNL d   1      -1.326  -1.519   2.469  0.00  0.00    -0.092 F 
ENDROOT
TORSDOF 0
ENDMDL
