MODEL 1
REMARK minimizedAffinity -2.64406633
REMARK minimizedRMSD -1
REMARK  0 active torsions:
REMARK  status: ('A' for Active; 'I' for Inactive)
ROOT
ATOM      1  C   UNL d   1      -1.063  -0.806   1.488  0.00  0.00     0.124 A 
ATOM      2  C1  UNL d   1      -1.356   0.533   1.267  0.00  0.00     0.062 A 
ATOM      3  C2  UNL d   1      -0.642   1.259   0.318  0.00  0.00     0.162 A 
ATOM      4  C3  UNL d   1       0.371   0.647  -0.420  0.00  0.00    -0.034 A 
ATOM      5  C4  UNL d   1       0.661  -0.700  -0.192  0.00  0.00     0.162 A 
ATOM      6  C5  UNL d   1      -0.055  -1.421   0.758  0.00  0.00     0.062 A 
ATOM      7  F   UNL d   1       0.230  -2.714   0.969  0.00  0.00    -0.097 F 
ATOM      8  F1  UNL d   1       1.629  -1.319  -0.884  0.00  0.00    -0.096 F 
ATOM      9  I   UNL d   1       1.440   1.729  -1.841  0.00  0.00    -0.060 I 
ATOM     10  F2  UNL d   1      -0.947   2.551   0.126  0.00  0.00    -0.096 F 
ATOM     11  F3  UNL d   1      -2.328   1.130   1.972  0.00  0.00    -0.097 F 
ATOM     12  F4  UNL d   1      -1.750  -1.501   2.403  0.00  0.00    -0.092 F 
ENDROOT
TORSDOF 0
ENDMDL
