MODEL 1
REMARK minimizedAffinity 12.7557745
REMARK minimizedRMSD -1
REMARK  0 active torsions:
REMARK  status: ('A' for Active; 'I' for Inactive)
ROOT
ATOM      1  C   UNL d   1      -4.411  -1.761  -2.527  0.00  0.00     0.124 A 
ATOM      2  C1  UNL d   1      -3.371  -2.639  -2.259  0.00  0.00     0.062 A 
ATOM      3  C2  UNL d   1      -2.912  -3.504  -3.249  0.00  0.00     0.162 A 
ATOM      4  C3  UNL d   1      -3.493  -3.493  -4.517  0.00  0.00    -0.034 A 
ATOM      5  C4  UNL d   1      -4.540  -2.607  -4.779  0.00  0.00     0.162 A 
ATOM      6  C5  UNL d   1      -4.995  -1.745  -3.786  0.00  0.00     0.062 A 
ATOM      7  F   UNL d   1      -6.000  -0.897  -4.047  0.00  0.00    -0.097 F 
ATOM      8  F1  UNL d   1      -5.121  -2.570  -5.987  0.00  0.00    -0.096 F 
ATOM      9  I   UNL d   1      -2.810  -4.784  -6.000  0.00  0.00    -0.060 I 
ATOM     10  F2  UNL d   1      -1.905  -4.342  -2.962  0.00  0.00    -0.096 F 
ATOM     11  F3  UNL d   1      -2.807  -2.657  -1.043  0.00  0.00    -0.097 F 
ATOM     12  F4  UNL d   1      -4.852  -0.931  -1.572  0.00  0.00    -0.092 F 
ENDROOT
TORSDOF 0
ENDMDL
