MODEL 1
REMARK minimizedAffinity -1.88307154
REMARK minimizedRMSD -1
REMARK  1 active torsions:
REMARK  status: ('A' for Active; 'I' for Inactive)
REMARK    1  A    between atoms: C1_2  and  C2_3 
ROOT
ATOM      1  C2  UNL d   1      -0.247  -1.392   0.044  0.00  0.00    -0.073 A 
ATOM      2  C3  UNL d   1      -0.043  -1.776  -1.287  0.00  0.00    -0.002 A 
ATOM      3  C4  UNL d   1       0.291  -0.825  -2.251  0.00  0.00     0.004 A 
ATOM      4  C5  UNL d   1       0.430   0.517  -1.896  0.00  0.00    -0.004 A 
ATOM      5  C6  UNL d   1       0.242   0.918  -0.570  0.00  0.00    -0.075 A 
ATOM      6  C7  UNL d   1       0.386   2.358  -0.171  0.00  0.00     0.076 C 
ATOM      7  C8  UNL d   1      -0.096  -0.043   0.393  0.00  0.00     0.001 A 
ENDROOT
BRANCH   1   8
ATOM      8  C1  UNL d   1      -0.601  -2.417   1.090  0.00  0.00     0.053 C 
ATOM      9  C   UNL d   1      -0.640  -3.825   0.519  0.00  0.00     0.018 C 
ENDBRANCH   1   8
TORSDOF 1
ENDMDL
