MODEL 1
REMARK minimizedAffinity -2.96473408
REMARK minimizedRMSD -1
REMARK  1 active torsions:
REMARK  status: ('A' for Active; 'I' for Inactive)
REMARK    1  A    between atoms: C1_2  and  C2_3 
ROOT
ATOM      1  C2  UNL d   1       0.527   1.502  -0.548  0.00  0.00    -0.073 A 
ATOM      2  C3  UNL d   1       0.528   1.286  -1.931  0.00  0.00    -0.002 A 
ATOM      3  C4  UNL d   1       0.629  -0.008  -2.442  0.00  0.00     0.004 A 
ATOM      4  C5  UNL d   1       0.723  -1.099  -1.578  0.00  0.00    -0.004 A 
ATOM      5  C6  UNL d   1       0.711  -0.905  -0.193  0.00  0.00    -0.075 A 
ATOM      6  C7  UNL d   1       0.814  -2.067   0.751  0.00  0.00     0.076 C 
ATOM      7  C8  UNL d   1       0.613   0.399   0.313  0.00  0.00     0.001 A 
ENDROOT
BRANCH   1   8
ATOM      8  C1  UNL d   1       0.412   2.898   0.008  0.00  0.00     0.053 C 
ATOM      9  C   UNL d   1       1.768   3.575   0.133  0.00  0.00     0.018 C 
ENDBRANCH   1   8
TORSDOF 1
ENDMDL
