MODEL 1
REMARK minimizedAffinity -1.02455699
REMARK minimizedRMSD -1
REMARK  1 active torsions:
REMARK  status: ('A' for Active; 'I' for Inactive)
REMARK    1  A    between atoms: C1_2  and  C2_3 
ROOT
ATOM      1  C2  UNL d   1      -0.601  -1.926  -0.517  0.00  0.00    -0.073 A 
ATOM      2  C3  UNL d   1      -0.925  -2.419   0.753  0.00  0.00    -0.002 A 
ATOM      3  C4  UNL d   1      -0.941  -1.567   1.857  0.00  0.00     0.004 A 
ATOM      4  C5  UNL d   1      -0.642  -0.213   1.703  0.00  0.00    -0.004 A 
ATOM      5  C6  UNL d   1      -0.329   0.301   0.441  0.00  0.00    -0.075 A 
ATOM      6  C7  UNL d   1      -0.003   1.755   0.259  0.00  0.00     0.076 C 
ATOM      7  C8  UNL d   1      -0.311  -0.562  -0.663  0.00  0.00     0.001 A 
ENDROOT
BRANCH   1   8
ATOM      8  C1  UNL d   1      -0.588  -2.842  -1.713  0.00  0.00     0.053 C 
ATOM      9  C   UNL d   1       0.049  -2.185  -2.927  0.00  0.00     0.018 C 
ENDBRANCH   1   8
TORSDOF 1
ENDMDL
