MODEL 1
REMARK minimizedAffinity -4.88104868
REMARK minimizedRMSD -1
REMARK  1 active torsions:
REMARK  status: ('A' for Active; 'I' for Inactive)
REMARK    1  A    between atoms: C1_2  and  C2_3 
ROOT
ATOM      1  C2  UNL d   1      -0.072  -0.009  -0.027  0.00  0.00    -0.073 A 
ATOM      2  C3  UNL d   1      -1.086   0.106   0.931  0.00  0.00    -0.002 A 
ATOM      3  C4  UNL d   1      -1.573  -1.027   1.583  0.00  0.00     0.004 A 
ATOM      4  C5  UNL d   1      -1.047  -2.286   1.290  0.00  0.00    -0.004 A 
ATOM      5  C6  UNL d   1      -0.025  -2.420   0.345  0.00  0.00    -0.075 A 
ATOM      6  C7  UNL d   1       0.551  -3.767   0.017  0.00  0.00     0.076 C 
ATOM      7  C8  UNL d   1       0.457  -1.277  -0.308  0.00  0.00     0.001 A 
ENDROOT
BRANCH   1   8
ATOM      8  C1  UNL d   1       0.461   1.213  -0.729  0.00  0.00     0.053 C 
ATOM      9  C   UNL d   1       0.602   2.396   0.215  0.00  0.00     0.018 C 
ENDBRANCH   1   8
TORSDOF 1
ENDMDL
