MODEL 1
REMARK minimizedAffinity -3.60722423
REMARK minimizedRMSD -1
REMARK  1 active torsions:
REMARK  status: ('A' for Active; 'I' for Inactive)
REMARK    1  A    between atoms: C1_2  and  C2_3 
ROOT
ATOM      1  C2  UNL d   1       0.474   0.849  -0.248  0.00  0.00    -0.073 A 
ATOM      2  C3  UNL d   1       0.532   0.838  -1.647  0.00  0.00    -0.002 A 
ATOM      3  C4  UNL d   1       0.514  -0.371  -2.343  0.00  0.00     0.004 A 
ATOM      4  C5  UNL d   1       0.431  -1.579  -1.651  0.00  0.00    -0.004 A 
ATOM      5  C6  UNL d   1       0.361  -1.588  -0.255  0.00  0.00    -0.075 A 
ATOM      6  C7  UNL d   1       0.274  -2.879   0.505  0.00  0.00     0.076 C 
ATOM      7  C8  UNL d   1       0.382  -0.370   0.438  0.00  0.00     0.001 A 
ENDROOT
BRANCH   1   8
ATOM      8  C1  UNL d   1       0.486   2.152   0.508  0.00  0.00     0.053 C 
ATOM      9  C   UNL d   1       1.854   2.816   0.478  0.00  0.00     0.018 C 
ENDBRANCH   1   8
TORSDOF 1
ENDMDL
