MODEL 1
REMARK minimizedAffinity -5.11177588
REMARK minimizedRMSD -1
REMARK  1 active torsions:
REMARK  status: ('A' for Active; 'I' for Inactive)
REMARK    1  A    between atoms: C1_2  and  C2_3 
ROOT
ATOM      1  C2  UNL d   1       0.468   0.175   0.245  0.00  0.00    -0.073 A 
ATOM      2  C3  UNL d   1      -0.359   0.099   1.372  0.00  0.00    -0.002 A 
ATOM      3  C4  UNL d   1      -1.083  -1.064   1.637  0.00  0.00     0.004 A 
ATOM      4  C5  UNL d   1      -0.984  -2.163   0.785  0.00  0.00    -0.004 A 
ATOM      5  C6  UNL d   1      -0.153  -2.111  -0.339  0.00  0.00    -0.075 A 
ATOM      6  C7  UNL d   1      -0.037  -3.284  -1.267  0.00  0.00     0.076 C 
ATOM      7  C8  UNL d   1       0.569  -0.939  -0.601  0.00  0.00     0.001 A 
ENDROOT
BRANCH   1   8
ATOM      8  C1  UNL d   1       1.257   1.426  -0.042  0.00  0.00     0.053 C 
ATOM      9  C   UNL d   1       0.764   2.611   0.773  0.00  0.00     0.018 C 
ENDBRANCH   1   8
TORSDOF 1
ENDMDL
