MODEL 1
REMARK minimizedAffinity -3.12415504
REMARK minimizedRMSD -1
REMARK  1 active torsions:
REMARK  status: ('A' for Active; 'I' for Inactive)
REMARK    1  A    between atoms: C1_2  and  C2_3 
ROOT
ATOM      1  C2  UNL d   1      -0.073   1.965   0.321  0.00  0.00    -0.073 A 
ATOM      2  C3  UNL d   1      -0.494   1.192   1.409  0.00  0.00    -0.002 A 
ATOM      3  C4  UNL d   1      -0.660  -0.186   1.273  0.00  0.00     0.004 A 
ATOM      4  C5  UNL d   1      -0.401  -0.807   0.051  0.00  0.00    -0.004 A 
ATOM      5  C6  UNL d   1       0.032  -0.053  -1.045  0.00  0.00    -0.075 A 
ATOM      6  C7  UNL d   1       0.313  -0.705  -2.367  0.00  0.00     0.076 C 
ATOM      7  C8  UNL d   1       0.194   1.331  -0.901  0.00  0.00     0.001 A 
ENDROOT
BRANCH   1   8
ATOM      8  C1  UNL d   1       0.114   3.453   0.466  0.00  0.00     0.053 C 
ATOM      9  C   UNL d   1       1.563   3.821   0.746  0.00  0.00     0.018 C 
ENDBRANCH   1   8
TORSDOF 1
ENDMDL
