MODEL 1
REMARK minimizedAffinity -2.16204453
REMARK minimizedRMSD -1
REMARK  1 active torsions:
REMARK  status: ('A' for Active; 'I' for Inactive)
REMARK    1  A    between atoms: C1_2  and  C2_3 
ROOT
ATOM      1  C2  UNL d   1      -0.064   0.555   0.341  0.00  0.00    -0.073 A 
ATOM      2  C3  UNL d   1      -1.367   0.601   0.851  0.00  0.00    -0.002 A 
ATOM      3  C4  UNL d   1      -2.022  -0.575   1.219  0.00  0.00     0.004 A 
ATOM      4  C5  UNL d   1      -1.381  -1.806   1.088  0.00  0.00    -0.004 A 
ATOM      5  C6  UNL d   1      -0.075  -1.872   0.591  0.00  0.00    -0.075 A 
ATOM      6  C7  UNL d   1       0.628  -3.190   0.442  0.00  0.00     0.076 C 
ATOM      7  C8  UNL d   1       0.575  -0.687   0.222  0.00  0.00     0.001 A 
ENDROOT
BRANCH   1   8
ATOM      8  C1  UNL d   1       0.650   1.822  -0.051  0.00  0.00     0.053 C 
ATOM      9  C   UNL d   1       1.933   2.022   0.740  0.00  0.00     0.018 C 
ENDBRANCH   1   8
TORSDOF 1
ENDMDL
