MODEL 1
REMARK minimizedAffinity -4.83005524
REMARK minimizedRMSD -1
REMARK  1 active torsions:
REMARK  status: ('A' for Active; 'I' for Inactive)
REMARK    1  A    between atoms: C1_2  and  C2_3 
ROOT
ATOM      1  C2  UNL d   1       0.303  -0.055   0.162  0.00  0.00    -0.073 A 
ATOM      2  C3  UNL d   1      -0.430   0.209  -1.001  0.00  0.00    -0.002 A 
ATOM      3  C4  UNL d   1      -0.434   1.490  -1.555  0.00  0.00     0.004 A 
ATOM      4  C5  UNL d   1       0.300   2.515  -0.959  0.00  0.00    -0.004 A 
ATOM      5  C6  UNL d   1       1.049   2.268   0.196  0.00  0.00    -0.075 A 
ATOM      6  C7  UNL d   1       1.841   3.360   0.851  0.00  0.00     0.076 C 
ATOM      7  C8  UNL d   1       1.045   0.980   0.749  0.00  0.00     0.001 A 
ENDROOT
BRANCH   1   8
ATOM      8  C1  UNL d   1       0.315  -1.438   0.761  0.00  0.00     0.053 C 
ATOM      9  C   UNL d   1      -0.979  -2.188   0.489  0.00  0.00     0.018 C 
ENDBRANCH   1   8
TORSDOF 1
ENDMDL
