MODEL 1
REMARK minimizedAffinity -3.07092285
REMARK minimizedRMSD -1
REMARK  1 active torsions:
REMARK  status: ('A' for Active; 'I' for Inactive)
REMARK    1  A    between atoms: C1_2  and  C2_3 
ROOT
ATOM      1  C2  UNL d   1       0.435   1.336   0.215  0.00  0.00    -0.073 A 
ATOM      2  C3  UNL d   1      -0.089   0.669   1.328  0.00  0.00    -0.002 A 
ATOM      3  C4  UNL d   1      -0.322  -0.706   1.281  0.00  0.00     0.004 A 
ATOM      4  C5  UNL d   1      -0.026  -1.429   0.125  0.00  0.00    -0.004 A 
ATOM      5  C6  UNL d   1       0.510  -0.783  -0.994  0.00  0.00    -0.075 A 
ATOM      6  C7  UNL d   1       0.831  -1.545  -2.245  0.00  0.00     0.076 C 
ATOM      7  C8  UNL d   1       0.738   0.599  -0.940  0.00  0.00     0.001 A 
ENDROOT
BRANCH   1   8
ATOM      8  C1  UNL d   1       0.694   2.819   0.263  0.00  0.00     0.053 C 
ATOM      9  C   UNL d   1       2.130   3.160  -0.100  0.00  0.00     0.018 C 
ENDBRANCH   1   8
TORSDOF 1
ENDMDL
