MODEL 1
REMARK minimizedAffinity 7.28702879
REMARK minimizedRMSD -1
REMARK  0 active torsions:
REMARK  status: ('A' for Active; 'I' for Inactive)
ROOT
ATOM      1  C2' OXE d   1      -4.059   3.138   3.616  0.00  0.00     0.078 C 
ATOM      2  C1' OXE d   1      -1.830   1.472   3.985  0.00  0.00     0.078 C 
ATOM      3  C1  OXE d   1      -2.786   1.131   2.869  0.00  0.00    -0.078 A 
ATOM      4  C2  OXE d   1      -3.899   1.925   2.725  0.00  0.00    -0.078 A 
ATOM      5  C3  OXE d   1      -4.784   1.688   1.677  0.00  0.00     0.003 A 
ATOM      6  C4  OXE d   1      -4.633   0.558   0.864  0.00  0.00    -0.002 A 
ATOM      7  C5  OXE d   1      -3.529  -0.286   1.019  0.00  0.00    -0.002 A 
ATOM      8  C6  OXE d   1      -2.575   0.010   1.987  0.00  0.00     0.003 A 
ENDROOT
TORSDOF 0
ENDMDL
