MODEL 1
REMARK minimizedAffinity -2.52800417
REMARK minimizedRMSD -1
REMARK  0 active torsions:
REMARK  status: ('A' for Active; 'I' for Inactive)
ROOT
ATOM      1  C2' OXE d   1      -1.038  -0.587   1.491  0.00  0.00     0.078 C 
ATOM      2  C1' OXE d   1       0.195   1.070   3.393  0.00  0.00     0.078 C 
ATOM      3  C1  OXE d   1      -1.282   1.256   3.149  0.00  0.00    -0.078 A 
ATOM      4  C2  OXE d   1      -1.867   0.473   2.184  0.00  0.00    -0.078 A 
ATOM      5  C3  OXE d   1      -3.237   0.566   1.957  0.00  0.00     0.003 A 
ATOM      6  C4  OXE d   1      -3.995   1.556   2.595  0.00  0.00    -0.002 A 
ATOM      7  C5  OXE d   1      -3.411   2.391   3.553  0.00  0.00    -0.002 A 
ATOM      8  C6  OXE d   1      -2.067   2.226   3.872  0.00  0.00     0.003 A 
ENDROOT
TORSDOF 0
ENDMDL
