MODEL 1
REMARK minimizedAffinity -0.910891891
REMARK minimizedRMSD -1
REMARK  0 active torsions:
REMARK  status: ('A' for Active; 'I' for Inactive)
ROOT
ATOM      1  C2' OXE d   1      -4.186   0.013   0.764  0.00  0.00     0.078 C 
ATOM      2  C1' OXE d   1      -1.395  -0.280   0.797  0.00  0.00     0.078 C 
ATOM      3  C1  OXE d   1      -2.030   0.532   1.898  0.00  0.00    -0.078 A 
ATOM      4  C2  OXE d   1      -3.392   0.708   1.848  0.00  0.00    -0.078 A 
ATOM      5  C3  OXE d   1      -4.034   1.402   2.870  0.00  0.00     0.003 A 
ATOM      6  C4  OXE d   1      -3.291   2.051   3.863  0.00  0.00    -0.002 A 
ATOM      7  C5  OXE d   1      -1.899   1.917   3.910  0.00  0.00    -0.002 A 
ATOM      8  C6  OXE d   1      -1.259   1.127   2.961  0.00  0.00     0.003 A 
ENDROOT
TORSDOF 0
ENDMDL
