MODEL 1
REMARK minimizedAffinity -0.130511954
REMARK minimizedRMSD -1
REMARK  0 active torsions:
REMARK  status: ('A' for Active; 'I' for Inactive)
ROOT
ATOM      1  C2' OXE d   1       2.518   1.806  -0.432  0.00  0.00     0.078 C 
ATOM      2  C1' OXE d   1       0.331   0.733   0.963  0.00  0.00     0.078 C 
ATOM      3  C1  OXE d   1       0.634   0.176  -0.405  0.00  0.00    -0.078 A 
ATOM      4  C2  OXE d   1       1.678   0.738  -1.100  0.00  0.00    -0.078 A 
ATOM      5  C3  OXE d   1       2.034   0.225  -2.343  0.00  0.00     0.003 A 
ATOM      6  C4  OXE d   1       1.246  -0.756  -2.958  0.00  0.00    -0.002 A 
ATOM      7  C5  OXE d   1       0.155  -1.315  -2.284  0.00  0.00    -0.002 A 
ATOM      8  C6  OXE d   1      -0.138  -0.891  -0.992  0.00  0.00     0.003 A 
ENDROOT
TORSDOF 0
ENDMDL
