MODEL 1
REMARK minimizedAffinity -2.52349877
REMARK minimizedRMSD -1
REMARK  0 active torsions:
REMARK  status: ('A' for Active; 'I' for Inactive)
ROOT
ATOM      1  C2' OXE d   1       0.849   0.343   4.393  0.00  0.00     0.078 C 
ATOM      2  C1' OXE d   1       0.302   0.364   1.639  0.00  0.00     0.078 C 
ATOM      3  C1  OXE d   1       1.192   1.451   2.188  0.00  0.00    -0.078 A 
ATOM      4  C2  OXE d   1       1.417   1.460   3.543  0.00  0.00    -0.078 A 
ATOM      5  C3  OXE d   1       2.274   2.409   4.094  0.00  0.00     0.003 A 
ATOM      6  C4  OXE d   1       2.787   3.444   3.303  0.00  0.00    -0.002 A 
ATOM      7  C5  OXE d   1       2.538   3.476   1.927  0.00  0.00    -0.002 A 
ATOM      8  C6  OXE d   1       1.779   2.465   1.347  0.00  0.00     0.003 A 
ENDROOT
TORSDOF 0
ENDMDL
