MODEL 1
REMARK minimizedAffinity -4.05788374
REMARK minimizedRMSD -1
REMARK  0 active torsions:
REMARK  status: ('A' for Active; 'I' for Inactive)
ROOT
ATOM      1  C2' OXE d   1      -1.224   0.096   0.354  0.00  0.00     0.078 C 
ATOM      2  C1' OXE d   1       1.174   1.294   1.189  0.00  0.00     0.078 C 
ATOM      3  C1  OXE d   1       1.127   0.707  -0.199  0.00  0.00    -0.078 A 
ATOM      4  C2  OXE d   1      -0.035   0.082  -0.583  0.00  0.00    -0.078 A 
ATOM      5  C3  OXE d   1      -0.150  -0.428  -1.873  0.00  0.00     0.003 A 
ATOM      6  C4  OXE d   1       0.958  -0.447  -2.729  0.00  0.00    -0.002 A 
ATOM      7  C5  OXE d   1       2.163   0.149  -2.343  0.00  0.00    -0.002 A 
ATOM      8  C6  OXE d   1       2.251   0.767  -1.101  0.00  0.00     0.003 A 
ENDROOT
TORSDOF 0
ENDMDL
