MODEL 1
REMARK minimizedAffinity -3.00415134
REMARK minimizedRMSD -1
REMARK  0 active torsions:
REMARK  status: ('A' for Active; 'I' for Inactive)
ROOT
ATOM      1  C2' OXE d   1       0.706  -3.072  -1.240  0.00  0.00     0.078 C 
ATOM      2  C1' OXE d   1       1.109  -0.592  -2.491  0.00  0.00     0.078 C 
ATOM      3  C1  OXE d   1       0.523  -0.592  -1.101  0.00  0.00    -0.078 A 
ATOM      4  C2  OXE d   1       0.286  -1.812  -0.515  0.00  0.00    -0.078 A 
ATOM      5  C3  OXE d   1      -0.203  -1.868   0.787  0.00  0.00     0.003 A 
ATOM      6  C4  OXE d   1      -0.598  -0.698   1.447  0.00  0.00    -0.002 A 
ATOM      7  C5  OXE d   1      -0.402   0.553   0.852  0.00  0.00    -0.002 A 
ATOM      8  C6  OXE d   1       0.195   0.626  -0.401  0.00  0.00     0.003 A 
ENDROOT
TORSDOF 0
ENDMDL
