MODEL 1
REMARK minimizedAffinity -4.59692669
REMARK minimizedRMSD -1
REMARK  0 active torsions:
REMARK  status: ('A' for Active; 'I' for Inactive)
ROOT
ATOM      1  C2' OXE d   1       1.715  -0.147  -2.781  0.00  0.00     0.078 C 
ATOM      2  C1' OXE d   1       0.444  -2.276  -1.466  0.00  0.00     0.078 C 
ATOM      3  C1  OXE d   1       0.435  -0.927  -0.792  0.00  0.00    -0.078 A 
ATOM      4  C2  OXE d   1       1.100   0.098  -1.420  0.00  0.00    -0.078 A 
ATOM      5  C3  OXE d   1       1.077   1.375  -0.868  0.00  0.00     0.003 A 
ATOM      6  C4  OXE d   1       0.515   1.591   0.396  0.00  0.00    -0.002 A 
ATOM      7  C5  OXE d   1      -0.133   0.552   1.072  0.00  0.00    -0.002 A 
ATOM      8  C6  OXE d   1      -0.218  -0.701   0.474  0.00  0.00     0.003 A 
ENDROOT
TORSDOF 0
ENDMDL
