MODEL 1
REMARK minimizedAffinity -0.48777616
REMARK minimizedRMSD -1
REMARK  0 active torsions:
REMARK  status: ('A' for Active; 'I' for Inactive)
ROOT
ATOM      1  C2' OXE d   1      -0.657  -0.905   0.730  0.00  0.00     0.078 C 
ATOM      2  C1' OXE d   1       0.045   0.810   2.838  0.00  0.00     0.078 C 
ATOM      3  C1  OXE d   1      -1.419   0.659   2.512  0.00  0.00    -0.078 A 
ATOM      4  C2  OXE d   1      -1.751  -0.146   1.449  0.00  0.00    -0.078 A 
ATOM      5  C3  OXE d   1      -3.091  -0.363   1.140  0.00  0.00     0.003 A 
ATOM      6  C4  OXE d   1      -4.096   0.351   1.804  0.00  0.00    -0.002 A 
ATOM      7  C5  OXE d   1      -3.777   1.207   2.864  0.00  0.00    -0.002 A 
ATOM      8  C6  OXE d   1      -2.450   1.339   3.257  0.00  0.00     0.003 A 
ENDROOT
TORSDOF 0
ENDMDL
