MODEL 1
REMARK minimizedAffinity -1.95811784
REMARK minimizedRMSD -1
REMARK  0 active torsions:
REMARK  status: ('A' for Active; 'I' for Inactive)
ROOT
ATOM      1  C2' OXE d   1      -1.064  -0.026   0.643  0.00  0.00     0.078 C 
ATOM      2  C1' OXE d   1       1.151   1.572   1.292  0.00  0.00     0.078 C 
ATOM      3  C1  OXE d   1       1.174   0.840  -0.026  0.00  0.00    -0.078 A 
ATOM      4  C2  OXE d   1       0.107   0.023  -0.315  0.00  0.00    -0.078 A 
ATOM      5  C3  OXE d   1       0.053  -0.633  -1.541  0.00  0.00     0.003 A 
ATOM      6  C4  OXE d   1       1.145  -0.590  -2.417  0.00  0.00    -0.002 A 
ATOM      7  C5  OXE d   1       2.259   0.204  -2.124  0.00  0.00    -0.002 A 
ATOM      8  C6  OXE d   1       2.271   0.957  -0.955  0.00  0.00     0.003 A 
ENDROOT
TORSDOF 0
ENDMDL
