MODEL 1
REMARK minimizedAffinity -0.371837944
REMARK minimizedRMSD -1
REMARK  0 active torsions:
REMARK  status: ('A' for Active; 'I' for Inactive)
ROOT
ATOM      1  C2' OXE d   1      -5.843   2.908  -5.999  0.00  0.00     0.078 C 
ATOM      2  C1' OXE d   1      -5.999   5.711  -6.000  0.00  0.00     0.078 C 
ATOM      3  C1  OXE d   1      -4.646   5.082  -5.782  0.00  0.00    -0.078 A 
ATOM      4  C2  OXE d   1      -4.586   3.710  -5.736  0.00  0.00    -0.078 A 
ATOM      5  C3  OXE d   1      -3.354   3.078  -5.593  0.00  0.00     0.003 A 
ATOM      6  C4  OXE d   1      -2.199   3.826  -5.340  0.00  0.00    -0.002 A 
ATOM      7  C5  OXE d   1      -2.244   5.225  -5.343  0.00  0.00    -0.002 A 
ATOM      8  C6  OXE d   1      -3.449   5.867  -5.604  0.00  0.00     0.003 A 
ENDROOT
TORSDOF 0
ENDMDL
