MODEL 1
REMARK minimizedAffinity -0.38602072
REMARK minimizedRMSD -1
REMARK  0 active torsions:
REMARK  status: ('A' for Active; 'I' for Inactive)
ROOT
ATOM      1  C2' OXE d   1      -0.752  -1.890   0.746  0.00  0.00     0.078 C 
ATOM      2  C1' OXE d   1      -0.305   0.881   0.725  0.00  0.00     0.078 C 
ATOM      3  C1  OXE d   1      -1.701   0.396   1.026  0.00  0.00    -0.078 A 
ATOM      4  C2  OXE d   1      -1.921  -0.960   0.989  0.00  0.00    -0.078 A 
ATOM      5  C3  OXE d   1      -3.177  -1.464   1.313  0.00  0.00     0.003 A 
ATOM      6  C4  OXE d   1      -4.255  -0.597   1.527  0.00  0.00    -0.002 A 
ATOM      7  C5  OXE d   1      -4.062   0.789   1.530  0.00  0.00    -0.002 A 
ATOM      8  C6  OXE d   1      -2.785   1.299   1.324  0.00  0.00     0.003 A 
ENDROOT
TORSDOF 0
ENDMDL
