MODEL 1
REMARK minimizedAffinity -2.80029869
REMARK minimizedRMSD -1
REMARK  0 active torsions:
REMARK  status: ('A' for Active; 'I' for Inactive)
ROOT
ATOM      1  C2' OXE d   1       1.452  -0.352  -2.587  0.00  0.00     0.078 C 
ATOM      2  C1' OXE d   1       0.806  -2.898  -1.599  0.00  0.00     0.078 C 
ATOM      3  C1  OXE d   1       0.418  -1.702  -0.767  0.00  0.00    -0.078 A 
ATOM      4  C2  OXE d   1       0.780  -0.462  -1.235  0.00  0.00    -0.078 A 
ATOM      5  C3  OXE d   1       0.399   0.678  -0.533  0.00  0.00     0.003 A 
ATOM      6  C4  OXE d   1      -0.214   0.567   0.721  0.00  0.00    -0.002 A 
ATOM      7  C5  OXE d   1      -0.556  -0.688   1.235  0.00  0.00    -0.002 A 
ATOM      8  C6  OXE d   1      -0.285  -1.828   0.486  0.00  0.00     0.003 A 
ENDROOT
TORSDOF 0
ENDMDL
