MODEL 1
REMARK minimizedAffinity -1.5547955
REMARK minimizedRMSD -1
REMARK  0 active torsions:
REMARK  status: ('A' for Active; 'I' for Inactive)
ROOT
ATOM      1  C2' OXE d   1      -0.344  -0.625   0.388  0.00  0.00     0.078 C 
ATOM      2  C1' OXE d   1       0.593   0.666   2.698  0.00  0.00     0.078 C 
ATOM      3  C1  OXE d   1      -0.892   0.680   2.438  0.00  0.00    -0.078 A 
ATOM      4  C2  OXE d   1      -1.338   0.086   1.282  0.00  0.00    -0.078 A 
ATOM      5  C3  OXE d   1      -2.704   0.022   1.021  0.00  0.00     0.003 A 
ATOM      6  C4  OXE d   1      -3.615   0.691   1.848  0.00  0.00    -0.002 A 
ATOM      7  C5  OXE d   1      -3.178   1.336   3.010  0.00  0.00    -0.002 A 
ATOM      8  C6  OXE d   1      -1.828   1.303   3.341  0.00  0.00     0.003 A 
ENDROOT
TORSDOF 0
ENDMDL
