MODEL 1
REMARK minimizedAffinity -2.77241135
REMARK minimizedRMSD -1
REMARK  0 active torsions:
REMARK  status: ('A' for Active; 'I' for Inactive)
ROOT
ATOM      1  C2' OXE d   1       1.725   1.930  -0.260  0.00  0.00     0.078 C 
ATOM      2  C1' OXE d   1      -0.436   0.484   0.798  0.00  0.00     0.078 C 
ATOM      3  C1  OXE d   1       0.327  -0.129  -0.349  0.00  0.00    -0.078 A 
ATOM      4  C2  OXE d   1       1.354   0.606  -0.891  0.00  0.00    -0.078 A 
ATOM      5  C3  OXE d   1       2.124   0.064  -1.915  0.00  0.00     0.003 A 
ATOM      6  C4  OXE d   1       1.767  -1.157  -2.501  0.00  0.00    -0.002 A 
ATOM      7  C5  OXE d   1       0.701  -1.904  -1.990  0.00  0.00    -0.002 A 
ATOM      8  C6  OXE d   1      -0.002  -1.425  -0.889  0.00  0.00     0.003 A 
ENDROOT
TORSDOF 0
ENDMDL
