MODEL 1
REMARK minimizedAffinity -4.83942127
REMARK minimizedRMSD -1
REMARK  0 active torsions:
REMARK  status: ('A' for Active; 'I' for Inactive)
ROOT
ATOM      1  C2' OXE d   1       0.952   2.094   0.549  0.00  0.00     0.078 C 
ATOM      2  C1' OXE d   1      -0.590  -0.243   0.748  0.00  0.00     0.078 C 
ATOM      3  C1  OXE d   1       0.352  -0.119  -0.423  0.00  0.00    -0.078 A 
ATOM      4  C2  OXE d   1       1.069   1.048  -0.538  0.00  0.00    -0.078 A 
ATOM      5  C3  OXE d   1       1.993   1.191  -1.569  0.00  0.00     0.003 A 
ATOM      6  C4  OXE d   1       2.088   0.222  -2.575  0.00  0.00    -0.002 A 
ATOM      7  C5  OXE d   1       1.338  -0.956  -2.499  0.00  0.00    -0.002 A 
ATOM      8  C6  OXE d   1       0.499  -1.161  -1.410  0.00  0.00     0.003 A 
ENDROOT
TORSDOF 0
ENDMDL
