MODEL 1
REMARK minimizedAffinity 6.53172684
REMARK minimizedRMSD -1
REMARK  0 active torsions:
REMARK  status: ('A' for Active; 'I' for Inactive)
ROOT
ATOM      1  C   UNL d   1       3.442  -3.429   0.059  0.00  0.00     0.078 C 
ATOM      2  C1  UNL d   1       2.690  -2.230  -0.436  0.00  0.00    -0.077 A 
ATOM      3  C2  UNL d   1       2.028  -2.253  -1.669  0.00  0.00    -0.001 A 
ATOM      4  C3  UNL d   1       1.341  -1.126  -2.122  0.00  0.00     0.003 A 
ATOM      5  C4  UNL d   1       1.310   0.033  -1.349  0.00  0.00    -0.005 A 
ATOM      6  C5  UNL d   1       1.968   0.066  -0.121  0.00  0.00     0.003 A 
ATOM      7  C6  UNL d   1       2.656  -1.060   0.334  0.00  0.00    -0.001 A 
ENDROOT
TORSDOF 0
ENDMDL
