MODEL 1
REMARK minimizedAffinity 17.4327374
REMARK minimizedRMSD -1
REMARK  0 active torsions:
REMARK  status: ('A' for Active; 'I' for Inactive)
ROOT
ATOM      1  C   UNL d   1       2.150  -4.133  -0.218  0.00  0.00     0.078 C 
ATOM      2  C1  UNL d   1       2.083  -2.742  -0.774  0.00  0.00    -0.077 A 
ATOM      3  C2  UNL d   1       1.260  -2.441  -1.866  0.00  0.00    -0.001 A 
ATOM      4  C3  UNL d   1       1.215  -1.144  -2.380  0.00  0.00     0.003 A 
ATOM      5  C4  UNL d   1       1.991  -0.138  -1.809  0.00  0.00    -0.005 A 
ATOM      6  C5  UNL d   1       2.815  -0.428  -0.723  0.00  0.00     0.003 A 
ATOM      7  C6  UNL d   1       2.861  -1.725  -0.208  0.00  0.00    -0.001 A 
ENDROOT
TORSDOF 0
ENDMDL
