MODEL 1
REMARK minimizedAffinity 8.05461502
REMARK minimizedRMSD -1
REMARK  0 active torsions:
REMARK  status: ('A' for Active; 'I' for Inactive)
ROOT
ATOM      1  C   UNL d   1       2.615  -2.272   0.014  0.00  0.00     0.078 C 
ATOM      2  C1  UNL d   1       3.379  -3.563   0.010  0.00  0.00    -0.077 A 
ATOM      3  C2  UNL d   1       2.715  -4.794   0.079  0.00  0.00    -0.001 A 
ATOM      4  C3  UNL d   1       3.439  -5.987   0.085  0.00  0.00     0.003 A 
ATOM      5  C4  UNL d   1       4.831  -5.961   0.023  0.00  0.00    -0.005 A 
ATOM      6  C5  UNL d   1       5.500  -4.740  -0.044  0.00  0.00     0.003 A 
ATOM      7  C6  UNL d   1       4.778  -3.546  -0.050  0.00  0.00    -0.001 A 
ENDROOT
TORSDOF 0
ENDMDL
