MODEL 1
REMARK minimizedAffinity 14.6029377
REMARK minimizedRMSD -1
REMARK  0 active torsions:
REMARK  status: ('A' for Active; 'I' for Inactive)
ROOT
ATOM      1  C   UNL d   1       1.347  -1.066  -1.582  0.00  0.00     0.078 C 
ATOM      2  C1  UNL d   1       2.433  -0.133  -1.137  0.00  0.00    -0.077 A 
ATOM      3  C2  UNL d   1       2.468   1.196  -1.577  0.00  0.00    -0.001 A 
ATOM      4  C3  UNL d   1       3.491   2.050  -1.163  0.00  0.00     0.003 A 
ATOM      5  C4  UNL d   1       4.488   1.585  -0.308  0.00  0.00    -0.005 A 
ATOM      6  C5  UNL d   1       4.463   0.264   0.134  0.00  0.00     0.003 A 
ATOM      7  C6  UNL d   1       3.441  -0.592  -0.280  0.00  0.00    -0.001 A 
ENDROOT
TORSDOF 0
ENDMDL
