MODEL 1
REMARK minimizedAffinity -0.653901577
REMARK minimizedRMSD -1
REMARK  0 active torsions:
REMARK  status: ('A' for Active; 'I' for Inactive)
ROOT
ATOM      1  C   UNL d   1       3.584  -3.561   0.221  0.00  0.00     0.078 C 
ATOM      2  C1  UNL d   1       2.980  -2.413  -0.531  0.00  0.00    -0.077 A 
ATOM      3  C2  UNL d   1       2.835  -1.155   0.067  0.00  0.00    -0.001 A 
ATOM      4  C3  UNL d   1       2.262  -0.098  -0.642  0.00  0.00     0.003 A 
ATOM      5  C4  UNL d   1       1.830  -0.288  -1.953  0.00  0.00    -0.005 A 
ATOM      6  C5  UNL d   1       1.968  -1.536  -2.556  0.00  0.00     0.003 A 
ATOM      7  C6  UNL d   1       2.540  -2.595  -1.848  0.00  0.00    -0.001 A 
ENDROOT
TORSDOF 0
ENDMDL
