MODEL 1
REMARK minimizedAffinity 19.3527088
REMARK minimizedRMSD -1
REMARK  0 active torsions:
REMARK  status: ('A' for Active; 'I' for Inactive)
ROOT
ATOM      1  C   UNL d   1       3.617  -6.000   0.758  0.00  0.00     0.078 C 
ATOM      2  C1  UNL d   1       3.426  -4.524   0.570  0.00  0.00    -0.077 A 
ATOM      3  C2  UNL d   1       2.186  -4.001   0.185  0.00  0.00    -0.001 A 
ATOM      4  C3  UNL d   1       2.026  -2.626   0.005  0.00  0.00     0.003 A 
ATOM      5  C4  UNL d   1       3.102  -1.764   0.206  0.00  0.00    -0.005 A 
ATOM      6  C5  UNL d   1       4.340  -2.276   0.587  0.00  0.00     0.003 A 
ATOM      7  C6  UNL d   1       4.502  -3.650   0.768  0.00  0.00    -0.001 A 
ENDROOT
TORSDOF 0
ENDMDL
