MODEL 1
REMARK minimizedAffinity 14.1892166
REMARK minimizedRMSD -1
REMARK  0 active torsions:
REMARK  status: ('A' for Active; 'I' for Inactive)
ROOT
ATOM      1  C   UNL d   1       2.274   0.701  -3.567  0.00  0.00     0.078 C 
ATOM      2  C1  UNL d   1       2.299   2.089  -3.000  0.00  0.00    -0.077 A 
ATOM      3  C2  UNL d   1       3.349   2.513  -2.177  0.00  0.00    -0.001 A 
ATOM      4  C3  UNL d   1       3.354   3.804  -1.648  0.00  0.00     0.003 A 
ATOM      5  C4  UNL d   1       2.311   4.682  -1.935  0.00  0.00    -0.005 A 
ATOM      6  C5  UNL d   1       1.260   4.268  -2.751  0.00  0.00     0.003 A 
ATOM      7  C6  UNL d   1       1.253   2.977  -3.281  0.00  0.00    -0.001 A 
ENDROOT
TORSDOF 0
ENDMDL
