MODEL 1
REMARK minimizedAffinity 17.9673557
REMARK minimizedRMSD -1
REMARK  0 active torsions:
REMARK  status: ('A' for Active; 'I' for Inactive)
ROOT
ATOM      1  C   UNL d   1       3.361   1.389   0.017  0.00  0.00     0.078 C 
ATOM      2  C1  UNL d   1       3.287  -0.106  -0.071  0.00  0.00    -0.077 A 
ATOM      3  C2  UNL d   1       4.349  -0.908   0.365  0.00  0.00    -0.001 A 
ATOM      4  C3  UNL d   1       4.271  -2.298   0.268  0.00  0.00     0.003 A 
ATOM      5  C4  UNL d   1       3.132  -2.899  -0.266  0.00  0.00    -0.005 A 
ATOM      6  C5  UNL d   1       2.071  -2.109  -0.704  0.00  0.00     0.003 A 
ATOM      7  C6  UNL d   1       2.148  -0.719  -0.608  0.00  0.00    -0.001 A 
ENDROOT
TORSDOF 0
ENDMDL
