MODEL 1
REMARK minimizedAffinity -3.40028405
REMARK minimizedRMSD -1
REMARK  0 active torsions:
REMARK  status: ('A' for Active; 'I' for Inactive)
ROOT
ATOM      1  C   UNL d   1       1.885  -1.417  -1.914  0.00  0.00     0.078 C 
ATOM      2  C1  UNL d   1       2.233  -2.875  -1.882  0.00  0.00    -0.077 A 
ATOM      3  C2  UNL d   1       3.076  -3.394  -0.892  0.00  0.00    -0.001 A 
ATOM      4  C3  UNL d   1       3.399  -4.752  -0.880  0.00  0.00     0.003 A 
ATOM      5  C4  UNL d   1       2.885  -5.602  -1.858  0.00  0.00    -0.005 A 
ATOM      6  C5  UNL d   1       2.047  -5.094  -2.849  0.00  0.00     0.003 A 
ATOM      7  C6  UNL d   1       1.723  -3.736  -2.862  0.00  0.00    -0.001 A 
ENDROOT
TORSDOF 0
ENDMDL
