MODEL 1
REMARK minimizedAffinity 9.13344193
REMARK minimizedRMSD -1
REMARK  0 active torsions:
REMARK  status: ('A' for Active; 'I' for Inactive)
ROOT
ATOM      1  C   UNL d   1      -3.382   1.762   3.001  0.00  0.00     0.078 C 
ATOM      2  C1  UNL d   1      -1.964   1.565   2.556  0.00  0.00    -0.077 A 
ATOM      3  C2  UNL d   1      -1.666   0.853   1.388  0.00  0.00    -0.001 A 
ATOM      4  C3  UNL d   1      -0.341   0.669   0.991  0.00  0.00     0.003 A 
ATOM      5  C4  UNL d   1       0.698   1.193   1.757  0.00  0.00    -0.005 A 
ATOM      6  C5  UNL d   1       0.412   1.902   2.922  0.00  0.00     0.003 A 
ATOM      7  C6  UNL d   1      -0.913   2.087   3.321  0.00  0.00    -0.001 A 
ENDROOT
TORSDOF 0
ENDMDL
