MODEL 1
REMARK minimizedAffinity 9.84577084
REMARK minimizedRMSD -1
REMARK  0 active torsions:
REMARK  status: ('A' for Active; 'I' for Inactive)
ROOT
ATOM      1  C   UNL d   1      -3.021   0.813   2.528  0.00  0.00     0.078 C 
ATOM      2  C1  UNL d   1      -3.489   1.613   3.706  0.00  0.00    -0.077 A 
ATOM      3  C2  UNL d   1      -4.652   2.391   3.633  0.00  0.00    -0.001 A 
ATOM      4  C3  UNL d   1      -5.071   3.139   4.734  0.00  0.00     0.003 A 
ATOM      5  C4  UNL d   1      -4.333   3.118   5.917  0.00  0.00    -0.005 A 
ATOM      6  C5  UNL d   1      -3.174   2.348   5.998  0.00  0.00     0.003 A 
ATOM      7  C6  UNL d   1      -2.753   1.600   4.898  0.00  0.00    -0.001 A 
ENDROOT
TORSDOF 0
ENDMDL
