MODEL 1
REMARK minimizedAffinity 8.80585766
REMARK minimizedRMSD -1
REMARK  0 active torsions:
REMARK  status: ('A' for Active; 'I' for Inactive)
ROOT
ATOM      1  C   UNL d   1       1.654  -0.433  -2.017  0.00  0.00     0.078 C 
ATOM      2  C1  UNL d   1       2.032   0.293  -0.761  0.00  0.00    -0.077 A 
ATOM      3  C2  UNL d   1       3.352   0.700  -0.532  0.00  0.00    -0.001 A 
ATOM      4  C3  UNL d   1       3.691   1.366   0.647  0.00  0.00     0.003 A 
ATOM      5  C4  UNL d   1       2.716   1.630   1.607  0.00  0.00    -0.005 A 
ATOM      6  C5  UNL d   1       1.400   1.227   1.389  0.00  0.00     0.003 A 
ATOM      7  C6  UNL d   1       1.059   0.561   0.211  0.00  0.00    -0.001 A 
ENDROOT
TORSDOF 0
ENDMDL
