MODEL 1
REMARK minimizedAffinity 7.19258881
REMARK minimizedRMSD -1
REMARK  0 active torsions:
REMARK  status: ('A' for Active; 'I' for Inactive)
ROOT
ATOM      1  C   UNL d   1       1.873   2.005   3.346  0.00  0.00     0.078 C 
ATOM      2  C1  UNL d   1       0.541   1.674   2.742  0.00  0.00    -0.077 A 
ATOM      3  C2  UNL d   1      -0.634   2.270   3.215  0.00  0.00    -0.001 A 
ATOM      4  C3  UNL d   1      -1.868   1.944   2.649  0.00  0.00     0.003 A 
ATOM      5  C4  UNL d   1      -1.938   1.021   1.607  0.00  0.00    -0.005 A 
ATOM      6  C5  UNL d   1      -0.774   0.421   1.131  0.00  0.00     0.003 A 
ATOM      7  C6  UNL d   1       0.461   0.745   1.696  0.00  0.00    -0.001 A 
ENDROOT
TORSDOF 0
ENDMDL
