MODEL 1
REMARK minimizedAffinity 14.3308449
REMARK minimizedRMSD -1
REMARK  0 active torsions:
REMARK  status: ('A' for Active; 'I' for Inactive)
ROOT
ATOM      1  C   UNL d   1      -0.616   1.784  -4.819  0.00  0.00     0.078 C 
ATOM      2  C1  UNL d   1      -1.490   3.002  -4.833  0.00  0.00    -0.077 A 
ATOM      3  C2  UNL d   1      -1.586   3.834  -3.711  0.00  0.00    -0.001 A 
ATOM      4  C3  UNL d   1      -2.412   4.959  -3.735  0.00  0.00     0.003 A 
ATOM      5  C4  UNL d   1      -3.147   5.263  -4.879  0.00  0.00    -0.005 A 
ATOM      6  C5  UNL d   1      -3.060   4.440  -6.000  0.00  0.00     0.003 A 
ATOM      7  C6  UNL d   1      -2.235   3.314  -5.978  0.00  0.00    -0.001 A 
ENDROOT
TORSDOF 0
ENDMDL
