MODEL 1
REMARK minimizedAffinity 6.10014057
REMARK minimizedRMSD -1
REMARK  0 active torsions:
REMARK  status: ('A' for Active; 'I' for Inactive)
ROOT
ATOM      1  C   UNL d   1      -2.646   0.824   2.630  0.00  0.00     0.078 C 
ATOM      2  C1  UNL d   1      -3.386   1.598   3.680  0.00  0.00    -0.077 A 
ATOM      3  C2  UNL d   1      -3.026   1.507   5.030  0.00  0.00    -0.001 A 
ATOM      4  C3  UNL d   1      -3.730   2.225   5.998  0.00  0.00     0.003 A 
ATOM      5  C4  UNL d   1      -4.800   3.037   5.626  0.00  0.00    -0.005 A 
ATOM      6  C5  UNL d   1      -5.167   3.132   4.286  0.00  0.00     0.003 A 
ATOM      7  C6  UNL d   1      -4.464   2.415   3.316  0.00  0.00    -0.001 A 
ENDROOT
TORSDOF 0
ENDMDL
