MODEL 1
REMARK minimizedAffinity 11.6765022
REMARK minimizedRMSD -1
REMARK  0 active torsions:
REMARK  status: ('A' for Active; 'I' for Inactive)
ROOT
ATOM      1  C   UNL d   1       1.161   0.544  -4.239  0.00  0.00     0.078 C 
ATOM      2  C1  UNL d   1       1.603   0.406  -2.812  0.00  0.00    -0.077 A 
ATOM      3  C2  UNL d   1       1.203  -0.688  -2.035  0.00  0.00    -0.001 A 
ATOM      4  C3  UNL d   1       1.614  -0.798  -0.706  0.00  0.00     0.003 A 
ATOM      5  C4  UNL d   1       2.428   0.182  -0.142  0.00  0.00    -0.005 A 
ATOM      6  C5  UNL d   1       2.830   1.276  -0.907  0.00  0.00     0.003 A 
ATOM      7  C6  UNL d   1       2.419   1.388  -2.236  0.00  0.00    -0.001 A 
ENDROOT
TORSDOF 0
ENDMDL
