MODEL 1
REMARK minimizedAffinity 5.03340292
REMARK minimizedRMSD -1
REMARK  0 active torsions:
REMARK  status: ('A' for Active; 'I' for Inactive)
ROOT
ATOM      1  C   UNL d   1      -2.289   2.066   2.239  0.00  0.00     0.078 C 
ATOM      2  C1  UNL d   1      -3.511   1.524   1.560  0.00  0.00    -0.077 A 
ATOM      3  C2  UNL d   1      -3.438   0.977   0.273  0.00  0.00    -0.001 A 
ATOM      4  C3  UNL d   1      -4.586   0.486  -0.352  0.00  0.00     0.003 A 
ATOM      5  C4  UNL d   1      -5.815   0.537   0.303  0.00  0.00    -0.005 A 
ATOM      6  C5  UNL d   1      -5.898   1.081   1.583  0.00  0.00     0.003 A 
ATOM      7  C6  UNL d   1      -4.752   1.573   2.209  0.00  0.00    -0.001 A 
ENDROOT
TORSDOF 0
ENDMDL
