MODEL 1
REMARK minimizedAffinity 1.66219747
REMARK minimizedRMSD -1
REMARK  0 active torsions:
REMARK  status: ('A' for Active; 'I' for Inactive)
ROOT
ATOM      1  C   UNL d   1      -3.874   0.999  -2.876  0.00  0.00     0.078 C 
ATOM      2  C1  UNL d   1      -4.485   2.302  -3.298  0.00  0.00    -0.077 A 
ATOM      3  C2  UNL d   1      -4.116   2.916  -4.501  0.00  0.00    -0.001 A 
ATOM      4  C3  UNL d   1      -4.686   4.134  -4.876  0.00  0.00     0.003 A 
ATOM      5  C4  UNL d   1      -5.627   4.749  -4.054  0.00  0.00    -0.005 A 
ATOM      6  C5  UNL d   1      -6.000   4.146  -2.854  0.00  0.00     0.003 A 
ATOM      7  C6  UNL d   1      -5.431   2.929  -2.477  0.00  0.00    -0.001 A 
ENDROOT
TORSDOF 0
ENDMDL
