MODEL 1
REMARK minimizedAffinity 0.745227873
REMARK minimizedRMSD -1
REMARK  0 active torsions:
REMARK  status: ('A' for Active; 'I' for Inactive)
ROOT
ATOM      1  C   UNL d   1      -0.515   2.134  -0.468  0.00  0.00     0.078 C 
ATOM      2  C1  UNL d   1      -1.816   2.081   0.277  0.00  0.00    -0.077 A 
ATOM      3  C2  UNL d   1      -2.733   1.047   0.053  0.00  0.00    -0.001 A 
ATOM      4  C3  UNL d   1      -3.944   1.015   0.746  0.00  0.00     0.003 A 
ATOM      5  C4  UNL d   1      -4.249   2.015   1.667  0.00  0.00    -0.005 A 
ATOM      6  C5  UNL d   1      -3.344   3.049   1.895  0.00  0.00     0.003 A 
ATOM      7  C6  UNL d   1      -2.132   3.083   1.203  0.00  0.00    -0.001 A 
ENDROOT
TORSDOF 0
ENDMDL
