MODEL 1
REMARK minimizedAffinity 3.78968668
REMARK minimizedRMSD -1
REMARK  0 active torsions:
REMARK  status: ('A' for Active; 'I' for Inactive)
ROOT
ATOM      1  C   UNL d   1       1.983   1.546   0.245  0.00  0.00     0.078 C 
ATOM      2  C1  UNL d   1       1.869   0.070   0.006  0.00  0.00    -0.077 A 
ATOM      3  C2  UNL d   1       0.825  -0.458  -0.762  0.00  0.00    -0.001 A 
ATOM      4  C3  UNL d   1       0.726  -1.835  -0.968  0.00  0.00     0.003 A 
ATOM      5  C4  UNL d   1       1.668  -2.695  -0.408  0.00  0.00    -0.005 A 
ATOM      6  C5  UNL d   1       2.710  -2.179   0.360  0.00  0.00     0.003 A 
ATOM      7  C6  UNL d   1       2.810  -0.803   0.567  0.00  0.00    -0.001 A 
ENDROOT
TORSDOF 0
ENDMDL
