MODEL 1
REMARK minimizedAffinity 2.11010551
REMARK minimizedRMSD -1
REMARK  0 active torsions:
REMARK  status: ('A' for Active; 'I' for Inactive)
ROOT
ATOM      1  C   UNL d   1       2.196   1.640   0.191  0.00  0.00     0.078 C 
ATOM      2  C1  UNL d   1       0.988   1.984   1.009  0.00  0.00    -0.077 A 
ATOM      3  C2  UNL d   1       0.139   3.033   0.636  0.00  0.00    -0.001 A 
ATOM      4  C3  UNL d   1      -0.977   3.348   1.413  0.00  0.00     0.003 A 
ATOM      5  C4  UNL d   1      -1.254   2.620   2.568  0.00  0.00    -0.005 A 
ATOM      6  C5  UNL d   1      -0.414   1.576   2.948  0.00  0.00     0.003 A 
ATOM      7  C6  UNL d   1       0.703   1.259   2.173  0.00  0.00    -0.001 A 
ENDROOT
TORSDOF 0
ENDMDL
