MODEL 1
REMARK minimizedAffinity 0.35091424
REMARK minimizedRMSD -1
REMARK  0 active torsions:
REMARK  status: ('A' for Active; 'I' for Inactive)
ROOT
ATOM      1  C   UNL d   1      -1.070   1.405   0.934  0.00  0.00     0.078 C 
ATOM      2  C1  UNL d   1      -2.515   1.072   0.709  0.00  0.00    -0.077 A 
ATOM      3  C2  UNL d   1      -3.475   1.322   1.697  0.00  0.00    -0.001 A 
ATOM      4  C3  UNL d   1      -4.814   0.998   1.478  0.00  0.00     0.003 A 
ATOM      5  C4  UNL d   1      -5.206   0.420   0.272  0.00  0.00    -0.005 A 
ATOM      6  C5  UNL d   1      -4.258   0.165  -0.716  0.00  0.00     0.003 A 
ATOM      7  C6  UNL d   1      -2.918   0.489  -0.499  0.00  0.00    -0.001 A 
ENDROOT
TORSDOF 0
ENDMDL
