MODEL 1
REMARK minimizedAffinity -0.0834712312
REMARK minimizedRMSD -1
REMARK  0 active torsions:
REMARK  status: ('A' for Active; 'I' for Inactive)
ROOT
ATOM      1  C   UNL d   1      -5.277   0.375  -0.427  0.00  0.00     0.078 C 
ATOM      2  C1  UNL d   1      -5.186   0.668  -1.895  0.00  0.00    -0.077 A 
ATOM      3  C2  UNL d   1      -5.708   1.853  -2.427  0.00  0.00    -0.001 A 
ATOM      4  C3  UNL d   1      -5.625   2.108  -3.797  0.00  0.00     0.003 A 
ATOM      5  C4  UNL d   1      -5.021   1.183  -4.646  0.00  0.00    -0.005 A 
ATOM      6  C5  UNL d   1      -4.500   0.000  -4.125  0.00  0.00     0.003 A 
ATOM      7  C6  UNL d   1      -4.582  -0.257  -2.756  0.00  0.00    -0.001 A 
ENDROOT
TORSDOF 0
ENDMDL
