MODEL 1
REMARK minimizedAffinity 0.491486996
REMARK minimizedRMSD -1
REMARK  0 active torsions:
REMARK  status: ('A' for Active; 'I' for Inactive)
ROOT
ATOM      1  C   UNL d   1       0.357  -1.084  -3.164  0.00  0.00     0.078 C 
ATOM      2  C1  UNL d   1       0.603  -1.845  -1.896  0.00  0.00    -0.077 A 
ATOM      3  C2  UNL d   1      -0.272  -2.856  -1.480  0.00  0.00    -0.001 A 
ATOM      4  C3  UNL d   1      -0.035  -3.550  -0.293  0.00  0.00     0.003 A 
ATOM      5  C4  UNL d   1       1.076  -3.240   0.490  0.00  0.00    -0.005 A 
ATOM      6  C5  UNL d   1       1.951  -2.234   0.085  0.00  0.00     0.003 A 
ATOM      7  C6  UNL d   1       1.716  -1.539  -1.102  0.00  0.00    -0.001 A 
ENDROOT
TORSDOF 0
ENDMDL
