MODEL 1
REMARK minimizedAffinity 2.00299644
REMARK minimizedRMSD -1
REMARK  0 active torsions:
REMARK  status: ('A' for Active; 'I' for Inactive)
ROOT
ATOM      1  C   UNL d   1      -0.036  -3.446  -0.754  0.00  0.00     0.078 C 
ATOM      2  C1  UNL d   1       1.114  -2.604  -0.286  0.00  0.00    -0.077 A 
ATOM      3  C2  UNL d   1       1.799  -2.912   0.896  0.00  0.00    -0.001 A 
ATOM      4  C3  UNL d   1       2.861  -2.115   1.325  0.00  0.00     0.003 A 
ATOM      5  C4  UNL d   1       3.247  -1.003   0.578  0.00  0.00    -0.005 A 
ATOM      6  C5  UNL d   1       2.570  -0.688  -0.598  0.00  0.00     0.003 A 
ATOM      7  C6  UNL d   1       1.508  -1.484  -1.028  0.00  0.00    -0.001 A 
ENDROOT
TORSDOF 0
ENDMDL
