MODEL 1
REMARK minimizedAffinity 4.81500387
REMARK minimizedRMSD -1
REMARK  0 active torsions:
REMARK  status: ('A' for Active; 'I' for Inactive)
ROOT
ATOM      1  O1  BZF d   1      -4.663  -3.876  -2.398  0.00  0.00    -0.204 OA
ATOM      2  C2  BZF d   1      -4.981  -4.958  -1.600  0.00  0.00     0.174 A 
ATOM      3  C3  BZF d   1      -5.565  -5.933  -2.326  0.00  0.00    -0.012 A 
ATOM      4  C3A BZF d   1      -5.531  -5.466  -3.678  0.00  0.00    -0.107 A 
ATOM      5  C4  BZF d   1      -5.946  -5.998  -4.866  0.00  0.00     0.055 A 
ATOM      6  C5  BZF d   1      -5.833  -5.254  -5.998  0.00  0.00    -0.016 A 
ATOM      7  C6  BZF d   1      -5.315  -3.976  -5.978  0.00  0.00     0.022 A 
ATOM      8  C7  BZF d   1      -4.885  -3.408  -4.825  0.00  0.00     0.029 A 
ATOM      9  C7A BZF d   1      -4.967  -4.169  -3.685  0.00  0.00     0.058 A 
ENDROOT
TORSDOF 0
ENDMDL
