MODEL 1
REMARK minimizedAffinity 0.202702612
REMARK minimizedRMSD -1
REMARK  0 active torsions:
REMARK  status: ('A' for Active; 'I' for Inactive)
ROOT
ATOM      1  O1  BZF d   1      -5.979  -3.601  -2.698  0.00  0.00    -0.204 OA
ATOM      2  C2  BZF d   1      -5.966  -4.767  -1.957  0.00  0.00     0.174 A 
ATOM      3  C3  BZF d   1      -5.379  -5.767  -2.648  0.00  0.00    -0.012 A 
ATOM      4  C3A BZF d   1      -4.920  -5.165  -3.862  0.00  0.00    -0.107 A 
ATOM      5  C4  BZF d   1      -4.246  -5.643  -4.949  0.00  0.00     0.055 A 
ATOM      6  C5  BZF d   1      -4.014  -4.812  -6.000  0.00  0.00    -0.016 A 
ATOM      7  C6  BZF d   1      -4.447  -3.503  -5.999  0.00  0.00     0.022 A 
ATOM      8  C7  BZF d   1      -5.115  -2.982  -4.941  0.00  0.00     0.029 A 
ATOM      9  C7A BZF d   1      -5.322  -3.810  -3.864  0.00  0.00     0.058 A 
ENDROOT
TORSDOF 0
ENDMDL
