MODEL 1
REMARK minimizedAffinity -2.4420712
REMARK minimizedRMSD -1
REMARK  0 active torsions:
REMARK  status: ('A' for Active; 'I' for Inactive)
ROOT
ATOM      1  O1  BZF d   1      -5.135  -3.844  -5.364  0.00  0.00    -0.204 OA
ATOM      2  C2  BZF d   1      -4.588  -4.956  -5.975  0.00  0.00     0.174 A 
ATOM      3  C3  BZF d   1      -4.412  -5.953  -5.084  0.00  0.00    -0.012 A 
ATOM      4  C3A BZF d   1      -4.964  -5.463  -3.858  0.00  0.00    -0.107 A 
ATOM      5  C4  BZF d   1      -5.100  -6.000  -2.609  0.00  0.00     0.055 A 
ATOM      6  C5  BZF d   1      -5.616  -5.232  -1.613  0.00  0.00    -0.016 A 
ATOM      7  C6  BZF d   1      -6.000  -3.925  -1.829  0.00  0.00     0.022 A 
ATOM      8  C7  BZF d   1      -5.888  -3.351  -3.051  0.00  0.00     0.029 A 
ATOM      9  C7A BZF d   1      -5.398  -4.134  -4.068  0.00  0.00     0.058 A 
ENDROOT
TORSDOF 0
ENDMDL
