MODEL 1
REMARK minimizedAffinity 3.31613636
REMARK minimizedRMSD -1
REMARK  0 active torsions:
REMARK  status: ('A' for Active; 'I' for Inactive)
ROOT
ATOM      1  O1  BZF d   1       1.283   0.013   2.704  0.00  0.00    -0.204 OA
ATOM      2  C2  BZF d   1       1.588   0.216   1.372  0.00  0.00     0.174 A 
ATOM      3  C3  BZF d   1       1.994  -0.933   0.795  0.00  0.00    -0.012 A 
ATOM      4  C3A BZF d   1       1.851  -1.934   1.807  0.00  0.00    -0.107 A 
ATOM      5  C4  BZF d   1       2.080  -3.280   1.835  0.00  0.00     0.055 A 
ATOM      6  C5  BZF d   1       1.910  -3.955   3.002  0.00  0.00    -0.016 A 
ATOM      7  C6  BZF d   1       1.517  -3.315   4.160  0.00  0.00     0.022 A 
ATOM      8  C7  BZF d   1       1.273  -1.982   4.180  0.00  0.00     0.029 A 
ATOM      9  C7A BZF d   1       1.413  -1.304   2.994  0.00  0.00     0.058 A 
ENDROOT
TORSDOF 0
ENDMDL
