MODEL 1
REMARK minimizedAffinity 1.72298992
REMARK minimizedRMSD -1
REMARK  0 active torsions:
REMARK  status: ('A' for Active; 'I' for Inactive)
ROOT
ATOM      1  O1  BZF d   1      -6.000  -3.101  -4.782  0.00  0.00    -0.204 OA
ATOM      2  C2  BZF d   1      -5.360  -3.242  -5.998  0.00  0.00     0.174 A 
ATOM      3  C3  BZF d   1      -4.415  -4.201  -5.934  0.00  0.00    -0.012 A 
ATOM      4  C3A BZF d   1      -4.529  -4.754  -4.619  0.00  0.00    -0.107 A 
ATOM      5  C4  BZF d   1      -3.871  -5.754  -3.961  0.00  0.00     0.055 A 
ATOM      6  C5  BZF d   1      -4.174  -5.998  -2.659  0.00  0.00    -0.016 A 
ATOM      7  C6  BZF d   1      -5.124  -5.259  -1.984  0.00  0.00     0.022 A 
ATOM      8  C7  BZF d   1      -5.806  -4.261  -2.596  0.00  0.00     0.029 A 
ATOM      9  C7A BZF d   1      -5.526  -4.034  -3.921  0.00  0.00     0.058 A 
ENDROOT
TORSDOF 0
ENDMDL
