MODEL 1
REMARK minimizedAffinity 6.83915472
REMARK minimizedRMSD -1
REMARK  0 active torsions:
REMARK  status: ('A' for Active; 'I' for Inactive)
ROOT
ATOM      1  O1  BZF d   1      -3.763  -4.335  -2.614  0.00  0.00    -0.204 OA
ATOM      2  C2  BZF d   1      -4.945  -3.953  -2.010  0.00  0.00     0.174 A 
ATOM      3  C3  BZF d   1      -6.000  -4.239  -2.800  0.00  0.00    -0.012 A 
ATOM      4  C3A BZF d   1      -5.449  -4.922  -3.930  0.00  0.00    -0.107 A 
ATOM      5  C4  BZF d   1      -5.998  -5.472  -5.053  0.00  0.00     0.055 A 
ATOM      6  C5  BZF d   1      -5.177  -6.000  -5.999  0.00  0.00    -0.016 A 
ATOM      7  C6  BZF d   1      -3.805  -5.990  -5.857  0.00  0.00     0.022 A 
ATOM      8  C7  BZF d   1      -3.215  -5.459  -4.758  0.00  0.00     0.029 A 
ATOM      9  C7A BZF d   1      -4.043  -4.955  -3.785  0.00  0.00     0.058 A 
ENDROOT
TORSDOF 0
ENDMDL
