MODEL 1
REMARK minimizedAffinity 2.61489344
REMARK minimizedRMSD -1
REMARK  0 active torsions:
REMARK  status: ('A' for Active; 'I' for Inactive)
ROOT
ATOM      1  O1  BZF d   1      -5.998  -5.027  -2.554  0.00  0.00    -0.204 OA
ATOM      2  C2  BZF d   1      -5.628  -3.955  -1.766  0.00  0.00     0.174 A 
ATOM      3  C3  BZF d   1      -4.803  -3.128  -2.439  0.00  0.00    -0.012 A 
ATOM      4  C3A BZF d   1      -4.721  -3.672  -3.760  0.00  0.00    -0.107 A 
ATOM      5  C4  BZF d   1      -4.066  -3.287  -4.895  0.00  0.00     0.055 A 
ATOM      6  C5  BZF d   1      -4.136  -4.078  -5.998  0.00  0.00    -0.016 A 
ATOM      7  C6  BZF d   1      -4.846  -5.261  -6.000  0.00  0.00     0.022 A 
ATOM      8  C7  BZF d   1      -5.516  -5.681  -4.900  0.00  0.00     0.029 A 
ATOM      9  C7A BZF d   1      -5.475  -4.868  -3.794  0.00  0.00     0.058 A 
ENDROOT
TORSDOF 0
ENDMDL
