MODEL 1
REMARK minimizedAffinity -3.61444426
REMARK minimizedRMSD -1
REMARK  0 active torsions:
REMARK  status: ('A' for Active; 'I' for Inactive)
ROOT
ATOM      1  O1  BZF d   1      -3.741  -5.971  -5.005  0.00  0.00    -0.204 OA
ATOM      2  C2  BZF d   1      -4.447  -5.322  -6.000  0.00  0.00     0.174 A 
ATOM      3  C3  BZF d   1      -5.445  -4.582  -5.474  0.00  0.00    -0.012 A 
ATOM      4  C3A BZF d   1      -5.300  -4.709  -4.056  0.00  0.00    -0.107 A 
ATOM      5  C4  BZF d   1      -5.984  -4.193  -2.993  0.00  0.00     0.055 A 
ATOM      6  C5  BZF d   1      -5.633  -4.570  -1.736  0.00  0.00    -0.016 A 
ATOM      7  C6  BZF d   1      -4.609  -5.465  -1.506  0.00  0.00     0.022 A 
ATOM      8  C7  BZF d   1      -3.898  -6.000  -2.528  0.00  0.00     0.029 A 
ATOM      9  C7A BZF d   1      -4.229  -5.595  -3.798  0.00  0.00     0.058 A 
ENDROOT
TORSDOF 0
ENDMDL
