MODEL 1
REMARK minimizedAffinity 1.7691406
REMARK minimizedRMSD -1
REMARK  0 active torsions:
REMARK  status: ('A' for Active; 'I' for Inactive)
ROOT
ATOM      1  O1  BZF d   1      -4.962  -3.669  -2.295  0.00  0.00    -0.204 OA
ATOM      2  C2  BZF d   1      -4.698  -4.793  -1.536  0.00  0.00     0.174 A 
ATOM      3  C3  BZF d   1      -4.581  -5.884  -2.322  0.00  0.00    -0.012 A 
ATOM      4  C3A BZF d   1      -4.693  -5.395  -3.662  0.00  0.00    -0.107 A 
ATOM      5  C4  BZF d   1      -4.641  -5.996  -4.887  0.00  0.00     0.055 A 
ATOM      6  C5  BZF d   1      -4.859  -5.247  -6.000  0.00  0.00    -0.016 A 
ATOM      7  C6  BZF d   1      -5.137  -3.898  -5.924  0.00  0.00     0.022 A 
ATOM      8  C7  BZF d   1      -5.194  -3.257  -4.731  0.00  0.00     0.029 A 
ATOM      9  C7A BZF d   1      -4.941  -4.004  -3.607  0.00  0.00     0.058 A 
ENDROOT
TORSDOF 0
ENDMDL
