MODEL 1
REMARK minimizedAffinity 7.1324749
REMARK minimizedRMSD -1
REMARK  0 active torsions:
REMARK  status: ('A' for Active; 'I' for Inactive)
ROOT
ATOM      1  O1  BZF d   1       3.144  -5.832  -2.419  0.00  0.00    -0.204 OA
ATOM      2  C2  BZF d   1       4.193  -5.700  -1.529  0.00  0.00     0.174 A 
ATOM      3  C3  BZF d   1       5.375  -5.697  -2.179  0.00  0.00    -0.012 A 
ATOM      4  C3A BZF d   1       5.039  -5.742  -3.570  0.00  0.00    -0.107 A 
ATOM      5  C4  BZF d   1       5.783  -5.746  -4.715  0.00  0.00     0.055 A 
ATOM      6  C5  BZF d   1       5.152  -5.871  -5.912  0.00  0.00    -0.016 A 
ATOM      7  C6  BZF d   1       3.781  -5.999  -6.000  0.00  0.00     0.022 A 
ATOM      8  C7  BZF d   1       3.001  -5.996  -4.892  0.00  0.00     0.029 A 
ATOM      9  C7A BZF d   1       3.633  -5.836  -3.683  0.00  0.00     0.058 A 
ENDROOT
TORSDOF 0
ENDMDL
