MODEL 1
REMARK minimizedAffinity 11.3343983
REMARK minimizedRMSD -1
REMARK  0 active torsions:
REMARK  status: ('A' for Active; 'I' for Inactive)
ROOT
ATOM      1  O1  BZF d   1      -4.005   2.704  -0.166  0.00  0.00    -0.204 OA
ATOM      2  C2  BZF d   1      -5.079   3.371   0.391  0.00  0.00     0.174 A 
ATOM      3  C3  BZF d   1      -6.000   3.665  -0.550  0.00  0.00    -0.012 A 
ATOM      4  C3A BZF d   1      -5.511   3.068  -1.755  0.00  0.00    -0.107 A 
ATOM      5  C4  BZF d   1      -5.991   3.001  -3.032  0.00  0.00     0.055 A 
ATOM      6  C5  BZF d   1      -5.235   2.406  -3.991  0.00  0.00    -0.016 A 
ATOM      7  C6  BZF d   1      -3.994   1.874  -3.711  0.00  0.00     0.022 A 
ATOM      8  C7  BZF d   1      -3.477   1.912  -2.459  0.00  0.00     0.029 A 
ATOM      9  C7A BZF d   1      -4.253   2.483  -1.480  0.00  0.00     0.058 A 
ENDROOT
TORSDOF 0
ENDMDL
