MODEL 1
REMARK minimizedAffinity -5.83668613
REMARK minimizedRMSD -1
REMARK  0 active torsions:
REMARK  status: ('A' for Active; 'I' for Inactive)
ROOT
ATOM      1  C   UNL d   1       2.797  -0.297  -1.210  0.00  0.00     0.078 C 
ATOM      2  C1  UNL d   1       1.379   0.145  -1.005  0.00  0.00    -0.077 A 
ATOM      3  C2  UNL d   1       0.916   1.354  -1.538  0.00  0.00    -0.001 A 
ATOM      4  C3  UNL d   1      -0.404   1.757  -1.331  0.00  0.00     0.003 A 
ATOM      5  C4  UNL d   1      -1.271   0.958  -0.589  0.00  0.00    -0.005 A 
ATOM      6  C5  UNL d   1      -0.819  -0.246  -0.053  0.00  0.00     0.003 A 
ATOM      7  C6  UNL d   1       0.501  -0.651  -0.259  0.00  0.00    -0.001 A 
ENDROOT
TORSDOF 0
ENDMDL
