MODEL 1
REMARK minimizedAffinity -5.59374857
REMARK minimizedRMSD -1
REMARK  0 active torsions:
REMARK  status: ('A' for Active; 'I' for Inactive)
ROOT
ATOM      1  C   UNL d   1      -0.995   0.599  -0.507  0.00  0.00     0.078 C 
ATOM      2  C1  UNL d   1       0.383   0.191  -0.933  0.00  0.00    -0.077 A 
ATOM      3  C2  UNL d   1       1.113   0.962  -1.847  0.00  0.00    -0.001 A 
ATOM      4  C3  UNL d   1       2.391   0.565  -2.242  0.00  0.00     0.003 A 
ATOM      5  C4  UNL d   1       2.951  -0.604  -1.730  0.00  0.00    -0.005 A 
ATOM      6  C5  UNL d   1       2.232  -1.378  -0.822  0.00  0.00     0.003 A 
ATOM      7  C6  UNL d   1       0.953  -0.983  -0.426  0.00  0.00    -0.001 A 
ENDROOT
TORSDOF 0
ENDMDL
