MODEL 1
REMARK minimizedAffinity -2.6791513
REMARK minimizedRMSD -1
REMARK  0 active torsions:
REMARK  status: ('A' for Active; 'I' for Inactive)
ROOT
ATOM      1  C   UNL d   1      -0.592   1.041   1.029  0.00  0.00     0.078 C 
ATOM      2  C1  UNL d   1      -0.004  -0.143   0.321  0.00  0.00    -0.077 A 
ATOM      3  C2  UNL d   1      -0.747  -1.315   0.137  0.00  0.00    -0.001 A 
ATOM      4  C3  UNL d   1      -0.184  -2.413  -0.516  0.00  0.00     0.003 A 
ATOM      5  C4  UNL d   1       1.126  -2.350  -0.988  0.00  0.00    -0.005 A 
ATOM      6  C5  UNL d   1       1.874  -1.189  -0.807  0.00  0.00     0.003 A 
ATOM      7  C6  UNL d   1       1.312  -0.090  -0.155  0.00  0.00    -0.001 A 
ENDROOT
TORSDOF 0
ENDMDL
