MODEL 1
REMARK minimizedAffinity -5.53042793
REMARK minimizedRMSD -1
REMARK  0 active torsions:
REMARK  status: ('A' for Active; 'I' for Inactive)
ROOT
ATOM      1  C   UNL d   1      -1.201   0.052   0.922  0.00  0.00     0.078 C 
ATOM      2  C1  UNL d   1       0.029  -0.309   0.144  0.00  0.00    -0.077 A 
ATOM      3  C2  UNL d   1       1.119   0.567   0.070  0.00  0.00    -0.001 A 
ATOM      4  C3  UNL d   1       2.254   0.221  -0.665  0.00  0.00     0.003 A 
ATOM      5  C4  UNL d   1       2.309  -1.000  -1.334  0.00  0.00    -0.005 A 
ATOM      6  C5  UNL d   1       1.229  -1.877  -1.268  0.00  0.00     0.003 A 
ATOM      7  C6  UNL d   1       0.093  -1.534  -0.532  0.00  0.00    -0.001 A 
ENDROOT
TORSDOF 0
ENDMDL
