MODEL 1
REMARK minimizedAffinity -5.01767874
REMARK minimizedRMSD -1
REMARK  0 active torsions:
REMARK  status: ('A' for Active; 'I' for Inactive)
ROOT
ATOM      1  C   UNL d   1      -0.958  -0.052   0.590  0.00  0.00     0.078 C 
ATOM      2  C1  UNL d   1       0.384  -0.278  -0.039  0.00  0.00    -0.077 A 
ATOM      3  C2  UNL d   1       1.502   0.466   0.359  0.00  0.00    -0.001 A 
ATOM      4  C3  UNL d   1       2.743   0.251  -0.242  0.00  0.00     0.003 A 
ATOM      5  C4  UNL d   1       2.879  -0.706  -1.245  0.00  0.00    -0.005 A 
ATOM      6  C5  UNL d   1       1.772  -1.450  -1.650  0.00  0.00     0.003 A 
ATOM      7  C6  UNL d   1       0.530  -1.237  -1.050  0.00  0.00    -0.001 A 
ENDROOT
TORSDOF 0
ENDMDL
