MODEL 1
REMARK minimizedAffinity -4.38288689
REMARK minimizedRMSD -1
REMARK  0 active torsions:
REMARK  status: ('A' for Active; 'I' for Inactive)
ROOT
ATOM      1  C   UNL d   1      -1.321   0.461   0.441  0.00  0.00     0.078 C 
ATOM      2  C1  UNL d   1      -0.017  -0.114  -0.026  0.00  0.00    -0.077 A 
ATOM      3  C2  UNL d   1       0.052  -1.407  -0.558  0.00  0.00    -0.001 A 
ATOM      4  C3  UNL d   1       1.274  -1.933  -0.979  0.00  0.00     0.003 A 
ATOM      5  C4  UNL d   1       2.437  -1.174  -0.871  0.00  0.00    -0.005 A 
ATOM      6  C5  UNL d   1       2.379   0.113  -0.340  0.00  0.00     0.003 A 
ATOM      7  C6  UNL d   1       1.158   0.641   0.081  0.00  0.00    -0.001 A 
ENDROOT
TORSDOF 0
ENDMDL
