MODEL 1
REMARK minimizedAffinity -2.34142256
REMARK minimizedRMSD -1
REMARK  0 active torsions:
REMARK  status: ('A' for Active; 'I' for Inactive)
ROOT
ATOM      1  C   UNL d   1       1.872  -1.882  -2.072  0.00  0.00     0.078 C 
ATOM      2  C1  UNL d   1       1.172  -0.954  -1.125  0.00  0.00    -0.077 A 
ATOM      3  C2  UNL d   1      -0.156  -1.183  -0.742  0.00  0.00    -0.001 A 
ATOM      4  C3  UNL d   1      -0.799  -0.306   0.134  0.00  0.00     0.003 A 
ATOM      5  C4  UNL d   1      -0.122   0.806   0.632  0.00  0.00    -0.005 A 
ATOM      6  C5  UNL d   1       1.198   1.042   0.255  0.00  0.00     0.003 A 
ATOM      7  C6  UNL d   1       1.842   0.167  -0.620  0.00  0.00    -0.001 A 
ENDROOT
TORSDOF 0
ENDMDL
