MODEL 1
REMARK minimizedAffinity -5.77490568
REMARK minimizedRMSD -1
REMARK  0 active torsions:
REMARK  status: ('A' for Active; 'I' for Inactive)
ROOT
ATOM      1  C   UNL d   1       2.839  -0.759  -1.259  0.00  0.00     0.078 C 
ATOM      2  C1  UNL d   1       1.528  -0.100  -0.950  0.00  0.00    -0.077 A 
ATOM      3  C2  UNL d   1       1.207   1.154  -1.484  0.00  0.00    -0.001 A 
ATOM      4  C3  UNL d   1      -0.013   1.759  -1.180  0.00  0.00     0.003 A 
ATOM      5  C4  UNL d   1      -0.922   1.118  -0.341  0.00  0.00    -0.005 A 
ATOM      6  C5  UNL d   1      -0.611  -0.129   0.196  0.00  0.00     0.003 A 
ATOM      7  C6  UNL d   1       0.609  -0.736  -0.106  0.00  0.00    -0.001 A 
ENDROOT
TORSDOF 0
ENDMDL
