MODEL 1
REMARK minimizedAffinity -0.651091695
REMARK minimizedRMSD -1
REMARK  0 active torsions:
REMARK  status: ('A' for Active; 'I' for Inactive)
ROOT
ATOM      1  C   UNL d   1       2.335   0.952  -0.779  0.00  0.00     0.078 C 
ATOM      2  C1  UNL d   1       0.898   0.741  -0.407  0.00  0.00    -0.077 A 
ATOM      3  C2  UNL d   1      -0.135   1.227  -1.217  0.00  0.00    -0.001 A 
ATOM      4  C3  UNL d   1      -1.469   1.032  -0.853  0.00  0.00     0.003 A 
ATOM      5  C4  UNL d   1      -1.781   0.352   0.322  0.00  0.00    -0.005 A 
ATOM      6  C5  UNL d   1      -0.759  -0.133   1.136  0.00  0.00     0.003 A 
ATOM      7  C6  UNL d   1       0.574   0.061   0.774  0.00  0.00    -0.001 A 
ENDROOT
TORSDOF 0
ENDMDL
