MODEL 1
REMARK minimizedAffinity -4.82541561
REMARK minimizedRMSD -1
REMARK  0 active torsions:
REMARK  status: ('A' for Active; 'I' for Inactive)
ROOT
ATOM      1  C   UNL d   1      -1.109   0.007   1.226  0.00  0.00     0.078 C 
ATOM      2  C1  UNL d   1      -0.091  -0.441   0.219  0.00  0.00    -0.077 A 
ATOM      3  C2  UNL d   1      -0.085  -1.755  -0.265  0.00  0.00    -0.001 A 
ATOM      4  C3  UNL d   1       0.874  -2.161  -1.194  0.00  0.00     0.003 A 
ATOM      5  C4  UNL d   1       1.834  -1.259  -1.647  0.00  0.00    -0.005 A 
ATOM      6  C5  UNL d   1       1.838   0.050  -1.170  0.00  0.00     0.003 A 
ATOM      7  C6  UNL d   1       0.880   0.458  -0.241  0.00  0.00    -0.001 A 
ENDROOT
TORSDOF 0
ENDMDL
