MODEL 1
REMARK minimizedAffinity -5.25552225
REMARK minimizedRMSD -1
REMARK  0 active torsions:
REMARK  status: ('A' for Active; 'I' for Inactive)
ROOT
ATOM      1  C   UNL d   1      -0.822  -0.035   0.467  0.00  0.00     0.078 C 
ATOM      2  C1  UNL d   1       0.420  -0.226  -0.351  0.00  0.00    -0.077 A 
ATOM      3  C2  UNL d   1       1.418   0.755  -0.386  0.00  0.00    -0.001 A 
ATOM      4  C3  UNL d   1       2.565   0.569  -1.160  0.00  0.00     0.003 A 
ATOM      5  C4  UNL d   1       2.724  -0.598  -1.905  0.00  0.00    -0.005 A 
ATOM      6  C5  UNL d   1       1.735  -1.580  -1.878  0.00  0.00     0.003 A 
ATOM      7  C6  UNL d   1       0.587  -1.394  -1.105  0.00  0.00    -0.001 A 
ENDROOT
TORSDOF 0
ENDMDL
