MODEL 1
REMARK minimizedAffinity -4.40508127
REMARK minimizedRMSD -1
REMARK  0 active torsions:
REMARK  status: ('A' for Active; 'I' for Inactive)
ROOT
ATOM      1  C   UNL d   1      -1.342   0.472   0.351  0.00  0.00     0.078 C 
ATOM      2  C1  UNL d   1       0.000   0.030  -0.150  0.00  0.00    -0.077 A 
ATOM      3  C2  UNL d   1       0.431  -1.293   0.011  0.00  0.00    -0.001 A 
ATOM      4  C3  UNL d   1       1.687  -1.688  -0.452  0.00  0.00     0.003 A 
ATOM      5  C4  UNL d   1       2.523  -0.766  -1.078  0.00  0.00    -0.005 A 
ATOM      6  C5  UNL d   1       2.105   0.553  -1.241  0.00  0.00     0.003 A 
ATOM      7  C6  UNL d   1       0.849   0.950  -0.778  0.00  0.00    -0.001 A 
ENDROOT
TORSDOF 0
ENDMDL
