MODEL 1
REMARK minimizedAffinity -5.18368769
REMARK minimizedRMSD -1
REMARK  0 active torsions:
REMARK  status: ('A' for Active; 'I' for Inactive)
ROOT
ATOM      1  C   UNL d   1      -0.710   0.161   1.235  0.00  0.00     0.078 C 
ATOM      2  C1  UNL d   1       0.279  -0.359   0.234  0.00  0.00    -0.077 A 
ATOM      3  C2  UNL d   1       1.346   0.434  -0.205  0.00  0.00    -0.001 A 
ATOM      4  C3  UNL d   1       2.253  -0.060  -1.144  0.00  0.00     0.003 A 
ATOM      5  C4  UNL d   1       2.102  -1.348  -1.652  0.00  0.00    -0.005 A 
ATOM      6  C5  UNL d   1       1.042  -2.144  -1.223  0.00  0.00     0.003 A 
ATOM      7  C6  UNL d   1       0.134  -1.652  -0.284  0.00  0.00    -0.001 A 
ENDROOT
TORSDOF 0
ENDMDL
