MODEL 1
REMARK minimizedAffinity -0.945034504
REMARK minimizedRMSD -1
REMARK  0 active torsions:
REMARK  status: ('A' for Active; 'I' for Inactive)
ROOT
ATOM      1  C   UNL d   1       2.938  -0.009  -0.628  0.00  0.00     0.078 C 
ATOM      2  C1  UNL d   1       1.462   0.255  -0.620  0.00  0.00    -0.077 A 
ATOM      3  C2  UNL d   1       0.929   1.390  -1.244  0.00  0.00    -0.001 A 
ATOM      4  C3  UNL d   1      -0.447   1.628  -1.220  0.00  0.00     0.003 A 
ATOM      5  C4  UNL d   1      -1.300   0.737  -0.573  0.00  0.00    -0.005 A 
ATOM      6  C5  UNL d   1      -0.778  -0.394   0.053  0.00  0.00     0.003 A 
ATOM      7  C6  UNL d   1       0.597  -0.634   0.030  0.00  0.00    -0.001 A 
ENDROOT
TORSDOF 0
ENDMDL
