MODEL 1
REMARK minimizedAffinity -5.41974115
REMARK minimizedRMSD -1
REMARK  0 active torsions:
REMARK  status: ('A' for Active; 'I' for Inactive)
ROOT
ATOM      1  C   UNL d   1       2.114   2.386  -1.769  0.00  0.00     0.078 C 
ATOM      2  C1  UNL d   1       1.650   1.010  -1.396  0.00  0.00    -0.077 A 
ATOM      3  C2  UNL d   1       2.306  -0.128  -1.882  0.00  0.00    -0.001 A 
ATOM      4  C3  UNL d   1       1.857  -1.404  -1.534  0.00  0.00     0.003 A 
ATOM      5  C4  UNL d   1       0.751  -1.553  -0.701  0.00  0.00    -0.005 A 
ATOM      6  C5  UNL d   1       0.091  -0.427  -0.214  0.00  0.00     0.003 A 
ATOM      7  C6  UNL d   1       0.538   0.849  -0.561  0.00  0.00    -0.001 A 
ENDROOT
TORSDOF 0
ENDMDL
