MODEL 1
REMARK minimizedAffinity -2.87722874
REMARK minimizedRMSD -1
REMARK  0 active torsions:
REMARK  status: ('A' for Active; 'I' for Inactive)
ROOT
ATOM      1  C   UNL d   1       2.892  -0.698  -1.603  0.00  0.00     0.078 C 
ATOM      2  C1  UNL d   1       1.597  -0.532  -0.867  0.00  0.00    -0.077 A 
ATOM      3  C2  UNL d   1       1.201   0.718  -0.376  0.00  0.00    -0.001 A 
ATOM      4  C3  UNL d   1      -0.003   0.855   0.316  0.00  0.00     0.003 A 
ATOM      5  C4  UNL d   1      -0.821  -0.253   0.524  0.00  0.00    -0.005 A 
ATOM      6  C5  UNL d   1      -0.435  -1.502   0.041  0.00  0.00     0.003 A 
ATOM      7  C6  UNL d   1       0.769  -1.641  -0.651  0.00  0.00    -0.001 A 
ENDROOT
TORSDOF 0
ENDMDL
