MODEL 1
REMARK minimizedAffinity 2.05001283
REMARK minimizedRMSD -1
REMARK  1 active torsions:
REMARK  status: ('A' for Active; 'I' for Inactive)
REMARK    1  A    between atoms: N_2  and  C1_3 
ROOT
ATOM      1  C1  UNL d   1       1.031   4.152   0.465  0.00  0.00     0.143 A 
ATOM      2  C2  UNL d   1       2.241   4.367   1.134  0.00  0.00    -0.057 A 
ATOM      3  C3  UNL d   1       2.477   3.823   2.403  0.00  0.00     0.033 A 
ATOM      4  C4  UNL d   1       1.491   3.076   3.039  0.00  0.00    -0.042 A 
ATOM      5  C5  UNL d   1       0.272   2.870   2.404  0.00  0.00     0.033 A 
ATOM      6  C6  UNL d   1       0.045   3.410   1.135  0.00  0.00    -0.057 A 
ENDROOT
BRANCH   1   7
ATOM      7  N   UNL d   1       0.700   4.747  -0.754  0.00  0.00    -0.732 N 
ATOM      8  C   UNL d   1      -0.027   5.998  -0.790  0.00  0.00     0.284 C 
ATOM      9  H3  UNL d   1       1.454   4.685  -1.434  0.00  0.00     0.395 HD
ENDBRANCH   1   7
TORSDOF 1
ENDMDL
