MODEL 1
REMARK minimizedAffinity 9.01985931
REMARK minimizedRMSD -1
REMARK  1 active torsions:
REMARK  status: ('A' for Active; 'I' for Inactive)
REMARK    1  A    between atoms: N_2  and  C1_3 
ROOT
ATOM      1  C1  UNL d   1       4.555  -2.814   5.302  0.00  0.00     0.143 A 
ATOM      2  C2  UNL d   1       4.036  -3.305   4.100  0.00  0.00    -0.057 A 
ATOM      3  C3  UNL d   1       2.823  -2.830   3.585  0.00  0.00     0.033 A 
ATOM      4  C4  UNL d   1       2.092  -1.873   4.282  0.00  0.00    -0.042 A 
ATOM      5  C5  UNL d   1       2.577  -1.389   5.492  0.00  0.00     0.033 A 
ATOM      6  C6  UNL d   1       3.792  -1.863   5.997  0.00  0.00    -0.057 A 
ENDROOT
BRANCH   1   7
ATOM      7  N   UNL d   1       5.706  -3.317   5.915  0.00  0.00    -0.732 N 
ATOM      8  C   UNL d   1       5.989  -4.736   5.900  0.00  0.00     0.284 C 
ATOM      9  H3  UNL d   1       6.520  -2.729   5.755  0.00  0.00     0.395 HD
ENDBRANCH   1   7
TORSDOF 1
ENDMDL
