MODEL 1
REMARK minimizedAffinity 11.0916042
REMARK minimizedRMSD -1
REMARK  1 active torsions:
REMARK  status: ('A' for Active; 'I' for Inactive)
REMARK    1  A    between atoms: N_2  and  C1_3 
ROOT
ATOM      1  C1  UNL d   1       0.640   3.176   1.751  0.00  0.00     0.143 A 
ATOM      2  C2  UNL d   1      -0.448   3.686   1.035  0.00  0.00    -0.057 A 
ATOM      3  C3  UNL d   1      -0.281   4.700   0.084  0.00  0.00     0.033 A 
ATOM      4  C4  UNL d   1       0.978   5.244  -0.147  0.00  0.00    -0.042 A 
ATOM      5  C5  UNL d   1       2.070   4.770   0.571  0.00  0.00     0.033 A 
ATOM      6  C6  UNL d   1       1.898   3.753   1.514  0.00  0.00    -0.057 A 
ENDROOT
BRANCH   1   7
ATOM      7  N   UNL d   1       0.524   2.238   2.779  0.00  0.00    -0.732 N 
ATOM      8  C   UNL d   1      -0.776   1.865   3.293  0.00  0.00     0.284 C 
ATOM      9  H3  UNL d   1       1.166   1.457   2.666  0.00  0.00     0.395 HD
ENDBRANCH   1   7
TORSDOF 1
ENDMDL
