MODEL 1
REMARK minimizedAffinity 6.79988527
REMARK minimizedRMSD -1
REMARK  1 active torsions:
REMARK  status: ('A' for Active; 'I' for Inactive)
REMARK    1  A    between atoms: N_2  and  C1_3 
ROOT
ATOM      1  C1  UNL d   1       0.111   4.034   0.634  0.00  0.00     0.143 A 
ATOM      2  C2  UNL d   1       0.165   4.039  -0.764  0.00  0.00    -0.057 A 
ATOM      3  C3  UNL d   1      -0.497   5.019  -1.513  0.00  0.00     0.033 A 
ATOM      4  C4  UNL d   1      -1.252   5.998  -0.875  0.00  0.00    -0.042 A 
ATOM      5  C5  UNL d   1      -1.340   5.998   0.513  0.00  0.00     0.033 A 
ATOM      6  C6  UNL d   1      -0.671   5.020   1.255  0.00  0.00    -0.057 A 
ENDROOT
BRANCH   1   7
ATOM      7  N   UNL d   1       0.666   3.029   1.430  0.00  0.00    -0.732 N 
ATOM      8  C   UNL d   1      -0.032   2.547   2.602  0.00  0.00     0.284 C 
ATOM      9  H3  UNL d   1       1.108   2.297   0.879  0.00  0.00     0.395 HD
ENDBRANCH   1   7
TORSDOF 1
ENDMDL
