MODEL 1
REMARK minimizedAffinity 9.36506653
REMARK minimizedRMSD -1
REMARK  1 active torsions:
REMARK  status: ('A' for Active; 'I' for Inactive)
REMARK    1  A    between atoms: N_2  and  C1_3 
ROOT
ATOM      1  C1  UNL d   1       0.344   2.084  -0.125  0.00  0.00     0.143 A 
ATOM      2  C2  UNL d   1       0.369   2.178   1.270  0.00  0.00    -0.057 A 
ATOM      3  C3  UNL d   1       0.296   3.418   1.916  0.00  0.00     0.033 A 
ATOM      4  C4  UNL d   1       0.226   4.592   1.174  0.00  0.00    -0.042 A 
ATOM      5  C5  UNL d   1       0.225   4.524  -0.215  0.00  0.00     0.033 A 
ATOM      6  C6  UNL d   1       0.292   3.282  -0.854  0.00  0.00    -0.057 A 
ENDROOT
BRANCH   1   7
ATOM      7  N   UNL d   1       0.513   0.888  -0.828  0.00  0.00    -0.732 N 
ATOM      8  C   UNL d   1      -0.635   0.123  -1.268  0.00  0.00     0.284 C 
ATOM      9  H3  UNL d   1       1.264   0.942  -1.512  0.00  0.00     0.395 HD
ENDBRANCH   1   7
TORSDOF 1
ENDMDL
