MODEL 1
REMARK minimizedAffinity -3.8040998
REMARK minimizedRMSD -1
REMARK  0 active torsions:
REMARK  status: ('A' for Active; 'I' for Inactive)
ROOT
ATOM      1  N1  IND d   1       0.392   0.415  -1.779  0.00  0.00    -0.196 N 
ATOM      2  C2  IND d   1      -0.062   1.570  -1.206  0.00  0.00     0.054 A 
ATOM      3  C3  IND d   1      -0.609   1.312   0.003  0.00  0.00    -0.031 A 
ATOM      4  C4  IND d   1      -0.773  -0.915   1.283  0.00  0.00     0.051 A 
ATOM      5  C5  IND d   1      -0.529  -2.254   1.151  0.00  0.00    -0.031 A 
ATOM      6  C6  IND d   1       0.048  -2.781   0.014  0.00  0.00     0.015 A 
ATOM      7  C7  IND d   1       0.415  -1.985  -1.034  0.00  0.00    -0.016 A 
ATOM      8  C8  IND d   1       0.163  -0.626  -0.906  0.00  0.00    -0.047 A 
ATOM      9  C9  IND d   1      -0.461  -0.091   0.227  0.00  0.00    -0.096 A 
ATOM     10  HN1 IND d   1       0.758   0.349  -2.554  0.00  0.00     0.298 HD
ENDROOT
TORSDOF 0
ENDMDL
