MODEL 1
REMARK minimizedAffinity -5.29632235
REMARK minimizedRMSD -1
REMARK  0 active torsions:
REMARK  status: ('A' for Active; 'I' for Inactive)
ROOT
ATOM      1  N1  IND d   1      -0.158   0.066  -2.217  0.00  0.00    -0.196 N 
ATOM      2  C2  IND d   1      -0.481   1.258  -1.631  0.00  0.00     0.054 A 
ATOM      3  C3  IND d   1      -0.755   1.078  -0.320  0.00  0.00    -0.031 A 
ATOM      4  C4  IND d   1      -0.634  -1.068   1.097  0.00  0.00     0.051 A 
ATOM      5  C5  IND d   1      -0.421  -2.414   0.997  0.00  0.00    -0.031 A 
ATOM      6  C6  IND d   1      -0.100  -3.014  -0.203  0.00  0.00     0.015 A 
ATOM      7  C7  IND d   1       0.032  -2.285  -1.351  0.00  0.00    -0.016 A 
ATOM      8  C8  IND d   1      -0.191  -0.919  -1.255  0.00  0.00    -0.047 A 
ATOM      9  C9  IND d   1      -0.559  -0.310  -0.048  0.00  0.00    -0.096 A 
ATOM     10  HN1 IND d   1       0.034  -0.049  -3.048  0.00  0.00     0.298 HD
ENDROOT
TORSDOF 0
ENDMDL
