MODEL 1
REMARK minimizedAffinity -2.35207725
REMARK minimizedRMSD -1
REMARK  0 active torsions:
REMARK  status: ('A' for Active; 'I' for Inactive)
ROOT
ATOM      1  N1  IND d   1      -0.884  -2.175   0.810  0.00  0.00    -0.196 N 
ATOM      2  C2  IND d   1      -0.070  -2.923   0.005  0.00  0.00     0.054 A 
ATOM      3  C3  IND d   1       0.688  -2.119  -0.774  0.00  0.00    -0.031 A 
ATOM      4  C4  IND d   1       0.831   0.451  -0.822  0.00  0.00     0.051 A 
ATOM      5  C5  IND d   1       0.254   1.572  -0.294  0.00  0.00    -0.031 A 
ATOM      6  C6  IND d   1      -0.749   1.499   0.650  0.00  0.00     0.015 A 
ATOM      7  C7  IND d   1      -1.208   0.298   1.112  0.00  0.00    -0.016 A 
ATOM      8  C8  IND d   1      -0.630  -0.842   0.573  0.00  0.00    -0.047 A 
ATOM      9  C9  IND d   1       0.360  -0.776  -0.417  0.00  0.00    -0.096 A 
ATOM     10  HN1 IND d   1      -1.457  -2.486   1.370  0.00  0.00     0.298 HD
ENDROOT
TORSDOF 0
ENDMDL
