MODEL 1
REMARK minimizedAffinity 1.19870508
REMARK minimizedRMSD -1
REMARK  0 active torsions:
REMARK  status: ('A' for Active; 'I' for Inactive)
ROOT
ATOM      1  N1  IND d   1      -2.486  -0.839   1.069  0.00  0.00    -0.196 N 
ATOM      2  C2  IND d   1      -1.921   0.400   1.195  0.00  0.00     0.054 A 
ATOM      3  C3  IND d   1      -0.594   0.339   0.944  0.00  0.00    -0.031 A 
ATOM      4  C4  IND d   1       0.842  -1.667   0.209  0.00  0.00     0.051 A 
ATOM      5  C5  IND d   1       0.780  -3.015  -0.005  0.00  0.00    -0.031 A 
ATOM      6  C6  IND d   1      -0.399  -3.721   0.128  0.00  0.00     0.015 A 
ATOM      7  C7  IND d   1      -1.566  -3.099   0.470  0.00  0.00    -0.016 A 
ATOM      8  C8  IND d   1      -1.505  -1.732   0.695  0.00  0.00    -0.047 A 
ATOM      9  C9  IND d   1      -0.304  -1.017   0.604  0.00  0.00    -0.096 A 
ATOM     10  HN1 IND d   1      -3.314  -1.028   1.200  0.00  0.00     0.298 HD
ENDROOT
TORSDOF 0
ENDMDL
