MODEL 1
REMARK minimizedAffinity -3.99343061
REMARK minimizedRMSD -1
REMARK  0 active torsions:
REMARK  status: ('A' for Active; 'I' for Inactive)
ROOT
ATOM      1  N1  IND d   1      -0.640   0.428   0.993  0.00  0.00    -0.196 N 
ATOM      2  C2  IND d   1      -0.045   1.191   0.027  0.00  0.00     0.054 A 
ATOM      3  C3  IND d   1       0.583   0.402  -0.874  0.00  0.00    -0.031 A 
ATOM      4  C4  IND d   1       0.676  -2.167  -1.015  0.00  0.00     0.051 A 
ATOM      5  C5  IND d   1       0.313  -3.297  -0.337  0.00  0.00    -0.031 A 
ATOM      6  C6  IND d   1      -0.403  -3.242   0.842  0.00  0.00     0.015 A 
ATOM      7  C7  IND d   1      -0.794  -2.049   1.382  0.00  0.00    -0.016 A 
ATOM      8  C8  IND d   1      -0.421  -0.900   0.700  0.00  0.00    -0.047 A 
ATOM      9  C9  IND d   1       0.341  -0.948  -0.474  0.00  0.00    -0.096 A 
ATOM     10  HN1 IND d   1      -1.077   0.728   1.670  0.00  0.00     0.298 HD
ENDROOT
TORSDOF 0
ENDMDL
