MODEL 1
REMARK minimizedAffinity -1.69085121
REMARK minimizedRMSD -1
REMARK  0 active torsions:
REMARK  status: ('A' for Active; 'I' for Inactive)
ROOT
ATOM      1  N1  IND d   1      -1.121   0.203   0.614  0.00  0.00    -0.196 N 
ATOM      2  C2  IND d   1      -0.414   1.047  -0.197  0.00  0.00     0.054 A 
ATOM      3  C3  IND d   1       0.596   0.381  -0.802  0.00  0.00    -0.031 A 
ATOM      4  C4  IND d   1       1.210  -2.116  -0.684  0.00  0.00     0.051 A 
ATOM      5  C5  IND d   1       0.878  -3.278  -0.046  0.00  0.00    -0.031 A 
ATOM      6  C6  IND d   1      -0.160  -3.341   0.861  0.00  0.00     0.015 A 
ATOM      7  C7  IND d   1      -0.916  -2.242   1.156  0.00  0.00    -0.016 A 
ATOM      8  C8  IND d   1      -0.576  -1.058   0.516  0.00  0.00    -0.047 A 
ATOM      9  C9  IND d   1       0.503  -0.979  -0.373  0.00  0.00    -0.096 A 
ATOM     10  HN1 IND d   1      -1.792   0.424   1.104  0.00  0.00     0.298 HD
ENDROOT
TORSDOF 0
ENDMDL
