MODEL 1
REMARK minimizedAffinity -4.84501362
REMARK minimizedRMSD -1
REMARK  0 active torsions:
REMARK  status: ('A' for Active; 'I' for Inactive)
ROOT
ATOM      1  N1  IND d   1       0.423   0.823  -0.670  0.00  0.00    -0.196 N 
ATOM      2  C2  IND d   1      -0.133   1.441   0.415  0.00  0.00     0.054 A 
ATOM      3  C3  IND d   1      -0.589   0.524   1.297  0.00  0.00    -0.031 A 
ATOM      4  C4  IND d   1      -0.436  -2.045   1.211  0.00  0.00     0.051 A 
ATOM      5  C5  IND d   1      -0.047  -3.074   0.400  0.00  0.00    -0.031 A 
ATOM      6  C6  IND d   1       0.532  -2.853  -0.832  0.00  0.00     0.015 A 
ATOM      7  C7  IND d   1       0.756  -1.587  -1.297  0.00  0.00    -0.016 A 
ATOM      8  C8  IND d   1       0.356  -0.540  -0.480  0.00  0.00    -0.047 A 
ATOM      9  C9  IND d   1      -0.271  -0.759   0.754  0.00  0.00    -0.096 A 
ATOM     10  HN1 IND d   1       0.758   1.219  -1.356  0.00  0.00     0.298 HD
ENDROOT
TORSDOF 0
ENDMDL
