MODEL 1
REMARK minimizedAffinity -5.65091372
REMARK minimizedRMSD -1
REMARK  0 active torsions:
REMARK  status: ('A' for Active; 'I' for Inactive)
ROOT
ATOM      1  N1  IND d   1      -1.225   0.562   0.604  0.00  0.00    -0.196 N 
ATOM      2  C2  IND d   1      -0.630   1.209  -0.443  0.00  0.00     0.054 A 
ATOM      3  C3  IND d   1       0.325   0.428  -0.997  0.00  0.00    -0.031 A 
ATOM      4  C4  IND d   1       1.007  -1.984  -0.412  0.00  0.00     0.051 A 
ATOM      5  C5  IND d   1       0.773  -2.981   0.494  0.00  0.00    -0.031 A 
ATOM      6  C6  IND d   1      -0.160  -2.845   1.501  0.00  0.00     0.015 A 
ATOM      7  C7  IND d   1      -0.905  -1.708   1.634  0.00  0.00    -0.016 A 
ATOM      8  C8  IND d   1      -0.665  -0.691   0.721  0.00  0.00    -0.047 A 
ATOM      9  C9  IND d   1       0.311  -0.806  -0.278  0.00  0.00    -0.096 A 
ATOM     10  HN1 IND d   1      -1.845   0.884   1.106  0.00  0.00     0.298 HD
ENDROOT
TORSDOF 0
ENDMDL
