MODEL 1
REMARK minimizedAffinity -0.243327126
REMARK minimizedRMSD -1
REMARK  0 active torsions:
REMARK  status: ('A' for Active; 'I' for Inactive)
ROOT
ATOM      1  N1  IND d   1      -0.829  -1.770   1.140  0.00  0.00    -0.196 N 
ATOM      2  C2  IND d   1      -0.964  -2.999   0.557  0.00  0.00     0.054 A 
ATOM      3  C3  IND d   1      -0.546  -2.958  -0.728  0.00  0.00    -0.031 A 
ATOM      4  C4  IND d   1       0.493  -1.008  -2.049  0.00  0.00     0.051 A 
ATOM      5  C5  IND d   1       0.785   0.323  -1.952  0.00  0.00    -0.031 A 
ATOM      6  C6  IND d   1       0.553   1.039  -0.796  0.00  0.00     0.015 A 
ATOM      7  C7  IND d   1       0.027   0.444   0.316  0.00  0.00    -0.016 A 
ATOM      8  C8  IND d   1      -0.278  -0.906   0.219  0.00  0.00    -0.047 A 
ATOM      9  C9  IND d   1      -0.084  -1.628  -0.966  0.00  0.00    -0.096 A 
ATOM     10  HN1 IND d   1      -1.051  -1.570   1.946  0.00  0.00     0.298 HD
ENDROOT
TORSDOF 0
ENDMDL
