MODEL 1
REMARK minimizedAffinity -3.00969863
REMARK minimizedRMSD -1
REMARK  0 active torsions:
REMARK  status: ('A' for Active; 'I' for Inactive)
ROOT
ATOM      1  N1  IND d   1       1.748   0.175  -0.063  0.00  0.00    -0.196 N 
ATOM      2  C2  IND d   1       1.212   1.397   0.233  0.00  0.00     0.054 A 
ATOM      3  C3  IND d   1      -0.032   1.253   0.744  0.00  0.00    -0.031 A 
ATOM      4  C4  IND d   1      -1.343  -0.898   1.276  0.00  0.00     0.051 A 
ATOM      5  C5  IND d   1      -1.281  -2.257   1.145  0.00  0.00    -0.031 A 
ATOM      6  C6  IND d   1      -0.183  -2.888   0.597  0.00  0.00     0.015 A 
ATOM      7  C7  IND d   1       0.904  -2.181   0.167  0.00  0.00    -0.016 A 
ATOM      8  C8  IND d   1       0.842  -0.800   0.291  0.00  0.00    -0.047 A 
ATOM      9  C9  IND d   1      -0.287  -0.151   0.808  0.00  0.00    -0.096 A 
ATOM     10  HN1 IND d   1       2.522   0.038  -0.413  0.00  0.00     0.298 HD
ENDROOT
TORSDOF 0
ENDMDL
