MODEL 1
REMARK minimizedAffinity -3.67260575
REMARK minimizedRMSD -1
REMARK  0 active torsions:
REMARK  status: ('A' for Active; 'I' for Inactive)
ROOT
ATOM      1  N1  IND d   1      -0.113   0.297  -0.514  0.00  0.00    -0.196 N 
ATOM      2  C2  IND d   1      -0.217   0.610   0.813  0.00  0.00     0.054 A 
ATOM      3  C3  IND d   1      -0.218  -0.515   1.563  0.00  0.00    -0.031 A 
ATOM      4  C4  IND d   1       0.046  -2.969   0.831  0.00  0.00     0.051 A 
ATOM      5  C5  IND d   1       0.136  -3.758  -0.282  0.00  0.00    -0.031 A 
ATOM      6  C6  IND d   1       0.150  -3.224  -1.555  0.00  0.00     0.015 A 
ATOM      7  C7  IND d   1       0.087  -1.875  -1.762  0.00  0.00    -0.016 A 
ATOM      8  C8  IND d   1      -0.011  -1.072  -0.635  0.00  0.00    -0.047 A 
ATOM      9  C9  IND d   1      -0.069  -1.610   0.657  0.00  0.00    -0.096 A 
ATOM     10  HN1 IND d   1      -0.110   0.860  -1.163  0.00  0.00     0.298 HD
ENDROOT
TORSDOF 0
ENDMDL
