MODEL 1
REMARK minimizedAffinity -5.59553385
REMARK minimizedRMSD -1
REMARK  0 active torsions:
REMARK  status: ('A' for Active; 'I' for Inactive)
ROOT
ATOM      1  N1  IND d   1       0.338   0.206  -2.587  0.00  0.00    -0.196 N 
ATOM      2  C2  IND d   1       0.111   1.376  -1.917  0.00  0.00     0.054 A 
ATOM      3  C3  IND d   1      -0.109   1.132  -0.605  0.00  0.00    -0.031 A 
ATOM      4  C4  IND d   1      -0.046  -1.100   0.676  0.00  0.00     0.051 A 
ATOM      5  C5  IND d   1       0.085  -2.448   0.487  0.00  0.00    -0.031 A 
ATOM      6  C6  IND d   1       0.314  -2.990  -0.761  0.00  0.00     0.015 A 
ATOM      7  C7  IND d   1       0.432  -2.201  -1.870  0.00  0.00    -0.016 A 
ATOM      8  C8  IND d   1       0.293  -0.833  -1.683  0.00  0.00    -0.047 A 
ATOM      9  C9  IND d   1       0.019  -0.280  -0.425  0.00  0.00    -0.096 A 
ATOM     10  HN1 IND d   1       0.483   0.131  -3.431  0.00  0.00     0.298 HD
ENDROOT
TORSDOF 0
ENDMDL
