MODEL 1
REMARK minimizedAffinity -4.3740921
REMARK minimizedRMSD -1
REMARK  0 active torsions:
REMARK  status: ('A' for Active; 'I' for Inactive)
ROOT
ATOM      1  N1  IND d   1       1.577   0.228  -0.484  0.00  0.00    -0.196 N 
ATOM      2  C2  IND d   1       0.935   1.435  -0.459  0.00  0.00     0.054 A 
ATOM      3  C3  IND d   1      -0.305   1.298   0.061  0.00  0.00    -0.031 A 
ATOM      4  C4  IND d   1      -1.450  -0.795   1.029  0.00  0.00     0.051 A 
ATOM      5  C5  IND d   1      -1.275  -2.140   1.193  0.00  0.00    -0.031 A 
ATOM      6  C6  IND d   1      -0.115  -2.777   0.800  0.00  0.00     0.015 A 
ATOM      7  C7  IND d   1       0.921  -2.088   0.238  0.00  0.00    -0.016 A 
ATOM      8  C8  IND d   1       0.744  -0.722   0.064  0.00  0.00    -0.047 A 
ATOM      9  C9  IND d   1      -0.447  -0.077   0.421  0.00  0.00    -0.096 A 
ATOM     10  HN1 IND d   1       2.368   0.087  -0.790  0.00  0.00     0.298 HD
ENDROOT
TORSDOF 0
ENDMDL
