MODEL 1
REMARK minimizedAffinity -3.34961414
REMARK minimizedRMSD -1
REMARK  0 active torsions:
REMARK  status: ('A' for Active; 'I' for Inactive)
ROOT
ATOM      1  N1  IND d   1       0.475  -0.922  -2.413  0.00  0.00    -0.196 N 
ATOM      2  C2  IND d   1       0.128   0.382  -2.629  0.00  0.00     0.054 A 
ATOM      3  C3  IND d   1      -0.581   0.861  -1.582  0.00  0.00    -0.031 A 
ATOM      4  C4  IND d   1      -1.200  -0.289   0.636  0.00  0.00     0.051 A 
ATOM      5  C5  IND d   1      -1.135  -1.493   1.280  0.00  0.00    -0.031 A 
ATOM      6  C6  IND d   1      -0.515  -2.589   0.716  0.00  0.00     0.015 A 
ATOM      7  C7  IND d   1       0.076  -2.519  -0.514  0.00  0.00    -0.016 A 
ATOM      8  C8  IND d   1       0.005  -1.301  -1.174  0.00  0.00    -0.047 A 
ATOM      9  C9  IND d   1      -0.659  -0.196  -0.625  0.00  0.00    -0.096 A 
ATOM     10  HN1 IND d   1       0.913  -1.422  -2.958  0.00  0.00     0.298 HD
ENDROOT
TORSDOF 0
ENDMDL
