MODEL 1
REMARK minimizedAffinity -4.32803297
REMARK minimizedRMSD -1
REMARK  0 active torsions:
REMARK  status: ('A' for Active; 'I' for Inactive)
ROOT
ATOM      1  N1  IND d   1       0.105  -0.868  -2.717  0.00  0.00    -0.196 N 
ATOM      2  C2  IND d   1      -0.073  -2.208  -2.924  0.00  0.00     0.054 A 
ATOM      3  C3  IND d   1      -0.519  -2.803  -1.795  0.00  0.00    -0.031 A 
ATOM      4  C4  IND d   1      -1.122  -1.755   0.478  0.00  0.00     0.051 A 
ATOM      5  C5  IND d   1      -1.091  -0.571   1.161  0.00  0.00    -0.031 A 
ATOM      6  C6  IND d   1      -0.654   0.598   0.573  0.00  0.00     0.015 A 
ATOM      7  C7  IND d   1      -0.240   0.629  -0.728  0.00  0.00    -0.016 A 
ATOM      8  C8  IND d   1      -0.263  -0.572  -1.422  0.00  0.00    -0.047 A 
ATOM      9  C9  IND d   1      -0.666  -1.770  -0.819  0.00  0.00    -0.096 A 
ATOM     10  HN1 IND d   1       0.398  -0.305  -3.297  0.00  0.00     0.298 HD
ENDROOT
TORSDOF 0
ENDMDL
