MODEL 1
REMARK minimizedAffinity 5.00974464
REMARK minimizedRMSD -1
REMARK  2 active torsions:
REMARK  status: ('A' for Active; 'I' for Inactive)
REMARK    1  A    between atoms: C2'_3  and  C1'_4 
REMARK    2  A    between atoms: C1'_4  and  C1_5 
ROOT
ATOM      1  C1  I4B d   1      -0.640   4.327  -5.957  0.00  0.00    -0.075 A 
ATOM      2  C2  I4B d   1      -0.202   3.027  -5.938  0.00  0.00     0.003 A 
ATOM      3  C3  I4B d   1       1.185   2.742  -5.933  0.00  0.00     0.002 A 
ATOM      4  C4  I4B d   1       2.093   3.779  -5.998  0.00  0.00    -0.004 A 
ATOM      5  C5  I4B d   1       1.647   5.098  -5.994  0.00  0.00     0.002 A 
ATOM      6  C6  I4B d   1       0.273   5.375  -5.961  0.00  0.00     0.003 A 
ENDROOT
BRANCH   1   7
ATOM      7  C1' I4B d   1      -2.111   4.592  -5.995  0.00  0.00     0.060 C 
BRANCH   7   8
ATOM      8  C2' I4B d   1      -2.828   3.270  -5.810  0.00  0.00    -0.013 C 
ATOM      9  C4' I4B d   1      -2.537   2.676  -4.457  0.00  0.00     0.013 C 
ATOM     10  C3' I4B d   1      -4.297   3.510  -5.992  0.00  0.00     0.013 C 
ENDBRANCH   7   8
ENDBRANCH   1   7
TORSDOF 2
ENDMDL
