MODEL 1
REMARK minimizedAffinity -1.56641734
REMARK minimizedRMSD -1
REMARK  2 active torsions:
REMARK  status: ('A' for Active; 'I' for Inactive)
REMARK    1  A    between atoms: C2'_3  and  C1'_4 
REMARK    2  A    between atoms: C1'_4  and  C1_5 
ROOT
ATOM      1  C1  I4B d   1       2.583   5.032  -5.999  0.00  0.00    -0.075 A 
ATOM      2  C2  I4B d   1       3.694   5.838  -5.986  0.00  0.00     0.003 A 
ATOM      3  C3  I4B d   1       4.989   5.266  -5.955  0.00  0.00     0.002 A 
ATOM      4  C4  I4B d   1       5.125   3.895  -5.887  0.00  0.00    -0.004 A 
ATOM      5  C5  I4B d   1       3.998   3.078  -5.923  0.00  0.00     0.002 A 
ATOM      6  C6  I4B d   1       2.719   3.650  -5.992  0.00  0.00     0.003 A 
ENDROOT
BRANCH   1   7
ATOM      7  C1' I4B d   1       1.230   5.669  -5.999  0.00  0.00     0.060 C 
BRANCH   7   8
ATOM      8  C2' I4B d   1       0.315   4.823  -5.138  0.00  0.00    -0.013 C 
ATOM      9  C4' I4B d   1      -0.776   5.656  -4.518  0.00  0.00     0.013 C 
ATOM     10  C3' I4B d   1      -0.257   3.736  -5.999  0.00  0.00     0.013 C 
ENDBRANCH   7   8
ENDBRANCH   1   7
TORSDOF 2
ENDMDL
