MODEL 1
REMARK minimizedAffinity 5.36997223
REMARK minimizedRMSD -1
REMARK  2 active torsions:
REMARK  status: ('A' for Active; 'I' for Inactive)
REMARK    1  A    between atoms: C2'_3  and  C1'_4 
REMARK    2  A    between atoms: C1'_4  and  C1_5 
ROOT
ATOM      1  C1  I4B d   1      -0.654   4.329  -5.304  0.00  0.00    -0.075 A 
ATOM      2  C2  I4B d   1      -1.044   5.645  -5.285  0.00  0.00     0.003 A 
ATOM      3  C3  I4B d   1      -2.376   5.998  -5.610  0.00  0.00     0.002 A 
ATOM      4  C4  I4B d   1      -3.266   5.015  -5.994  0.00  0.00    -0.004 A 
ATOM      5  C5  I4B d   1      -2.875   3.680  -5.991  0.00  0.00     0.002 A 
ATOM      6  C6  I4B d   1      -1.564   3.332  -5.632  0.00  0.00     0.003 A 
ENDROOT
BRANCH   1   7
ATOM      7  C1' I4B d   1       0.769   3.994  -4.988  0.00  0.00     0.060 C 
BRANCH   7   8
ATOM      8  C2' I4B d   1       1.241   2.964  -5.994  0.00  0.00    -0.013 C 
ATOM      9  C4' I4B d   1       2.649   2.519  -5.699  0.00  0.00     0.013 C 
ATOM     10  C3' I4B d   1       0.288   1.807  -5.953  0.00  0.00     0.013 C 
ENDBRANCH   7   8
ENDBRANCH   1   7
TORSDOF 2
ENDMDL
