MODEL 1
REMARK minimizedAffinity -3.23372531
REMARK minimizedRMSD -1
REMARK  2 active torsions:
REMARK  status: ('A' for Active; 'I' for Inactive)
REMARK    1  A    between atoms: C2'_3  and  C1'_4 
REMARK    2  A    between atoms: C1'_4  and  C1_5 
ROOT
ATOM      1  C1  I4B d   1       1.758   4.325  -5.988  0.00  0.00    -0.075 A 
ATOM      2  C2  I4B d   1       1.789   2.952  -5.989  0.00  0.00     0.003 A 
ATOM      3  C3  I4B d   1       0.582   2.212  -5.991  0.00  0.00     0.002 A 
ATOM      4  C4  I4B d   1      -0.625   2.879  -5.942  0.00  0.00    -0.004 A 
ATOM      5  C5  I4B d   1      -0.655   4.271  -5.964  0.00  0.00     0.002 A 
ATOM      6  C6  I4B d   1       0.543   4.998  -6.000  0.00  0.00     0.003 A 
ENDROOT
BRANCH   1   7
ATOM      7  C1' I4B d   1       3.051   5.075  -5.952  0.00  0.00     0.060 C 
BRANCH   7   8
ATOM      8  C2' I4B d   1       4.175   4.064  -5.851  0.00  0.00    -0.013 C 
ATOM      9  C4' I4B d   1       5.519   4.726  -6.000  0.00  0.00     0.013 C 
ATOM     10  C3' I4B d   1       4.056   3.370  -4.527  0.00  0.00     0.013 C 
ENDBRANCH   7   8
ENDBRANCH   1   7
TORSDOF 2
ENDMDL
