MODEL 1
REMARK minimizedAffinity 9.39744473
REMARK minimizedRMSD -1
REMARK  2 active torsions:
REMARK  status: ('A' for Active; 'I' for Inactive)
REMARK    1  A    between atoms: C2'_3  and  C1'_4 
REMARK    2  A    between atoms: C1'_4  and  C1_5 
ROOT
ATOM      1  C1  I4B d   1       0.684  -1.582  -0.185  0.00  0.00    -0.075 A 
ATOM      2  C2  I4B d   1      -0.095  -2.307  -1.052  0.00  0.00     0.003 A 
ATOM      3  C3  I4B d   1       0.472  -2.866  -2.222  0.00  0.00     0.002 A 
ATOM      4  C4  I4B d   1       1.802  -2.635  -2.511  0.00  0.00    -0.004 A 
ATOM      5  C5  I4B d   1       2.596  -1.919  -1.620  0.00  0.00     0.002 A 
ATOM      6  C6  I4B d   1       2.037  -1.400  -0.443  0.00  0.00     0.003 A 
ENDROOT
BRANCH   1   7
ATOM      7  C1' I4B d   1       0.046  -0.977   1.025  0.00  0.00     0.060 C 
BRANCH   7   8
ATOM      8  C2' I4B d   1      -0.524   0.369   0.628  0.00  0.00    -0.013 C 
ATOM      9  C4' I4B d   1      -1.907   0.564   1.193  0.00  0.00     0.013 C 
ATOM     10  C3' I4B d   1       0.415   1.432   1.116  0.00  0.00     0.013 C 
ENDBRANCH   7   8
ENDBRANCH   1   7
TORSDOF 2
ENDMDL
