MODEL 1
REMARK minimizedAffinity 2.22282147
REMARK minimizedRMSD -1
REMARK  2 active torsions:
REMARK  status: ('A' for Active; 'I' for Inactive)
REMARK    1  A    between atoms: C2'_3  and  C1'_4 
REMARK    2  A    between atoms: C1'_4  and  C1_5 
ROOT
ATOM      1  C1  I4B d   1      -1.089   1.569   0.491  0.00  0.00    -0.075 A 
ATOM      2  C2  I4B d   1      -1.705   1.504   1.716  0.00  0.00     0.003 A 
ATOM      3  C3  I4B d   1      -3.108   1.325   1.800  0.00  0.00     0.002 A 
ATOM      4  C4  I4B d   1      -3.856   1.268   0.642  0.00  0.00    -0.004 A 
ATOM      5  C5  I4B d   1      -3.227   1.312  -0.599  0.00  0.00     0.002 A 
ATOM      6  C6  I4B d   1      -1.834   1.451  -0.675  0.00  0.00     0.003 A 
ENDROOT
BRANCH   1   7
ATOM      7  C1' I4B d   1       0.389   1.791   0.439  0.00  0.00     0.060 C 
BRANCH   7   8
ATOM      8  C2' I4B d   1       0.706   2.527  -0.847  0.00  0.00    -0.013 C 
ATOM      9  C4' I4B d   1       1.145   3.941  -0.573  0.00  0.00     0.013 C 
ATOM     10  C3' I4B d   1       1.772   1.759  -1.569  0.00  0.00     0.013 C 
ENDBRANCH   7   8
ENDBRANCH   1   7
TORSDOF 2
ENDMDL
