MODEL 1
REMARK minimizedAffinity 6.08307362
REMARK minimizedRMSD -1
REMARK  2 active torsions:
REMARK  status: ('A' for Active; 'I' for Inactive)
REMARK    1  A    between atoms: C2'_3  and  C1'_4 
REMARK    2  A    between atoms: C1'_4  and  C1_5 
ROOT
ATOM      1  C1  I4B d   1      -2.159   3.515  -5.959  0.00  0.00    -0.075 A 
ATOM      2  C2  I4B d   1      -1.499   4.718  -5.972  0.00  0.00     0.003 A 
ATOM      3  C3  I4B d   1      -2.229   5.931  -5.967  0.00  0.00     0.002 A 
ATOM      4  C4  I4B d   1      -3.608   5.895  -6.000  0.00  0.00    -0.004 A 
ATOM      5  C5  I4B d   1      -4.275   4.674  -5.963  0.00  0.00     0.002 A 
ATOM      6  C6  I4B d   1      -3.547   3.476  -5.930  0.00  0.00     0.003 A 
ENDROOT
BRANCH   1   7
ATOM      7  C1' I4B d   1      -1.357   2.252  -5.998  0.00  0.00     0.060 C 
BRANCH   7   8
ATOM      8  C2' I4B d   1       0.026   2.561  -5.462  0.00  0.00    -0.013 C 
ATOM      9  C4' I4B d   1       0.036   2.577  -3.956  0.00  0.00     0.013 C 
ATOM     10  C3' I4B d   1       0.972   1.529  -5.999  0.00  0.00     0.013 C 
ENDBRANCH   7   8
ENDBRANCH   1   7
TORSDOF 2
ENDMDL
