MODEL 1
REMARK minimizedAffinity 4.73120451
REMARK minimizedRMSD -1
REMARK  2 active torsions:
REMARK  status: ('A' for Active; 'I' for Inactive)
REMARK    1  A    between atoms: C2'_3  and  C1'_4 
REMARK    2  A    between atoms: C1'_4  and  C1_5 
ROOT
ATOM      1  C1  I4B d   1       0.508   2.998  -5.572  0.00  0.00    -0.075 A 
ATOM      2  C2  I4B d   1      -0.668   2.303  -5.704  0.00  0.00     0.003 A 
ATOM      3  C3  I4B d   1      -1.880   2.993  -5.947  0.00  0.00     0.002 A 
ATOM      4  C4  I4B d   1      -1.879   4.372  -6.000  0.00  0.00    -0.004 A 
ATOM      5  C5  I4B d   1      -0.682   5.074  -5.888  0.00  0.00     0.002 A 
ATOM      6  C6  I4B d   1       0.521   4.382  -5.685  0.00  0.00     0.003 A 
ENDROOT
BRANCH   1   7
ATOM      7  C1' I4B d   1       1.765   2.239  -5.283  0.00  0.00     0.060 C 
BRANCH   7   8
ATOM      8  C2' I4B d   1       2.066   2.381  -3.805  0.00  0.00    -0.013 C 
ATOM      9  C4' I4B d   1       0.807   2.314  -2.983  0.00  0.00     0.013 C 
ATOM     10  C3' I4B d   1       3.023   1.292  -3.421  0.00  0.00     0.013 C 
ENDBRANCH   7   8
ENDBRANCH   1   7
TORSDOF 2
ENDMDL
