MODEL 1
REMARK minimizedAffinity 3.04098892
REMARK minimizedRMSD -1
REMARK  2 active torsions:
REMARK  status: ('A' for Active; 'I' for Inactive)
REMARK    1  A    between atoms: C2'_3  and  C1'_4 
REMARK    2  A    between atoms: C1'_4  and  C1_5 
ROOT
ATOM      1  C1  I4B d   1      -0.771   3.215  -5.883  0.00  0.00    -0.075 A 
ATOM      2  C2  I4B d   1      -0.637   1.852  -5.802  0.00  0.00     0.003 A 
ATOM      3  C3  I4B d   1       0.651   1.263  -5.766  0.00  0.00     0.002 A 
ATOM      4  C4  I4B d   1       1.768   2.066  -5.863  0.00  0.00    -0.004 A 
ATOM      5  C5  I4B d   1       1.631   3.450  -5.922  0.00  0.00     0.002 A 
ATOM      6  C6  I4B d   1       0.354   4.029  -5.920  0.00  0.00     0.003 A 
ENDROOT
BRANCH   1   7
ATOM      7  C1' I4B d   1      -2.145   3.801  -5.953  0.00  0.00     0.060 C 
BRANCH   7   8
ATOM      8  C2' I4B d   1      -2.013   5.309  -5.885  0.00  0.00    -0.013 C 
ATOM      9  C4' I4B d   1      -3.361   5.978  -5.951  0.00  0.00     0.013 C 
ATOM     10  C3' I4B d   1      -1.299   5.655  -4.613  0.00  0.00     0.013 C 
ENDBRANCH   7   8
ENDBRANCH   1   7
TORSDOF 2
ENDMDL
