MODEL 1
REMARK minimizedAffinity -1.77015495
REMARK minimizedRMSD -1
REMARK  2 active torsions:
REMARK  status: ('A' for Active; 'I' for Inactive)
REMARK    1  A    between atoms: C2'_3  and  C1'_4 
REMARK    2  A    between atoms: C1'_4  and  C1_5 
ROOT
ATOM      1  C1  I4B d   1       0.172   2.846  -5.966  0.00  0.00    -0.075 A 
ATOM      2  C2  I4B d   1       0.501   4.179  -5.971  0.00  0.00     0.003 A 
ATOM      3  C3  I4B d   1       1.859   4.578  -6.000  0.00  0.00     0.002 A 
ATOM      4  C4  I4B d   1       2.851   3.618  -5.971  0.00  0.00    -0.004 A 
ATOM      5  C5  I4B d   1       2.515   2.267  -5.989  0.00  0.00     0.002 A 
ATOM      6  C6  I4B d   1       1.168   1.878  -5.999  0.00  0.00     0.003 A 
ENDROOT
BRANCH   1   7
ATOM      7  C1' I4B d   1      -1.271   2.460  -5.902  0.00  0.00     0.060 C 
BRANCH   7   8
ATOM      8  C2' I4B d   1      -2.086   3.726  -5.731  0.00  0.00    -0.013 C 
ATOM      9  C4' I4B d   1      -3.554   3.462  -5.938  0.00  0.00     0.013 C 
ATOM     10  C3' I4B d   1      -1.821   4.265  -4.357  0.00  0.00     0.013 C 
ENDBRANCH   7   8
ENDBRANCH   1   7
TORSDOF 2
ENDMDL
