MODEL 1
REMARK minimizedAffinity 3.08577895
REMARK minimizedRMSD -1
REMARK  1 active torsions:
REMARK  status: ('A' for Active; 'I' for Inactive)
REMARK    1  A    between atoms: C1_2  and  C2_3 
ROOT
ATOM      1  C2  UNL d   1      -0.385  -4.279  -0.034  0.00  0.00    -0.076 A 
ATOM      2  C3  UNL d   1       0.197  -3.019   0.193  0.00  0.00     0.004 A 
ATOM      3  C4  UNL d   1      -0.550  -1.970   0.728  0.00  0.00    -0.003 A 
ATOM      4  C5  UNL d   1      -1.890  -2.164   1.045  0.00  0.00     0.000 A 
ATOM      5  C6  UNL d   1      -2.478  -3.412   0.843  0.00  0.00     0.000 A 
ATOM      6  C7  UNL d   1      -1.735  -4.485   0.320  0.00  0.00    -0.073 A 
ATOM      7  C8  UNL d   1      -2.422  -5.807   0.117  0.00  0.00     0.078 C 
ENDROOT
BRANCH   1   8
ATOM      8  C1  UNL d   1       0.467  -5.370  -0.642  0.00  0.00     0.053 C 
ATOM      9  C   UNL d   1       0.834  -5.085  -2.090  0.00  0.00     0.018 C 
ENDBRANCH   1   8
TORSDOF 1
ENDMDL
