MODEL 1
REMARK minimizedAffinity 10.4638128
REMARK minimizedRMSD -1
REMARK  1 active torsions:
REMARK  status: ('A' for Active; 'I' for Inactive)
REMARK    1  A    between atoms: C1_2  and  C2_3 
ROOT
ATOM      1  C2  UNL d   1       1.457  -2.268   3.331  0.00  0.00    -0.076 A 
ATOM      2  C3  UNL d   1       0.937  -1.515   4.398  0.00  0.00     0.004 A 
ATOM      3  C4  UNL d   1       1.146  -1.905   5.720  0.00  0.00    -0.003 A 
ATOM      4  C5  UNL d   1       1.879  -3.054   5.996  0.00  0.00     0.000 A 
ATOM      5  C6  UNL d   1       2.418  -3.802   4.950  0.00  0.00     0.000 A 
ATOM      6  C7  UNL d   1       2.231  -3.414   3.613  0.00  0.00    -0.073 A 
ATOM      7  C8  UNL d   1       2.829  -4.263   2.524  0.00  0.00     0.078 C 
ENDROOT
BRANCH   1   8
ATOM      8  C1  UNL d   1       1.176  -1.811   1.917  0.00  0.00     0.053 C 
ATOM      9  C   UNL d   1       2.263  -0.899   1.371  0.00  0.00     0.018 C 
ENDBRANCH   1   8
TORSDOF 1
ENDMDL
