MODEL 1
REMARK minimizedAffinity 6.46260214
REMARK minimizedRMSD -1
REMARK  1 active torsions:
REMARK  status: ('A' for Active; 'I' for Inactive)
REMARK    1  A    between atoms: C1_2  and  C2_3 
ROOT
ATOM      1  C2  UNL d   1       1.456  -2.537   3.305  0.00  0.00    -0.076 A 
ATOM      2  C3  UNL d   1       0.842  -1.591   4.144  0.00  0.00     0.004 A 
ATOM      3  C4  UNL d   1       0.574  -1.884   5.480  0.00  0.00    -0.003 A 
ATOM      4  C5  UNL d   1       0.915  -3.129   5.998  0.00  0.00     0.000 A 
ATOM      5  C6  UNL d   1       1.540  -4.073   5.185  0.00  0.00     0.000 A 
ATOM      6  C7  UNL d   1       1.833  -3.788   3.840  0.00  0.00    -0.073 A 
ATOM      7  C8  UNL d   1       2.502  -4.846   3.007  0.00  0.00     0.078 C 
ENDROOT
BRANCH   1   8
ATOM      8  C1  UNL d   1       1.698  -2.173   1.857  0.00  0.00     0.053 C 
ATOM      9  C   UNL d   1       1.450  -0.698   1.579  0.00  0.00     0.018 C 
ENDBRANCH   1   8
TORSDOF 1
ENDMDL
