MODEL 1
REMARK minimizedAffinity 13.8975019
REMARK minimizedRMSD -1
REMARK  1 active torsions:
REMARK  status: ('A' for Active; 'I' for Inactive)
REMARK    1  A    between atoms: C1_2  and  C2_3 
ROOT
ATOM      1  C2  UNL d   1      -3.797   2.686  -3.322  0.00  0.00    -0.076 A 
ATOM      2  C3  UNL d   1      -3.750   3.536  -2.203  0.00  0.00     0.004 A 
ATOM      3  C4  UNL d   1      -3.688   4.920  -2.355  0.00  0.00    -0.003 A 
ATOM      4  C5  UNL d   1      -3.672   5.477  -3.629  0.00  0.00     0.000 A 
ATOM      5  C6  UNL d   1      -3.735   4.650  -4.750  0.00  0.00     0.000 A 
ATOM      6  C7  UNL d   1      -3.815   3.253  -4.614  0.00  0.00    -0.073 A 
ATOM      7  C8  UNL d   1      -3.875   2.409  -5.857  0.00  0.00     0.078 C 
ENDROOT
BRANCH   1   8
ATOM      8  C1  UNL d   1      -3.836   1.192  -3.095  0.00  0.00     0.053 C 
ATOM      9  C   UNL d   1      -2.791   0.727  -2.093  0.00  0.00     0.018 C 
ENDBRANCH   1   8
TORSDOF 1
ENDMDL
