MODEL 1
REMARK minimizedAffinity 9.69509792
REMARK minimizedRMSD -1
REMARK  1 active torsions:
REMARK  status: ('A' for Active; 'I' for Inactive)
REMARK    1  A    between atoms: C1_2  and  C2_3 
ROOT
ATOM      1  C2  UNL d   1      -3.551   2.376  -2.994  0.00  0.00    -0.076 A 
ATOM      2  C3  UNL d   1      -3.177   2.552  -4.337  0.00  0.00     0.004 A 
ATOM      3  C4  UNL d   1      -3.345   3.781  -4.974  0.00  0.00    -0.003 A 
ATOM      4  C5  UNL d   1      -3.888   4.854  -4.276  0.00  0.00     0.000 A 
ATOM      5  C6  UNL d   1      -4.249   4.702  -2.938  0.00  0.00     0.000 A 
ATOM      6  C7  UNL d   1      -4.071   3.474  -2.277  0.00  0.00    -0.073 A 
ATOM      7  C8  UNL d   1      -4.482   3.365  -0.834  0.00  0.00     0.078 C 
ENDROOT
BRANCH   1   8
ATOM      8  C1  UNL d   1      -3.371   1.013  -2.365  0.00  0.00     0.053 C 
ATOM      9  C   UNL d   1      -2.113   0.925  -1.514  0.00  0.00     0.018 C 
ENDBRANCH   1   8
TORSDOF 1
ENDMDL
