MODEL 1
REMARK minimizedAffinity 11.0111551
REMARK minimizedRMSD -1
REMARK  1 active torsions:
REMARK  status: ('A' for Active; 'I' for Inactive)
REMARK    1  A    between atoms: C1_2  and  C2_3 
ROOT
ATOM      1  C2  UNL d   1      -0.423  -4.103   0.815  0.00  0.00    -0.076 A 
ATOM      2  C3  UNL d   1       0.823  -4.664   1.144  0.00  0.00     0.004 A 
ATOM      3  C4  UNL d   1       1.701  -4.007   2.005  0.00  0.00    -0.003 A 
ATOM      4  C5  UNL d   1       1.346  -2.778   2.552  0.00  0.00     0.000 A 
ATOM      5  C6  UNL d   1       0.106  -2.216   2.250  0.00  0.00     0.000 A 
ATOM      6  C7  UNL d   1      -0.797  -2.872   1.397  0.00  0.00    -0.073 A 
ATOM      7  C8  UNL d   1      -2.118  -2.217   1.101  0.00  0.00     0.078 C 
ENDROOT
BRANCH   1   8
ATOM      8  C1  UNL d   1      -1.322  -4.848  -0.145  0.00  0.00     0.053 C 
ATOM      9  C   UNL d   1      -2.528  -5.465   0.545  0.00  0.00     0.018 C 
ENDBRANCH   1   8
TORSDOF 1
ENDMDL
