MODEL 1
REMARK minimizedAffinity 9.72074699
REMARK minimizedRMSD -1
REMARK  1 active torsions:
REMARK  status: ('A' for Active; 'I' for Inactive)
REMARK    1  A    between atoms: C1_2  and  C2_3 
ROOT
ATOM      1  C2  UNL d   1       0.099  -2.951   1.255  0.00  0.00    -0.076 A 
ATOM      2  C3  UNL d   1      -1.078  -2.182   1.250  0.00  0.00     0.004 A 
ATOM      3  C4  UNL d   1      -2.275  -2.707   0.767  0.00  0.00    -0.003 A 
ATOM      4  C5  UNL d   1      -2.316  -4.010   0.283  0.00  0.00     0.000 A 
ATOM      5  C6  UNL d   1      -1.162  -4.793   0.297  0.00  0.00     0.000 A 
ATOM      6  C7  UNL d   1       0.050  -4.284   0.795  0.00  0.00    -0.073 A 
ATOM      7  C8  UNL d   1       1.265  -5.170   0.781  0.00  0.00     0.078 C 
ENDROOT
BRANCH   1   8
ATOM      8  C1  UNL d   1       1.375  -2.319   1.765  0.00  0.00     0.053 C 
ATOM      9  C   UNL d   1       1.511  -2.420   3.277  0.00  0.00     0.018 C 
ENDBRANCH   1   8
TORSDOF 1
ENDMDL
