MODEL 1
REMARK minimizedAffinity 9.48569584
REMARK minimizedRMSD -1
REMARK  1 active torsions:
REMARK  status: ('A' for Active; 'I' for Inactive)
REMARK    1  A    between atoms: C1_2  and  C2_3 
ROOT
ATOM      1  C2  UNL d   1       1.648  -2.108   2.837  0.00  0.00    -0.076 A 
ATOM      2  C3  UNL d   1       2.361  -3.319   2.801  0.00  0.00     0.004 A 
ATOM      3  C4  UNL d   1       3.005  -3.738   1.638  0.00  0.00    -0.003 A 
ATOM      4  C5  UNL d   1       2.947  -2.952   0.492  0.00  0.00     0.000 A 
ATOM      5  C6  UNL d   1       2.259  -1.740   0.515  0.00  0.00     0.000 A 
ATOM      6  C7  UNL d   1       1.618  -1.295   1.684  0.00  0.00    -0.073 A 
ATOM      7  C8  UNL d   1       0.885   0.018   1.651  0.00  0.00     0.078 C 
ENDROOT
BRANCH   1   8
ATOM      8  C1  UNL d   1       0.946  -1.719   4.119  0.00  0.00     0.053 C 
ATOM      9  C   UNL d   1       1.435  -2.519   5.316  0.00  0.00     0.018 C 
ENDBRANCH   1   8
TORSDOF 1
ENDMDL
