MODEL 1
REMARK minimizedAffinity 1.80706227
REMARK minimizedRMSD -1
REMARK  1 active torsions:
REMARK  status: ('A' for Active; 'I' for Inactive)
REMARK    1  A    between atoms: N_2  and  C1_3 
ROOT
ATOM      1  C1  UNL d   1       0.297  -0.353  -0.078  0.00  0.00     0.143 A 
ATOM      2  C2  UNL d   1       0.980   0.545  -0.906  0.00  0.00    -0.057 A 
ATOM      3  C3  UNL d   1       2.359   0.749  -0.773  0.00  0.00     0.033 A 
ATOM      4  C4  UNL d   1       3.076   0.079   0.212  0.00  0.00    -0.042 A 
ATOM      5  C5  UNL d   1       2.413  -0.799   1.062  0.00  0.00     0.033 A 
ATOM      6  C6  UNL d   1       1.037  -1.004   0.920  0.00  0.00    -0.057 A 
ENDROOT
BRANCH   1   7
ATOM      7  N   UNL d   1      -1.090  -0.526  -0.096  0.00  0.00    -0.732 N 
ATOM      8  C   UNL d   1      -1.961   0.440   0.538  0.00  0.00     0.284 C 
ATOM      9  H3  UNL d   1      -1.428  -0.864  -0.994  0.00  0.00     0.395 HD
ENDBRANCH   1   7
TORSDOF 1
ENDMDL
