MODEL 1
REMARK minimizedAffinity -3.60810733
REMARK minimizedRMSD -1
REMARK  1 active torsions:
REMARK  status: ('A' for Active; 'I' for Inactive)
REMARK    1  A    between atoms: N_2  and  C1_3 
ROOT
ATOM      1  C1  UNL d   1      -5.065   3.328  -0.704  0.00  0.00     0.143 A 
ATOM      2  C2  UNL d   1      -5.214   4.518   0.016  0.00  0.00    -0.057 A 
ATOM      3  C3  UNL d   1      -4.198   5.481   0.046  0.00  0.00     0.033 A 
ATOM      4  C4  UNL d   1      -2.999   5.257  -0.624  0.00  0.00    -0.042 A 
ATOM      5  C5  UNL d   1      -2.820   4.070  -1.326  0.00  0.00     0.033 A 
ATOM      6  C6  UNL d   1      -3.841   3.115  -1.357  0.00  0.00    -0.057 A 
ENDROOT
BRANCH   1   7
ATOM      7  N   UNL d   1      -5.999   2.289  -0.691  0.00  0.00    -0.732 N 
ATOM      8  C   UNL d   1      -5.807   1.115  -1.516  0.00  0.00     0.284 C 
ATOM      9  H3  UNL d   1      -6.342   2.087   0.245  0.00  0.00     0.395 HD
ENDBRANCH   1   7
TORSDOF 1
ENDMDL
