MODEL 1
REMARK minimizedAffinity -2.51009297
REMARK minimizedRMSD -1
REMARK  1 active torsions:
REMARK  status: ('A' for Active; 'I' for Inactive)
REMARK    1  A    between atoms: N_2  and  C1_3 
ROOT
ATOM      1  C1  UNL d   1      -2.314   0.315   2.615  0.00  0.00     0.143 A 
ATOM      2  C2  UNL d   1      -2.757  -0.736   3.425  0.00  0.00    -0.057 A 
ATOM      3  C3  UNL d   1      -1.989  -1.196   4.503  0.00  0.00     0.033 A 
ATOM      4  C4  UNL d   1      -0.748  -0.628   4.772  0.00  0.00    -0.042 A 
ATOM      5  C5  UNL d   1      -0.277   0.401   3.965  0.00  0.00     0.033 A 
ATOM      6  C6  UNL d   1      -1.051   0.860   2.895  0.00  0.00    -0.057 A 
ENDROOT
BRANCH   1   7
ATOM      7  N   UNL d   1      -2.986   0.751   1.471  0.00  0.00    -0.732 N 
ATOM      8  C   UNL d   1      -2.848   0.038   0.219  0.00  0.00     0.284 C 
ATOM      9  H3  UNL d   1      -3.934   1.060   1.671  0.00  0.00     0.395 HD
ENDBRANCH   1   7
TORSDOF 1
ENDMDL
