MODEL 1
REMARK minimizedAffinity 0.419865012
REMARK minimizedRMSD -1
REMARK  1 active torsions:
REMARK  status: ('A' for Active; 'I' for Inactive)
REMARK    1  A    between atoms: N_2  and  C1_3 
ROOT
ATOM      1  C1  UNL d   1       0.514  -0.431   1.505  0.00  0.00     0.143 A 
ATOM      2  C2  UNL d   1      -0.439  -0.726   0.524  0.00  0.00    -0.057 A 
ATOM      3  C3  UNL d   1      -1.772  -0.321   0.660  0.00  0.00     0.033 A 
ATOM      4  C4  UNL d   1      -2.184   0.365   1.798  0.00  0.00    -0.042 A 
ATOM      5  C5  UNL d   1      -1.260   0.647   2.798  0.00  0.00     0.033 A 
ATOM      6  C6  UNL d   1       0.072   0.246   2.653  0.00  0.00    -0.057 A 
ENDROOT
BRANCH   1   7
ATOM      7  N   UNL d   1       1.832  -0.891   1.473  0.00  0.00    -0.732 N 
ATOM      8  C   UNL d   1       2.438  -1.305   0.226  0.00  0.00     0.284 C 
ATOM      9  H3  UNL d   1       2.448  -0.349   2.075  0.00  0.00     0.395 HD
ENDBRANCH   1   7
TORSDOF 1
ENDMDL
