MODEL 1
REMARK minimizedAffinity 5.6788435
REMARK minimizedRMSD -1
REMARK  1 active torsions:
REMARK  status: ('A' for Active; 'I' for Inactive)
REMARK    1  A    between atoms: N_2  and  C1_3 
ROOT
ATOM      1  C1  UNL d   1      -2.077  -0.572   1.911  0.00  0.00     0.143 A 
ATOM      2  C2  UNL d   1      -1.024  -0.029   2.655  0.00  0.00    -0.057 A 
ATOM      3  C3  UNL d   1      -0.838   1.356   2.746  0.00  0.00     0.033 A 
ATOM      4  C4  UNL d   1      -1.687   2.224   2.068  0.00  0.00    -0.042 A 
ATOM      5  C5  UNL d   1      -2.726   1.706   1.302  0.00  0.00     0.033 A 
ATOM      6  C6  UNL d   1      -2.910   0.322   1.221  0.00  0.00    -0.057 A 
ENDROOT
BRANCH   1   7
ATOM      7  N   UNL d   1      -2.256  -1.941   1.701  0.00  0.00    -0.732 N 
ATOM      8  C   UNL d   1      -2.247  -2.490   0.362  0.00  0.00     0.284 C 
ATOM      9  H3  UNL d   1      -1.759  -2.507   2.385  0.00  0.00     0.395 HD
ENDBRANCH   1   7
TORSDOF 1
ENDMDL
