MODEL 1
REMARK minimizedAffinity 8.03215504
REMARK minimizedRMSD -1
REMARK  1 active torsions:
REMARK  status: ('A' for Active; 'I' for Inactive)
REMARK    1  A    between atoms: N_2  and  C1_3 
ROOT
ATOM      1  C1  UNL d   1      -2.371  -1.377   1.805  0.00  0.00     0.143 A 
ATOM      2  C2  UNL d   1      -1.713  -0.168   1.551  0.00  0.00    -0.057 A 
ATOM      3  C3  UNL d   1      -2.065   1.006   2.227  0.00  0.00     0.033 A 
ATOM      4  C4  UNL d   1      -3.104   0.999   3.151  0.00  0.00    -0.042 A 
ATOM      5  C5  UNL d   1      -3.789  -0.185   3.401  0.00  0.00     0.033 A 
ATOM      6  C6  UNL d   1      -3.428  -1.356   2.728  0.00  0.00    -0.057 A 
ENDROOT
BRANCH   1   7
ATOM      7  N   UNL d   1      -2.134  -2.556   1.094  0.00  0.00    -0.732 N 
ATOM      8  C   UNL d   1      -2.382  -2.621  -0.330  0.00  0.00     0.284 C 
ATOM      9  H3  UNL d   1      -1.278  -3.021   1.389  0.00  0.00     0.395 HD
ENDBRANCH   1   7
TORSDOF 1
ENDMDL
