MODEL 1
REMARK minimizedAffinity -0.953835011
REMARK minimizedRMSD -1
REMARK  1 active torsions:
REMARK  status: ('A' for Active; 'I' for Inactive)
REMARK    1  A    between atoms: C1_2  and  C2_3 
ROOT
ATOM      1  C2  UNL d   1       0.950   0.009  -0.478  0.00  0.00    -0.076 A 
ATOM      2  C3  UNL d   1       1.073   1.409  -0.445  0.00  0.00     0.004 A 
ATOM      3  C4  UNL d   1       2.326   2.018  -0.431  0.00  0.00    -0.003 A 
ATOM      4  C5  UNL d   1       3.477   1.238  -0.451  0.00  0.00     0.000 A 
ATOM      5  C6  UNL d   1       3.374  -0.152  -0.501  0.00  0.00     0.000 A 
ATOM      6  C7  UNL d   1       2.118  -0.782  -0.532  0.00  0.00    -0.073 A 
ATOM      7  C8  UNL d   1       2.065  -2.284  -0.581  0.00  0.00     0.078 C 
ENDROOT
BRANCH   1   8
ATOM      8  C1  UNL d   1      -0.435  -0.597  -0.464  0.00  0.00     0.053 C 
ATOM      9  C   UNL d   1      -1.484   0.360   0.081  0.00  0.00     0.018 C 
ENDBRANCH   1   8
TORSDOF 1
ENDMDL
