MODEL 1
REMARK minimizedAffinity -4.43012094
REMARK minimizedRMSD -1
REMARK  1 active torsions:
REMARK  status: ('A' for Active; 'I' for Inactive)
REMARK    1  A    between atoms: C1_2  and  C2_3 
ROOT
ATOM      1  C2  UNL d   1      -0.067   0.746  -0.352  0.00  0.00    -0.076 A 
ATOM      2  C3  UNL d   1       0.906   1.752  -0.220  0.00  0.00     0.004 A 
ATOM      3  C4  UNL d   1       2.248   1.430  -0.023  0.00  0.00    -0.003 A 
ATOM      4  C5  UNL d   1       2.639   0.097   0.045  0.00  0.00     0.000 A 
ATOM      5  C6  UNL d   1       1.689  -0.913  -0.102  0.00  0.00     0.000 A 
ATOM      6  C7  UNL d   1       0.335  -0.606  -0.317  0.00  0.00    -0.073 A 
ATOM      7  C8  UNL d   1      -0.648  -1.736  -0.462  0.00  0.00     0.078 C 
ENDROOT
BRANCH   1   8
ATOM      8  C1  UNL d   1      -1.511   1.156  -0.537  0.00  0.00     0.053 C 
ATOM      9  C   UNL d   1      -2.231   1.364   0.787  0.00  0.00     0.018 C 
ENDBRANCH   1   8
TORSDOF 1
ENDMDL
