MODEL 1
REMARK minimizedAffinity -1.49200737
REMARK minimizedRMSD -1
REMARK  1 active torsions:
REMARK  status: ('A' for Active; 'I' for Inactive)
REMARK    1  A    between atoms: C1_2  and  C2_3 
ROOT
ATOM      1  C2  UNL d   1      -0.739   0.321  -0.184  0.00  0.00    -0.076 A 
ATOM      2  C3  UNL d   1      -1.034  -1.053  -0.169  0.00  0.00     0.004 A 
ATOM      3  C4  UNL d   1      -0.027  -2.001   0.010  0.00  0.00    -0.003 A 
ATOM      4  C5  UNL d   1       1.290  -1.589   0.178  0.00  0.00     0.000 A 
ATOM      5  C6  UNL d   1       1.598  -0.229   0.184  0.00  0.00     0.000 A 
ATOM      6  C7  UNL d   1       0.593   0.740   0.021  0.00  0.00    -0.073 A 
ATOM      7  C8  UNL d   1       0.982   2.193   0.029  0.00  0.00     0.078 C 
ENDROOT
BRANCH   1   8
ATOM      8  C1  UNL d   1      -1.868   1.301  -0.410  0.00  0.00     0.053 C 
ATOM      9  C   UNL d   1      -3.224   0.727  -0.026  0.00  0.00     0.018 C 
ENDBRANCH   1   8
TORSDOF 1
ENDMDL
