MODEL 1
REMARK minimizedAffinity -4.9368329
REMARK minimizedRMSD -1
REMARK  1 active torsions:
REMARK  status: ('A' for Active; 'I' for Inactive)
REMARK    1  A    between atoms: C1_2  and  C2_3 
ROOT
ATOM      1  C2  UNL d   1       0.786   0.106  -0.225  0.00  0.00    -0.076 A 
ATOM      2  C3  UNL d   1       0.542  -1.276  -0.314  0.00  0.00     0.004 A 
ATOM      3  C4  UNL d   1       1.542  -2.201  -0.018  0.00  0.00    -0.003 A 
ATOM      4  C5  UNL d   1       2.801  -1.760   0.373  0.00  0.00     0.000 A 
ATOM      5  C6  UNL d   1       3.055  -0.393   0.484  0.00  0.00     0.000 A 
ATOM      6  C7  UNL d   1       2.054   0.552   0.204  0.00  0.00    -0.073 A 
ATOM      7  C8  UNL d   1       2.385   2.014   0.334  0.00  0.00     0.078 C 
ENDROOT
BRANCH   1   8
ATOM      8  C1  UNL d   1      -0.328   1.062  -0.586  0.00  0.00     0.053 C 
ATOM      9  C   UNL d   1      -1.597   0.807   0.214  0.00  0.00     0.018 C 
ENDBRANCH   1   8
TORSDOF 1
ENDMDL
