MODEL 1
REMARK minimizedAffinity -2.87152314
REMARK minimizedRMSD -1
REMARK  1 active torsions:
REMARK  status: ('A' for Active; 'I' for Inactive)
REMARK    1  A    between atoms: C1_2  and  C2_3 
ROOT
ATOM      1  C2  UNL d   1       1.149   0.378   0.104  0.00  0.00    -0.076 A 
ATOM      2  C3  UNL d   1       1.533   1.701   0.383  0.00  0.00     0.004 A 
ATOM      3  C4  UNL d   1       2.868   2.026   0.616  0.00  0.00    -0.003 A 
ATOM      4  C5  UNL d   1       3.841   1.034   0.574  0.00  0.00     0.000 A 
ATOM      5  C6  UNL d   1       3.480  -0.281   0.282  0.00  0.00     0.000 A 
ATOM      6  C7  UNL d   1       2.141  -0.623   0.028  0.00  0.00    -0.073 A 
ATOM      7  C8  UNL d   1       1.808  -2.058  -0.277  0.00  0.00     0.078 C 
ENDROOT
BRANCH   1   8
ATOM      8  C1  UNL d   1      -0.317   0.080  -0.114  0.00  0.00     0.053 C 
ATOM      9  C   UNL d   1      -1.104   1.308  -0.544  0.00  0.00     0.018 C 
ENDBRANCH   1   8
TORSDOF 1
ENDMDL
