MODEL 1
REMARK minimizedAffinity -3.44529676
REMARK minimizedRMSD -1
REMARK  1 active torsions:
REMARK  status: ('A' for Active; 'I' for Inactive)
REMARK    1  A    between atoms: N_2  and  C1_3 
ROOT
ATOM      1  C1  UNL d   1      -0.890  -0.717  -4.426  0.00  0.00     0.143 A 
ATOM      2  C2  UNL d   1      -0.376  -1.936  -4.879  0.00  0.00    -0.057 A 
ATOM      3  C3  UNL d   1      -0.087  -2.978  -3.990  0.00  0.00     0.033 A 
ATOM      4  C4  UNL d   1      -0.280  -2.807  -2.623  0.00  0.00    -0.042 A 
ATOM      5  C5  UNL d   1      -0.766  -1.595  -2.147  0.00  0.00     0.033 A 
ATOM      6  C6  UNL d   1      -1.059  -0.561  -3.041  0.00  0.00    -0.057 A 
ENDROOT
BRANCH   1   7
ATOM      7  N   UNL d   1      -1.105   0.391  -5.249  0.00  0.00    -0.732 N 
ATOM      8  C   UNL d   1      -0.014   0.976  -5.997  0.00  0.00     0.284 C 
ATOM      9  H3  UNL d   1      -1.977   0.326  -5.769  0.00  0.00     0.395 HD
ENDBRANCH   1   7
TORSDOF 1
ENDMDL
