MODEL 1
REMARK minimizedAffinity 3.44920993
REMARK minimizedRMSD -1
REMARK  1 active torsions:
REMARK  status: ('A' for Active; 'I' for Inactive)
REMARK    1  A    between atoms: N_2  and  C1_3 
ROOT
ATOM      1  C1  UNL d   1      -2.703   0.289   2.335  0.00  0.00     0.143 A 
ATOM      2  C2  UNL d   1      -2.274  -0.510   1.269  0.00  0.00    -0.057 A 
ATOM      3  C3  UNL d   1      -0.977  -1.036   1.232  0.00  0.00     0.033 A 
ATOM      4  C4  UNL d   1      -0.074  -0.747   2.249  0.00  0.00    -0.042 A 
ATOM      5  C5  UNL d   1      -0.471   0.065   3.306  0.00  0.00     0.033 A 
ATOM      6  C6  UNL d   1      -1.769   0.582   3.341  0.00  0.00    -0.057 A 
ENDROOT
BRANCH   1   7
ATOM      7  N   UNL d   1      -3.948   0.921   2.381  0.00  0.00    -0.732 N 
ATOM      8  C   UNL d   1      -4.792   0.973   1.206  0.00  0.00     0.284 C 
ATOM      9  H3  UNL d   1      -4.449   0.730   3.245  0.00  0.00     0.395 HD
ENDBRANCH   1   7
TORSDOF 1
ENDMDL
