MODEL 1
REMARK minimizedAffinity -0.430608809
REMARK minimizedRMSD -1
REMARK  1 active torsions:
REMARK  status: ('A' for Active; 'I' for Inactive)
REMARK    1  A    between atoms: N_2  and  C1_3 
ROOT
ATOM      1  C1  UNL d   1      -4.038   0.681   1.050  0.00  0.00     0.143 A 
ATOM      2  C2  UNL d   1      -3.367   0.929   2.252  0.00  0.00    -0.057 A 
ATOM      3  C3  UNL d   1      -2.109   0.371   2.510  0.00  0.00     0.033 A 
ATOM      4  C4  UNL d   1      -1.511  -0.472   1.579  0.00  0.00    -0.042 A 
ATOM      5  C5  UNL d   1      -2.171  -0.753   0.388  0.00  0.00     0.033 A 
ATOM      6  C6  UNL d   1      -3.424  -0.186   0.133  0.00  0.00    -0.057 A 
ENDROOT
BRANCH   1   7
ATOM      7  N   UNL d   1      -5.333   1.127   0.775  0.00  0.00    -0.732 N 
ATOM      8  C   UNL d   1      -5.996   0.754  -0.455  0.00  0.00     0.284 C 
ATOM      9  H3  UNL d   1      -5.934   1.102   1.596  0.00  0.00     0.395 HD
ENDBRANCH   1   7
TORSDOF 1
ENDMDL
