MODEL 1
REMARK minimizedAffinity -1.61020923
REMARK minimizedRMSD -1
REMARK  1 active torsions:
REMARK  status: ('A' for Active; 'I' for Inactive)
REMARK    1  A    between atoms: N_2  and  C1_3 
ROOT
ATOM      1  C1  UNL d   1       0.075  -1.006  -3.706  0.00  0.00     0.143 A 
ATOM      2  C2  UNL d   1       0.855  -0.979  -4.867  0.00  0.00    -0.057 A 
ATOM      3  C3  UNL d   1       0.450  -0.259  -5.997  0.00  0.00     0.033 A 
ATOM      4  C4  UNL d   1      -0.761   0.425  -5.996  0.00  0.00    -0.042 A 
ATOM      5  C5  UNL d   1      -1.564   0.392  -4.862  0.00  0.00     0.033 A 
ATOM      6  C6  UNL d   1      -1.151  -0.323  -3.734  0.00  0.00    -0.057 A 
ENDROOT
BRANCH   1   7
ATOM      7  N   UNL d   1       0.375  -1.783  -2.585  0.00  0.00    -0.732 N 
ATOM      8  C   UNL d   1       0.709  -3.184  -2.727  0.00  0.00     0.284 C 
ATOM      9  H3  UNL d   1       0.951  -1.285  -1.910  0.00  0.00     0.395 HD
ENDBRANCH   1   7
TORSDOF 1
ENDMDL
