MODEL 1
REMARK minimizedAffinity -3.42921281
REMARK minimizedRMSD -1
REMARK  1 active torsions:
REMARK  status: ('A' for Active; 'I' for Inactive)
REMARK    1  A    between atoms: N_2  and  C1_3 
ROOT
ATOM      1  C1  UNL d   1       1.434   0.051  -5.191  0.00  0.00     0.143 A 
ATOM      2  C2  UNL d   1       1.206   0.813  -4.040  0.00  0.00    -0.057 A 
ATOM      3  C3  UNL d   1      -0.085   1.219  -3.682  0.00  0.00     0.033 A 
ATOM      4  C4  UNL d   1      -1.171   0.894  -4.488  0.00  0.00    -0.042 A 
ATOM      5  C5  UNL d   1      -0.965   0.158  -5.649  0.00  0.00     0.033 A 
ATOM      6  C6  UNL d   1       0.326  -0.251  -5.998  0.00  0.00    -0.057 A 
ENDROOT
BRANCH   1   7
ATOM      7  N   UNL d   1       2.705  -0.300  -5.652  0.00  0.00    -0.732 N 
ATOM      8  C   UNL d   1       3.671   0.720  -5.999  0.00  0.00     0.284 C 
ATOM      9  H3  UNL d   1       3.099  -1.089  -5.145  0.00  0.00     0.395 HD
ENDBRANCH   1   7
TORSDOF 1
ENDMDL
