MODEL 1
REMARK minimizedAffinity 1.26882029
REMARK minimizedRMSD -1
REMARK  0 active torsions:
REMARK  status: ('A' for Active; 'I' for Inactive)
ROOT
ATOM      1  C   UNL d   1       4.119   3.434  -3.759  0.00  0.00     0.020 A 
ATOM      2  C1  UNL d   1       5.425   3.904  -3.889  0.00  0.00     0.020 A 
ATOM      3  C2  UNL d   1       5.987   4.695  -2.884  0.00  0.00     0.034 A 
ATOM      4  C3  UNL d   1       5.242   5.018  -1.744  0.00  0.00     0.017 A 
ATOM      5  C4  UNL d   1       3.931   4.545  -1.614  0.00  0.00     0.017 A 
ATOM      6  C5  UNL d   1       3.374   3.754  -2.623  0.00  0.00     0.034 A 
ATOM      7 Cl   UNL d   1       2.949   4.902  -0.237  0.00  0.00    -0.070 Cl
ATOM      8 Cl1  UNL d   1       5.999   5.999  -0.541  0.00  0.00    -0.070 Cl
ENDROOT
TORSDOF 0
ENDMDL
