MODEL 1
REMARK minimizedAffinity 1.43508101
REMARK minimizedRMSD -1
REMARK  0 active torsions:
REMARK  status: ('A' for Active; 'I' for Inactive)
ROOT
ATOM      1  C   UNL d   1       4.759   4.531  -5.953  0.00  0.00     0.020 A 
ATOM      2  C1  UNL d   1       5.954   4.445  -5.239  0.00  0.00     0.020 A 
ATOM      3  C2  UNL d   1       5.997   4.840  -3.900  0.00  0.00     0.034 A 
ATOM      4  C3  UNL d   1       4.844   5.323  -3.271  0.00  0.00     0.017 A 
ATOM      5  C4  UNL d   1       3.645   5.409  -3.989  0.00  0.00     0.017 A 
ATOM      6  C5  UNL d   1       3.608   5.012  -5.329  0.00  0.00     0.034 A 
ATOM      7 Cl   UNL d   1       2.181   5.995  -3.281  0.00  0.00    -0.070 Cl
ATOM      8 Cl1  UNL d   1       4.970   5.794  -1.614  0.00  0.00    -0.070 Cl
ENDROOT
TORSDOF 0
ENDMDL
