MODEL 1
REMARK minimizedAffinity -0.708845615
REMARK minimizedRMSD -1
REMARK  0 active torsions:
REMARK  status: ('A' for Active; 'I' for Inactive)
ROOT
ATOM      1  C   UNL d   1       4.853   5.690  -5.708  0.00  0.00     0.020 A 
ATOM      2  C1  UNL d   1       5.989   5.994  -4.958  0.00  0.00     0.020 A 
ATOM      3  C2  UNL d   1       6.000   5.758  -3.582  0.00  0.00     0.034 A 
ATOM      4  C3  UNL d   1       4.874   5.216  -2.951  0.00  0.00     0.017 A 
ATOM      5  C4  UNL d   1       3.734   4.912  -3.705  0.00  0.00     0.017 A 
ATOM      6  C5  UNL d   1       3.729   5.150  -5.083  0.00  0.00     0.034 A 
ATOM      7 Cl   UNL d   1       2.307   4.242  -2.997  0.00  0.00    -0.070 Cl
ATOM      8 Cl1  UNL d   1       4.958   4.951  -1.246  0.00  0.00    -0.070 Cl
ENDROOT
TORSDOF 0
ENDMDL
