MODEL 1
REMARK minimizedAffinity 3.49143076
REMARK minimizedRMSD -1
REMARK  0 active torsions:
REMARK  status: ('A' for Active; 'I' for Inactive)
ROOT
ATOM      1  C   UNL d   1       4.855   3.839  -5.206  0.00  0.00     0.020 A 
ATOM      2  C1  UNL d   1       6.000   3.840  -4.411  0.00  0.00     0.020 A 
ATOM      3  C2  UNL d   1       6.000   4.513  -3.188  0.00  0.00     0.034 A 
ATOM      4  C3  UNL d   1       4.853   5.189  -2.756  0.00  0.00     0.017 A 
ATOM      5  C4  UNL d   1       3.703   5.187  -3.555  0.00  0.00     0.017 A 
ATOM      6  C5  UNL d   1       3.709   4.512  -4.779  0.00  0.00     0.034 A 
ATOM      7 Cl   UNL d   1       2.250   5.998  -3.089  0.00  0.00    -0.070 Cl
ATOM      8 Cl1  UNL d   1       4.923   6.000  -1.232  0.00  0.00    -0.070 Cl
ENDROOT
TORSDOF 0
ENDMDL
