MODEL 1
REMARK minimizedAffinity 3.38619614
REMARK minimizedRMSD -1
REMARK  0 active torsions:
REMARK  status: ('A' for Active; 'I' for Inactive)
ROOT
ATOM      1  C   UNL d   1       4.510   3.269  -4.824  0.00  0.00     0.020 A 
ATOM      2  C1  UNL d   1       5.780   3.356  -4.254  0.00  0.00     0.020 A 
ATOM      3  C2  UNL d   1       6.000   4.206  -3.168  0.00  0.00     0.034 A 
ATOM      4  C3  UNL d   1       4.949   4.971  -2.648  0.00  0.00     0.017 A 
ATOM      5  C4  UNL d   1       3.676   4.882  -3.221  0.00  0.00     0.017 A 
ATOM      6  C5  UNL d   1       3.461   4.030  -4.309  0.00  0.00     0.034 A 
ATOM      7 Cl   UNL d   1       2.330   5.795  -2.635  0.00  0.00    -0.070 Cl
ATOM      8 Cl1  UNL d   1       5.293   6.000  -1.303  0.00  0.00    -0.070 Cl
ENDROOT
TORSDOF 0
ENDMDL
