MODEL 1
REMARK minimizedAffinity 2.64375877
REMARK minimizedRMSD -1
REMARK  0 active torsions:
REMARK  status: ('A' for Active; 'I' for Inactive)
ROOT
ATOM      1  C   UNL d   1       4.866   5.048  -5.993  0.00  0.00     0.020 A 
ATOM      2  C1  UNL d   1       5.998   5.566  -5.366  0.00  0.00     0.020 A 
ATOM      3  C2  UNL d   1       6.000   5.769  -3.984  0.00  0.00     0.034 A 
ATOM      4  C3  UNL d   1       4.867   5.454  -3.226  0.00  0.00     0.017 A 
ATOM      5  C4  UNL d   1       3.731   4.934  -3.856  0.00  0.00     0.017 A 
ATOM      6  C5  UNL d   1       3.735   4.732  -5.240  0.00  0.00     0.034 A 
ATOM      7 Cl   UNL d   1       2.295   4.521  -2.987  0.00  0.00    -0.070 Cl
ATOM      8 Cl1  UNL d   1       4.939   5.730  -1.521  0.00  0.00    -0.070 Cl
ENDROOT
TORSDOF 0
ENDMDL
