MODEL 1
REMARK minimizedAffinity 7.683671
REMARK minimizedRMSD -1
REMARK  0 active torsions:
REMARK  status: ('A' for Active; 'I' for Inactive)
ROOT
ATOM      1  C   UNL d   1       5.991   4.067  -3.335  0.00  0.00     0.020 A 
ATOM      2  C1  UNL d   1       5.870   5.423  -3.034  0.00  0.00     0.020 A 
ATOM      3  C2  UNL d   1       4.604   5.999  -2.906  0.00  0.00     0.034 A 
ATOM      4  C3  UNL d   1       3.455   5.220  -3.080  0.00  0.00     0.017 A 
ATOM      5  C4  UNL d   1       3.577   3.859  -3.383  0.00  0.00     0.017 A 
ATOM      6  C5  UNL d   1       4.847   3.287  -3.510  0.00  0.00     0.034 A 
ATOM      7 Cl   UNL d   1       2.205   2.833  -3.612  0.00  0.00    -0.070 Cl
ATOM      8 Cl1  UNL d   1       1.922   5.999  -2.907  0.00  0.00    -0.070 Cl
ENDROOT
TORSDOF 0
ENDMDL
