MODEL 1
REMARK minimizedAffinity 11.919899
REMARK minimizedRMSD -1
REMARK  0 active torsions:
REMARK  status: ('A' for Active; 'I' for Inactive)
ROOT
ATOM      1  C   UNL d   1       1.105  -2.245  -3.036  0.00  0.00     0.020 A 
ATOM      2  C1  UNL d   1      -0.083  -1.524  -3.146  0.00  0.00     0.020 A 
ATOM      3  C2  UNL d   1      -1.052  -1.618  -2.145  0.00  0.00     0.034 A 
ATOM      4  C3  UNL d   1      -0.835  -2.434  -1.029  0.00  0.00     0.017 A 
ATOM      5  C4  UNL d   1       0.358  -3.158  -0.919  0.00  0.00     0.017 A 
ATOM      6  C5  UNL d   1       1.325  -3.060  -1.925  0.00  0.00     0.034 A 
ATOM      7 Cl   UNL d   1       0.698  -4.186   0.427  0.00  0.00    -0.070 Cl
ATOM      8 Cl1  UNL d   1      -2.076  -2.502   0.171  0.00  0.00    -0.070 Cl
ENDROOT
TORSDOF 0
ENDMDL
