MODEL 1
REMARK minimizedAffinity -1.42144096
REMARK minimizedRMSD -1
REMARK  0 active torsions:
REMARK  status: ('A' for Active; 'I' for Inactive)
ROOT
ATOM      1  C   UNL d   1       3.774  -1.458   2.089  0.00  0.00     0.020 A 
ATOM      2  C1  UNL d   1       4.538  -2.623   2.040  0.00  0.00     0.020 A 
ATOM      3  C2  UNL d   1       4.926  -3.253   3.225  0.00  0.00     0.034 A 
ATOM      4  C3  UNL d   1       4.550  -2.719   4.462  0.00  0.00     0.017 A 
ATOM      5  C4  UNL d   1       3.782  -1.550   4.510  0.00  0.00     0.017 A 
ATOM      6  C5  UNL d   1       3.396  -0.923   3.321  0.00  0.00     0.034 A 
ATOM      7 Cl   UNL d   1       3.279  -0.831   5.999  0.00  0.00    -0.070 Cl
ATOM      8 Cl1  UNL d   1       5.064  -3.551   5.886  0.00  0.00    -0.070 Cl
ENDROOT
TORSDOF 0
ENDMDL
