MODEL 1
REMARK minimizedAffinity -4.6541419
REMARK minimizedRMSD -1
REMARK  0 active torsions:
REMARK  status: ('A' for Active; 'I' for Inactive)
ROOT
ATOM      1  C   UNL d   1       5.620   2.475  -5.252  0.00  0.00     0.020 A 
ATOM      2  C1  UNL d   1       4.321   2.416  -5.756  0.00  0.00     0.020 A 
ATOM      3  C2  UNL d   1       3.395   3.405  -5.418  0.00  0.00     0.034 A 
ATOM      4  C3  UNL d   1       3.767   4.458  -4.574  0.00  0.00     0.017 A 
ATOM      5  C4  UNL d   1       5.071   4.516  -4.069  0.00  0.00     0.017 A 
ATOM      6  C5  UNL d   1       5.994   3.523  -4.410  0.00  0.00     0.034 A 
ATOM      7 Cl   UNL d   1       5.603   5.784  -3.022  0.00  0.00    -0.070 Cl
ATOM      8 Cl1  UNL d   1       2.571   5.647  -4.198  0.00  0.00    -0.070 Cl
ENDROOT
TORSDOF 0
ENDMDL
