MODEL 1
REMARK minimizedAffinity -3.17812085
REMARK minimizedRMSD -1
REMARK  0 active torsions:
REMARK  status: ('A' for Active; 'I' for Inactive)
ROOT
ATOM      1  C   UNL d   1       5.062   2.871  -5.955  0.00  0.00     0.020 A 
ATOM      2  C1  UNL d   1       5.993   2.647  -4.941  0.00  0.00     0.020 A 
ATOM      3  C2  UNL d   1       6.000   3.461  -3.807  0.00  0.00     0.034 A 
ATOM      4  C3  UNL d   1       5.074   4.503  -3.683  0.00  0.00     0.017 A 
ATOM      5  C4  UNL d   1       4.140   4.728  -4.701  0.00  0.00     0.017 A 
ATOM      6  C5  UNL d   1       4.138   3.910  -5.835  0.00  0.00     0.034 A 
ATOM      7 Cl   UNL d   1       2.967   5.995  -4.619  0.00  0.00    -0.070 Cl
ATOM      8 Cl1  UNL d   1       5.140   5.471  -2.253  0.00  0.00    -0.070 Cl
ENDROOT
TORSDOF 0
ENDMDL
