MODEL 1
REMARK minimizedAffinity -3.064152
REMARK minimizedRMSD -1
REMARK  0 active torsions:
REMARK  status: ('A' for Active; 'I' for Inactive)
ROOT
ATOM      1  C   UNL d   1       5.986   3.245  -5.120  0.00  0.00     0.020 A 
ATOM      2  C1  UNL d   1       4.928   3.482  -5.997  0.00  0.00     0.020 A 
ATOM      3  C2  UNL d   1       3.883   4.327  -5.618  0.00  0.00     0.034 A 
ATOM      4  C3  UNL d   1       3.893   4.939  -4.360  0.00  0.00     0.017 A 
ATOM      5  C4  UNL d   1       4.956   4.701  -3.480  0.00  0.00     0.017 A 
ATOM      6  C5  UNL d   1       6.000   3.853  -3.864  0.00  0.00     0.034 A 
ATOM      7 Cl   UNL d   1       5.038   5.419  -1.910  0.00  0.00    -0.070 Cl
ATOM      8 Cl1  UNL d   1       2.568   5.972  -3.958  0.00  0.00    -0.070 Cl
ENDROOT
TORSDOF 0
ENDMDL
