MODEL 1
REMARK minimizedAffinity 19.4180717
REMARK minimizedRMSD -1
REMARK  0 active torsions:
REMARK  status: ('A' for Active; 'I' for Inactive)
ROOT
ATOM      1  C   UNL d   1       5.993   3.139  -3.432  0.00  0.00     0.020 A 
ATOM      2  C1  UNL d   1       4.853   2.966  -4.217  0.00  0.00     0.020 A 
ATOM      3  C2  UNL d   1       3.713   3.734  -3.971  0.00  0.00     0.034 A 
ATOM      4  C3  UNL d   1       3.710   4.678  -2.938  0.00  0.00     0.017 A 
ATOM      5  C4  UNL d   1       4.854   4.851  -2.151  0.00  0.00     0.017 A 
ATOM      6  C5  UNL d   1       5.993   4.079  -2.401  0.00  0.00     0.034 A 
ATOM      7 Cl   UNL d   1       4.926   5.996  -0.858  0.00  0.00    -0.070 Cl
ATOM      8 Cl1  UNL d   1       2.265   5.594  -2.690  0.00  0.00    -0.070 Cl
ENDROOT
TORSDOF 0
ENDMDL
