MODEL 1
REMARK minimizedAffinity -3.8913641
REMARK minimizedRMSD -1
REMARK  0 active torsions:
REMARK  status: ('A' for Active; 'I' for Inactive)
ROOT
ATOM      1  C   UNL d   1       4.313   4.374  -5.440  0.00  0.00     0.020 A 
ATOM      2  C1  UNL d   1       5.497   5.110  -5.425  0.00  0.00     0.020 A 
ATOM      3  C2  UNL d   1       6.000   5.600  -4.218  0.00  0.00     0.034 A 
ATOM      4  C3  UNL d   1       5.318   5.353  -3.020  0.00  0.00     0.017 A 
ATOM      5  C4  UNL d   1       4.130   4.614  -3.036  0.00  0.00     0.017 A 
ATOM      6  C5  UNL d   1       3.631   4.126  -4.248  0.00  0.00     0.034 A 
ATOM      7 Cl   UNL d   1       3.233   4.269  -1.599  0.00  0.00    -0.070 Cl
ATOM      8 Cl1  UNL d   1       5.998   5.988  -1.564  0.00  0.00    -0.070 Cl
ENDROOT
TORSDOF 0
ENDMDL
