MODEL 1
REMARK minimizedAffinity -1.0777663
REMARK minimizedRMSD -1
REMARK  0 active torsions:
REMARK  status: ('A' for Active; 'I' for Inactive)
ROOT
ATOM      1  C   UNL d   1       5.938   4.609  -1.606  0.00  0.00     0.020 A 
ATOM      2  C1  UNL d   1       5.034   5.662  -1.470  0.00  0.00     0.020 A 
ATOM      3  C2  UNL d   1       4.191   6.000  -2.530  0.00  0.00     0.034 A 
ATOM      4  C3  UNL d   1       4.250   5.285  -3.732  0.00  0.00     0.017 A 
ATOM      5  C4  UNL d   1       5.158   4.228  -3.868  0.00  0.00     0.017 A 
ATOM      6  C5  UNL d   1       6.000   3.894  -2.803  0.00  0.00     0.034 A 
ATOM      7 Cl   UNL d   1       5.289   3.300  -5.320  0.00  0.00    -0.070 Cl
ATOM      8 Cl1  UNL d   1       3.177   5.757  -5.002  0.00  0.00    -0.070 Cl
ENDROOT
TORSDOF 0
ENDMDL
