MODEL 1
REMARK minimizedAffinity 1.47705543
REMARK minimizedRMSD -1
REMARK  0 active torsions:
REMARK  status: ('A' for Active; 'I' for Inactive)
ROOT
ATOM      1  C   UNL d   1       4.191   5.474  -5.999  0.00  0.00     0.020 A 
ATOM      2  C1  UNL d   1       5.460   5.998  -5.758  0.00  0.00     0.020 A 
ATOM      3  C2  UNL d   1       5.999   5.959  -4.471  0.00  0.00     0.034 A 
ATOM      4  C3  UNL d   1       5.269   5.393  -3.419  0.00  0.00     0.017 A 
ATOM      5  C4  UNL d   1       3.995   4.867  -3.661  0.00  0.00     0.017 A 
ATOM      6  C5  UNL d   1       3.460   4.909  -4.952  0.00  0.00     0.034 A 
ATOM      7 Cl   UNL d   1       3.035   4.154  -2.414  0.00  0.00    -0.070 Cl
ATOM      8 Cl1  UNL d   1       5.998   5.378  -1.852  0.00  0.00    -0.070 Cl
ENDROOT
TORSDOF 0
ENDMDL
