MODEL 1
REMARK minimizedAffinity 1.39953387
REMARK minimizedRMSD -1
REMARK  0 active torsions:
REMARK  status: ('A' for Active; 'I' for Inactive)
ROOT
ATOM      1  C   UNL d   1       5.998   4.441  -2.140  0.00  0.00     0.020 A 
ATOM      2  C1  UNL d   1       5.166   5.537  -1.919  0.00  0.00     0.020 A 
ATOM      3  C2  UNL d   1       4.334   5.999  -2.941  0.00  0.00     0.034 A 
ATOM      4  C3  UNL d   1       4.333   5.366  -4.189  0.00  0.00     0.017 A 
ATOM      5  C4  UNL d   1       5.169   4.265  -4.410  0.00  0.00     0.017 A 
ATOM      6  C5  UNL d   1       6.000   3.807  -3.383  0.00  0.00     0.034 A 
ATOM      7 Cl   UNL d   1       5.223   3.432  -5.923  0.00  0.00    -0.070 Cl
ATOM      8 Cl1  UNL d   1       3.278   5.991  -5.406  0.00  0.00    -0.070 Cl
ENDROOT
TORSDOF 0
ENDMDL
