MODEL 1
REMARK minimizedAffinity -1.52136374
REMARK minimizedRMSD -1
REMARK  0 active torsions:
REMARK  status: ('A' for Active; 'I' for Inactive)
ROOT
ATOM      1  C   UNL d   1       4.178   5.838  -5.778  0.00  0.00     0.020 A 
ATOM      2  C1  UNL d   1       5.439   5.243  -5.750  0.00  0.00     0.020 A 
ATOM      3  C2  UNL d   1       5.978   4.805  -4.539  0.00  0.00     0.034 A 
ATOM      4  C3  UNL d   1       5.255   4.960  -3.350  0.00  0.00     0.017 A 
ATOM      5  C4  UNL d   1       3.990   5.557  -3.379  0.00  0.00     0.017 A 
ATOM      6  C5  UNL d   1       3.455   5.995  -4.594  0.00  0.00     0.034 A 
ATOM      7 Cl   UNL d   1       3.039   5.784  -1.953  0.00  0.00    -0.070 Cl
ATOM      8 Cl1  UNL d   1       5.983   4.395  -1.888  0.00  0.00    -0.070 Cl
ENDROOT
TORSDOF 0
ENDMDL
