MODEL 1
REMARK minimizedAffinity -5.66492081
REMARK minimizedRMSD -1
REMARK  0 active torsions:
REMARK  status: ('A' for Active; 'I' for Inactive)
ROOT
ATOM      1  C   UNL d   1       0.349  -0.105  -1.692  0.00  0.00     0.077 C 
ATOM      2  C1  UNL d   1      -0.378   0.424  -0.492  0.00  0.00    -0.074 A 
ATOM      3  C2  UNL d   1      -1.683   0.914  -0.600  0.00  0.00    -0.005 A 
ATOM      4  C3  UNL d   1      -2.350   1.394   0.527  0.00  0.00     0.006 A 
ATOM      5  C4  UNL d   1      -1.720   1.389   1.772  0.00  0.00    -0.005 A 
ATOM      6  C5  UNL d   1      -0.415   0.902   1.900  0.00  0.00    -0.074 A 
ATOM      7  C6  UNL d   1       0.274   0.881   3.232  0.00  0.00     0.077 C 
ATOM      8  C7  UNL d   1       0.246   0.415   0.764  0.00  0.00    -0.001 A 
ENDROOT
TORSDOF 0
ENDMDL
