MODEL 1
REMARK minimizedAffinity -4.79042435
REMARK minimizedRMSD -1
REMARK  0 active torsions:
REMARK  status: ('A' for Active; 'I' for Inactive)
ROOT
ATOM      1  C   UNL d   1       0.749   0.368  -1.214  0.00  0.00     0.077 C 
ATOM      2  C1  UNL d   1      -0.168   0.447  -0.030  0.00  0.00    -0.074 A 
ATOM      3  C2  UNL d   1      -1.513   0.082  -0.137  0.00  0.00    -0.005 A 
ATOM      4  C3  UNL d   1      -2.352   0.152   0.976  0.00  0.00     0.006 A 
ATOM      5  C4  UNL d   1      -1.854   0.587   2.205  0.00  0.00    -0.005 A 
ATOM      6  C5  UNL d   1      -0.511   0.955   2.331  0.00  0.00    -0.074 A 
ATOM      7  C6  UNL d   1       0.043   1.415   3.647  0.00  0.00     0.077 C 
ATOM      8  C7  UNL d   1       0.327   0.875   1.210  0.00  0.00    -0.001 A 
ENDROOT
TORSDOF 0
ENDMDL
