MODEL 1
REMARK minimizedAffinity -2.1261549
REMARK minimizedRMSD -1
REMARK  0 active torsions:
REMARK  status: ('A' for Active; 'I' for Inactive)
ROOT
ATOM      1  C   UNL d   1      -2.530  -0.775  -0.561  0.00  0.00     0.077 C 
ATOM      2  C1  UNL d   1      -1.454  -0.481   0.442  0.00  0.00    -0.074 A 
ATOM      3  C2  UNL d   1      -1.739   0.224   1.616  0.00  0.00    -0.005 A 
ATOM      4  C3  UNL d   1      -0.731   0.481   2.544  0.00  0.00     0.006 A 
ATOM      5  C4  UNL d   1       0.571   0.038   2.308  0.00  0.00    -0.005 A 
ATOM      6  C5  UNL d   1       0.875  -0.668   1.140  0.00  0.00    -0.074 A 
ATOM      7  C6  UNL d   1       2.267  -1.160   0.875  0.00  0.00     0.077 C 
ATOM      8  C7  UNL d   1      -0.146  -0.930   0.216  0.00  0.00    -0.001 A 
ENDROOT
TORSDOF 0
ENDMDL
