MODEL 1
REMARK minimizedAffinity -4.23317671
REMARK minimizedRMSD -1
REMARK  0 active torsions:
REMARK  status: ('A' for Active; 'I' for Inactive)
ROOT
ATOM      1  C   UNL d   1       0.804   1.906  -3.041  0.00  0.00     0.077 C 
ATOM      2  C1  UNL d   1       0.317   1.211  -1.804  0.00  0.00    -0.074 A 
ATOM      3  C2  UNL d   1      -0.958   1.469  -1.290  0.00  0.00    -0.005 A 
ATOM      4  C3  UNL d   1      -1.400   0.808  -0.144  0.00  0.00     0.006 A 
ATOM      5  C4  UNL d   1      -0.574  -0.115   0.499  0.00  0.00    -0.005 A 
ATOM      6  C5  UNL d   1       0.703  -0.386  -0.001  0.00  0.00    -0.074 A 
ATOM      7  C6  UNL d   1       1.600  -1.382   0.671  0.00  0.00     0.077 C 
ATOM      8  C7  UNL d   1       1.138   0.277  -1.157  0.00  0.00    -0.001 A 
ENDROOT
TORSDOF 0
ENDMDL
