MODEL 1
REMARK minimizedAffinity -1.86919713
REMARK minimizedRMSD -1
REMARK  0 active torsions:
REMARK  status: ('A' for Active; 'I' for Inactive)
ROOT
ATOM      1  C   UNL d   1      -0.230  -0.751  -0.997  0.00  0.00     0.077 C 
ATOM      2  C1  UNL d   1       0.373  -0.784   0.376  0.00  0.00    -0.074 A 
ATOM      3  C2  UNL d   1       1.657  -1.298   0.586  0.00  0.00    -0.005 A 
ATOM      4  C3  UNL d   1       2.208  -1.314   1.867  0.00  0.00     0.006 A 
ATOM      5  C4  UNL d   1       1.482  -0.817   2.950  0.00  0.00    -0.005 A 
ATOM      6  C5  UNL d   1       0.197  -0.299   2.760  0.00  0.00    -0.074 A 
ATOM      7  C6  UNL d   1      -0.593   0.248   3.912  0.00  0.00     0.077 C 
ATOM      8  C7  UNL d   1      -0.347  -0.280   1.469  0.00  0.00    -0.001 A 
ENDROOT
TORSDOF 0
ENDMDL
