MODEL 1
REMARK minimizedAffinity -1.99501801
REMARK minimizedRMSD -1
REMARK  0 active torsions:
REMARK  status: ('A' for Active; 'I' for Inactive)
ROOT
ATOM      1  C   UNL d   1       1.348  -0.889   3.540  0.00  0.00     0.077 C 
ATOM      2  C1  UNL d   1       0.397  -0.503   2.447  0.00  0.00    -0.074 A 
ATOM      3  C2  UNL d   1      -0.858   0.038   2.743  0.00  0.00    -0.005 A 
ATOM      4  C3  UNL d   1      -1.728   0.400   1.715  0.00  0.00     0.006 A 
ATOM      5  C4  UNL d   1      -1.353   0.226   0.382  0.00  0.00    -0.005 A 
ATOM      6  C5  UNL d   1      -0.102  -0.313   0.067  0.00  0.00    -0.074 A 
ATOM      7  C6  UNL d   1       0.321  -0.498  -1.360  0.00  0.00     0.077 C 
ATOM      8  C7  UNL d   1       0.770  -0.668   1.105  0.00  0.00    -0.001 A 
ENDROOT
TORSDOF 0
ENDMDL
