MODEL 1
REMARK minimizedAffinity -3.85903573
REMARK minimizedRMSD -1
REMARK  0 active torsions:
REMARK  status: ('A' for Active; 'I' for Inactive)
ROOT
ATOM      1  C   UNL d   1       1.479   3.980   1.326  0.00  0.00     0.077 C 
ATOM      2  C1  UNL d   1       1.403   3.148   0.080  0.00  0.00    -0.074 A 
ATOM      3  C2  UNL d   1       1.511   3.736  -1.184  0.00  0.00    -0.005 A 
ATOM      4  C3  UNL d   1       1.448   2.948  -2.334  0.00  0.00     0.006 A 
ATOM      5  C4  UNL d   1       1.276   1.567  -2.231  0.00  0.00    -0.005 A 
ATOM      6  C5  UNL d   1       1.167   0.962  -0.975  0.00  0.00    -0.074 A 
ATOM      7  C6  UNL d   1       0.992  -0.522  -0.846  0.00  0.00     0.077 C 
ATOM      8  C7  UNL d   1       1.239   1.759   0.175  0.00  0.00    -0.001 A 
ENDROOT
TORSDOF 0
ENDMDL
