MODEL 1
REMARK minimizedAffinity -4.59893513
REMARK minimizedRMSD -1
REMARK  0 active torsions:
REMARK  status: ('A' for Active; 'I' for Inactive)
ROOT
ATOM      1  C   UNL d   1       1.202   0.205  -1.516  0.00  0.00     0.077 C 
ATOM      2  C1  UNL d   1       1.121   1.461  -0.699  0.00  0.00    -0.074 A 
ATOM      3  C2  UNL d   1       0.862   1.410   0.674  0.00  0.00    -0.005 A 
ATOM      4  C3  UNL d   1       0.800   2.585   1.422  0.00  0.00     0.006 A 
ATOM      5  C4  UNL d   1       0.996   3.822   0.806  0.00  0.00    -0.005 A 
ATOM      6  C5  UNL d   1       1.257   3.892  -0.566  0.00  0.00    -0.074 A 
ATOM      7  C6  UNL d   1       1.480   5.212  -1.243  0.00  0.00     0.077 C 
ATOM      8  C7  UNL d   1       1.325   2.706  -1.310  0.00  0.00    -0.001 A 
ENDROOT
TORSDOF 0
ENDMDL
