MODEL 1
REMARK minimizedAffinity -4.7673769
REMARK minimizedRMSD -1
REMARK  0 active torsions:
REMARK  status: ('A' for Active; 'I' for Inactive)
ROOT
ATOM      1  C   UNL d   1       0.685   2.158   0.511  0.00  0.00     0.077 C 
ATOM      2  C1  UNL d   1       0.935   1.118  -0.540  0.00  0.00    -0.074 A 
ATOM      3  C2  UNL d   1       1.079   1.475  -1.885  0.00  0.00    -0.005 A 
ATOM      4  C3  UNL d   1       1.321   0.498  -2.850  0.00  0.00     0.006 A 
ATOM      5  C4  UNL d   1       1.420  -0.844  -2.482  0.00  0.00    -0.005 A 
ATOM      6  C5  UNL d   1       1.279  -1.220  -1.142  0.00  0.00    -0.074 A 
ATOM      7  C6  UNL d   1       1.392  -2.657  -0.728  0.00  0.00     0.077 C 
ATOM      8  C7  UNL d   1       1.043  -0.232  -0.177  0.00  0.00    -0.001 A 
ENDROOT
TORSDOF 0
ENDMDL
