MODEL 1
REMARK minimizedAffinity -4.32795668
REMARK minimizedRMSD -1
REMARK  0 active torsions:
REMARK  status: ('A' for Active; 'I' for Inactive)
ROOT
ATOM      1  C   UNL d   1       0.944   0.012  -1.855  0.00  0.00     0.077 C 
ATOM      2  C1  UNL d   1       1.126   1.149  -0.893  0.00  0.00    -0.074 A 
ATOM      3  C2  UNL d   1       1.163   0.924   0.487  0.00  0.00    -0.005 A 
ATOM      4  C3  UNL d   1       1.343   1.990   1.368  0.00  0.00     0.006 A 
ATOM      5  C4  UNL d   1       1.486   3.289   0.880  0.00  0.00    -0.005 A 
ATOM      6  C5  UNL d   1       1.452   3.533  -0.497  0.00  0.00    -0.074 A 
ATOM      7  C6  UNL d   1       1.614   4.922  -1.039  0.00  0.00     0.077 C 
ATOM      8  C7  UNL d   1       1.278   2.456  -1.377  0.00  0.00    -0.001 A 
ENDROOT
TORSDOF 0
ENDMDL
