MODEL 1
REMARK minimizedAffinity 3.62207747
REMARK minimizedRMSD -1
REMARK  0 active torsions:
REMARK  status: ('A' for Active; 'I' for Inactive)
ROOT
ATOM      1  C   UNL d   1       1.483   3.351  -1.915  0.00  0.00     0.077 C 
ATOM      2  C1  UNL d   1       1.311   2.035  -1.217  0.00  0.00    -0.074 A 
ATOM      3  C2  UNL d   1       0.990   0.878  -1.934  0.00  0.00    -0.005 A 
ATOM      4  C3  UNL d   1       0.842  -0.341  -1.273  0.00  0.00     0.006 A 
ATOM      5  C4  UNL d   1       1.013  -0.415   0.110  0.00  0.00    -0.005 A 
ATOM      6  C5  UNL d   1       1.335   0.731   0.844  0.00  0.00    -0.074 A 
ATOM      7  C6  UNL d   1       1.533   0.666   2.329  0.00  0.00     0.077 C 
ATOM      8  C7  UNL d   1       1.489   1.951   0.171  0.00  0.00    -0.001 A 
ENDROOT
TORSDOF 0
ENDMDL
