MODEL 1
REMARK minimizedAffinity -2.23111939
REMARK minimizedRMSD -1
REMARK  0 active torsions:
REMARK  status: ('A' for Active; 'I' for Inactive)
ROOT
ATOM      1  C   UNL d   1       1.631   5.399  -0.452  0.00  0.00     0.077 C 
ATOM      2  C1  UNL d   1       1.279   3.942  -0.423  0.00  0.00    -0.074 A 
ATOM      3  C2  UNL d   1       0.938   3.308   0.776  0.00  0.00    -0.005 A 
ATOM      4  C3  UNL d   1       0.604   1.954   0.785  0.00  0.00     0.006 A 
ATOM      5  C4  UNL d   1       0.607   1.221  -0.402  0.00  0.00    -0.005 A 
ATOM      6  C5  UNL d   1       0.945   1.838  -1.611  0.00  0.00    -0.074 A 
ATOM      7  C6  UNL d   1       0.944   1.067  -2.898  0.00  0.00     0.077 C 
ATOM      8  C7  UNL d   1       1.273   3.201  -1.613  0.00  0.00    -0.001 A 
ENDROOT
TORSDOF 0
ENDMDL
