MODEL 1
REMARK minimizedAffinity 3.42023134
REMARK minimizedRMSD -1
REMARK  0 active torsions:
REMARK  status: ('A' for Active; 'I' for Inactive)
ROOT
ATOM      1  C   UNL d   1       1.151   3.191   1.651  0.00  0.00     0.077 C 
ATOM      2  C1  UNL d   1       1.059   2.078   0.650  0.00  0.00    -0.074 A 
ATOM      3  C2  UNL d   1       0.778   2.342  -0.694  0.00  0.00    -0.005 A 
ATOM      4  C3  UNL d   1       0.704   1.297  -1.616  0.00  0.00     0.006 A 
ATOM      5  C4  UNL d   1       0.911  -0.019  -1.203  0.00  0.00    -0.005 A 
ATOM      6  C5  UNL d   1       1.194  -0.302   0.137  0.00  0.00    -0.074 A 
ATOM      7  C6  UNL d   1       1.428  -1.711   0.596  0.00  0.00     0.077 C 
ATOM      8  C7  UNL d   1       1.273   0.753   1.055  0.00  0.00    -0.001 A 
ENDROOT
TORSDOF 0
ENDMDL
