MODEL 1
REMARK minimizedAffinity -1.18738949
REMARK minimizedRMSD -1
REMARK  0 active torsions:
REMARK  status: ('A' for Active; 'I' for Inactive)
ROOT
ATOM      1  C   UNL d   1       0.789  -1.937  -1.126  0.00  0.00     0.077 C 
ATOM      2  C1  UNL d   1       1.031  -0.539  -0.639  0.00  0.00    -0.074 A 
ATOM      3  C2  UNL d   1       1.512  -0.301   0.652  0.00  0.00    -0.005 A 
ATOM      4  C3  UNL d   1       1.742   1.004   1.088  0.00  0.00     0.006 A 
ATOM      5  C4  UNL d   1       1.492   2.082   0.239  0.00  0.00    -0.005 A 
ATOM      6  C5  UNL d   1       1.011   1.864  -1.056  0.00  0.00    -0.074 A 
ATOM      7  C6  UNL d   1       0.746   3.011  -1.985  0.00  0.00     0.077 C 
ATOM      8  C7  UNL d   1       0.789   0.549  -1.489  0.00  0.00    -0.001 A 
ENDROOT
TORSDOF 0
ENDMDL
