MODEL 1
REMARK minimizedAffinity -2.14226532
REMARK minimizedRMSD -1
REMARK  0 active torsions:
REMARK  status: ('A' for Active; 'I' for Inactive)
ROOT
ATOM      1  C   UNL d   1       0.744   3.140   1.281  0.00  0.00     0.077 C 
ATOM      2  C1  UNL d   1       1.081   2.173   0.185  0.00  0.00    -0.074 A 
ATOM      3  C2  UNL d   1       1.650   2.615  -1.014  0.00  0.00    -0.005 A 
ATOM      4  C3  UNL d   1       1.966   1.702  -2.021  0.00  0.00     0.006 A 
ATOM      5  C4  UNL d   1       1.718   0.341  -1.839  0.00  0.00    -0.005 A 
ATOM      6  C5  UNL d   1       1.151  -0.119  -0.647  0.00  0.00    -0.074 A 
ATOM      7  C6  UNL d   1       0.886  -1.580  -0.431  0.00  0.00     0.077 C 
ATOM      8  C7  UNL d   1       0.842   0.803   0.363  0.00  0.00    -0.001 A 
ENDROOT
TORSDOF 0
ENDMDL
