MODEL 1
REMARK minimizedAffinity 1.68757629
REMARK minimizedRMSD -1
REMARK  0 active torsions:
REMARK  status: ('A' for Active; 'I' for Inactive)
ROOT
ATOM      1  C   UNL d   1      -0.577  -3.599  -2.126  0.00  0.00     0.077 C 
ATOM      2  C1  UNL d   1       0.379  -2.644  -1.476  0.00  0.00    -0.074 A 
ATOM      3  C2  UNL d   1       1.262  -3.076  -0.481  0.00  0.00    -0.005 A 
ATOM      4  C3  UNL d   1       2.152  -2.177   0.107  0.00  0.00     0.006 A 
ATOM      5  C4  UNL d   1       2.168  -0.841  -0.292  0.00  0.00    -0.005 A 
ATOM      6  C5  UNL d   1       1.294  -0.391  -1.287  0.00  0.00    -0.074 A 
ATOM      7  C6  UNL d   1       1.305   1.040  -1.735  0.00  0.00     0.077 C 
ATOM      8  C7  UNL d   1       0.407  -1.301  -1.878  0.00  0.00    -0.001 A 
ENDROOT
TORSDOF 0
ENDMDL
