MODEL 1
REMARK minimizedAffinity -3.08071256
REMARK minimizedRMSD -1
REMARK  0 active torsions:
REMARK  status: ('A' for Active; 'I' for Inactive)
ROOT
ATOM      1  C   UNL d   1       1.821   4.064  -1.758  0.00  0.00     0.077 C 
ATOM      2  C1  UNL d   1       1.556   2.681  -1.241  0.00  0.00    -0.074 A 
ATOM      3  C2  UNL d   1       1.246   2.464   0.105  0.00  0.00    -0.005 A 
ATOM      4  C3  UNL d   1       0.993   1.173   0.570  0.00  0.00     0.006 A 
ATOM      5  C4  UNL d   1       1.048   0.088  -0.306  0.00  0.00    -0.005 A 
ATOM      6  C5  UNL d   1       1.356   0.286  -1.655  0.00  0.00    -0.074 A 
ATOM      7  C6  UNL d   1       1.409  -0.868  -2.612  0.00  0.00     0.077 C 
ATOM      8  C7  UNL d   1       1.602   1.586  -2.116  0.00  0.00    -0.001 A 
ENDROOT
TORSDOF 0
ENDMDL
