MODEL 1
REMARK minimizedAffinity -1.55725753
REMARK minimizedRMSD -1
REMARK  0 active torsions:
REMARK  status: ('A' for Active; 'I' for Inactive)
ROOT
ATOM      1  C   UNL d   1       1.428   0.549   0.988  0.00  0.00     0.077 C 
ATOM      2  C1  UNL d   1       1.248   1.400  -0.234  0.00  0.00    -0.074 A 
ATOM      3  C2  UNL d   1       0.635   0.889  -1.382  0.00  0.00    -0.005 A 
ATOM      4  C3  UNL d   1       0.466   1.695  -2.508  0.00  0.00     0.006 A 
ATOM      5  C4  UNL d   1       0.908   3.019  -2.496  0.00  0.00    -0.005 A 
ATOM      6  C5  UNL d   1       1.522   3.548  -1.357  0.00  0.00    -0.074 A 
ATOM      7  C6  UNL d   1       1.994   4.971  -1.324  0.00  0.00     0.077 C 
ATOM      8  C7  UNL d   1       1.682   2.733  -0.227  0.00  0.00    -0.001 A 
ENDROOT
TORSDOF 0
ENDMDL
