MODEL 1
REMARK minimizedAffinity -0.885134459
REMARK minimizedRMSD -1
REMARK  0 active torsions:
REMARK  status: ('A' for Active; 'I' for Inactive)
ROOT
ATOM      1  C   UNL d   1       2.227   5.878  -1.362  0.00  0.00     0.077 C 
ATOM      2  C1  UNL d   1       1.895   4.490  -0.899  0.00  0.00    -0.074 A 
ATOM      3  C2  UNL d   1       1.771   4.197   0.463  0.00  0.00    -0.005 A 
ATOM      4  C3  UNL d   1       1.453   2.904   0.878  0.00  0.00     0.006 A 
ATOM      5  C4  UNL d   1       1.255   1.893  -0.063  0.00  0.00    -0.005 A 
ATOM      6  C5  UNL d   1       1.374   2.167  -1.429  0.00  0.00    -0.074 A 
ATOM      7  C6  UNL d   1       1.156   1.094  -2.454  0.00  0.00     0.077 C 
ATOM      8  C7  UNL d   1       1.687   3.471  -1.838  0.00  0.00    -0.001 A 
ENDROOT
TORSDOF 0
ENDMDL
