MODEL 1
REMARK minimizedAffinity -4.99615812
REMARK minimizedRMSD -1
REMARK  0 active torsions:
REMARK  status: ('A' for Active; 'I' for Inactive)
ROOT
ATOM      1  C   UNL d   1       2.115  -1.627  -0.664  0.00  0.00     0.077 C 
ATOM      2  C1  UNL d   1       1.723  -0.182  -0.761  0.00  0.00    -0.074 A 
ATOM      3  C2  UNL d   1       1.772   0.496  -1.983  0.00  0.00    -0.005 A 
ATOM      4  C3  UNL d   1       1.395   1.836  -2.060  0.00  0.00     0.006 A 
ATOM      5  C4  UNL d   1       0.965   2.511  -0.916  0.00  0.00    -0.005 A 
ATOM      6  C5  UNL d   1       0.909   1.850   0.314  0.00  0.00    -0.074 A 
ATOM      7  C6  UNL d   1       0.440   2.558   1.551  0.00  0.00     0.077 C 
ATOM      8  C7  UNL d   1       1.283   0.501   0.381  0.00  0.00    -0.001 A 
ENDROOT
TORSDOF 0
ENDMDL
