MODEL 1
REMARK minimizedAffinity -0.952579558
REMARK minimizedRMSD -1
REMARK  0 active torsions:
REMARK  status: ('A' for Active; 'I' for Inactive)
ROOT
ATOM      1  C   UNL d   1       1.526   0.780   2.214  0.00  0.00     0.077 C 
ATOM      2  C1  UNL d   1       1.514   1.056   0.740  0.00  0.00    -0.074 A 
ATOM      3  C2  UNL d   1       1.011   0.114  -0.163  0.00  0.00    -0.005 A 
ATOM      4  C3  UNL d   1       0.997   0.388  -1.531  0.00  0.00     0.006 A 
ATOM      5  C4  UNL d   1       1.485   1.605  -2.008  0.00  0.00    -0.005 A 
ATOM      6  C5  UNL d   1       1.991   2.560  -1.120  0.00  0.00    -0.074 A 
ATOM      7  C6  UNL d   1       2.511   3.877  -1.616  0.00  0.00     0.077 C 
ATOM      8  C7  UNL d   1       1.995   2.280   0.253  0.00  0.00    -0.001 A 
ENDROOT
TORSDOF 0
ENDMDL
