MODEL 1
REMARK minimizedAffinity -5.77300549
REMARK minimizedRMSD -1
REMARK  0 active torsions:
REMARK  status: ('A' for Active; 'I' for Inactive)
ROOT
ATOM      1  C   UNL d   1       1.291  -0.414  -1.484  0.00  0.00     0.077 C 
ATOM      2  C1  UNL d   1       1.147   0.807  -0.625  0.00  0.00    -0.074 A 
ATOM      3  C2  UNL d   1       0.818   0.698   0.730  0.00  0.00    -0.005 A 
ATOM      4  C3  UNL d   1       0.697   1.842   1.518  0.00  0.00     0.006 A 
ATOM      5  C4  UNL d   1       0.903   3.105   0.961  0.00  0.00    -0.005 A 
ATOM      6  C5  UNL d   1       1.233   3.234  -0.392  0.00  0.00    -0.074 A 
ATOM      7  C6  UNL d   1       1.467   4.583  -1.004  0.00  0.00     0.077 C 
ATOM      8  C7  UNL d   1       1.360   2.079  -1.176  0.00  0.00    -0.001 A 
ENDROOT
TORSDOF 0
ENDMDL
