MODEL 1
REMARK minimizedAffinity -3.1567173
REMARK minimizedRMSD -1
REMARK  1 active torsions:
REMARK  status: ('A' for Active; 'I' for Inactive)
REMARK    1  A    between atoms: C1_2  and  C2_3 
ROOT
ATOM      1  C2  UNL d   1       0.772   0.716   0.588  0.00  0.00    -0.077 A 
ATOM      2  C3  UNL d   1       1.813   0.439  -0.309  0.00  0.00     0.002 A 
ATOM      3  C4  UNL d   1       3.005   1.164  -0.254  0.00  0.00     0.002 A 
ATOM      4  C5  UNL d   1       3.168   2.168   0.698  0.00  0.00    -0.004 A 
ATOM      5  C6  UNL d   1       2.138   2.453   1.593  0.00  0.00     0.002 A 
ATOM      6  C7  UNL d   1       0.946   1.730   1.539  0.00  0.00     0.002 A 
ENDROOT
BRANCH   1   7
ATOM      7  C1  UNL d   1      -0.495  -0.098   0.562  0.00  0.00     0.055 C 
ATOM      8  C   UNL d   1      -0.420  -1.207  -0.477  0.00  0.00     0.019 C 
ENDBRANCH   1   7
TORSDOF 1
ENDMDL
