MODEL 1
REMARK minimizedAffinity -5.87988186
REMARK minimizedRMSD -1
REMARK  1 active torsions:
REMARK  status: ('A' for Active; 'I' for Inactive)
REMARK    1  A    between atoms: C1_2  and  C2_3 
ROOT
ATOM      1  C2  UNL d   1       0.429  -0.329  -0.106  0.00  0.00    -0.077 A 
ATOM      2  C3  UNL d   1       1.751  -0.028  -0.462  0.00  0.00     0.002 A 
ATOM      3  C4  UNL d   1       2.354   1.148  -0.012  0.00  0.00     0.002 A 
ATOM      4  C5  UNL d   1       1.644   2.030   0.800  0.00  0.00    -0.004 A 
ATOM      5  C6  UNL d   1       0.328   1.741   1.158  0.00  0.00     0.002 A 
ATOM      6  C7  UNL d   1      -0.276   0.566   0.708  0.00  0.00     0.002 A 
ENDROOT
BRANCH   1   7
ATOM      7  C1  UNL d   1      -0.206  -1.621  -0.550  0.00  0.00     0.055 C 
ATOM      8  C   UNL d   1      -1.478  -1.367  -1.346  0.00  0.00     0.019 C 
ENDBRANCH   1   7
TORSDOF 1
ENDMDL
