MODEL 1
REMARK minimizedAffinity -5.21869946
REMARK minimizedRMSD -1
REMARK  1 active torsions:
REMARK  status: ('A' for Active; 'I' for Inactive)
REMARK    1  A    between atoms: C1_2  and  C2_3 
ROOT
ATOM      1  C2  UNL d   1       0.779   1.209  -0.138  0.00  0.00    -0.077 A 
ATOM      2  C3  UNL d   1      -0.259   0.321   0.180  0.00  0.00     0.002 A 
ATOM      3  C4  UNL d   1      -0.100  -1.051  -0.020  0.00  0.00     0.002 A 
ATOM      4  C5  UNL d   1       1.096  -1.548  -0.533  0.00  0.00    -0.004 A 
ATOM      5  C6  UNL d   1       2.133  -0.674  -0.854  0.00  0.00     0.002 A 
ATOM      6  C7  UNL d   1       1.976   0.699  -0.656  0.00  0.00     0.002 A 
ENDROOT
BRANCH   1   7
ATOM      7  C1  UNL d   1       0.627   2.685   0.123  0.00  0.00     0.055 C 
ATOM      8  C   UNL d   1       1.340   3.097   1.403  0.00  0.00     0.019 C 
ENDBRANCH   1   7
TORSDOF 1
ENDMDL
