MODEL 1
REMARK minimizedAffinity -4.78666162
REMARK minimizedRMSD -1
REMARK  1 active torsions:
REMARK  status: ('A' for Active; 'I' for Inactive)
REMARK    1  A    between atoms: C1_2  and  C2_3 
ROOT
ATOM      1  C2  UNL d   1       0.361  -0.076  -0.006  0.00  0.00    -0.077 A 
ATOM      2  C3  UNL d   1       1.384   0.691  -0.581  0.00  0.00     0.002 A 
ATOM      3  C4  UNL d   1       1.776   1.897   0.004  0.00  0.00     0.002 A 
ATOM      4  C5  UNL d   1       1.153   2.343   1.168  0.00  0.00    -0.004 A 
ATOM      5  C6  UNL d   1       0.133   1.589   1.745  0.00  0.00     0.002 A 
ATOM      6  C7  UNL d   1      -0.261   0.384   1.162  0.00  0.00     0.002 A 
ENDROOT
BRANCH   1   7
ATOM      7  C1  UNL d   1      -0.030  -1.401  -0.608  0.00  0.00     0.055 C 
ATOM      8  C   UNL d   1      -1.217  -1.253  -1.549  0.00  0.00     0.019 C 
ENDBRANCH   1   7
TORSDOF 1
ENDMDL
