MODEL 1
REMARK minimizedAffinity -5.83485794
REMARK minimizedRMSD -1
REMARK  1 active torsions:
REMARK  status: ('A' for Active; 'I' for Inactive)
REMARK    1  A    between atoms: C1_2  and  C2_3 
ROOT
ATOM      1  C2  UNL d   1      -0.218   0.127   0.216  0.00  0.00    -0.077 A 
ATOM      2  C3  UNL d   1       0.810   0.852  -0.402  0.00  0.00     0.002 A 
ATOM      3  C4  UNL d   1       1.198   2.096   0.101  0.00  0.00     0.002 A 
ATOM      4  C5  UNL d   1       0.566   2.622   1.226  0.00  0.00    -0.004 A 
ATOM      5  C6  UNL d   1      -0.459   1.908   1.846  0.00  0.00     0.002 A 
ATOM      6  C7  UNL d   1      -0.849   0.666   1.344  0.00  0.00     0.002 A 
ENDROOT
BRANCH   1   7
ATOM      7  C1  UNL d   1      -0.604  -1.237  -0.296  0.00  0.00     0.055 C 
ATOM      8  C   UNL d   1      -0.986  -1.187  -1.769  0.00  0.00     0.019 C 
ENDBRANCH   1   7
TORSDOF 1
ENDMDL
