MODEL 1
REMARK minimizedAffinity -5.67859077
REMARK minimizedRMSD -1
REMARK  1 active torsions:
REMARK  status: ('A' for Active; 'I' for Inactive)
REMARK    1  A    between atoms: C1_2  and  C2_3 
ROOT
ATOM      1  C2  UNL d   1      -0.134  -0.082  -0.047  0.00  0.00    -0.077 A 
ATOM      2  C3  UNL d   1      -0.787   0.300   1.133  0.00  0.00     0.002 A 
ATOM      3  C4  UNL d   1      -0.373   1.435   1.833  0.00  0.00     0.002 A 
ATOM      4  C5  UNL d   1       0.691   2.199   1.359  0.00  0.00    -0.004 A 
ATOM      5  C6  UNL d   1       1.348   1.826   0.187  0.00  0.00     0.002 A 
ATOM      6  C7  UNL d   1       0.937   0.691  -0.514  0.00  0.00     0.002 A 
ENDROOT
BRANCH   1   7
ATOM      7  C1  UNL d   1      -0.610  -1.277  -0.830  0.00  0.00     0.055 C 
ATOM      8  C   UNL d   1      -0.767  -0.945  -2.307  0.00  0.00     0.019 C 
ENDBRANCH   1   7
TORSDOF 1
ENDMDL
