MODEL 1
REMARK minimizedAffinity -4.31594133
REMARK minimizedRMSD -1
REMARK  1 active torsions:
REMARK  status: ('A' for Active; 'I' for Inactive)
REMARK    1  A    between atoms: C1_2  and  C2_3 
ROOT
ATOM      1  C2  UNL d   1       0.012   0.142  -0.062  0.00  0.00    -0.077 A 
ATOM      2  C3  UNL d   1       1.161   0.661  -0.675  0.00  0.00     0.002 A 
ATOM      3  C4  UNL d   1       1.879   1.694  -0.069  0.00  0.00     0.002 A 
ATOM      4  C5  UNL d   1       1.459   2.213   1.154  0.00  0.00    -0.004 A 
ATOM      5  C6  UNL d   1       0.317   1.705   1.770  0.00  0.00     0.002 A 
ATOM      6  C7  UNL d   1      -0.403   0.674   1.166  0.00  0.00     0.002 A 
ENDROOT
BRANCH   1   7
ATOM      7  C1  UNL d   1      -0.736  -1.005  -0.690  0.00  0.00     0.055 C 
ATOM      8  C   UNL d   1      -1.279  -0.628  -2.060  0.00  0.00     0.019 C 
ENDBRANCH   1   7
TORSDOF 1
ENDMDL
