MODEL 1
REMARK minimizedAffinity -5.35462141
REMARK minimizedRMSD -1
REMARK  1 active torsions:
REMARK  status: ('A' for Active; 'I' for Inactive)
REMARK    1  A    between atoms: C1_2  and  C2_3 
ROOT
ATOM      1  C2  UNL d   1       0.074   0.501  -0.022  0.00  0.00    -0.077 A 
ATOM      2  C3  UNL d   1      -0.583   1.142   1.038  0.00  0.00     0.002 A 
ATOM      3  C4  UNL d   1       0.083   2.097   1.808  0.00  0.00     0.002 A 
ATOM      4  C5  UNL d   1       1.408   2.422   1.525  0.00  0.00    -0.004 A 
ATOM      5  C6  UNL d   1       2.072   1.788   0.475  0.00  0.00     0.002 A 
ATOM      6  C7  UNL d   1       1.407   0.833  -0.296  0.00  0.00     0.002 A 
ENDROOT
BRANCH   1   7
ATOM      7  C1  UNL d   1      -0.658  -0.493  -0.885  0.00  0.00     0.055 C 
ATOM      8  C   UNL d   1      -0.229  -1.919  -0.572  0.00  0.00     0.019 C 
ENDBRANCH   1   7
TORSDOF 1
ENDMDL
