MODEL 1
REMARK minimizedAffinity -1.82126427
REMARK minimizedRMSD -1
REMARK  1 active torsions:
REMARK  status: ('A' for Active; 'I' for Inactive)
REMARK    1  A    between atoms: C1_2  and  C2_3 
ROOT
ATOM      1  C2  UNL d   1       0.508  -0.006   0.094  0.00  0.00    -0.077 A 
ATOM      2  C3  UNL d   1       1.152   1.112   0.643  0.00  0.00     0.002 A 
ATOM      3  C4  UNL d   1       0.500   1.912   1.583  0.00  0.00     0.002 A 
ATOM      4  C5  UNL d   1      -0.797   1.600   1.986  0.00  0.00    -0.004 A 
ATOM      5  C6  UNL d   1      -1.446   0.491   1.445  0.00  0.00     0.002 A 
ATOM      6  C7  UNL d   1      -0.797  -0.308   0.504  0.00  0.00     0.002 A 
ENDROOT
BRANCH   1   7
ATOM      7  C1  UNL d   1       1.228  -0.898  -0.884  0.00  0.00     0.055 C 
ATOM      8  C   UNL d   1       2.680  -0.476  -1.052  0.00  0.00     0.019 C 
ENDBRANCH   1   7
TORSDOF 1
ENDMDL
