MODEL 1
REMARK minimizedAffinity -5.33203459
REMARK minimizedRMSD -1
REMARK  1 active torsions:
REMARK  status: ('A' for Active; 'I' for Inactive)
REMARK    1  A    between atoms: C1_2  and  C2_3 
ROOT
ATOM      1  C2  UNL d   1      -0.385  -0.322   0.210  0.00  0.00    -0.077 A 
ATOM      2  C3  UNL d   1       0.754   0.380  -0.207  0.00  0.00     0.002 A 
ATOM      3  C4  UNL d   1       1.194   1.499   0.503  0.00  0.00     0.002 A 
ATOM      4  C5  UNL d   1       0.503   1.922   1.637  0.00  0.00    -0.004 A 
ATOM      5  C6  UNL d   1      -0.632   1.231   2.059  0.00  0.00     0.002 A 
ATOM      6  C7  UNL d   1      -1.074   0.114   1.349  0.00  0.00     0.002 A 
ENDROOT
BRANCH   1   7
ATOM      7  C1  UNL d   1      -0.832  -1.558  -0.526  0.00  0.00     0.055 C 
ATOM      8  C   UNL d   1      -1.249  -1.233  -1.952  0.00  0.00     0.019 C 
ENDBRANCH   1   7
TORSDOF 1
ENDMDL
