MODEL 1
REMARK minimizedAffinity 11.5341606
REMARK minimizedRMSD -1
REMARK  0 active torsions:
REMARK  status: ('A' for Active; 'I' for Inactive)
ROOT
ATOM      1  O1  BZF d   1       1.434  -4.691  -1.876  0.00  0.00    -0.204 OA
ATOM      2  C2  BZF d   1       0.624  -4.440  -2.966  0.00  0.00     0.174 A 
ATOM      3  C3  BZF d   1       0.492  -3.113  -3.169  0.00  0.00    -0.012 A 
ATOM      4  C3A BZF d   1       1.343  -2.498  -2.197  0.00  0.00    -0.107 A 
ATOM      5  C4  BZF d   1       1.651  -1.200  -1.907  0.00  0.00     0.055 A 
ATOM      6  C5  BZF d   1       2.461  -0.934  -0.848  0.00  0.00    -0.016 A 
ATOM      7  C6  BZF d   1       2.974  -1.940  -0.056  0.00  0.00     0.022 A 
ATOM      8  C7  BZF d   1       2.700  -3.243  -0.307  0.00  0.00     0.029 A 
ATOM      9  C7A BZF d   1       1.910  -3.517  -1.397  0.00  0.00     0.058 A 
ENDROOT
TORSDOF 0
ENDMDL
