MODEL 1
REMARK minimizedAffinity 9.98592377
REMARK minimizedRMSD -1
REMARK  0 active torsions:
REMARK  status: ('A' for Active; 'I' for Inactive)
ROOT
ATOM      1  O1  BZF d   1       3.444  -2.627   0.407  0.00  0.00    -0.204 OA
ATOM      2  C2  BZF d   1       2.976  -3.862   0.003  0.00  0.00     0.174 A 
ATOM      3  C3  BZF d   1       2.078  -3.731  -0.994  0.00  0.00    -0.012 A 
ATOM      4  C3A BZF d   1       2.047  -2.331  -1.291  0.00  0.00    -0.107 A 
ATOM      5  C4  BZF d   1       1.359  -1.579  -2.200  0.00  0.00     0.055 A 
ATOM      6  C5  BZF d   1       1.502  -0.228  -2.182  0.00  0.00    -0.016 A 
ATOM      7  C6  BZF d   1       2.319   0.404  -1.267  0.00  0.00     0.022 A 
ATOM      8  C7  BZF d   1       3.025  -0.300  -0.349  0.00  0.00     0.029 A 
ATOM      9  C7A BZF d   1       2.908  -1.668  -0.386  0.00  0.00     0.058 A 
ENDROOT
TORSDOF 0
ENDMDL
