MODEL 1
REMARK minimizedAffinity 12.3847551
REMARK minimizedRMSD -1
REMARK  0 active torsions:
REMARK  status: ('A' for Active; 'I' for Inactive)
ROOT
ATOM      1  O1  BZF d   1       4.872   0.782   1.294  0.00  0.00    -0.204 OA
ATOM      2  C2  BZF d   1       4.219   1.961   0.991  0.00  0.00     0.174 A 
ATOM      3  C3  BZF d   1       3.110   1.720   0.262  0.00  0.00    -0.012 A 
ATOM      4  C3A BZF d   1       3.018   0.295   0.178  0.00  0.00    -0.107 A 
ATOM      5  C4  BZF d   1       2.122  -0.555  -0.405  0.00  0.00     0.055 A 
ATOM      6  C5  BZF d   1       2.359  -1.893  -0.368  0.00  0.00    -0.016 A 
ATOM      7  C6  BZF d   1       3.484  -2.414   0.238  0.00  0.00     0.022 A 
ATOM      8  C7  BZF d   1       4.399  -1.611   0.834  0.00  0.00     0.029 A 
ATOM      9  C7A BZF d   1       4.145  -0.261   0.827  0.00  0.00     0.058 A 
ENDROOT
TORSDOF 0
ENDMDL
