MODEL 1
REMARK minimizedAffinity 15.4744778
REMARK minimizedRMSD -1
REMARK  0 active torsions:
REMARK  status: ('A' for Active; 'I' for Inactive)
ROOT
ATOM      1  O1  BZF d   1      -3.070   1.740   2.465  0.00  0.00    -0.204 OA
ATOM      2  C2  BZF d   1      -1.903   1.119   2.868  0.00  0.00     0.174 A 
ATOM      3  C3  BZF d   1      -1.706   1.285   4.192  0.00  0.00    -0.012 A 
ATOM      4  C3A BZF d   1      -2.865   1.979   4.661  0.00  0.00    -0.107 A 
ATOM      5  C4  BZF d   1      -3.263   2.417   5.892  0.00  0.00     0.055 A 
ATOM      6  C5  BZF d   1      -4.418   3.126   5.999  0.00  0.00    -0.016 A 
ATOM      7  C6  BZF d   1      -5.195   3.419   4.898  0.00  0.00     0.022 A 
ATOM      8  C7  BZF d   1      -4.844   3.002   3.657  0.00  0.00     0.029 A 
ATOM      9  C7A BZF d   1      -3.695   2.257   3.550  0.00  0.00     0.058 A 
ENDROOT
TORSDOF 0
ENDMDL
