MODEL 1
REMARK minimizedAffinity 11.9232798
REMARK minimizedRMSD -1
REMARK  0 active torsions:
REMARK  status: ('A' for Active; 'I' for Inactive)
ROOT
ATOM      1  O1  BZF d   1       2.563  -0.755  -0.144  0.00  0.00    -0.204 OA
ATOM      2  C2  BZF d   1       1.904   0.083  -1.023  0.00  0.00     0.174 A 
ATOM      3  C3  BZF d   1       1.391  -0.616  -2.056  0.00  0.00    -0.012 A 
ATOM      4  C3A BZF d   1       1.672  -1.987  -1.760  0.00  0.00    -0.107 A 
ATOM      5  C4  BZF d   1       1.399  -3.161  -2.401  0.00  0.00     0.055 A 
ATOM      6  C5  BZF d   1       1.876  -4.323  -1.883  0.00  0.00    -0.016 A 
ATOM      7  C6  BZF d   1       2.633  -4.347  -0.730  0.00  0.00     0.022 A 
ATOM      8  C7  BZF d   1       2.926  -3.208  -0.056  0.00  0.00     0.029 A 
ATOM      9  C7A BZF d   1       2.417  -2.036  -0.559  0.00  0.00     0.058 A 
ENDROOT
TORSDOF 0
ENDMDL
