MODEL 1
REMARK minimizedAffinity 9.4165554
REMARK minimizedRMSD -1
REMARK  0 active torsions:
REMARK  status: ('A' for Active; 'I' for Inactive)
ROOT
ATOM      1  O1  BZF d   1       0.846   0.737   1.278  0.00  0.00    -0.204 OA
ATOM      2  C2  BZF d   1       0.574   1.184   2.557  0.00  0.00     0.174 A 
ATOM      3  C3  BZF d   1       1.586   1.943   3.024  0.00  0.00    -0.012 A 
ATOM      4  C3A BZF d   1       2.509   2.050   1.937  0.00  0.00    -0.107 A 
ATOM      5  C4  BZF d   1       3.705   2.691   1.780  0.00  0.00     0.055 A 
ATOM      6  C5  BZF d   1       4.390   2.535   0.616  0.00  0.00    -0.016 A 
ATOM      7  C6  BZF d   1       3.912   1.743  -0.407  0.00  0.00     0.022 A 
ATOM      8  C7  BZF d   1       2.729   1.091  -0.300  0.00  0.00     0.029 A 
ATOM      9  C7A BZF d   1       2.018   1.273   0.862  0.00  0.00     0.058 A 
ENDROOT
TORSDOF 0
ENDMDL
