MODEL 1
REMARK minimizedAffinity 8.58743191
REMARK minimizedRMSD -1
REMARK  0 active torsions:
REMARK  status: ('A' for Active; 'I' for Inactive)
ROOT
ATOM      1  O1  BZF d   1       2.118  -5.403  -2.279  0.00  0.00    -0.204 OA
ATOM      2  C2  BZF d   1       1.134  -5.021  -3.171  0.00  0.00     0.174 A 
ATOM      3  C3  BZF d   1       0.773  -3.738  -2.965  0.00  0.00    -0.012 A 
ATOM      4  C3A BZF d   1       1.647  -3.262  -1.937  0.00  0.00    -0.107 A 
ATOM      5  C4  BZF d   1       1.789  -2.058  -1.309  0.00  0.00     0.055 A 
ATOM      6  C5  BZF d   1       2.688  -1.943  -0.297  0.00  0.00    -0.016 A 
ATOM      7  C6  BZF d   1       3.456  -3.011   0.117  0.00  0.00     0.022 A 
ATOM      8  C7  BZF d   1       3.354  -4.225  -0.478  0.00  0.00     0.029 A 
ATOM      9  C7A BZF d   1       2.470  -4.335  -1.523  0.00  0.00     0.058 A 
ENDROOT
TORSDOF 0
ENDMDL
