MODEL 1
REMARK minimizedAffinity 7.55542564
REMARK minimizedRMSD -1
REMARK  0 active torsions:
REMARK  status: ('A' for Active; 'I' for Inactive)
ROOT
ATOM      1  O1  BZF d   1      -3.680  -4.536  -4.551  0.00  0.00    -0.204 OA
ATOM      2  C2  BZF d   1      -3.221  -4.022  -5.748  0.00  0.00     0.174 A 
ATOM      3  C3  BZF d   1      -1.877  -4.107  -5.822  0.00  0.00    -0.012 A 
ATOM      4  C3A BZF d   1      -1.478  -4.797  -4.633  0.00  0.00    -0.107 A 
ATOM      5  C4  BZF d   1      -0.269  -5.197  -4.141  0.00  0.00     0.055 A 
ATOM      6  C5  BZF d   1      -0.215  -5.783  -2.916  0.00  0.00    -0.016 A 
ATOM      7  C6  BZF d   1      -1.349  -5.979  -2.155  0.00  0.00     0.022 A 
ATOM      8  C7  BZF d   1      -2.572  -5.604  -2.604  0.00  0.00     0.029 A 
ATOM      9  C7A BZF d   1      -2.633  -5.041  -3.855  0.00  0.00     0.058 A 
ENDROOT
TORSDOF 0
ENDMDL
