MODEL 1
REMARK minimizedAffinity 22.3946152
REMARK minimizedRMSD -1
REMARK  0 active torsions:
REMARK  status: ('A' for Active; 'I' for Inactive)
ROOT
ATOM      1  O1  BZF d   1      -3.204   1.965   2.670  0.00  0.00    -0.204 OA
ATOM      2  C2  BZF d   1      -3.807   0.758   2.969  0.00  0.00     0.174 A 
ATOM      3  C3  BZF d   1      -2.882  -0.203   3.164  0.00  0.00    -0.012 A 
ATOM      4  C3A BZF d   1      -1.620   0.463   3.066  0.00  0.00    -0.107 A 
ATOM      5  C4  BZF d   1      -0.325   0.045   3.184  0.00  0.00     0.055 A 
ATOM      6  C5  BZF d   1       0.679   0.932   2.959  0.00  0.00    -0.016 A 
ATOM      7  C6  BZF d   1       0.426   2.242   2.610  0.00  0.00     0.022 A 
ATOM      8  C7  BZF d   1      -0.842   2.705   2.486  0.00  0.00     0.029 A 
ATOM      9  C7A BZF d   1      -1.859   1.819   2.745  0.00  0.00     0.058 A 
ENDROOT
TORSDOF 0
ENDMDL
