MODEL 1
REMARK minimizedAffinity 16.3094711
REMARK minimizedRMSD -1
REMARK  0 active torsions:
REMARK  status: ('A' for Active; 'I' for Inactive)
ROOT
ATOM      1  O1  BZF d   1      -3.001   1.204   2.212  0.00  0.00    -0.204 OA
ATOM      2  C2  BZF d   1      -1.712   0.754   2.421  0.00  0.00     0.174 A 
ATOM      3  C3  BZF d   1      -1.387   0.824   3.728  0.00  0.00    -0.012 A 
ATOM      4  C3A BZF d   1      -2.577   1.264   4.389  0.00  0.00    -0.107 A 
ATOM      5  C4  BZF d   1      -2.890   1.508   5.696  0.00  0.00     0.055 A 
ATOM      6  C5  BZF d   1      -4.121   1.998   6.000  0.00  0.00    -0.016 A 
ATOM      7  C6  BZF d   1      -5.060   2.260   5.024  0.00  0.00     0.022 A 
ATOM      8  C7  BZF d   1      -4.797   2.028   3.714  0.00  0.00     0.029 A 
ATOM      9  C7A BZF d   1      -3.566   1.502   3.407  0.00  0.00     0.058 A 
ENDROOT
TORSDOF 0
ENDMDL
