MODEL 1
REMARK minimizedAffinity 20.1770363
REMARK minimizedRMSD -1
REMARK  0 active torsions:
REMARK  status: ('A' for Active; 'I' for Inactive)
ROOT
ATOM      1  O1  BZF d   1       1.537  -2.699   0.233  0.00  0.00    -0.204 OA
ATOM      2  C2  BZF d   1       1.787  -1.379  -0.088  0.00  0.00     0.174 A 
ATOM      3  C3  BZF d   1       3.102  -1.182  -0.315  0.00  0.00    -0.012 A 
ATOM      4  C3A BZF d   1       3.699  -2.479  -0.214  0.00  0.00    -0.107 A 
ATOM      5  C4  BZF d   1       4.978  -2.937  -0.354  0.00  0.00     0.055 A 
ATOM      6  C5  BZF d   1       5.239  -4.249  -0.118  0.00  0.00    -0.016 A 
ATOM      7  C6  BZF d   1       4.247  -5.130   0.263  0.00  0.00     0.022 A 
ATOM      8  C7  BZF d   1       2.963  -4.723   0.410  0.00  0.00     0.029 A 
ATOM      9  C7A BZF d   1       2.690  -3.404   0.141  0.00  0.00     0.058 A 
ENDROOT
TORSDOF 0
ENDMDL
