MODEL 1
REMARK minimizedAffinity 11.4867306
REMARK minimizedRMSD -1
REMARK  0 active torsions:
REMARK  status: ('A' for Active; 'I' for Inactive)
ROOT
ATOM      1  O1  BZF d   1       4.285  -2.811   0.880  0.00  0.00    -0.204 OA
ATOM      2  C2  BZF d   1       3.259  -3.545   0.316  0.00  0.00     0.174 A 
ATOM      3  C3  BZF d   1       2.151  -2.789   0.178  0.00  0.00    -0.012 A 
ATOM      4  C3A BZF d   1       2.535  -1.477   0.602  0.00  0.00    -0.107 A 
ATOM      5  C4  BZF d   1       1.874  -0.285   0.681  0.00  0.00     0.055 A 
ATOM      6  C5  BZF d   1       2.514   0.792   1.208  0.00  0.00    -0.016 A 
ATOM      7  C6  BZF d   1       3.811   0.711   1.669  0.00  0.00     0.022 A 
ATOM      8  C7  BZF d   1       4.510  -0.449   1.607  0.00  0.00     0.029 A 
ATOM      9  C7A BZF d   1       3.877  -1.530   1.045  0.00  0.00     0.058 A 
ENDROOT
TORSDOF 0
ENDMDL
