MODEL 1
REMARK minimizedAffinity 16.2300014
REMARK minimizedRMSD -1
REMARK  0 active torsions:
REMARK  status: ('A' for Active; 'I' for Inactive)
ROOT
ATOM      1  O1  BZF d   1       2.782  -5.636  -1.129  0.00  0.00    -0.204 OA
ATOM      2  C2  BZF d   1       3.379  -4.757  -0.246  0.00  0.00     0.174 A 
ATOM      3  C3  BZF d   1       3.073  -3.481  -0.560  0.00  0.00    -0.012 A 
ATOM      4  C3A BZF d   1       2.156  -3.573  -1.655  0.00  0.00    -0.107 A 
ATOM      5  C4  BZF d   1       1.483  -2.645  -2.397  0.00  0.00     0.055 A 
ATOM      6  C5  BZF d   1       0.723  -3.060  -3.443  0.00  0.00    -0.016 A 
ATOM      7  C6  BZF d   1       0.617  -4.394  -3.780  0.00  0.00     0.022 A 
ATOM      8  C7  BZF d   1       1.262  -5.352  -3.071  0.00  0.00     0.029 A 
ATOM      9  C7A BZF d   1       2.005  -4.938  -1.992  0.00  0.00     0.058 A 
ENDROOT
TORSDOF 0
ENDMDL
