MODEL 1
REMARK minimizedAffinity 13.027915
REMARK minimizedRMSD -1
REMARK  0 active torsions:
REMARK  status: ('A' for Active; 'I' for Inactive)
ROOT
ATOM      1  O1  BZF d   1      -2.989  -0.906   6.000  0.00  0.00    -0.204 OA
ATOM      2  C2  BZF d   1      -3.022  -2.031   5.199  0.00  0.00     0.174 A 
ATOM      3  C3  BZF d   1      -3.509  -1.734   3.977  0.00  0.00    -0.012 A 
ATOM      4  C3A BZF d   1      -3.713  -0.317   3.987  0.00  0.00    -0.107 A 
ATOM      5  C4  BZF d   1      -4.165   0.573   3.055  0.00  0.00     0.055 A 
ATOM      6  C5  BZF d   1      -4.314   1.877   3.406  0.00  0.00    -0.016 A 
ATOM      7  C6  BZF d   1      -4.025   2.325   4.678  0.00  0.00     0.022 A 
ATOM      8  C7  BZF d   1      -3.568   1.480   5.635  0.00  0.00     0.029 A 
ATOM      9  C7A BZF d   1      -3.385   0.167   5.274  0.00  0.00     0.058 A 
ENDROOT
TORSDOF 0
ENDMDL
