MODEL 1
REMARK minimizedAffinity 14.3911867
REMARK minimizedRMSD -1
REMARK  0 active torsions:
REMARK  status: ('A' for Active; 'I' for Inactive)
ROOT
ATOM      1  O1  BZF d   1      -2.455  -3.482  -6.000  0.00  0.00    -0.204 OA
ATOM      2  C2  BZF d   1      -3.792  -3.210  -5.785  0.00  0.00     0.174 A 
ATOM      3  C3  BZF d   1      -4.182  -3.652  -4.572  0.00  0.00    -0.012 A 
ATOM      4  C3A BZF d   1      -2.992  -4.156  -3.955  0.00  0.00    -0.107 A 
ATOM      5  C4  BZF d   1      -2.731  -4.715  -2.737  0.00  0.00     0.055 A 
ATOM      6  C5  BZF d   1      -1.477  -5.168  -2.474  0.00  0.00    -0.016 A 
ATOM      7  C6  BZF d   1      -0.463  -5.082  -3.406  0.00  0.00     0.022 A 
ATOM      8  C7  BZF d   1      -0.673  -4.530  -4.626  0.00  0.00     0.029 A 
ATOM      9  C7A BZF d   1      -1.931  -4.042  -4.883  0.00  0.00     0.058 A 
ENDROOT
TORSDOF 0
ENDMDL
