MODEL 1
REMARK minimizedAffinity 4.29348183
REMARK minimizedRMSD -1
REMARK  0 active torsions:
REMARK  status: ('A' for Active; 'I' for Inactive)
ROOT
ATOM      1  O1  BZF d   1       3.369  -2.448  -0.745  0.00  0.00    -0.204 OA
ATOM      2  C2  BZF d   1       2.623  -1.506  -1.426  0.00  0.00     0.174 A 
ATOM      3  C3  BZF d   1       1.748  -2.101  -2.263  0.00  0.00    -0.012 A 
ATOM      4  C3A BZF d   1       1.897  -3.504  -2.027  0.00  0.00    -0.107 A 
ATOM      5  C4  BZF d   1       1.290  -4.612  -2.543  0.00  0.00     0.055 A 
ATOM      6  C5  BZF d   1       1.717  -5.842  -2.153  0.00  0.00    -0.016 A 
ATOM      7  C6  BZF d   1       2.750  -6.000  -1.253  0.00  0.00     0.022 A 
ATOM      8  C7  BZF d   1       3.380  -4.930  -0.709  0.00  0.00     0.029 A 
ATOM      9  C7A BZF d   1       2.929  -3.686  -1.077  0.00  0.00     0.058 A 
ENDROOT
TORSDOF 0
ENDMDL
