MODEL 1
REMARK minimizedAffinity 19.6998062
REMARK minimizedRMSD -1
REMARK  0 active torsions:
REMARK  status: ('A' for Active; 'I' for Inactive)
ROOT
ATOM      1  O1  BZF d   1       0.811  -4.444  -1.729  0.00  0.00    -0.204 OA
ATOM      2  C2  BZF d   1       0.368  -4.308  -3.031  0.00  0.00     0.174 A 
ATOM      3  C3  BZF d   1       0.540  -3.043  -3.465  0.00  0.00    -0.012 A 
ATOM      4  C3A BZF d   1       1.212  -2.367  -2.398  0.00  0.00    -0.107 A 
ATOM      5  C4  BZF d   1       1.670  -1.091  -2.236  0.00  0.00     0.055 A 
ATOM      6  C5  BZF d   1       2.216  -0.731  -1.045  0.00  0.00    -0.016 A 
ATOM      7  C6  BZF d   1       2.314  -1.618   0.006  0.00  0.00     0.022 A 
ATOM      8  C7  BZF d   1       1.878  -2.897  -0.108  0.00  0.00     0.029 A 
ATOM      9  C7A BZF d   1       1.356  -3.273  -1.322  0.00  0.00     0.058 A 
ENDROOT
TORSDOF 0
ENDMDL
