MODEL 1
REMARK minimizedAffinity 19.5338631
REMARK minimizedRMSD -1
REMARK  0 active torsions:
REMARK  status: ('A' for Active; 'I' for Inactive)
ROOT
ATOM      1  O1  BZF d   1       0.111   0.011   2.447  0.00  0.00    -0.204 OA
ATOM      2  C2  BZF d   1      -1.153   0.376   2.028  0.00  0.00     0.174 A 
ATOM      3  C3  BZF d   1      -1.771   1.123   2.965  0.00  0.00    -0.012 A 
ATOM      4  C3A BZF d   1      -0.799   1.309   3.999  0.00  0.00    -0.107 A 
ATOM      5  C4  BZF d   1      -0.811   1.978   5.189  0.00  0.00     0.055 A 
ATOM      6  C5  BZF d   1       0.277   1.902   6.000  0.00  0.00    -0.016 A 
ATOM      7  C6  BZF d   1       1.390   1.164   5.654  0.00  0.00     0.022 A 
ATOM      8  C7  BZF d   1       1.450   0.488   4.481  0.00  0.00     0.029 A 
ATOM      9  C7A BZF d   1       0.366   0.589   3.645  0.00  0.00     0.058 A 
ENDROOT
TORSDOF 0
ENDMDL
