MODEL 1
REMARK minimizedAffinity 21.7228336
REMARK minimizedRMSD -1
REMARK  0 active torsions:
REMARK  status: ('A' for Active; 'I' for Inactive)
ROOT
ATOM      1  O1  BZF d   1      -2.493  -0.002   1.376  0.00  0.00    -0.204 OA
ATOM      2  C2  BZF d   1      -3.406   0.596   2.222  0.00  0.00     0.174 A 
ATOM      3  C3  BZF d   1      -2.780   1.199   3.254  0.00  0.00    -0.012 A 
ATOM      4  C3A BZF d   1      -1.383   1.042   2.989  0.00  0.00    -0.107 A 
ATOM      5  C4  BZF d   1      -0.253   1.440   3.644  0.00  0.00     0.055 A 
ATOM      6  C5  BZF d   1       0.959   1.062   3.160  0.00  0.00    -0.016 A 
ATOM      7  C6  BZF d   1       1.078   0.283   2.027  0.00  0.00     0.022 A 
ATOM      8  C7  BZF d   1      -0.014  -0.132   1.341  0.00  0.00     0.029 A 
ATOM      9  C7A BZF d   1      -1.239   0.276   1.809  0.00  0.00     0.058 A 
ENDROOT
TORSDOF 0
ENDMDL
