MODEL 1
REMARK minimizedAffinity -2.59038925
REMARK minimizedRMSD -1
REMARK  0 active torsions:
REMARK  status: ('A' for Active; 'I' for Inactive)
ROOT
ATOM      1  C   UNL d   1      -1.073   1.777   2.272  0.00  0.00    -0.002 A 
ATOM      2  C1  UNL d   1      -1.603   2.430   1.168  0.00  0.00     0.010 A 
ATOM      3  C2  UNL d   1      -1.379   1.943  -0.121  0.00  0.00     0.041 A 
ATOM      4  C3  UNL d   1      -0.608   0.775  -0.284  0.00  0.00    -0.075 A 
ATOM      5  S   UNL d   1      -0.204  -0.005  -1.767  0.00  0.00     0.015 SA
ATOM      6  C4  UNL d   1       0.680  -1.225  -0.971  0.00  0.00     0.022 A 
ATOM      7  C5  UNL d   1       0.678  -1.057   0.394  0.00  0.00     0.026 A 
ATOM      8  C6  UNL d   1      -0.065   0.099   0.812  0.00  0.00    -0.082 A 
ATOM      9  C7  UNL d   1      -0.309   0.618   2.106  0.00  0.00     0.045 A 
ENDROOT
TORSDOF 0
ENDMDL
