MODEL 1
REMARK minimizedAffinity 4.48165512
REMARK minimizedRMSD -1
REMARK  0 active torsions:
REMARK  status: ('A' for Active; 'I' for Inactive)
ROOT
ATOM      1  C   UNL d   1       0.118   0.620   3.401  0.00  0.00    -0.002 A 
ATOM      2  C1  UNL d   1      -0.323   1.865   2.975  0.00  0.00     0.010 A 
ATOM      3  C2  UNL d   1      -0.295   2.204   1.621  0.00  0.00     0.041 A 
ATOM      4  C3  UNL d   1       0.187   1.261   0.693  0.00  0.00    -0.075 A 
ATOM      5  S   UNL d   1       0.314   1.455  -1.016  0.00  0.00     0.015 SA
ATOM      6  C4  UNL d   1       0.955  -0.111  -1.221  0.00  0.00     0.022 A 
ATOM      7  C5  UNL d   1       1.077  -0.779  -0.026  0.00  0.00     0.026 A 
ATOM      8  C6  UNL d   1       0.636   0.000   1.097  0.00  0.00    -0.082 A 
ATOM      9  C7  UNL d   1       0.595  -0.313   2.477  0.00  0.00     0.045 A 
ENDROOT
TORSDOF 0
ENDMDL
