MODEL 1
REMARK minimizedAffinity 1.45905876
REMARK minimizedRMSD -1
REMARK  0 active torsions:
REMARK  status: ('A' for Active; 'I' for Inactive)
ROOT
ATOM      1  C   UNL d   1       0.369   0.226   3.693  0.00  0.00    -0.002 A 
ATOM      2  C1  UNL d   1      -0.119   1.455   3.271  0.00  0.00     0.010 A 
ATOM      3  C2  UNL d   1      -0.085   1.805   1.920  0.00  0.00     0.041 A 
ATOM      4  C3  UNL d   1       0.450   0.891   0.991  0.00  0.00    -0.075 A 
ATOM      5  S   UNL d   1       0.593   1.104  -0.714  0.00  0.00     0.015 SA
ATOM      6  C4  UNL d   1       1.303  -0.431  -0.921  0.00  0.00     0.022 A 
ATOM      7  C5  UNL d   1       1.436  -1.103   0.270  0.00  0.00     0.026 A 
ATOM      8  C6  UNL d   1       0.946  -0.353   1.392  0.00  0.00    -0.082 A 
ATOM      9  C7  UNL d   1       0.899  -0.678   2.769  0.00  0.00     0.045 A 
ENDROOT
TORSDOF 0
ENDMDL
