MODEL 1
REMARK minimizedAffinity 0.201288477
REMARK minimizedRMSD -1
REMARK  0 active torsions:
REMARK  status: ('A' for Active; 'I' for Inactive)
ROOT
ATOM      1  C   UNL d   1      -1.478   1.949   1.448  0.00  0.00    -0.002 A 
ATOM      2  C1  UNL d   1      -0.512   1.586   2.376  0.00  0.00     0.010 A 
ATOM      3  C2  UNL d   1       0.404   0.572   2.087  0.00  0.00     0.041 A 
ATOM      4  C3  UNL d   1       0.333  -0.075   0.838  0.00  0.00    -0.075 A 
ATOM      5  S   UNL d   1       1.351  -1.344   0.266  0.00  0.00     0.015 SA
ATOM      6  C4  UNL d   1       0.527  -1.433  -1.224  0.00  0.00     0.022 A 
ATOM      7  C5  UNL d   1      -0.502  -0.525  -1.300  0.00  0.00     0.026 A 
ATOM      8  C6  UNL d   1      -0.630   0.273  -0.113  0.00  0.00    -0.082 A 
ATOM      9  C7  UNL d   1      -1.546   1.304   0.210  0.00  0.00     0.045 A 
ENDROOT
TORSDOF 0
ENDMDL
