MODEL 1
REMARK minimizedAffinity -3.27066851
REMARK minimizedRMSD -1
REMARK  0 active torsions:
REMARK  status: ('A' for Active; 'I' for Inactive)
ROOT
ATOM      1  C   UNL d   1      -0.397   3.409   0.837  0.00  0.00    -0.002 A 
ATOM      2  C1  UNL d   1      -0.379   3.230  -0.539  0.00  0.00     0.010 A 
ATOM      3  C2  UNL d   1      -0.180   1.961  -1.087  0.00  0.00     0.041 A 
ATOM      4  C3  UNL d   1       0.000   0.865  -0.221  0.00  0.00    -0.075 A 
ATOM      5  S   UNL d   1       0.259  -0.780  -0.667  0.00  0.00     0.015 SA
ATOM      6  C4  UNL d   1       0.350  -1.284   0.959  0.00  0.00     0.022 A 
ATOM      7  C5  UNL d   1       0.190  -0.236   1.833  0.00  0.00     0.026 A 
ATOM      8  C6  UNL d   1      -0.015   1.020   1.168  0.00  0.00    -0.082 A 
ATOM      9  C7  UNL d   1      -0.218   2.319   1.693  0.00  0.00     0.045 A 
ENDROOT
TORSDOF 0
ENDMDL
