MODEL 1
REMARK minimizedAffinity -3.06551862
REMARK minimizedRMSD -1
REMARK  0 active torsions:
REMARK  status: ('A' for Active; 'I' for Inactive)
ROOT
ATOM      1  C   UNL d   1      -0.920   3.056   1.410  0.00  0.00    -0.002 A 
ATOM      2  C1  UNL d   1      -1.758   2.784   0.339  0.00  0.00     0.010 A 
ATOM      3  C2  UNL d   1      -1.646   1.583  -0.364  0.00  0.00     0.041 A 
ATOM      4  C3  UNL d   1      -0.669   0.649   0.033  0.00  0.00    -0.075 A 
ATOM      5  S   UNL d   1      -0.350  -0.888  -0.678  0.00  0.00     0.015 SA
ATOM      6  C4  UNL d   1       0.906  -1.221   0.424  0.00  0.00     0.022 A 
ATOM      7  C5  UNL d   1       1.091  -0.195   1.320  0.00  0.00     0.026 A 
ATOM      8  C6  UNL d   1       0.186   0.900   1.110  0.00  0.00    -0.082 A 
ATOM      9  C7  UNL d   1       0.048   2.127   1.802  0.00  0.00     0.045 A 
ENDROOT
TORSDOF 0
ENDMDL
