MODEL 1
REMARK minimizedAffinity -0.604700565
REMARK minimizedRMSD -1
REMARK  0 active torsions:
REMARK  status: ('A' for Active; 'I' for Inactive)
ROOT
ATOM      1  C1  BNZ d   1      -1.109  -5.999  -5.109  0.00  0.00     0.000 A 
ATOM      2  C2  BNZ d   1       0.071  -5.820  -5.781  0.00  0.00     0.000 A 
ATOM      3  C3  BNZ d   1       1.234  -5.585  -5.102  0.00  0.00     0.000 A 
ATOM      4  C4  BNZ d   1       1.209  -5.489  -3.757  0.00  0.00     0.000 A 
ATOM      5  C5  BNZ d   1       0.025  -5.658  -3.066  0.00  0.00     0.000 A 
ATOM      6  C6  BNZ d   1      -1.136  -5.934  -3.750  0.00  0.00     0.000 A 
ENDROOT
TORSDOF 0
ENDMDL
