MODEL 1
REMARK minimizedAffinity -0.324972063
REMARK minimizedRMSD -1
REMARK  0 active torsions:
REMARK  status: ('A' for Active; 'I' for Inactive)
ROOT
ATOM      1  C1  BNZ d   1       0.027  -6.000  -5.603  0.00  0.00     0.000 A 
ATOM      2  C2  BNZ d   1       1.260  -5.994  -5.007  0.00  0.00     0.000 A 
ATOM      3  C3  BNZ d   1       1.379  -5.977  -3.646  0.00  0.00     0.000 A 
ATOM      4  C4  BNZ d   1       0.268  -5.925  -2.883  0.00  0.00     0.000 A 
ATOM      5  C5  BNZ d   1      -0.982  -5.921  -3.469  0.00  0.00     0.000 A 
ATOM      6  C6  BNZ d   1      -1.099  -5.977  -4.839  0.00  0.00     0.000 A 
ENDROOT
TORSDOF 0
ENDMDL
