MODEL 1
REMARK minimizedAffinity -1.11501968
REMARK minimizedRMSD -1
REMARK  0 active torsions:
REMARK  status: ('A' for Active; 'I' for Inactive)
ROOT
ATOM      1  C1  BNZ d   1      -0.578  -5.999  -3.253  0.00  0.00     0.000 A 
ATOM      2  C2  BNZ d   1       0.748  -5.990  -3.594  0.00  0.00     0.000 A 
ATOM      3  C3  BNZ d   1       1.134  -5.960  -4.905  0.00  0.00     0.000 A 
ATOM      4  C4  BNZ d   1       0.195  -5.980  -5.873  0.00  0.00     0.000 A 
ATOM      5  C5  BNZ d   1      -1.146  -5.999  -5.545  0.00  0.00     0.000 A 
ATOM      6  C6  BNZ d   1      -1.531  -5.989  -4.224  0.00  0.00     0.000 A 
ENDROOT
TORSDOF 0
ENDMDL
