MODEL 1
REMARK minimizedAffinity 0.3343952
REMARK minimizedRMSD -1
REMARK  0 active torsions:
REMARK  status: ('A' for Active; 'I' for Inactive)
ROOT
ATOM      1  C1  BNZ d   1      -0.926  -5.654  -2.152  0.00  0.00     0.000 A 
ATOM      2  C2  BNZ d   1       0.141  -5.292  -2.930  0.00  0.00     0.000 A 
ATOM      3  C3  BNZ d   1       0.035  -5.258  -4.292  0.00  0.00     0.000 A 
ATOM      4  C4  BNZ d   1      -1.125  -5.624  -4.875  0.00  0.00     0.000 A 
ATOM      5  C5  BNZ d   1      -2.207  -6.000  -4.105  0.00  0.00     0.000 A 
ATOM      6  C6  BNZ d   1      -2.108  -5.996  -2.732  0.00  0.00     0.000 A 
ENDROOT
TORSDOF 0
ENDMDL
