MODEL 1
REMARK minimizedAffinity 2.17429185
REMARK minimizedRMSD -1
REMARK  0 active torsions:
REMARK  status: ('A' for Active; 'I' for Inactive)
ROOT
ATOM      1  C1  BNZ d   1       1.879  -5.973  -4.910  0.00  0.00     0.000 A 
ATOM      2  C2  BNZ d   1       1.047  -6.000  -5.998  0.00  0.00     0.000 A 
ATOM      3  C3  BNZ d   1      -0.310  -5.992  -5.841  0.00  0.00     0.000 A 
ATOM      4  C4  BNZ d   1      -0.835  -5.999  -4.599  0.00  0.00     0.000 A 
ATOM      5  C5  BNZ d   1      -0.010  -5.982  -3.492  0.00  0.00     0.000 A 
ATOM      6  C6  BNZ d   1       1.356  -5.950  -3.654  0.00  0.00     0.000 A 
ENDROOT
TORSDOF 0
ENDMDL
