MODEL 1
REMARK minimizedAffinity -2.043823
REMARK minimizedRMSD -1
REMARK  0 active torsions:
REMARK  status: ('A' for Active; 'I' for Inactive)
ROOT
ATOM      1  C1  BNZ d   1      -0.024  -5.963  -4.420  0.00  0.00     0.000 A 
ATOM      2  C2  BNZ d   1       0.216  -5.956  -3.072  0.00  0.00     0.000 A 
ATOM      3  C3  BNZ d   1      -0.817  -5.995  -2.177  0.00  0.00     0.000 A 
ATOM      4  C4  BNZ d   1      -2.087  -6.000  -2.631  0.00  0.00     0.000 A 
ATOM      5  C5  BNZ d   1      -2.345  -5.996  -3.987  0.00  0.00     0.000 A 
ATOM      6  C6  BNZ d   1      -1.303  -5.997  -4.885  0.00  0.00     0.000 A 
ENDROOT
TORSDOF 0
ENDMDL
