MODEL 1
REMARK minimizedAffinity -1.23267114
REMARK minimizedRMSD -1
REMARK  0 active torsions:
REMARK  status: ('A' for Active; 'I' for Inactive)
ROOT
ATOM      1  C1  BNZ d   1      -1.952  -5.799  -5.154  0.00  0.00     0.000 A 
ATOM      2  C2  BNZ d   1      -0.754  -5.628  -5.794  0.00  0.00     0.000 A 
ATOM      3  C3  BNZ d   1       0.423  -5.666  -5.099  0.00  0.00     0.000 A 
ATOM      4  C4  BNZ d   1       0.398  -5.834  -3.761  0.00  0.00     0.000 A 
ATOM      5  C5  BNZ d   1      -0.803  -5.998  -3.100  0.00  0.00     0.000 A 
ATOM      6  C6  BNZ d   1      -1.983  -5.999  -3.808  0.00  0.00     0.000 A 
ENDROOT
TORSDOF 0
ENDMDL
