MODEL 1
REMARK minimizedAffinity -2.3875401
REMARK minimizedRMSD -1
REMARK  0 active torsions:
REMARK  status: ('A' for Active; 'I' for Inactive)
ROOT
ATOM      1  C1  BNZ d   1       0.059  -5.998  -3.094  0.00  0.00     0.000 A 
ATOM      2  C2  BNZ d   1      -1.307  -6.000  -3.190  0.00  0.00     0.000 A 
ATOM      3  C3  BNZ d   1      -1.922  -6.000  -4.411  0.00  0.00     0.000 A 
ATOM      4  C4  BNZ d   1      -1.173  -5.957  -5.531  0.00  0.00     0.000 A 
ATOM      5  C5  BNZ d   1       0.206  -5.945  -5.450  0.00  0.00     0.000 A 
ATOM      6  C6  BNZ d   1       0.822  -5.984  -4.220  0.00  0.00     0.000 A 
ENDROOT
TORSDOF 0
ENDMDL
