MODEL 1
REMARK minimizedAffinity -2.76738977
REMARK minimizedRMSD -1
REMARK  0 active torsions:
REMARK  status: ('A' for Active; 'I' for Inactive)
ROOT
ATOM      1  C1  BNZ d   1       0.055  -5.862  -4.449  0.00  0.00     0.000 A 
ATOM      2  C2  BNZ d   1      -1.215  -5.697  -4.936  0.00  0.00     0.000 A 
ATOM      3  C3  BNZ d   1      -2.289  -5.658  -4.092  0.00  0.00     0.000 A 
ATOM      4  C4  BNZ d   1      -2.098  -5.824  -2.768  0.00  0.00     0.000 A 
ATOM      5  C5  BNZ d   1      -0.825  -6.000  -2.262  0.00  0.00     0.000 A 
ATOM      6  C6  BNZ d   1       0.258  -6.000  -3.111  0.00  0.00     0.000 A 
ENDROOT
TORSDOF 0
ENDMDL
