MODEL 1
REMARK minimizedAffinity -3.09858632
REMARK minimizedRMSD -1
REMARK  0 active torsions:
REMARK  status: ('A' for Active; 'I' for Inactive)
ROOT
ATOM      1  C1  BNZ d   1       0.054  -5.962  -4.916  0.00  0.00     0.000 A 
ATOM      2  C2  BNZ d   1       0.600  -5.956  -3.660  0.00  0.00     0.000 A 
ATOM      3  C3  BNZ d   1      -0.197  -5.996  -2.550  0.00  0.00     0.000 A 
ATOM      4  C4  BNZ d   1      -1.538  -6.000  -2.697  0.00  0.00     0.000 A 
ATOM      5  C5  BNZ d   1      -2.103  -5.996  -3.956  0.00  0.00     0.000 A 
ATOM      6  C6  BNZ d   1      -1.297  -5.996  -5.071  0.00  0.00     0.000 A 
ENDROOT
TORSDOF 0
ENDMDL
