MODEL 1
REMARK minimizedAffinity 0.539259255
REMARK minimizedRMSD -1
REMARK  0 active torsions:
REMARK  status: ('A' for Active; 'I' for Inactive)
ROOT
ATOM      1  C1  BNZ d   1      -1.028  -6.000  -2.882  0.00  0.00     0.000 A 
ATOM      2  C2  BNZ d   1      -1.484  -5.999  -4.173  0.00  0.00     0.000 A 
ATOM      3  C3  BNZ d   1      -0.609  -5.999  -5.224  0.00  0.00     0.000 A 
ATOM      4  C4  BNZ d   1       0.717  -5.959  -4.982  0.00  0.00     0.000 A 
ATOM      5  C5  BNZ d   1       1.192  -5.950  -3.686  0.00  0.00     0.000 A 
ATOM      6  C6  BNZ d   1       0.309  -5.989  -2.631  0.00  0.00     0.000 A 
ENDROOT
TORSDOF 0
ENDMDL
