MODEL 1
REMARK minimizedAffinity 1.54138649
REMARK minimizedRMSD -1
REMARK  0 active torsions:
REMARK  status: ('A' for Active; 'I' for Inactive)
ROOT
ATOM      1  C1  BNZ d   1       0.741  -5.941  -3.337  0.00  0.00     0.000 A 
ATOM      2  C2  BNZ d   1       1.132  -5.995  -4.648  0.00  0.00     0.000 A 
ATOM      3  C3  BNZ d   1       0.207  -5.998  -5.654  0.00  0.00     0.000 A 
ATOM      4  C4  BNZ d   1      -1.106  -5.988  -5.348  0.00  0.00     0.000 A 
ATOM      5  C5  BNZ d   1      -1.516  -5.943  -4.030  0.00  0.00     0.000 A 
ATOM      6  C6  BNZ d   1      -0.582  -5.900  -3.021  0.00  0.00     0.000 A 
ENDROOT
TORSDOF 0
ENDMDL
