MODEL 1
REMARK minimizedAffinity 3.45130134
REMARK minimizedRMSD -1
REMARK  0 active torsions:
REMARK  status: ('A' for Active; 'I' for Inactive)
ROOT
ATOM      1  C1  BNZ d   1       2.364   0.524  -0.742  0.00  0.00     0.000 A 
ATOM      2  C2  BNZ d   1       3.717   0.320  -0.690  0.00  0.00     0.000 A 
ATOM      3  C3  BNZ d   1       4.323  -0.054   0.477  0.00  0.00     0.000 A 
ATOM      4  C4  BNZ d   1       3.583  -0.184   1.597  0.00  0.00     0.000 A 
ATOM      5  C5  BNZ d   1       2.220   0.028   1.562  0.00  0.00     0.000 A 
ATOM      6  C6  BNZ d   1       1.607   0.366   0.377  0.00  0.00     0.000 A 
ENDROOT
TORSDOF 0
ENDMDL
