MODEL 1
REMARK minimizedAffinity 2.05746818
REMARK minimizedRMSD -1
REMARK  0 active torsions:
REMARK  status: ('A' for Active; 'I' for Inactive)
ROOT
ATOM      1  C1  BNZ d   1       1.501  -5.982  -2.627  0.00  0.00     0.000 A 
ATOM      2  C2  BNZ d   1       1.758  -5.993  -3.972  0.00  0.00     0.000 A 
ATOM      3  C3  BNZ d   1       0.736  -5.981  -4.879  0.00  0.00     0.000 A 
ATOM      4  C4  BNZ d   1      -0.540  -6.000  -4.442  0.00  0.00     0.000 A 
ATOM      5  C5  BNZ d   1      -0.815  -5.999  -3.089  0.00  0.00     0.000 A 
ATOM      6  C6  BNZ d   1       0.216  -5.971  -2.178  0.00  0.00     0.000 A 
ENDROOT
TORSDOF 0
ENDMDL
