MODEL 1
REMARK minimizedAffinity 1.33524084
REMARK minimizedRMSD -1
REMARK  0 active torsions:
REMARK  status: ('A' for Active; 'I' for Inactive)
ROOT
ATOM      1  C1  BNZ d   1       0.700  -5.979  -5.856  0.00  0.00     0.000 A 
ATOM      2  C2  BNZ d   1      -0.638  -5.988  -5.565  0.00  0.00     0.000 A 
ATOM      3  C3  BNZ d   1      -1.072  -5.978  -4.268  0.00  0.00     0.000 A 
ATOM      4  C4  BNZ d   1      -0.169  -6.000  -3.267  0.00  0.00     0.000 A 
ATOM      5  C5  BNZ d   1       1.183  -6.000  -3.545  0.00  0.00     0.000 A 
ATOM      6  C6  BNZ d   1       1.617  -5.970  -4.850  0.00  0.00     0.000 A 
ENDROOT
TORSDOF 0
ENDMDL
