MODEL 1
REMARK minimizedAffinity -1.41006374
REMARK minimizedRMSD -1
REMARK  0 active torsions:
REMARK  status: ('A' for Active; 'I' for Inactive)
ROOT
ATOM      1  C1  BNZ d   1       1.435  -1.260  -0.691  0.00  0.00     0.000 A 
ATOM      2  C2  BNZ d   1       1.888  -0.186   0.027  0.00  0.00     0.000 A 
ATOM      3  C3  BNZ d   1       1.856  -0.193   1.393  0.00  0.00     0.000 A 
ATOM      4  C4  BNZ d   1       1.335  -1.257   2.038  0.00  0.00     0.000 A 
ATOM      5  C5  BNZ d   1       0.865  -2.344   1.328  0.00  0.00     0.000 A 
ATOM      6  C6  BNZ d   1       0.936  -2.349  -0.046  0.00  0.00     0.000 A 
ENDROOT
TORSDOF 0
ENDMDL
