MODEL 1
REMARK minimizedAffinity 12.8770733
REMARK minimizedRMSD -1
REMARK  0 active torsions:
REMARK  status: ('A' for Active; 'I' for Inactive)
ROOT
ATOM      1  O1  BZF d   1       3.388  -0.012  -1.988  0.00  0.00    -0.204 OA
ATOM      2  C2  BZF d   1       2.806  -0.866  -1.071  0.00  0.00     0.174 A 
ATOM      3  C3  BZF d   1       3.373  -0.721   0.144  0.00  0.00    -0.012 A 
ATOM      4  C3A BZF d   1       4.308   0.351  -0.002  0.00  0.00    -0.107 A 
ATOM      5  C4  BZF d   1       5.167   0.973   0.859  0.00  0.00     0.055 A 
ATOM      6  C5  BZF d   1       5.997   1.937   0.383  0.00  0.00    -0.016 A 
ATOM      7  C6  BZF d   1       6.000   2.301  -0.947  0.00  0.00     0.022 A 
ATOM      8  C7  BZF d   1       5.163   1.717  -1.839  0.00  0.00     0.029 A 
ATOM      9  C7A BZF d   1       4.299   0.765  -1.354  0.00  0.00     0.058 A 
ENDROOT
TORSDOF 0
ENDMDL
