MODEL 1
REMARK minimizedAffinity 3.3302846
REMARK minimizedRMSD -1
REMARK  0 active torsions:
REMARK  status: ('A' for Active; 'I' for Inactive)
ROOT
ATOM      1  O1  BZF d   1      -1.425   0.853  -3.606  0.00  0.00    -0.204 OA
ATOM      2  C2  BZF d   1      -1.476   0.050  -2.483  0.00  0.00     0.174 A 
ATOM      3  C3  BZF d   1      -2.662  -0.588  -2.404  0.00  0.00    -0.012 A 
ATOM      4  C3A BZF d   1      -3.363  -0.227  -3.598  0.00  0.00    -0.107 A 
ATOM      5  C4  BZF d   1      -4.589  -0.555  -4.102  0.00  0.00     0.055 A 
ATOM      6  C5  BZF d   1      -5.005   0.026  -5.258  0.00  0.00    -0.016 A 
ATOM      7  C6  BZF d   1      -4.224   0.942  -5.932  0.00  0.00     0.022 A 
ATOM      8  C7  BZF d   1      -2.999   1.296  -5.473  0.00  0.00     0.029 A 
ATOM      9  C7A BZF d   1      -2.562   0.686  -4.323  0.00  0.00     0.058 A 
ENDROOT
TORSDOF 0
ENDMDL
