MODEL 1
REMARK minimizedAffinity 9.38420296
REMARK minimizedRMSD -1
REMARK  0 active torsions:
REMARK  status: ('A' for Active; 'I' for Inactive)
ROOT
ATOM      1  O1  BZF d   1      -0.377  -3.032  -2.060  0.00  0.00    -0.204 OA
ATOM      2  C2  BZF d   1      -0.863  -4.147  -1.405  0.00  0.00     0.174 A 
ATOM      3  C3  BZF d   1      -0.132  -4.409  -0.302  0.00  0.00    -0.012 A 
ATOM      4  C3A BZF d   1       0.816  -3.341  -0.216  0.00  0.00    -0.107 A 
ATOM      5  C4  BZF d   1       1.806  -3.034   0.673  0.00  0.00     0.055 A 
ATOM      6  C5  BZF d   1       2.601  -1.959   0.431  0.00  0.00    -0.016 A 
ATOM      7  C6  BZF d   1       2.438  -1.173  -0.692  0.00  0.00     0.022 A 
ATOM      8  C7  BZF d   1       1.466  -1.436  -1.599  0.00  0.00     0.029 A 
ATOM      9  C7A BZF d   1       0.640  -2.502  -1.340  0.00  0.00     0.058 A 
ENDROOT
TORSDOF 0
ENDMDL
