MODEL 1
REMARK minimizedAffinity 3.26509309
REMARK minimizedRMSD -1
REMARK  0 active torsions:
REMARK  status: ('A' for Active; 'I' for Inactive)
ROOT
ATOM      1  O1  BZF d   1       2.882  -2.742  -1.477  0.00  0.00    -0.204 OA
ATOM      2  C2  BZF d   1       1.647  -3.076  -0.956  0.00  0.00     0.174 A 
ATOM      3  C3  BZF d   1       1.120  -2.039  -0.274  0.00  0.00    -0.012 A 
ATOM      4  C3A BZF d   1       2.045  -0.961  -0.453  0.00  0.00    -0.107 A 
ATOM      5  C4  BZF d   1       2.068   0.336  -0.028  0.00  0.00     0.055 A 
ATOM      6  C5  BZF d   1       3.151   1.106  -0.314  0.00  0.00    -0.016 A 
ATOM      7  C6  BZF d   1       4.229   0.609  -1.017  0.00  0.00     0.022 A 
ATOM      8  C7  BZF d   1       4.250  -0.671  -1.462  0.00  0.00     0.029 A 
ATOM      9  C7A BZF d   1       3.143  -1.441  -1.204  0.00  0.00     0.058 A 
ENDROOT
TORSDOF 0
ENDMDL
