MODEL 1
REMARK minimizedAffinity 6.14069748
REMARK minimizedRMSD -1
REMARK  0 active torsions:
REMARK  status: ('A' for Active; 'I' for Inactive)
ROOT
ATOM      1  O1  BZF d   1       2.541  -3.031   0.698  0.00  0.00    -0.204 OA
ATOM      2  C2  BZF d   1       3.221  -1.952   0.165  0.00  0.00     0.174 A 
ATOM      3  C3  BZF d   1       2.655  -1.556  -0.993  0.00  0.00    -0.012 A 
ATOM      4  C3A BZF d   1       1.499  -2.383  -1.150  0.00  0.00    -0.107 A 
ATOM      5  C4  BZF d   1       0.519  -2.458  -2.099  0.00  0.00     0.055 A 
ATOM      6  C5  BZF d   1      -0.428  -3.427  -1.995  0.00  0.00    -0.016 A 
ATOM      7  C6  BZF d   1      -0.424  -4.339  -0.960  0.00  0.00     0.022 A 
ATOM      8  C7  BZF d   1       0.524  -4.301   0.007  0.00  0.00     0.029 A 
ATOM      9  C7A BZF d   1       1.464  -3.303  -0.077  0.00  0.00     0.058 A 
ENDROOT
TORSDOF 0
ENDMDL
