MODEL 1
REMARK minimizedAffinity 7.24989939
REMARK minimizedRMSD -1
REMARK  0 active torsions:
REMARK  status: ('A' for Active; 'I' for Inactive)
ROOT
ATOM      1  O1  BZF d   1       2.812  -0.145  -1.450  0.00  0.00    -0.204 OA
ATOM      2  C2  BZF d   1       2.606  -0.990  -0.377  0.00  0.00     0.174 A 
ATOM      3  C3  BZF d   1       3.532  -0.781   0.581  0.00  0.00    -0.012 A 
ATOM      4  C3A BZF d   1       4.312   0.324   0.116  0.00  0.00    -0.107 A 
ATOM      5  C4  BZF d   1       5.372   1.010   0.636  0.00  0.00     0.055 A 
ATOM      6  C5  BZF d   1       5.951   1.992  -0.104  0.00  0.00    -0.016 A 
ATOM      7  C6  BZF d   1       5.499   2.310  -1.368  0.00  0.00     0.022 A 
ATOM      8  C7  BZF d   1       4.447   1.662  -1.924  0.00  0.00     0.029 A 
ATOM      9  C7A BZF d   1       3.839   0.691  -1.165  0.00  0.00     0.058 A 
ENDROOT
TORSDOF 0
ENDMDL
