MODEL 1
REMARK minimizedAffinity 10.483037
REMARK minimizedRMSD -1
REMARK  0 active torsions:
REMARK  status: ('A' for Active; 'I' for Inactive)
ROOT
ATOM      1  O1  BZF d   1      -2.560  -0.357  -2.029  0.00  0.00    -0.204 OA
ATOM      2  C2  BZF d   1      -1.853   0.183  -3.086  0.00  0.00     0.174 A 
ATOM      3  C3  BZF d   1      -2.601   1.088  -3.749  0.00  0.00    -0.012 A 
ATOM      4  C3A BZF d   1      -3.822   1.183  -3.009  0.00  0.00    -0.107 A 
ATOM      5  C4  BZF d   1      -4.957   1.927  -3.160  0.00  0.00     0.055 A 
ATOM      6  C5  BZF d   1      -5.995   1.729  -2.306  0.00  0.00    -0.016 A 
ATOM      7  C6  BZF d   1      -5.935   0.793  -1.295  0.00  0.00     0.022 A 
ATOM      8  C7  BZF d   1      -4.829   0.034  -1.102  0.00  0.00     0.029 A 
ATOM      9  C7A BZF d   1      -3.765   0.255  -1.943  0.00  0.00     0.058 A 
ENDROOT
TORSDOF 0
ENDMDL
