MODEL 1
REMARK minimizedAffinity 10.359107
REMARK minimizedRMSD -1
REMARK  0 active torsions:
REMARK  status: ('A' for Active; 'I' for Inactive)
ROOT
ATOM      1  O1  BZF d   1       0.638   5.314   2.694  0.00  0.00    -0.204 OA
ATOM      2  C2  BZF d   1       1.863   5.189   3.321  0.00  0.00     0.174 A 
ATOM      3  C3  BZF d   1       2.308   3.918   3.254  0.00  0.00    -0.012 A 
ATOM      4  C3A BZF d   1       1.341   3.223   2.460  0.00  0.00    -0.107 A 
ATOM      5  C4  BZF d   1       1.237   1.932   2.025  0.00  0.00     0.055 A 
ATOM      6  C5  BZF d   1       0.132   1.558   1.328  0.00  0.00    -0.016 A 
ATOM      7  C6  BZF d   1      -0.888   2.445   1.053  0.00  0.00     0.022 A 
ATOM      8  C7  BZF d   1      -0.827   3.736   1.458  0.00  0.00     0.029 A 
ATOM      9  C7A BZF d   1       0.304   4.126   2.135  0.00  0.00     0.058 A 
ENDROOT
TORSDOF 0
ENDMDL
