MODEL 1
REMARK minimizedAffinity 14.7865419
REMARK minimizedRMSD -1
REMARK  0 active torsions:
REMARK  status: ('A' for Active; 'I' for Inactive)
ROOT
ATOM      1  O1  BZF d   1       4.195   0.619  -2.564  0.00  0.00    -0.204 OA
ATOM      2  C2  BZF d   1       4.774   1.541  -1.714  0.00  0.00     0.174 A 
ATOM      3  C3  BZF d   1       4.546   1.214  -0.426  0.00  0.00    -0.012 A 
ATOM      4  C3A BZF d   1       3.855  -0.038  -0.473  0.00  0.00    -0.107 A 
ATOM      5  C4  BZF d   1       3.371  -0.880   0.488  0.00  0.00     0.055 A 
ATOM      6  C5  BZF d   1       2.681  -1.988   0.109  0.00  0.00    -0.016 A 
ATOM      7  C6  BZF d   1       2.452  -2.281  -1.220  0.00  0.00     0.022 A 
ATOM      8  C7  BZF d   1       2.917  -1.479  -2.208  0.00  0.00     0.029 A 
ATOM      9  C7A BZF d   1       3.643  -0.376  -1.829  0.00  0.00     0.058 A 
ENDROOT
TORSDOF 0
ENDMDL
