MODEL 1
REMARK minimizedAffinity -3.76108217
REMARK minimizedRMSD -1
REMARK  0 active torsions:
REMARK  status: ('A' for Active; 'I' for Inactive)
ROOT
ATOM      1  O1  BZF d   1       1.687  -1.025   1.762  0.00  0.00    -0.204 OA
ATOM      2  C2  BZF d   1       1.649  -0.762   3.118  0.00  0.00     0.174 A 
ATOM      3  C3  BZF d   1       0.513  -0.115   3.448  0.00  0.00    -0.012 A 
ATOM      4  C3A BZF d   1      -0.246  -0.046   2.237  0.00  0.00    -0.107 A 
ATOM      5  C4  BZF d   1      -1.473   0.467   1.927  0.00  0.00     0.055 A 
ATOM      6  C5  BZF d   1      -1.893   0.438   0.635  0.00  0.00    -0.016 A 
ATOM      7  C6  BZF d   1      -1.111  -0.091  -0.371  0.00  0.00     0.022 A 
ATOM      8  C7  BZF d   1       0.111  -0.615  -0.111  0.00  0.00     0.029 A 
ATOM      9  C7A BZF d   1       0.524  -0.617   1.199  0.00  0.00     0.058 A 
ENDROOT
TORSDOF 0
ENDMDL
