MODEL 1
REMARK minimizedAffinity -2.87052798
REMARK minimizedRMSD -1
REMARK  0 active torsions:
REMARK  status: ('A' for Active; 'I' for Inactive)
ROOT
ATOM      1  O1  BZF d   1       0.147   0.646   2.560  0.00  0.00    -0.204 OA
ATOM      2  C2  BZF d   1      -1.068   0.564   3.212  0.00  0.00     0.174 A 
ATOM      3  C3  BZF d   1      -2.066   0.329   2.336  0.00  0.00    -0.012 A 
ATOM      4  C3A BZF d   1      -1.424   0.168   1.068  0.00  0.00    -0.107 A 
ATOM      5  C4  BZF d   1      -1.883  -0.100  -0.190  0.00  0.00     0.055 A 
ATOM      6  C5  BZF d   1      -1.002  -0.119  -1.225  0.00  0.00    -0.016 A 
ATOM      7  C6  BZF d   1       0.342   0.131  -1.039  0.00  0.00     0.022 A 
ATOM      8  C7  BZF d   1       0.845   0.397   0.191  0.00  0.00     0.029 A 
ATOM      9  C7A BZF d   1      -0.037   0.384   1.244  0.00  0.00     0.058 A 
ENDROOT
TORSDOF 0
ENDMDL
