MODEL 1
REMARK minimizedAffinity -1.23038244
REMARK minimizedRMSD -1
REMARK  0 active torsions:
REMARK  status: ('A' for Active; 'I' for Inactive)
ROOT
ATOM      1  O1  BZF d   1       1.732  -0.611   2.246  0.00  0.00    -0.204 OA
ATOM      2  C2  BZF d   1       1.491  -0.603   3.607  0.00  0.00     0.174 A 
ATOM      3  C3  BZF d   1       0.261  -0.119   3.872  0.00  0.00    -0.012 A 
ATOM      4  C3A BZF d   1      -0.338   0.109   2.592  0.00  0.00    -0.107 A 
ATOM      5  C4  BZF d   1      -1.561   0.570   2.197  0.00  0.00     0.055 A 
ATOM      6  C5  BZF d   1      -1.804   0.744   0.871  0.00  0.00    -0.016 A 
ATOM      7  C6  BZF d   1      -0.847   0.472  -0.084  0.00  0.00     0.022 A 
ATOM      8  C7  BZF d   1       0.379   0.007   0.259  0.00  0.00     0.029 A 
ATOM      9  C7A BZF d   1       0.616  -0.201   1.596  0.00  0.00     0.058 A 
ENDROOT
TORSDOF 0
ENDMDL
