MODEL 1
REMARK minimizedAffinity -3.50157022
REMARK minimizedRMSD -1
REMARK  0 active torsions:
REMARK  status: ('A' for Active; 'I' for Inactive)
ROOT
ATOM      1  O1  BZF d   1       1.598  -0.342  -0.428  0.00  0.00    -0.204 OA
ATOM      2  C2  BZF d   1       1.187  -0.175  -1.736  0.00  0.00     0.174 A 
ATOM      3  C3  BZF d   1      -0.144   0.037  -1.796  0.00  0.00    -0.012 A 
ATOM      4  C3A BZF d   1      -0.578   0.093  -0.434  0.00  0.00    -0.107 A 
ATOM      5  C4  BZF d   1      -1.792   0.296   0.157  0.00  0.00     0.055 A 
ATOM      6  C5  BZF d   1      -1.889   0.217   1.510  0.00  0.00    -0.016 A 
ATOM      7  C6  BZF d   1      -0.796  -0.067   2.302  0.00  0.00     0.022 A 
ATOM      8  C7  BZF d   1       0.430  -0.271   1.762  0.00  0.00     0.029 A 
ATOM      9  C7A BZF d   1       0.539  -0.159   0.397  0.00  0.00     0.058 A 
ENDROOT
TORSDOF 0
ENDMDL
