MODEL 1
REMARK minimizedAffinity -2.7113955
REMARK minimizedRMSD -1
REMARK  0 active torsions:
REMARK  status: ('A' for Active; 'I' for Inactive)
ROOT
ATOM      1  O1  BZF d   1       1.709  -0.637   1.737  0.00  0.00    -0.204 OA
ATOM      2  C2  BZF d   1       1.737  -0.646   3.118  0.00  0.00     0.174 A 
ATOM      3  C3  BZF d   1       0.571  -0.193   3.623  0.00  0.00    -0.012 A 
ATOM      4  C3A BZF d   1      -0.269   0.033   2.486  0.00  0.00    -0.107 A 
ATOM      5  C4  BZF d   1      -1.554   0.470   2.341  0.00  0.00     0.055 A 
ATOM      6  C5  BZF d   1      -2.053   0.649   1.090  0.00  0.00    -0.016 A 
ATOM      7  C6  BZF d   1      -1.294   0.407  -0.036  0.00  0.00     0.022 A 
ATOM      8  C7  BZF d   1      -0.016  -0.033   0.058  0.00  0.00     0.029 A 
ATOM      9  C7A BZF d   1       0.481  -0.247   1.320  0.00  0.00     0.058 A 
ENDROOT
TORSDOF 0
ENDMDL
