MODEL 1
REMARK minimizedAffinity -0.731199443
REMARK minimizedRMSD -1
REMARK  0 active torsions:
REMARK  status: ('A' for Active; 'I' for Inactive)
ROOT
ATOM      1  O1  BZF d   1       0.731  -1.112  -0.411  0.00  0.00    -0.204 OA
ATOM      2  C2  BZF d   1       0.589  -0.680  -1.715  0.00  0.00     0.174 A 
ATOM      3  C3  BZF d   1      -0.425   0.204  -1.818  0.00  0.00    -0.012 A 
ATOM      4  C3A BZF d   1      -0.889   0.402  -0.479  0.00  0.00    -0.107 A 
ATOM      5  C4  BZF d   1      -1.869   1.179   0.069  0.00  0.00     0.055 A 
ATOM      6  C5  BZF d   1      -2.117   1.086   1.402  0.00  0.00    -0.016 A 
ATOM      7  C6  BZF d   1      -1.408   0.225   2.214  0.00  0.00     0.022 A 
ATOM      8  C7  BZF d   1      -0.423  -0.562   1.717  0.00  0.00     0.029 A 
ATOM      9  C7A BZF d   1      -0.149  -0.447   0.376  0.00  0.00     0.058 A 
ENDROOT
TORSDOF 0
ENDMDL
