MODEL 1
REMARK minimizedAffinity -3.39932585
REMARK minimizedRMSD -1
REMARK  0 active torsions:
REMARK  status: ('A' for Active; 'I' for Inactive)
ROOT
ATOM      1  O1  BZF d   1      -0.550  -0.320   0.587  0.00  0.00    -0.204 OA
ATOM      2  C2  BZF d   1      -1.393   0.768   0.706  0.00  0.00     0.174 A 
ATOM      3  C3  BZF d   1      -1.351   1.530  -0.407  0.00  0.00    -0.012 A 
ATOM      4  C3A BZF d   1      -0.494   0.827  -1.312  0.00  0.00    -0.107 A 
ATOM      5  C4  BZF d   1      -0.074   1.072  -2.588  0.00  0.00     0.055 A 
ATOM      6  C5  BZF d   1       0.821   0.225  -3.162  0.00  0.00    -0.016 A 
ATOM      7  C6  BZF d   1       1.318  -0.871  -2.489  0.00  0.00     0.022 A 
ATOM      8  C7  BZF d   1       0.927  -1.158  -1.224  0.00  0.00     0.029 A 
ATOM      9  C7A BZF d   1      -0.002  -0.323  -0.652  0.00  0.00     0.058 A 
ENDROOT
TORSDOF 0
ENDMDL
