MODEL 1
REMARK minimizedAffinity -4.88541174
REMARK minimizedRMSD -1
REMARK  0 active torsions:
REMARK  status: ('A' for Active; 'I' for Inactive)
ROOT
ATOM      1  O1  BZF d   1       1.542  -0.877   1.881  0.00  0.00    -0.204 OA
ATOM      2  C2  BZF d   1       1.215  -0.780   3.220  0.00  0.00     0.174 A 
ATOM      3  C3  BZF d   1       0.010  -0.194   3.377  0.00  0.00    -0.012 A 
ATOM      4  C3A BZF d   1      -0.485   0.009   2.050  0.00  0.00    -0.107 A 
ATOM      5  C4  BZF d   1      -1.641   0.536   1.550  0.00  0.00     0.055 A 
ATOM      6  C5  BZF d   1      -1.784   0.657   0.204  0.00  0.00    -0.016 A 
ATOM      7  C6  BZF d   1      -0.790   0.265  -0.670  0.00  0.00     0.022 A 
ATOM      8  C7  BZF d   1       0.372  -0.268  -0.221  0.00  0.00     0.029 A 
ATOM      9  C7A BZF d   1       0.506  -0.422   1.137  0.00  0.00     0.058 A 
ENDROOT
TORSDOF 0
ENDMDL
