MODEL 1
REMARK minimizedAffinity -4.98246098
REMARK minimizedRMSD -1
REMARK  0 active torsions:
REMARK  status: ('A' for Active; 'I' for Inactive)
ROOT
ATOM      1  O1  BZF d   1       1.726  -0.747   2.018  0.00  0.00    -0.204 OA
ATOM      2  C2  BZF d   1       1.836  -0.622   3.389  0.00  0.00     0.174 A 
ATOM      3  C3  BZF d   1       0.754  -0.001   3.901  0.00  0.00    -0.012 A 
ATOM      4  C3A BZF d   1      -0.127   0.197   2.791  0.00  0.00    -0.107 A 
ATOM      5  C4  BZF d   1      -1.369   0.750   2.664  0.00  0.00     0.055 A 
ATOM      6  C5  BZF d   1      -1.922   0.856   1.428  0.00  0.00    -0.016 A 
ATOM      7  C6  BZF d   1      -1.261   0.425   0.297  0.00  0.00     0.022 A 
ATOM      8  C7  BZF d   1      -0.029  -0.135   0.372  0.00  0.00     0.029 A 
ATOM      9  C7A BZF d   1       0.519  -0.274   1.624  0.00  0.00     0.058 A 
ENDROOT
TORSDOF 0
ENDMDL
