MODEL 1
REMARK minimizedAffinity -3.80429697
REMARK minimizedRMSD -1
REMARK  0 active torsions:
REMARK  status: ('A' for Active; 'I' for Inactive)
ROOT
ATOM      1  O1  BZF d   1      -1.888   0.322   0.625  0.00  0.00    -0.204 OA
ATOM      2  C2  BZF d   1      -2.044   0.847   1.893  0.00  0.00     0.174 A 
ATOM      3  C3  BZF d   1      -0.993   0.528   2.675  0.00  0.00    -0.012 A 
ATOM      4  C3A BZF d   1      -0.082  -0.165   1.817  0.00  0.00    -0.107 A 
ATOM      5  C4  BZF d   1       1.152  -0.719   2.009  0.00  0.00     0.055 A 
ATOM      6  C5  BZF d   1       1.742  -1.387   0.983  0.00  0.00    -0.016 A 
ATOM      7  C6  BZF d   1       1.126  -1.526  -0.243  0.00  0.00     0.022 A 
ATOM      8  C7  BZF d   1      -0.095  -0.989  -0.482  0.00  0.00     0.029 A 
ATOM      9  C7A BZF d   1      -0.680  -0.285   0.541  0.00  0.00     0.058 A 
ENDROOT
TORSDOF 0
ENDMDL
