MODEL 1
REMARK minimizedAffinity -5.16573858
REMARK minimizedRMSD -1
REMARK  2 active torsions:
REMARK  status: ('A' for Active; 'I' for Inactive)
REMARK    1  A    between atoms: C2'_3  and  C1'_4 
REMARK    2  A    between atoms: C1'_4  and  C1_5 
ROOT
ATOM      1  C1  I4B d   1      -0.808  -0.125  -0.543  0.00  0.00    -0.075 A 
ATOM      2  C2  I4B d   1      -1.531   0.174   0.585  0.00  0.00     0.003 A 
ATOM      3  C3  I4B d   1      -2.861  -0.291   0.723  0.00  0.00     0.002 A 
ATOM      4  C4  I4B d   1      -3.442  -1.004  -0.306  0.00  0.00    -0.004 A 
ATOM      5  C5  I4B d   1      -2.700  -1.325  -1.439  0.00  0.00     0.002 A 
ATOM      6  C6  I4B d   1      -1.370  -0.894  -1.553  0.00  0.00     0.003 A 
ENDROOT
BRANCH   1   7
ATOM      7  C1' I4B d   1       0.583   0.411  -0.670  0.00  0.00     0.060 C 
BRANCH   7   8
ATOM      8  C2' I4B d   1       1.200   0.442   0.713  0.00  0.00    -0.013 C 
ATOM      9  C4' I4B d   1       1.863  -0.869   1.044  0.00  0.00     0.013 C 
ATOM     10  C3' I4B d   1       2.184   1.572   0.756  0.00  0.00     0.013 C 
ENDBRANCH   7   8
ENDBRANCH   1   7
TORSDOF 2
ENDMDL
