MODEL 1
REMARK minimizedAffinity -7.03206968
REMARK minimizedRMSD -1
REMARK  2 active torsions:
REMARK  status: ('A' for Active; 'I' for Inactive)
REMARK    1  A    between atoms: C2'_3  and  C1'_4 
REMARK    2  A    between atoms: C1'_4  and  C1_5 
ROOT
ATOM      1  C1  I4B d   1       0.297  -0.102   0.131  0.00  0.00    -0.075 A 
ATOM      2  C2  I4B d   1      -0.608  -0.523   1.073  0.00  0.00     0.003 A 
ATOM      3  C3  I4B d   1      -1.958  -0.751   0.713  0.00  0.00     0.002 A 
ATOM      4  C4  I4B d   1      -2.369  -0.500  -0.580  0.00  0.00    -0.004 A 
ATOM      5  C5  I4B d   1      -1.445  -0.095  -1.539  0.00  0.00     0.002 A 
ATOM      6  C6  I4B d   1      -0.101   0.093  -1.185  0.00  0.00     0.003 A 
ENDROOT
BRANCH   1   7
ATOM      7  C1' I4B d   1       1.708   0.161   0.553  0.00  0.00     0.060 C 
BRANCH   7   8
ATOM      8  C2' I4B d   1       1.916   1.661   0.575  0.00  0.00    -0.013 C 
ATOM      9  C4' I4B d   1       2.013   2.177   1.987  0.00  0.00     0.013 C 
ATOM     10  C3' I4B d   1       3.163   1.967  -0.200  0.00  0.00     0.013 C 
ENDBRANCH   7   8
ENDBRANCH   1   7
TORSDOF 2
ENDMDL
