MODEL 1
REMARK minimizedAffinity -6.42102957
REMARK minimizedRMSD -1
REMARK  2 active torsions:
REMARK  status: ('A' for Active; 'I' for Inactive)
REMARK    1  A    between atoms: C2'_3  and  C1'_4 
REMARK    2  A    between atoms: C1'_4  and  C1_5 
ROOT
ATOM      1  C1  I4B d   1       0.107   0.071   0.048  0.00  0.00    -0.075 A 
ATOM      2  C2  I4B d   1      -0.148   0.358  -1.270  0.00  0.00     0.003 A 
ATOM      3  C3  I4B d   1      -1.464   0.249  -1.782  0.00  0.00     0.002 A 
ATOM      4  C4  I4B d   1      -2.478  -0.195  -0.958  0.00  0.00    -0.004 A 
ATOM      5  C5  I4B d   1      -2.222  -0.464   0.383  0.00  0.00     0.002 A 
ATOM      6  C6  I4B d   1      -0.924  -0.318   0.893  0.00  0.00     0.003 A 
ENDROOT
BRANCH   1   7
ATOM      7  C1' I4B d   1       1.515   0.164   0.546  0.00  0.00     0.060 C 
BRANCH   7   8
ATOM      8  C2' I4B d   1       1.851   1.631   0.723  0.00  0.00    -0.013 C 
ATOM      9  C4' I4B d   1       1.997   1.985   2.180  0.00  0.00     0.013 C 
ATOM     10  C3' I4B d   1       3.116   1.910  -0.032  0.00  0.00     0.013 C 
ENDBRANCH   7   8
ENDBRANCH   1   7
TORSDOF 2
ENDMDL
