MODEL 1
REMARK minimizedAffinity -4.57589102
REMARK minimizedRMSD -1
REMARK  2 active torsions:
REMARK  status: ('A' for Active; 'I' for Inactive)
REMARK    1  A    between atoms: C2'_3  and  C1'_4 
REMARK    2  A    between atoms: C1'_4  and  C1_5 
ROOT
ATOM      1  C1  I4B d   1       0.118   0.356   0.327  0.00  0.00    -0.075 A 
ATOM      2  C2  I4B d   1      -0.733  -0.272   1.202  0.00  0.00     0.003 A 
ATOM      3  C3  I4B d   1      -2.021  -0.678   0.776  0.00  0.00     0.002 A 
ATOM      4  C4  I4B d   1      -2.432  -0.394  -0.511  0.00  0.00    -0.004 A 
ATOM      5  C5  I4B d   1      -1.559   0.222  -1.403  0.00  0.00     0.002 A 
ATOM      6  C6  I4B d   1      -0.271   0.588  -0.985  0.00  0.00     0.003 A 
ENDROOT
BRANCH   1   7
ATOM      7  C1' I4B d   1       1.459   0.801   0.820  0.00  0.00     0.060 C 
BRANCH   7   8
ATOM      8  C2' I4B d   1       1.515   2.312   0.721  0.00  0.00    -0.013 C 
ATOM      9  C4' I4B d   1       1.642   2.943   2.082  0.00  0.00     0.013 C 
ATOM     10  C3' I4B d   1       2.676   2.675  -0.155  0.00  0.00     0.013 C 
ENDBRANCH   7   8
ENDBRANCH   1   7
TORSDOF 2
ENDMDL
