MODEL 1
REMARK minimizedAffinity -2.64873719
REMARK minimizedRMSD -1
REMARK  2 active torsions:
REMARK  status: ('A' for Active; 'I' for Inactive)
REMARK    1  A    between atoms: C2'_3  and  C1'_4 
REMARK    2  A    between atoms: C1'_4  and  C1_5 
ROOT
ATOM      1  C1  I4B d   1       0.181  -0.016  -0.080  0.00  0.00    -0.075 A 
ATOM      2  C2  I4B d   1      -0.661  -0.588   0.841  0.00  0.00     0.003 A 
ATOM      3  C3  I4B d   1      -2.039  -0.738   0.550  0.00  0.00     0.002 A 
ATOM      4  C4  I4B d   1      -2.537  -0.260  -0.645  0.00  0.00    -0.004 A 
ATOM      5  C5  I4B d   1      -1.678   0.298  -1.587  0.00  0.00     0.002 A 
ATOM      6  C6  I4B d   1      -0.308   0.409  -1.308  0.00  0.00     0.003 A 
ENDROOT
BRANCH   1   7
ATOM      7  C1' I4B d   1       1.624   0.156   0.274  0.00  0.00     0.060 C 
BRANCH   7   8
ATOM      8  C2' I4B d   1       1.900   1.641   0.398  0.00  0.00    -0.013 C 
ATOM      9  C4' I4B d   1       2.303   2.005   1.803  0.00  0.00     0.013 C 
ATOM     10  C3' I4B d   1       2.976   1.996  -0.583  0.00  0.00     0.013 C 
ENDBRANCH   7   8
ENDBRANCH   1   7
TORSDOF 2
ENDMDL
