MODEL 1
REMARK minimizedAffinity -3.26700139
REMARK minimizedRMSD -1
REMARK  2 active torsions:
REMARK  status: ('A' for Active; 'I' for Inactive)
REMARK    1  A    between atoms: C2'_3  and  C1'_4 
REMARK    2  A    between atoms: C1'_4  and  C1_5 
ROOT
ATOM      1  C1  I4B d   1       0.483   0.358   0.214  0.00  0.00    -0.075 A 
ATOM      2  C2  I4B d   1      -0.141  -0.293   1.249  0.00  0.00     0.003 A 
ATOM      3  C3  I4B d   1      -1.407  -0.896   1.052  0.00  0.00     0.002 A 
ATOM      4  C4  I4B d   1      -2.031  -0.782  -0.174  0.00  0.00    -0.004 A 
ATOM      5  C5  I4B d   1      -1.386  -0.142  -1.229  0.00  0.00     0.002 A 
ATOM      6  C6  I4B d   1      -0.116   0.421  -1.038  0.00  0.00     0.003 A 
ENDROOT
BRANCH   1   7
ATOM      7  C1' I4B d   1       1.804   1.012   0.466  0.00  0.00     0.060 C 
BRANCH   7   8
ATOM      8  C2' I4B d   1       1.543   2.440   0.900  0.00  0.00    -0.013 C 
ATOM      9  C4' I4B d   1       1.983   2.667   2.322  0.00  0.00     0.013 C 
ATOM     10  C3' I4B d   1       2.269   3.351  -0.044  0.00  0.00     0.013 C 
ENDBRANCH   7   8
ENDBRANCH   1   7
TORSDOF 2
ENDMDL
