MODEL 1
REMARK minimizedAffinity -3.98777652
REMARK minimizedRMSD -1
REMARK  2 active torsions:
REMARK  status: ('A' for Active; 'I' for Inactive)
REMARK    1  A    between atoms: C2'_3  and  C1'_4 
REMARK    2  A    between atoms: C1'_4  and  C1_5 
ROOT
ATOM      1  C1  I4B d   1      -1.195  -0.909  -0.868  0.00  0.00    -0.075 A 
ATOM      2  C2  I4B d   1      -0.900   0.015  -1.839  0.00  0.00     0.003 A 
ATOM      3  C3  I4B d   1       0.261   0.819  -1.728  0.00  0.00     0.002 A 
ATOM      4  C4  I4B d   1       1.064   0.703  -0.612  0.00  0.00    -0.004 A 
ATOM      5  C5  I4B d   1       0.775  -0.250   0.360  0.00  0.00     0.002 A 
ATOM      6  C6  I4B d   1      -0.355  -1.070   0.226  0.00  0.00     0.003 A 
ENDROOT
BRANCH   1   7
ATOM      7  C1' I4B d   1      -2.446  -1.718  -1.000  0.00  0.00     0.060 C 
BRANCH   7   8
ATOM      8  C2' I4B d   1      -3.556  -0.985  -0.274  0.00  0.00    -0.013 C 
ATOM      9  C4' I4B d   1      -4.550  -1.950   0.318  0.00  0.00     0.013 C 
ATOM     10  C3' I4B d   1      -2.930  -0.133   0.789  0.00  0.00     0.013 C 
ENDBRANCH   7   8
ENDBRANCH   1   7
TORSDOF 2
ENDMDL
