MODEL 1
REMARK minimizedAffinity -4.22299385
REMARK minimizedRMSD -1
REMARK  2 active torsions:
REMARK  status: ('A' for Active; 'I' for Inactive)
REMARK    1  A    between atoms: C2'_3  and  C1'_4 
REMARK    2  A    between atoms: C1'_4  and  C1_5 
ROOT
ATOM      1  C1  I4B d   1      -1.247  -1.021   0.453  0.00  0.00    -0.075 A 
ATOM      2  C2  I4B d   1      -2.239  -0.549  -0.369  0.00  0.00     0.003 A 
ATOM      3  C3  I4B d   1      -3.191  -1.439  -0.922  0.00  0.00     0.002 A 
ATOM      4  C4  I4B d   1      -3.082  -2.792  -0.670  0.00  0.00    -0.004 A 
ATOM      5  C5  I4B d   1      -2.089  -3.266   0.181  0.00  0.00     0.002 A 
ATOM      6  C6  I4B d   1      -1.173  -2.374   0.757  0.00  0.00     0.003 A 
ENDROOT
BRANCH   1   7
ATOM      7  C1' I4B d   1      -0.239  -0.057   0.995  0.00  0.00     0.060 C 
BRANCH   7   8
ATOM      8  C2' I4B d   1       0.866   0.088  -0.032  0.00  0.00    -0.013 C 
ATOM      9  C4' I4B d   1       0.334   0.626  -1.334  0.00  0.00     0.013 C 
ATOM     10  C3' I4B d   1       1.913   0.996   0.541  0.00  0.00     0.013 C 
ENDBRANCH   7   8
ENDBRANCH   1   7
TORSDOF 2
ENDMDL
