MODEL 1
REMARK minimizedAffinity -2.5441947
REMARK minimizedRMSD -1
REMARK  2 active torsions:
REMARK  status: ('A' for Active; 'I' for Inactive)
REMARK    1  A    between atoms: C2'_3  and  C1'_4 
REMARK    2  A    between atoms: C1'_4  and  C1_5 
ROOT
ATOM      1  C1  I4B d   1       0.481   0.321  -0.243  0.00  0.00    -0.075 A 
ATOM      2  C2  I4B d   1      -0.312  -0.545   0.468  0.00  0.00     0.003 A 
ATOM      3  C3  I4B d   1      -1.673  -0.717   0.117  0.00  0.00     0.002 A 
ATOM      4  C4  I4B d   1      -2.209   0.030  -0.912  0.00  0.00    -0.004 A 
ATOM      5  C5  I4B d   1      -1.398   0.891  -1.646  0.00  0.00     0.002 A 
ATOM      6  C6  I4B d   1      -0.042   1.029  -1.318  0.00  0.00     0.003 A 
ENDROOT
BRANCH   1   7
ATOM      7  C1' I4B d   1       1.905   0.503   0.176  0.00  0.00     0.060 C 
BRANCH   7   8
ATOM      8  C2' I4B d   1       2.110   1.966   0.513  0.00  0.00    -0.013 C 
ATOM      9  C4' I4B d   1       2.241   2.169   1.999  0.00  0.00     0.013 C 
ATOM     10  C3' I4B d   1       3.336   2.440  -0.209  0.00  0.00     0.013 C 
ENDBRANCH   7   8
ENDBRANCH   1   7
TORSDOF 2
ENDMDL
