MODEL 1
REMARK minimizedAffinity -5.87469387
REMARK minimizedRMSD -1
REMARK  2 active torsions:
REMARK  status: ('A' for Active; 'I' for Inactive)
REMARK    1  A    between atoms: C2'_3  and  C1'_4 
REMARK    2  A    between atoms: C1'_4  and  C1_5 
ROOT
ATOM      1  C1  I4B d   1       0.200  -0.336   0.059  0.00  0.00    -0.075 A 
ATOM      2  C2  I4B d   1      -1.167  -0.393  -0.052  0.00  0.00     0.003 A 
ATOM      3  C3  I4B d   1      -1.988   0.160   0.960  0.00  0.00     0.002 A 
ATOM      4  C4  I4B d   1      -1.405   0.712   2.082  0.00  0.00    -0.004 A 
ATOM      5  C5  I4B d   1      -0.019   0.790   2.182  0.00  0.00     0.002 A 
ATOM      6  C6  I4B d   1       0.789   0.274   1.159  0.00  0.00     0.003 A 
ENDROOT
BRANCH   1   7
ATOM      7  C1' I4B d   1       1.037  -0.960  -1.013  0.00  0.00     0.060 C 
BRANCH   7   8
ATOM      8  C2' I4B d   1       0.849  -0.153  -2.281  0.00  0.00    -0.013 C 
ATOM      9  C4' I4B d   1       2.127   0.532  -2.687  0.00  0.00     0.013 C 
ATOM     10  C3' I4B d   1       0.369  -1.083  -3.355  0.00  0.00     0.013 C 
ENDBRANCH   7   8
ENDBRANCH   1   7
TORSDOF 2
ENDMDL
