MODEL 1
REMARK minimizedAffinity -5.49409628
REMARK minimizedRMSD -1
REMARK  2 active torsions:
REMARK  status: ('A' for Active; 'I' for Inactive)
REMARK    1  A    between atoms: C2'_3  and  C1'_4 
REMARK    2  A    between atoms: C1'_4  and  C1_5 
ROOT
ATOM      1  C1  I4B d   1       0.340   0.830   1.003  0.00  0.00    -0.075 A 
ATOM      2  C2  I4B d   1      -0.561   1.630   1.662  0.00  0.00     0.003 A 
ATOM      3  C3  I4B d   1      -0.696   1.542   3.068  0.00  0.00     0.002 A 
ATOM      4  C4  I4B d   1       0.047   0.613   3.766  0.00  0.00    -0.004 A 
ATOM      5  C5  I4B d   1       0.976  -0.181   3.100  0.00  0.00     0.002 A 
ATOM      6  C6  I4B d   1       1.133  -0.064   1.711  0.00  0.00     0.003 A 
ENDROOT
BRANCH   1   7
ATOM      7  C1' I4B d   1       0.433   0.925  -0.487  0.00  0.00     0.060 C 
BRANCH   7   8
ATOM      8  C2' I4B d   1       0.082  -0.431  -1.064  0.00  0.00    -0.013 C 
ATOM      9  C4' I4B d   1      -1.401  -0.683  -1.002  0.00  0.00     0.013 C 
ATOM     10  C3' I4B d   1       0.581  -0.476  -2.478  0.00  0.00     0.013 C 
ENDBRANCH   7   8
ENDBRANCH   1   7
TORSDOF 2
ENDMDL
