MODEL 1
REMARK minimizedAffinity -5.2807622
REMARK minimizedRMSD -1
REMARK  2 active torsions:
REMARK  status: ('A' for Active; 'I' for Inactive)
REMARK    1  A    between atoms: C2'_3  and  C1'_4 
REMARK    2  A    between atoms: C1'_4  and  C1_5 
ROOT
ATOM      1  C1  I4B d   1       0.399   0.622   1.177  0.00  0.00    -0.075 A 
ATOM      2  C2  I4B d   1       1.557   0.219   1.793  0.00  0.00     0.003 A 
ATOM      3  C3  I4B d   1       1.677   0.291   3.203  0.00  0.00     0.002 A 
ATOM      4  C4  I4B d   1       0.640   0.816   3.946  0.00  0.00    -0.004 A 
ATOM      5  C5  I4B d   1      -0.542   1.203   3.321  0.00  0.00     0.002 A 
ATOM      6  C6  I4B d   1      -0.669   1.094   1.929  0.00  0.00     0.003 A 
ENDROOT
BRANCH   1   7
ATOM      7  C1' I4B d   1       0.320   0.564  -0.316  0.00  0.00     0.060 C 
BRANCH   7   8
ATOM      8  C2' I4B d   1       0.349  -0.894  -0.728  0.00  0.00    -0.013 C 
ATOM      9  C4' I4B d   1      -1.001  -1.537  -0.553  0.00  0.00     0.013 C 
ATOM     10  C3' I4B d   1       0.801  -0.962  -2.157  0.00  0.00     0.013 C 
ENDBRANCH   7   8
ENDBRANCH   1   7
TORSDOF 2
ENDMDL
