MODEL 1
REMARK minimizedAffinity -4.9572711
REMARK minimizedRMSD -1
REMARK  2 active torsions:
REMARK  status: ('A' for Active; 'I' for Inactive)
REMARK    1  A    between atoms: C2'_3  and  C1'_4 
REMARK    2  A    between atoms: C1'_4  and  C1_5 
ROOT
ATOM      1  C1  I4B d   1      -0.112  -0.190  -0.278  0.00  0.00    -0.075 A 
ATOM      2  C2  I4B d   1       0.581   0.000   0.891  0.00  0.00     0.003 A 
ATOM      3  C3  I4B d   1      -0.097   0.427   2.059  0.00  0.00     0.002 A 
ATOM      4  C4  I4B d   1      -1.448   0.697   2.001  0.00  0.00    -0.004 A 
ATOM      5  C5  I4B d   1      -2.153   0.481   0.820  0.00  0.00     0.002 A 
ATOM      6  C6  I4B d   1      -1.484   0.023  -0.324  0.00  0.00     0.003 A 
ENDROOT
BRANCH   1   7
ATOM      7  C1' I4B d   1       0.640  -0.609  -1.502  0.00  0.00     0.060 C 
BRANCH   7   8
ATOM      8  C2' I4B d   1       0.210   0.288  -2.644  0.00  0.00    -0.013 C 
ATOM      9  C4' I4B d   1       1.346   1.161  -3.109  0.00  0.00     0.013 C 
ATOM     10  C3' I4B d   1      -0.291  -0.585  -3.756  0.00  0.00     0.013 C 
ENDBRANCH   7   8
ENDBRANCH   1   7
TORSDOF 2
ENDMDL
