MODEL 1
REMARK minimizedAffinity -6.15284348
REMARK minimizedRMSD -1
REMARK  0 active torsions:
REMARK  status: ('A' for Active; 'I' for Inactive)
ROOT
ATOM      1  N1  IND d   1       0.011   0.790  -0.297  0.00  0.00    -0.196 N 
ATOM      2  C2  IND d   1      -0.726  -0.341  -0.513  0.00  0.00     0.054 A 
ATOM      3  C3  IND d   1       0.016  -1.442  -0.257  0.00  0.00    -0.031 A 
ATOM      4  C4  IND d   1       2.428  -1.620   0.625  0.00  0.00     0.051 A 
ATOM      5  C5  IND d   1       3.519  -0.859   0.938  0.00  0.00    -0.031 A 
ATOM      6  C6  IND d   1       3.496   0.518   0.857  0.00  0.00     0.015 A 
ATOM      7  C7  IND d   1       2.371   1.190   0.468  0.00  0.00    -0.016 A 
ATOM      8  C8  IND d   1       1.263   0.420   0.143  0.00  0.00    -0.047 A 
ATOM      9  C9  IND d   1       1.294  -0.980   0.183  0.00  0.00    -0.096 A 
ATOM     10  HN1 IND d   1      -0.262   1.597  -0.415  0.00  0.00     0.298 HD
ENDROOT
TORSDOF 0
ENDMDL
