MODEL 1
REMARK minimizedAffinity -3.60824323
REMARK minimizedRMSD -1
REMARK  0 active torsions:
REMARK  status: ('A' for Active; 'I' for Inactive)
ROOT
ATOM      1  N1  IND d   1      -0.030  -1.036  -1.108  0.00  0.00    -0.196 N 
ATOM      2  C2  IND d   1      -0.860  -0.026  -0.707  0.00  0.00     0.054 A 
ATOM      3  C3  IND d   1      -0.425   0.505   0.458  0.00  0.00    -0.031 A 
ATOM      4  C4  IND d   1       1.679  -0.061   1.830  0.00  0.00     0.051 A 
ATOM      5  C5  IND d   1       2.726  -0.937   1.884  0.00  0.00    -0.031 A 
ATOM      6  C6  IND d   1       2.913  -1.910   0.923  0.00  0.00     0.015 A 
ATOM      7  C7  IND d   1       2.063  -2.035  -0.139  0.00  0.00    -0.016 A 
ATOM      8  C8  IND d   1       0.994  -1.151  -0.194  0.00  0.00    -0.047 A 
ATOM      9  C9  IND d   1       0.775  -0.190   0.801  0.00  0.00    -0.096 A 
ATOM     10  HN1 IND d   1      -0.131  -1.519  -1.812  0.00  0.00     0.298 HD
ENDROOT
TORSDOF 0
ENDMDL
