MODEL 1
REMARK minimizedAffinity -6.12136364
REMARK minimizedRMSD -1
REMARK  0 active torsions:
REMARK  status: ('A' for Active; 'I' for Inactive)
ROOT
ATOM      1  N1  IND d   1       0.007   1.274  -0.076  0.00  0.00    -0.196 N 
ATOM      2  C2  IND d   1      -0.900   0.323  -0.453  0.00  0.00     0.054 A 
ATOM      3  C3  IND d   1      -0.325  -0.900  -0.461  0.00  0.00    -0.031 A 
ATOM      4  C4  IND d   1       2.064  -1.588   0.209  0.00  0.00     0.051 A 
ATOM      5  C5  IND d   1       3.269  -1.066   0.587  0.00  0.00    -0.031 A 
ATOM      6  C6  IND d   1       3.452   0.290   0.770  0.00  0.00     0.015 A 
ATOM      7  C7  IND d   1       2.428   1.177   0.592  0.00  0.00    -0.016 A 
ATOM      8  C8  IND d   1       1.204   0.651   0.201  0.00  0.00    -0.047 A 
ATOM      9  C9  IND d   1       1.025  -0.719  -0.028  0.00  0.00    -0.096 A 
ATOM     10  HN1 IND d   1      -0.145   2.118  -0.020  0.00  0.00     0.298 HD
ENDROOT
TORSDOF 0
ENDMDL
