MODEL 1
REMARK minimizedAffinity -3.27901936
REMARK minimizedRMSD -1
REMARK  0 active torsions:
REMARK  status: ('A' for Active; 'I' for Inactive)
ROOT
ATOM      1  N1  IND d   1       0.877   1.019   0.356  0.00  0.00    -0.196 N 
ATOM      2  C2  IND d   1      -0.426   1.329   0.083  0.00  0.00     0.054 A 
ATOM      3  C3  IND d   1      -1.053   0.272  -0.481  0.00  0.00    -0.031 A 
ATOM      4  C4  IND d   1      -0.162  -2.096  -0.953  0.00  0.00     0.051 A 
ATOM      5  C5  IND d   1       0.979  -2.847  -0.909  0.00  0.00    -0.031 A 
ATOM      6  C6  IND d   1       2.168  -2.338  -0.428  0.00  0.00     0.015 A 
ATOM      7  C7  IND d   1       2.258  -1.057   0.038  0.00  0.00    -0.016 A 
ATOM      8  C8  IND d   1       1.102  -0.290  -0.011  0.00  0.00    -0.047 A 
ATOM      9  C9  IND d   1      -0.097  -0.787  -0.537  0.00  0.00    -0.096 A 
ATOM     10  HN1 IND d   1       1.458   1.551   0.700  0.00  0.00     0.298 HD
ENDROOT
TORSDOF 0
ENDMDL
