MODEL 1
REMARK minimizedAffinity -1.22838104
REMARK minimizedRMSD -1
REMARK  0 active torsions:
REMARK  status: ('A' for Active; 'I' for Inactive)
ROOT
ATOM      1  N1  IND d   1      -0.823   0.137   1.672  0.00  0.00    -0.196 N 
ATOM      2  C2  IND d   1      -1.478   0.412   0.504  0.00  0.00     0.054 A 
ATOM      3  C3  IND d   1      -0.706   0.085  -0.556  0.00  0.00    -0.031 A 
ATOM      4  C4  IND d   1       1.624  -1.010  -0.608  0.00  0.00     0.051 A 
ATOM      5  C5  IND d   1       2.642  -1.415   0.209  0.00  0.00    -0.031 A 
ATOM      6  C6  IND d   1       2.554  -1.324   1.583  0.00  0.00     0.015 A 
ATOM      7  C7  IND d   1       1.436  -0.833   2.195  0.00  0.00    -0.016 A 
ATOM      8  C8  IND d   1       0.402  -0.414   1.368  0.00  0.00    -0.047 A 
ATOM      9  C9  IND d   1       0.502  -0.465  -0.028  0.00  0.00    -0.096 A 
ATOM     10  HN1 IND d   1      -1.126   0.283   2.464  0.00  0.00     0.298 HD
ENDROOT
TORSDOF 0
ENDMDL
