MODEL 1
REMARK minimizedAffinity -3.32678866
REMARK minimizedRMSD -1
REMARK  0 active torsions:
REMARK  status: ('A' for Active; 'I' for Inactive)
ROOT
ATOM      1  N1  IND d   1      -0.226   1.363  -0.041  0.00  0.00    -0.196 N 
ATOM      2  C2  IND d   1      -1.027   0.324  -0.425  0.00  0.00     0.054 A 
ATOM      3  C3  IND d   1      -0.333  -0.836  -0.407  0.00  0.00    -0.031 A 
ATOM      4  C4  IND d   1       2.098  -1.277   0.316  0.00  0.00     0.051 A 
ATOM      5  C5  IND d   1       3.237  -0.635   0.712  0.00  0.00    -0.031 A 
ATOM      6  C6  IND d   1       3.281   0.734   0.883  0.00  0.00     0.015 A 
ATOM      7  C7  IND d   1       2.178   1.513   0.675  0.00  0.00    -0.016 A 
ATOM      8  C8  IND d   1       1.021   0.865   0.266  0.00  0.00    -0.047 A 
ATOM      9  C9  IND d   1       0.982  -0.519   0.050  0.00  0.00    -0.096 A 
ATOM     10  HN1 IND d   1      -0.462   2.189   0.002  0.00  0.00     0.298 HD
ENDROOT
TORSDOF 0
ENDMDL
