MODEL 1
REMARK minimizedAffinity -5.47711992
REMARK minimizedRMSD -1
REMARK  0 active torsions:
REMARK  status: ('A' for Active; 'I' for Inactive)
ROOT
ATOM      1  N1  IND d   1       0.166   2.033  -0.022  0.00  0.00    -0.196 N 
ATOM      2  C2  IND d   1      -1.014   1.376  -0.233  0.00  0.00     0.054 A 
ATOM      3  C3  IND d   1      -0.848   0.045  -0.063  0.00  0.00    -0.031 A 
ATOM      4  C4  IND d   1       1.249  -1.262   0.662  0.00  0.00     0.051 A 
ATOM      5  C5  IND d   1       2.578  -1.101   0.934  0.00  0.00    -0.031 A 
ATOM      6  C6  IND d   1       3.183   0.139   0.903  0.00  0.00     0.015 A 
ATOM      7  C7  IND d   1       2.476   1.270   0.609  0.00  0.00    -0.016 A 
ATOM      8  C8  IND d   1       1.127   1.109   0.325  0.00  0.00    -0.047 A 
ATOM      9  C9  IND d   1       0.516  -0.152   0.313  0.00  0.00    -0.096 A 
ATOM     10  HN1 IND d   1       0.288   2.881  -0.095  0.00  0.00     0.298 HD
ENDROOT
TORSDOF 0
ENDMDL
