MODEL 1
REMARK minimizedAffinity -1.44561398
REMARK minimizedRMSD -1
REMARK  0 active torsions:
REMARK  status: ('A' for Active; 'I' for Inactive)
ROOT
ATOM      1  N1  IND d   1       0.199  -1.534   0.169  0.00  0.00    -0.196 N 
ATOM      2  C2  IND d   1       1.429  -1.875   0.658  0.00  0.00     0.054 A 
ATOM      3  C3  IND d   1       2.212  -0.779   0.769  0.00  0.00    -0.031 A 
ATOM      4  C4  IND d   1       1.647   1.689   0.302  0.00  0.00     0.051 A 
ATOM      5  C5  IND d   1       0.659   2.492  -0.195  0.00  0.00    -0.031 A 
ATOM      6  C6  IND d   1      -0.558   1.985  -0.602  0.00  0.00     0.015 A 
ATOM      7  C7  IND d   1      -0.838   0.650  -0.516  0.00  0.00    -0.016 A 
ATOM      8  C8  IND d   1       0.165  -0.169  -0.018  0.00  0.00    -0.047 A 
ATOM      9  C9  IND d   1       1.418   0.334   0.357  0.00  0.00    -0.096 A 
ATOM     10  HN1 IND d   1      -0.445  -2.079   0.005  0.00  0.00     0.298 HD
ENDROOT
TORSDOF 0
ENDMDL
