MODEL 1
REMARK minimizedAffinity -3.00397086
REMARK minimizedRMSD -1
REMARK  0 active torsions:
REMARK  status: ('A' for Active; 'I' for Inactive)
ROOT
ATOM      1  N1  IND d   1      -0.765  -0.553  -0.785  0.00  0.00    -0.196 N 
ATOM      2  C2  IND d   1      -1.183   0.708  -0.460  0.00  0.00     0.054 A 
ATOM      3  C3  IND d   1      -0.313   1.284   0.399  0.00  0.00    -0.031 A 
ATOM      4  C4  IND d   1       1.913   0.382   1.325  0.00  0.00     0.051 A 
ATOM      5  C5  IND d   1       2.698  -0.737   1.342  0.00  0.00    -0.031 A 
ATOM      6  C6  IND d   1       2.363  -1.873   0.635  0.00  0.00     0.015 A 
ATOM      7  C7  IND d   1       1.231  -1.930  -0.129  0.00  0.00    -0.016 A 
ATOM      8  C8  IND d   1       0.429  -0.798  -0.143  0.00  0.00    -0.047 A 
ATOM      9  C9  IND d   1       0.741   0.343   0.607  0.00  0.00    -0.096 A 
ATOM     10  HN1 IND d   1      -1.179  -1.100  -1.303  0.00  0.00     0.298 HD
ENDROOT
TORSDOF 0
ENDMDL
