MODEL 1
REMARK minimizedAffinity -5.50527191
REMARK minimizedRMSD -1
REMARK  1 active torsions:
REMARK  status: ('A' for Active; 'I' for Inactive)
REMARK    1  A    between atoms: C1_2  and  C2_3 
ROOT
ATOM      1  C2  UNL d   1       0.168  -0.249  -0.431  0.00  0.00    -0.081 A 
ATOM      2  C3  UNL d   1       1.240  -0.021   0.440  0.00  0.00     0.006 A 
ATOM      3  C4  UNL d   1       1.024   0.558   1.693  0.00  0.00     0.002 A 
ATOM      4  C5  UNL d   1      -0.268   0.910   2.098  0.00  0.00    -0.080 A 
ATOM      5  C6  UNL d   1      -0.518   1.504   3.453  0.00  0.00     0.076 C 
ATOM      6  C7  UNL d   1      -1.337   0.698   1.221  0.00  0.00     0.002 A 
ATOM      7  C8  UNL d   1      -1.121   0.121  -0.032  0.00  0.00     0.006 A 
ENDROOT
BRANCH   1   8
ATOM      8  C1  UNL d   1       0.389  -0.931  -1.757  0.00  0.00     0.054 C 
ATOM      9  C   UNL d   1       1.127  -0.024  -2.731  0.00  0.00     0.018 C 
ENDBRANCH   1   8
TORSDOF 1
ENDMDL
