MODEL 1
REMARK minimizedAffinity -5.96994734
REMARK minimizedRMSD -1
REMARK  1 active torsions:
REMARK  status: ('A' for Active; 'I' for Inactive)
REMARK    1  A    between atoms: C1_2  and  C2_3 
ROOT
ATOM      1  C2  UNL d   1       0.461  -0.156  -0.382  0.00  0.00    -0.081 A 
ATOM      2  C3  UNL d   1      -0.865   0.226  -0.147  0.00  0.00     0.006 A 
ATOM      3  C4  UNL d   1      -1.227   0.823   1.062  0.00  0.00     0.002 A 
ATOM      4  C5  UNL d   1      -0.267   1.057   2.053  0.00  0.00    -0.080 A 
ATOM      5  C6  UNL d   1      -0.636   1.725   3.345  0.00  0.00     0.076 C 
ATOM      6  C7  UNL d   1       1.055   0.660   1.826  0.00  0.00     0.002 A 
ATOM      7  C8  UNL d   1       1.417   0.062   0.617  0.00  0.00     0.006 A 
ENDROOT
BRANCH   1   8
ATOM      8  C1  UNL d   1       0.867  -0.741  -1.711  0.00  0.00     0.054 C 
ATOM      9  C   UNL d   1       1.436   0.326  -2.635  0.00  0.00     0.018 C 
ENDBRANCH   1   8
TORSDOF 1
ENDMDL
