MODEL 1
REMARK minimizedAffinity -4.88407469
REMARK minimizedRMSD -1
REMARK  1 active torsions:
REMARK  status: ('A' for Active; 'I' for Inactive)
REMARK    1  A    between atoms: C1_2  and  C2_3 
ROOT
ATOM      1  C2  UNL d   1       0.135  -0.229   0.030  0.00  0.00    -0.081 A 
ATOM      2  C3  UNL d   1       1.181   0.134   0.887  0.00  0.00     0.006 A 
ATOM      3  C4  UNL d   1       0.913   0.770   2.101  0.00  0.00     0.002 A 
ATOM      4  C5  UNL d   1      -0.405   1.047   2.482  0.00  0.00    -0.080 A 
ATOM      5  C6  UNL d   1      -0.708   1.702   3.797  0.00  0.00     0.076 C 
ATOM      6  C7  UNL d   1      -1.449   0.700   1.618  0.00  0.00     0.002 A 
ATOM      7  C8  UNL d   1      -1.181   0.064   0.404  0.00  0.00     0.006 A 
ENDROOT
BRANCH   1   8
ATOM      8  C1  UNL d   1       0.416  -0.974  -1.250  0.00  0.00     0.054 C 
ATOM      9  C   UNL d   1       0.751  -0.016  -2.385  0.00  0.00     0.018 C 
ENDBRANCH   1   8
TORSDOF 1
ENDMDL
