MODEL 1
REMARK minimizedAffinity -4.43928385
REMARK minimizedRMSD -1
REMARK  1 active torsions:
REMARK  status: ('A' for Active; 'I' for Inactive)
REMARK    1  A    between atoms: C1_2  and  C2_3 
ROOT
ATOM      1  C2  UNL d   1       0.512  -0.626  -0.434  0.00  0.00    -0.081 A 
ATOM      2  C3  UNL d   1      -0.869  -0.400  -0.482  0.00  0.00     0.006 A 
ATOM      3  C4  UNL d   1      -1.529   0.190   0.599  0.00  0.00     0.002 A 
ATOM      4  C5  UNL d   1      -0.817   0.570   1.742  0.00  0.00    -0.080 A 
ATOM      5  C6  UNL d   1      -1.508   1.232   2.897  0.00  0.00     0.076 C 
ATOM      6  C7  UNL d   1       0.559   0.328   1.797  0.00  0.00     0.002 A 
ATOM      7  C8  UNL d   1       1.219  -0.262   0.717  0.00  0.00     0.006 A 
ENDROOT
BRANCH   1   8
ATOM      8  C1  UNL d   1       1.236  -1.203  -1.624  0.00  0.00     0.054 C 
ATOM      9  C   UNL d   1       0.608  -0.741  -2.931  0.00  0.00     0.018 C 
ENDBRANCH   1   8
TORSDOF 1
ENDMDL
