MODEL 1
REMARK minimizedAffinity -2.59184098
REMARK minimizedRMSD -1
REMARK  0 active torsions:
REMARK  status: ('A' for Active; 'I' for Inactive)
ROOT
ATOM      1  C4' PXY d   1      -0.949  -3.611  -1.377  0.00  0.00     0.077 C 
ATOM      2  C1' PXY d   1       0.434   1.741   0.313  0.00  0.00     0.077 C 
ATOM      3  C1  PXY d   1       0.069   0.342  -0.143  0.00  0.00    -0.082 A 
ATOM      4  C2  PXY d   1      -0.396  -0.532   0.736  0.00  0.00     0.003 A 
ATOM      5  C3  PXY d   1      -0.700  -1.811   0.347  0.00  0.00     0.003 A 
ATOM      6  C4  PXY d   1      -0.577  -2.185  -0.964  0.00  0.00    -0.082 A 
ATOM      7  C5  PXY d   1      -0.114  -1.296  -1.869  0.00  0.00     0.003 A 
ATOM      8  C6  PXY d   1       0.229  -0.015  -1.446  0.00  0.00     0.003 A 
ENDROOT
TORSDOF 0
ENDMDL
