MODEL 1
REMARK minimizedAffinity -4.63444662
REMARK minimizedRMSD -1
REMARK  0 active torsions:
REMARK  status: ('A' for Active; 'I' for Inactive)
ROOT
ATOM      1  C4' PXY d   1       0.063   3.155   0.454  0.00  0.00     0.077 C 
ATOM      2  C1' PXY d   1      -1.243  -2.474   0.311  0.00  0.00     0.077 C 
ATOM      3  C1  PXY d   1      -0.893  -0.999   0.338  0.00  0.00    -0.082 A 
ATOM      4  C2  PXY d   1      -0.953  -0.334   1.480  0.00  0.00     0.003 A 
ATOM      5  C3  PXY d   1      -0.670   1.008   1.516  0.00  0.00     0.003 A 
ATOM      6  C4  PXY d   1      -0.272   1.663   0.382  0.00  0.00    -0.082 A 
ATOM      7  C5  PXY d   1      -0.199   0.988  -0.785  0.00  0.00     0.003 A 
ATOM      8  C6  PXY d   1      -0.529  -0.364  -0.809  0.00  0.00     0.003 A 
ENDROOT
TORSDOF 0
ENDMDL
