MODEL 1
REMARK minimizedAffinity -4.27591515
REMARK minimizedRMSD -1
REMARK  0 active torsions:
REMARK  status: ('A' for Active; 'I' for Inactive)
ROOT
ATOM      1  C4' PXY d   1      -0.747  -2.993  -1.509  0.00  0.00     0.077 C 
ATOM      2  C1' PXY d   1       0.641   2.273   0.429  0.00  0.00     0.077 C 
ATOM      3  C1  PXY d   1       0.277   0.887  -0.067  0.00  0.00    -0.082 A 
ATOM      4  C2  PXY d   1       0.574   0.538  -1.308  0.00  0.00     0.003 A 
ATOM      5  C3  PXY d   1       0.223  -0.700  -1.782  0.00  0.00     0.003 A 
ATOM      6  C4  PXY d   1      -0.390  -1.608  -0.962  0.00  0.00    -0.082 A 
ATOM      7  C5  PXY d   1      -0.687  -1.263   0.309  0.00  0.00     0.003 A 
ATOM      8  C6  PXY d   1      -0.360   0.013   0.759  0.00  0.00     0.003 A 
ENDROOT
TORSDOF 0
ENDMDL
