MODEL 1
REMARK minimizedAffinity -2.1832211
REMARK minimizedRMSD -1
REMARK  0 active torsions:
REMARK  status: ('A' for Active; 'I' for Inactive)
ROOT
ATOM      1  C4' PXY d   1       0.334   2.652   0.403  0.00  0.00     0.077 C 
ATOM      2  C1' PXY d   1      -0.967  -2.976   0.613  0.00  0.00     0.077 C 
ATOM      3  C1  PXY d   1      -0.620  -1.502   0.546  0.00  0.00    -0.082 A 
ATOM      4  C2  PXY d   1      -0.483  -0.811   1.666  0.00  0.00     0.003 A 
ATOM      5  C3  PXY d   1      -0.201   0.531   1.623  0.00  0.00     0.003 A 
ATOM      6  C4  PXY d   1      -0.006   1.160   0.423  0.00  0.00    -0.082 A 
ATOM      7  C5  PXY d   1      -0.134   0.459  -0.724  0.00  0.00     0.003 A 
ATOM      8  C6  PXY d   1      -0.460  -0.892  -0.660  0.00  0.00     0.003 A 
ENDROOT
TORSDOF 0
ENDMDL
