MODEL 1
REMARK minimizedAffinity -1.23175216
REMARK minimizedRMSD -1
REMARK  0 active torsions:
REMARK  status: ('A' for Active; 'I' for Inactive)
ROOT
ATOM      1  C4' PXY d   1       0.396   3.395   0.414  0.00  0.00     0.077 C 
ATOM      2  C1' PXY d   1      -0.834  -2.252   0.309  0.00  0.00     0.077 C 
ATOM      3  C1  PXY d   1      -0.504  -0.773   0.326  0.00  0.00    -0.082 A 
ATOM      4  C2  PXY d   1      -0.577  -0.099   1.462  0.00  0.00     0.003 A 
ATOM      5  C3  PXY d   1      -0.313   1.246   1.489  0.00  0.00     0.003 A 
ATOM      6  C4  PXY d   1       0.081   1.898   0.351  0.00  0.00    -0.082 A 
ATOM      7  C5  PXY d   1       0.169   1.215  -0.810  0.00  0.00     0.003 A 
ATOM      8  C6  PXY d   1      -0.143  -0.141  -0.824  0.00  0.00     0.003 A 
ENDROOT
TORSDOF 0
ENDMDL
