MODEL 1
REMARK minimizedAffinity -4.00026178
REMARK minimizedRMSD -1
REMARK  0 active torsions:
REMARK  status: ('A' for Active; 'I' for Inactive)
ROOT
ATOM      1  C4' PXY d   1      -0.313  -3.019   0.189  0.00  0.00     0.077 C 
ATOM      2  C1' PXY d   1       0.337   2.719   0.452  0.00  0.00     0.077 C 
ATOM      3  C1  PXY d   1       0.159   1.214   0.394  0.00  0.00    -0.082 A 
ATOM      4  C2  PXY d   1       1.069   0.471  -0.215  0.00  0.00     0.003 A 
ATOM      5  C3  PXY d   1       0.908  -0.887  -0.305  0.00  0.00     0.003 A 
ATOM      6  C4  PXY d   1      -0.169  -1.497   0.280  0.00  0.00    -0.082 A 
ATOM      7  C5  PXY d   1      -1.097  -0.747   0.913  0.00  0.00     0.003 A 
ATOM      8  C6  PXY d   1      -0.935   0.635   0.957  0.00  0.00     0.003 A 
ENDROOT
TORSDOF 0
ENDMDL
