MODEL 1
REMARK minimizedAffinity -2.19958615
REMARK minimizedRMSD -1
REMARK  0 active torsions:
REMARK  status: ('A' for Active; 'I' for Inactive)
ROOT
ATOM      1  C4' PXY d   1       1.825   3.501   0.395  0.00  0.00     0.077 C 
ATOM      2  C1' PXY d   1      -1.096  -1.476   0.721  0.00  0.00     0.077 C 
ATOM      3  C1  PXY d   1      -0.335  -0.169   0.624  0.00  0.00    -0.082 A 
ATOM      4  C2  PXY d   1       0.740   0.019   1.372  0.00  0.00     0.003 A 
ATOM      5  C3  PXY d   1       1.422   1.208   1.320  0.00  0.00     0.003 A 
ATOM      6  C4  PXY d   1       1.031   2.193   0.454  0.00  0.00    -0.082 A 
ATOM      7  C5  PXY d   1      -0.058   2.005  -0.321  0.00  0.00     0.003 A 
ATOM      8  C6  PXY d   1      -0.761   0.807  -0.223  0.00  0.00     0.003 A 
ENDROOT
TORSDOF 0
ENDMDL
