MODEL 1
REMARK minimizedAffinity -2.320117
REMARK minimizedRMSD -1
REMARK  0 active torsions:
REMARK  status: ('A' for Active; 'I' for Inactive)
ROOT
ATOM      1  C4' PXY d   1      -0.696   0.219   1.626  0.00  0.00     0.077 C 
ATOM      2  C1' PXY d   1      -0.525  -3.675  -2.643  0.00  0.00     0.077 C 
ATOM      3  C1  PXY d   1      -0.580  -2.660  -1.518  0.00  0.00    -0.082 A 
ATOM      4  C2  PXY d   1      -0.093  -1.445  -1.709  0.00  0.00     0.003 A 
ATOM      5  C3  PXY d   1      -0.106  -0.525  -0.693  0.00  0.00     0.003 A 
ATOM      6  C4  PXY d   1      -0.670  -0.835   0.516  0.00  0.00    -0.082 A 
ATOM      7  C5  PXY d   1      -1.178  -2.070   0.715  0.00  0.00     0.003 A 
ATOM      8  C6  PXY d   1      -1.119  -3.002  -0.317  0.00  0.00     0.003 A 
ENDROOT
TORSDOF 0
ENDMDL
