MODEL 1
REMARK minimizedAffinity -3.28582501
REMARK minimizedRMSD -1
REMARK  0 active torsions:
REMARK  status: ('A' for Active; 'I' for Inactive)
ROOT
ATOM      1  C4' PXY d   1      -2.504   0.161   2.946  0.00  0.00     0.077 C 
ATOM      2  C1' PXY d   1       0.569  -1.522  -1.651  0.00  0.00     0.077 C 
ATOM      3  C1  PXY d   1      -0.229  -1.071  -0.444  0.00  0.00    -0.082 A 
ATOM      4  C2  PXY d   1      -0.963  -1.949   0.220  0.00  0.00     0.003 A 
ATOM      5  C3  PXY d   1      -1.716  -1.551   1.295  0.00  0.00     0.003 A 
ATOM      6  C4  PXY d   1      -1.675  -0.252   1.727  0.00  0.00    -0.082 A 
ATOM      7  C5  PXY d   1      -0.920   0.647   1.061  0.00  0.00     0.003 A 
ATOM      8  C6  PXY d   1      -0.196   0.232  -0.052  0.00  0.00     0.003 A 
ENDROOT
TORSDOF 0
ENDMDL
