MODEL 1
REMARK minimizedAffinity -1.14515066
REMARK minimizedRMSD -1
REMARK  0 active torsions:
REMARK  status: ('A' for Active; 'I' for Inactive)
ROOT
ATOM      1  C4' PXY d   1       0.384   2.870   0.001  0.00  0.00     0.077 C 
ATOM      2  C1' PXY d   1      -1.577  -2.462   1.068  0.00  0.00     0.077 C 
ATOM      3  C1  PXY d   1      -1.053  -1.069   0.782  0.00  0.00    -0.082 A 
ATOM      4  C2  PXY d   1      -1.432  -0.057   1.546  0.00  0.00     0.003 A 
ATOM      5  C3  PXY d   1      -0.992   1.215   1.282  0.00  0.00     0.003 A 
ATOM      6  C4  PXY d   1      -0.113   1.445   0.258  0.00  0.00    -0.082 A 
ATOM      7  C5  PXY d   1       0.287   0.417  -0.520  0.00  0.00     0.003 A 
ATOM      8  C6  PXY d   1      -0.204  -0.860  -0.261  0.00  0.00     0.003 A 
ENDROOT
TORSDOF 0
ENDMDL
