MODEL 1
REMARK minimizedAffinity -2.76126552
REMARK minimizedRMSD -1
REMARK  0 active torsions:
REMARK  status: ('A' for Active; 'I' for Inactive)
ROOT
ATOM      1  C4' PXY d   1       0.294  -1.935  -2.731  0.00  0.00     0.077 C 
ATOM      2  C1' PXY d   1      -1.304  -0.662   2.676  0.00  0.00     0.077 C 
ATOM      3  C1  PXY d   1      -0.883  -1.008   1.262  0.00  0.00    -0.082 A 
ATOM      4  C2  PXY d   1      -0.395  -0.063   0.474  0.00  0.00     0.003 A 
ATOM      5  C3  PXY d   1      -0.039  -0.352  -0.818  0.00  0.00     0.003 A 
ATOM      6  C4  PXY d   1      -0.135  -1.633  -1.293  0.00  0.00    -0.082 A 
ATOM      7  C5  PXY d   1      -0.622  -2.605  -0.493  0.00  0.00     0.003 A 
ATOM      8  C6  PXY d   1      -1.016  -2.282   0.803  0.00  0.00     0.003 A 
ENDROOT
TORSDOF 0
ENDMDL
