MODEL 1
REMARK minimizedAffinity -3.01122713
REMARK minimizedRMSD -1
REMARK  0 active torsions:
REMARK  status: ('A' for Active; 'I' for Inactive)
ROOT
ATOM      1  C4' PXY d   1       0.405   3.207  -0.036  0.00  0.00     0.077 C 
ATOM      2  C1' PXY d   1      -1.253  -2.323   0.261  0.00  0.00     0.077 C 
ATOM      3  C1  PXY d   1      -0.810  -0.875   0.173  0.00  0.00    -0.082 A 
ATOM      4  C2  PXY d   1      -0.953  -0.083   1.223  0.00  0.00     0.003 A 
ATOM      5  C3  PXY d   1      -0.587   1.236   1.151  0.00  0.00     0.003 A 
ATOM      6  C4  PXY d   1      -0.020   1.737   0.010  0.00  0.00    -0.082 A 
ATOM      7  C5  PXY d   1       0.139   0.932  -1.062  0.00  0.00     0.003 A 
ATOM      8  C6  PXY d   1      -0.276  -0.394  -0.982  0.00  0.00     0.003 A 
ENDROOT
TORSDOF 0
ENDMDL
