MODEL 1
REMARK minimizedAffinity -3.64660501
REMARK minimizedRMSD -1
REMARK  0 active torsions:
REMARK  status: ('A' for Active; 'I' for Inactive)
ROOT
ATOM      1  C4' PXY d   1       0.426   2.864   0.019  0.00  0.00     0.077 C 
ATOM      2  C1' PXY d   1      -0.975  -2.725   0.485  0.00  0.00     0.077 C 
ATOM      3  C1  PXY d   1      -0.599  -1.262   0.353  0.00  0.00    -0.082 A 
ATOM      4  C2  PXY d   1      -0.771  -0.448   1.382  0.00  0.00     0.003 A 
ATOM      5  C3  PXY d   1      -0.466   0.885   1.270  0.00  0.00     0.003 A 
ATOM      6  C4  PXY d   1       0.070   1.377   0.110  0.00  0.00    -0.082 A 
ATOM      7  C5  PXY d   1       0.258   0.551  -0.940  0.00  0.00     0.003 A 
ATOM      8  C6  PXY d   1      -0.097  -0.790  -0.820  0.00  0.00     0.003 A 
ENDROOT
TORSDOF 0
ENDMDL
