MODEL 1
REMARK minimizedAffinity -1.82104278
REMARK minimizedRMSD -1
REMARK  0 active torsions:
REMARK  status: ('A' for Active; 'I' for Inactive)
ROOT
ATOM      1  C4' PXY d   1      -1.097  -2.250   0.837  0.00  0.00     0.077 C 
ATOM      2  C1' PXY d   1       1.236   3.019   0.366  0.00  0.00     0.077 C 
ATOM      3  C1  PXY d   1       0.632   1.634   0.499  0.00  0.00    -0.082 A 
ATOM      4  C2  PXY d   1       0.024   1.083  -0.539  0.00  0.00     0.003 A 
ATOM      5  C3  PXY d   1      -0.555  -0.155  -0.426  0.00  0.00     0.003 A 
ATOM      6  C4  PXY d   1      -0.465  -0.858   0.745  0.00  0.00    -0.082 A 
ATOM      7  C5  PXY d   1       0.163  -0.307   1.806  0.00  0.00     0.003 A 
ATOM      8  C6  PXY d   1       0.709   0.968   1.683  0.00  0.00     0.003 A 
ENDROOT
TORSDOF 0
ENDMDL
