MODEL 1
REMARK minimizedAffinity -3.37709045
REMARK minimizedRMSD -1
REMARK  0 active torsions:
REMARK  status: ('A' for Active; 'I' for Inactive)
ROOT
ATOM      1  C4' PXY d   1      -1.433  -2.429   0.733  0.00  0.00     0.077 C 
ATOM      2  C1' PXY d   1       0.711   2.910   0.179  0.00  0.00     0.077 C 
ATOM      3  C1  PXY d   1       0.149   1.511   0.337  0.00  0.00    -0.082 A 
ATOM      4  C2  PXY d   1       0.313   0.627  -0.633  0.00  0.00     0.003 A 
ATOM      5  C3  PXY d   1      -0.216  -0.633  -0.520  0.00  0.00     0.003 A 
ATOM      6  C4  PXY d   1      -0.874  -1.008   0.621  0.00  0.00    -0.082 A 
ATOM      7  C5  PXY d   1      -1.037  -0.115   1.620  0.00  0.00     0.003 A 
ATOM      8  C6  PXY d   1      -0.528   1.172   1.468  0.00  0.00     0.003 A 
ENDROOT
TORSDOF 0
ENDMDL
