MODEL 1
REMARK minimizedAffinity -2.88868475
REMARK minimizedRMSD -1
REMARK  0 active torsions:
REMARK  status: ('A' for Active; 'I' for Inactive)
ROOT
ATOM      1  C4' PXY d   1       0.351   2.672   0.017  0.00  0.00     0.077 C 
ATOM      2  C1' PXY d   1      -1.058  -2.917   0.463  0.00  0.00     0.077 C 
ATOM      3  C1  PXY d   1      -0.680  -1.454   0.336  0.00  0.00    -0.082 A 
ATOM      4  C2  PXY d   1      -0.808  -0.653   1.381  0.00  0.00     0.003 A 
ATOM      5  C3  PXY d   1      -0.501   0.680   1.275  0.00  0.00     0.003 A 
ATOM      6  C4  PXY d   1      -0.009   1.186   0.102  0.00  0.00    -0.082 A 
ATOM      7  C5  PXY d   1       0.134   0.373  -0.966  0.00  0.00     0.003 A 
ATOM      8  C6  PXY d   1      -0.222  -0.968  -0.850  0.00  0.00     0.003 A 
ENDROOT
TORSDOF 0
ENDMDL
