MODEL 1
REMARK minimizedAffinity -2.22882557
REMARK minimizedRMSD -1
REMARK  0 active torsions:
REMARK  status: ('A' for Active; 'I' for Inactive)
ROOT
ATOM      1  C4' PXY d   1       2.421   3.405   0.468  0.00  0.00     0.077 C 
ATOM      2  C1' PXY d   1      -1.087  -1.178   0.154  0.00  0.00     0.077 C 
ATOM      3  C1  PXY d   1      -0.171   0.027   0.225  0.00  0.00    -0.082 A 
ATOM      4  C2  PXY d   1       0.876   0.007   1.034  0.00  0.00     0.003 A 
ATOM      5  C3  PXY d   1       1.697   1.101   1.134  0.00  0.00     0.003 A 
ATOM      6  C4  PXY d   1       1.474   2.207   0.358  0.00  0.00    -0.082 A 
ATOM      7  C5  PXY d   1       0.415   2.231  -0.478  0.00  0.00     0.003 A 
ATOM      8  C6  PXY d   1      -0.430   1.127  -0.534  0.00  0.00     0.003 A 
ENDROOT
TORSDOF 0
ENDMDL
