MODEL 1
REMARK minimizedAffinity 0.770882547
REMARK minimizedRMSD -1
REMARK  0 active torsions:
REMARK  status: ('A' for Active; 'I' for Inactive)
ROOT
ATOM      1  C4' PXY d   1       0.837   2.911   0.063  0.00  0.00     0.077 C 
ATOM      2  C1' PXY d   1      -1.471  -2.353   0.670  0.00  0.00     0.077 C 
ATOM      3  C1  PXY d   1      -0.860  -0.977   0.501  0.00  0.00    -0.082 A 
ATOM      4  C2  PXY d   1      -0.747  -0.177   1.549  0.00  0.00     0.003 A 
ATOM      5  C3  PXY d   1      -0.225   1.083   1.407  0.00  0.00     0.003 A 
ATOM      6  C4  PXY d   1       0.234   1.510   0.190  0.00  0.00    -0.082 A 
ATOM      7  C5  PXY d   1       0.132   0.696  -0.882  0.00  0.00     0.003 A 
ATOM      8  C6  PXY d   1      -0.438  -0.564  -0.726  0.00  0.00     0.003 A 
ENDROOT
TORSDOF 0
ENDMDL
