MODEL 1
REMARK minimizedAffinity -3.29003358
REMARK minimizedRMSD -1
REMARK  0 active torsions:
REMARK  status: ('A' for Active; 'I' for Inactive)
ROOT
ATOM      1  C4' PXY d   1      -0.942  -3.523  -1.080  0.00  0.00     0.077 C 
ATOM      2  C1' PXY d   1       0.590   1.924   0.100  0.00  0.00     0.077 C 
ATOM      3  C1  PXY d   1       0.187   0.499  -0.223  0.00  0.00    -0.082 A 
ATOM      4  C2  PXY d   1      -0.339  -0.262   0.724  0.00  0.00     0.003 A 
ATOM      5  C3  PXY d   1      -0.679  -1.564   0.458  0.00  0.00     0.003 A 
ATOM      6  C4  PXY d   1      -0.529  -2.075  -0.803  0.00  0.00    -0.082 A 
ATOM      7  C5  PXY d   1      -0.003  -1.302  -1.777  0.00  0.00     0.003 A 
ATOM      8  C6  PXY d   1       0.374   0.004  -1.476  0.00  0.00     0.003 A 
ENDROOT
TORSDOF 0
ENDMDL
