MODEL 1
REMARK minimizedAffinity -3.73679829
REMARK minimizedRMSD -1
REMARK  0 active torsions:
REMARK  status: ('A' for Active; 'I' for Inactive)
ROOT
ATOM      1  C1  DEN d   1      -1.034   0.051   0.277  0.00  0.00     0.130 A 
ATOM      2  C2  DEN d   1      -0.610   0.006  -1.120  0.00  0.00    -0.031 A 
ATOM      3  C3  DEN d   1       0.824  -0.347  -1.151  0.00  0.00     0.027 A 
ATOM      4  C4  DEN d   1       2.418  -0.833   0.818  0.00  0.00     0.027 A 
ATOM      5  C5  DEN d   1       2.518  -0.906   2.190  0.00  0.00    -0.003 A 
ATOM      6  C6  DEN d   1       1.458  -0.634   3.015  0.00  0.00     0.001 A 
ATOM      7  C7  DEN d   1       0.239  -0.321   2.473  0.00  0.00     0.017 A 
ATOM      8  C8  DEN d   1       0.133  -0.238   1.091  0.00  0.00    -0.094 A 
ATOM      9  C9  DEN d   1       1.213  -0.528   0.274  0.00  0.00    -0.072 A 
ENDROOT
TORSDOF 0
ENDMDL
