MODEL 1
REMARK minimizedAffinity -4.70017433
REMARK minimizedRMSD -1
REMARK  0 active torsions:
REMARK  status: ('A' for Active; 'I' for Inactive)
ROOT
ATOM      1  C1  DEN d   1       1.835  -0.141   1.585  0.00  0.00     0.130 A 
ATOM      2  C2  DEN d   1       1.345  -1.009   2.652  0.00  0.00    -0.031 A 
ATOM      3  C3  DEN d   1      -0.102  -1.215   2.445  0.00  0.00     0.027 A 
ATOM      4  C4  DEN d   1      -1.624  -0.281   0.584  0.00  0.00     0.027 A 
ATOM      5  C5  DEN d   1      -1.664   0.513  -0.540  0.00  0.00    -0.003 A 
ATOM      6  C6  DEN d   1      -0.557   1.167  -1.012  0.00  0.00     0.001 A 
ATOM      7  C7  DEN d   1       0.648   1.002  -0.382  0.00  0.00     0.017 A 
ATOM      8  C8  DEN d   1       0.695   0.209   0.757  0.00  0.00    -0.094 A 
ATOM      9  C9  DEN d   1      -0.433  -0.454   1.211  0.00  0.00    -0.072 A 
ENDROOT
TORSDOF 0
ENDMDL
