MODEL 1
REMARK minimizedAffinity 1.02850401
REMARK minimizedRMSD -1
REMARK  0 active torsions:
REMARK  status: ('A' for Active; 'I' for Inactive)
ROOT
ATOM      1  C   UNL d   1      -1.859   0.968   1.395  0.00  0.00     0.124 A 
ATOM      2  C1  UNL d   1      -2.049   0.459   0.117  0.00  0.00     0.062 A 
ATOM      3  C2  UNL d   1      -1.001  -0.168  -0.549  0.00  0.00     0.162 A 
ATOM      4  C3  UNL d   1       0.248  -0.291   0.060  0.00  0.00    -0.034 A 
ATOM      5  C4  UNL d   1       0.431   0.223   1.345  0.00  0.00     0.162 A 
ATOM      6  C5  UNL d   1      -0.620   0.849   2.008  0.00  0.00     0.062 A 
ATOM      7  F   UNL d   1      -0.434   1.339   3.242  0.00  0.00    -0.097 F 
ATOM      8  F1  UNL d   1       1.619   0.122   1.961  0.00  0.00    -0.096 F 
ATOM      9  I   UNL d   1       1.818  -1.228  -0.933  0.00  0.00    -0.060 I 
ATOM     10  F2  UNL d   1      -1.213  -0.649  -1.783  0.00  0.00    -0.096 F 
ATOM     11  F3  UNL d   1      -3.245   0.573  -0.477  0.00  0.00    -0.097 F 
ATOM     12  F4  UNL d   1      -2.869   1.571   2.034  0.00  0.00    -0.092 F 
ENDROOT
TORSDOF 0
ENDMDL
