MODEL 1
REMARK minimizedAffinity -1.19168532
REMARK minimizedRMSD -1
REMARK  0 active torsions:
REMARK  status: ('A' for Active; 'I' for Inactive)
ROOT
ATOM      1  C   UNL d   1       1.073   0.838   2.094  0.00  0.00     0.124 A 
ATOM      2  C1  UNL d   1       1.725  -0.307   1.657  0.00  0.00     0.062 A 
ATOM      3  C2  UNL d   1       1.389  -0.880   0.434  0.00  0.00     0.162 A 
ATOM      4  C3  UNL d   1       0.396  -0.308  -0.362  0.00  0.00    -0.034 A 
ATOM      5  C4  UNL d   1      -0.255   0.843   0.084  0.00  0.00     0.162 A 
ATOM      6  C5  UNL d   1       0.085   1.412   1.307  0.00  0.00     0.062 A 
ATOM      7  F   UNL d   1      -0.546   2.518   1.728  0.00  0.00    -0.097 F 
ATOM      8  F1  UNL d   1      -1.214   1.419  -0.656  0.00  0.00    -0.096 F 
ATOM      9  I   UNL d   1      -0.109  -1.162  -2.192  0.00  0.00    -0.060 I 
ATOM     10  F2  UNL d   1       2.034  -1.987   0.037  0.00  0.00    -0.096 F 
ATOM     11  F3  UNL d   1       2.680  -0.864   2.415  0.00  0.00    -0.097 F 
ATOM     12  F4  UNL d   1       1.398   1.387   3.271  0.00  0.00    -0.092 F 
ENDROOT
TORSDOF 0
ENDMDL
