MODEL 1
REMARK minimizedAffinity -1.18961859
REMARK minimizedRMSD -1
REMARK  0 active torsions:
REMARK  status: ('A' for Active; 'I' for Inactive)
ROOT
ATOM      1  C   UNL d   1      -1.560   1.046   1.503  0.00  0.00     0.124 A 
ATOM      2  C1  UNL d   1      -1.803   0.690   0.184  0.00  0.00     0.062 A 
ATOM      3  C2  UNL d   1      -0.751   0.304  -0.642  0.00  0.00     0.162 A 
ATOM      4  C3  UNL d   1       0.554   0.271  -0.150  0.00  0.00    -0.034 A 
ATOM      5  C4  UNL d   1       0.790   0.632   1.178  0.00  0.00     0.162 A 
ATOM      6  C5  UNL d   1      -0.265   1.017   1.999  0.00  0.00     0.062 A 
ATOM      7  F   UNL d   1      -0.028   1.360   3.274  0.00  0.00    -0.097 F 
ATOM      8  F1  UNL d   1       2.033   0.611   1.683  0.00  0.00    -0.096 F 
ATOM      9  I   UNL d   1       2.130  -0.305  -1.381  0.00  0.00    -0.060 I 
ATOM     10  F2  UNL d   1      -1.014  -0.035  -1.913  0.00  0.00    -0.096 F 
ATOM     11  F3  UNL d   1      -3.054   0.719  -0.298  0.00  0.00    -0.097 F 
ATOM     12  F4  UNL d   1      -2.574   1.418   2.295  0.00  0.00    -0.092 F 
ENDROOT
TORSDOF 0
ENDMDL
