MODEL 1
REMARK minimizedAffinity -0.961604834
REMARK minimizedRMSD -1
REMARK  0 active torsions:
REMARK  status: ('A' for Active; 'I' for Inactive)
ROOT
ATOM      1  C   UNL d   1      -0.325   0.552   2.002  0.00  0.00     0.124 A 
ATOM      2  C1  UNL d   1       0.876   0.220   1.392  0.00  0.00     0.062 A 
ATOM      3  C2  UNL d   1       0.898  -0.180   0.059  0.00  0.00     0.162 A 
ATOM      4  C3  UNL d   1      -0.287  -0.249  -0.674  0.00  0.00    -0.034 A 
ATOM      5  C4  UNL d   1      -1.492   0.085  -0.053  0.00  0.00     0.162 A 
ATOM      6  C5  UNL d   1      -1.508   0.485   1.279  0.00  0.00     0.062 A 
ATOM      7  F   UNL d   1      -2.670   0.805   1.867  0.00  0.00    -0.097 F 
ATOM      8  F1  UNL d   1      -2.650   0.030  -0.728  0.00  0.00    -0.096 F 
ATOM      9  I   UNL d   1      -0.260  -0.847  -2.667  0.00  0.00    -0.060 I 
ATOM     10  F2  UNL d   1       2.073  -0.495  -0.505  0.00  0.00    -0.096 F 
ATOM     11  F3  UNL d   1       2.020   0.284   2.088  0.00  0.00    -0.097 F 
ATOM     12  F4  UNL d   1      -0.343   0.936   3.285  0.00  0.00    -0.092 F 
ENDROOT
TORSDOF 0
ENDMDL
