MODEL 1
REMARK minimizedAffinity 0.633604288
REMARK minimizedRMSD -1
REMARK  0 active torsions:
REMARK  status: ('A' for Active; 'I' for Inactive)
ROOT
ATOM      1  C   UNL d   1      -0.857   0.930   2.291  0.00  0.00     0.124 A 
ATOM      2  C1  UNL d   1       0.454   1.012   1.844  0.00  0.00     0.062 A 
ATOM      3  C2  UNL d   1       0.801   0.506   0.595  0.00  0.00     0.162 A 
ATOM      4  C3  UNL d   1      -0.166  -0.086  -0.218  0.00  0.00    -0.034 A 
ATOM      5  C4  UNL d   1      -1.482  -0.166   0.239  0.00  0.00     0.162 A 
ATOM      6  C5  UNL d   1      -1.824   0.341   1.489  0.00  0.00     0.062 A 
ATOM      7  F   UNL d   1      -3.092   0.261   1.919  0.00  0.00    -0.097 F 
ATOM      8  F1  UNL d   1      -2.437  -0.729  -0.517  0.00  0.00    -0.096 F 
ATOM      9  I   UNL d   1       0.349  -0.844  -2.086  0.00  0.00    -0.060 I 
ATOM     10  F2  UNL d   1       2.076   0.600   0.189  0.00  0.00    -0.096 F 
ATOM     11  F3  UNL d   1       1.391   1.580   2.618  0.00  0.00    -0.097 F 
ATOM     12  F4  UNL d   1      -1.188   1.417   3.494  0.00  0.00    -0.092 F 
ENDROOT
TORSDOF 0
ENDMDL
