MODEL 1
REMARK minimizedAffinity 1.08351433
REMARK minimizedRMSD -1
REMARK  0 active torsions:
REMARK  status: ('A' for Active; 'I' for Inactive)
ROOT
ATOM      1  C   UNL d   1       0.120  -0.814  -1.381  0.00  0.00     0.124 A 
ATOM      2  C1  UNL d   1      -1.181  -0.439  -1.075  0.00  0.00     0.062 A 
ATOM      3  C2  UNL d   1      -1.460   0.204   0.127  0.00  0.00     0.162 A 
ATOM      4  C3  UNL d   1      -0.435   0.476   1.034  0.00  0.00    -0.034 A 
ATOM      5  C4  UNL d   1       0.871   0.095   0.719  0.00  0.00     0.162 A 
ATOM      6  C5  UNL d   1       1.144  -0.547  -0.484  0.00  0.00     0.062 A 
ATOM      7  F   UNL d   1       2.401  -0.909  -0.778  0.00  0.00    -0.097 F 
ATOM      8  F1  UNL d   1       1.880   0.342   1.568  0.00  0.00    -0.096 F 
ATOM      9  I   UNL d   1      -0.847   1.437   2.833  0.00  0.00    -0.060 I 
ATOM     10  F2  UNL d   1      -2.726   0.555   0.397  0.00  0.00    -0.096 F 
ATOM     11  F3  UNL d   1      -2.173  -0.696  -1.940  0.00  0.00    -0.097 F 
ATOM     12  F4  UNL d   1       0.385  -1.433  -2.539  0.00  0.00    -0.092 F 
ENDROOT
TORSDOF 0
ENDMDL
