MODEL 1
REMARK minimizedAffinity -2.98385763
REMARK minimizedRMSD -1
REMARK  0 active torsions:
REMARK  status: ('A' for Active; 'I' for Inactive)
ROOT
ATOM      1  C   UNL d   1      -0.461  -0.648  -1.072  0.00  0.00     0.124 A 
ATOM      2  C1  UNL d   1       0.765  -0.445  -0.455  0.00  0.00     0.062 A 
ATOM      3  C2  UNL d   1       0.821  -0.072   0.885  0.00  0.00     0.162 A 
ATOM      4  C3  UNL d   1      -0.354   0.099   1.617  0.00  0.00    -0.034 A 
ATOM      5  C4  UNL d   1      -1.584  -0.106   0.989  0.00  0.00     0.162 A 
ATOM      6  C5  UNL d   1      -1.634  -0.479  -0.350  0.00  0.00     0.062 A 
ATOM      7  F   UNL d   1      -2.820  -0.674  -0.946  0.00  0.00    -0.097 F 
ATOM      8  F1  UNL d   1      -2.733   0.050   1.663  0.00  0.00    -0.096 F 
ATOM      9  I   UNL d   1      -0.275   0.657   3.621  0.00  0.00    -0.060 I 
ATOM     10  F2  UNL d   1       2.019   0.117   1.456  0.00  0.00    -0.096 F 
ATOM     11  F3  UNL d   1       1.900  -0.608  -1.150  0.00  0.00    -0.097 F 
ATOM     12  F4  UNL d   1      -0.512  -1.006  -2.362  0.00  0.00    -0.092 F 
ENDROOT
TORSDOF 0
ENDMDL
