MODEL 1
REMARK minimizedAffinity -0.108710103
REMARK minimizedRMSD -1
REMARK  0 active torsions:
REMARK  status: ('A' for Active; 'I' for Inactive)
ROOT
ATOM      1  C   UNL d   1      -0.771   0.712   2.705  0.00  0.00     0.124 A 
ATOM      2  C1  UNL d   1      -1.751   0.542   1.738  0.00  0.00     0.062 A 
ATOM      3  C2  UNL d   1      -1.403   0.152   0.448  0.00  0.00     0.162 A 
ATOM      4  C3  UNL d   1      -0.066  -0.072   0.118  0.00  0.00    -0.034 A 
ATOM      5  C4  UNL d   1       0.915   0.102   1.096  0.00  0.00     0.162 A 
ATOM      6  C5  UNL d   1       0.561   0.492   2.383  0.00  0.00     0.062 A 
ATOM      7  F   UNL d   1       1.510   0.656   3.316  0.00  0.00    -0.097 F 
ATOM      8  F1  UNL d   1       2.210  -0.105   0.812  0.00  0.00    -0.096 F 
ATOM      9  I   UNL d   1       0.460  -0.655  -1.810  0.00  0.00    -0.060 I 
ATOM     10  F2  UNL d   1      -2.371  -0.005  -0.466  0.00  0.00    -0.096 F 
ATOM     11  F3  UNL d   1      -3.039   0.755   2.046  0.00  0.00    -0.097 F 
ATOM     12  F4  UNL d   1      -1.109   1.088   3.945  0.00  0.00    -0.092 F 
ENDROOT
TORSDOF 0
ENDMDL
