MODEL 1
REMARK minimizedAffinity -0.615674436
REMARK minimizedRMSD -1
REMARK  0 active torsions:
REMARK  status: ('A' for Active; 'I' for Inactive)
ROOT
ATOM      1  C   UNL d   1      -0.866   0.242   2.657  0.00  0.00     0.124 A 
ATOM      2  C1  UNL d   1       0.458   0.373   2.262  0.00  0.00     0.062 A 
ATOM      3  C2  UNL d   1       0.787   0.388   0.910  0.00  0.00     0.162 A 
ATOM      4  C3  UNL d   1      -0.211   0.271  -0.058  0.00  0.00    -0.034 A 
ATOM      5  C4  UNL d   1      -1.540   0.139   0.347  0.00  0.00     0.162 A 
ATOM      6  C5  UNL d   1      -1.864   0.125   1.700  0.00  0.00     0.062 A 
ATOM      7  F   UNL d   1      -3.143  -0.002   2.080  0.00  0.00    -0.097 F 
ATOM      8  F1  UNL d   1      -2.524   0.025  -0.557  0.00  0.00    -0.096 F 
ATOM      9  I   UNL d   1       0.276   0.292  -2.082  0.00  0.00    -0.060 I 
ATOM     10  F2  UNL d   1       2.074   0.515   0.556  0.00  0.00    -0.096 F 
ATOM     11  F3  UNL d   1       1.424   0.486   3.185  0.00  0.00    -0.097 F 
ATOM     12  F4  UNL d   1      -1.179   0.228   3.959  0.00  0.00    -0.092 F 
ENDROOT
TORSDOF 0
ENDMDL
