MODEL 1
REMARK minimizedAffinity -4.43969822
REMARK minimizedRMSD -1
REMARK  0 active torsions:
REMARK  status: ('A' for Active; 'I' for Inactive)
ROOT
ATOM      1  C   UNL d   1      -0.318  -1.083  -0.688  0.00  0.00     0.124 A 
ATOM      2  C1  UNL d   1       0.928  -0.797  -0.147  0.00  0.00     0.062 A 
ATOM      3  C2  UNL d   1       1.025  -0.151   1.082  0.00  0.00     0.162 A 
ATOM      4  C3  UNL d   1      -0.127   0.212   1.780  0.00  0.00    -0.034 A 
ATOM      5  C4  UNL d   1      -1.376  -0.078   1.228  0.00  0.00     0.162 A 
ATOM      6  C5  UNL d   1      -1.468  -0.723  -0.001  0.00  0.00     0.062 A 
ATOM      7  F   UNL d   1      -2.672  -0.998  -0.523  0.00  0.00    -0.097 F 
ATOM      8  F1  UNL d   1      -2.504   0.258   1.871  0.00  0.00    -0.096 F 
ATOM      9  I   UNL d   1       0.014   1.178   3.618  0.00  0.00    -0.060 I 
ATOM     10  F2  UNL d   1       2.242   0.112   1.582  0.00  0.00    -0.096 F 
ATOM     11  F3  UNL d   1       2.041  -1.143  -0.809  0.00  0.00    -0.097 F 
ATOM     12  F4  UNL d   1      -0.408  -1.703  -1.872  0.00  0.00    -0.092 F 
ENDROOT
TORSDOF 0
ENDMDL
