MODEL 1
REMARK minimizedAffinity 0.141538575
REMARK minimizedRMSD -1
REMARK  0 active torsions:
REMARK  status: ('A' for Active; 'I' for Inactive)
ROOT
ATOM      1  C   UNL d   1      -0.838   1.238   2.459  0.00  0.00     0.124 A 
ATOM      2  C1  UNL d   1      -1.417   0.076   1.968  0.00  0.00     0.062 A 
ATOM      3  C2  UNL d   1      -1.029  -0.432   0.732  0.00  0.00     0.162 A 
ATOM      4  C3  UNL d   1      -0.055   0.221  -0.023  0.00  0.00    -0.034 A 
ATOM      5  C4  UNL d   1       0.523   1.390   0.477  0.00  0.00     0.162 A 
ATOM      6  C5  UNL d   1       0.132   1.893   1.713  0.00  0.00     0.062 A 
ATOM      7  F   UNL d   1       0.692   3.016   2.185  0.00  0.00    -0.097 F 
ATOM      8  F1  UNL d   1       1.462   2.043  -0.223  0.00  0.00    -0.096 F 
ATOM      9  I   UNL d   1       0.529  -0.535  -1.872  0.00  0.00    -0.060 I 
ATOM     10  F2  UNL d   1      -1.606  -1.557   0.283  0.00  0.00    -0.096 F 
ATOM     11  F3  UNL d   1      -2.354  -0.559   2.687  0.00  0.00    -0.097 F 
ATOM     12  F4  UNL d   1      -1.214   1.725   3.648  0.00  0.00    -0.092 F 
ENDROOT
TORSDOF 0
ENDMDL
