MODEL 1
REMARK minimizedAffinity -1.89559948
REMARK minimizedRMSD -1
REMARK  0 active torsions:
REMARK  status: ('A' for Active; 'I' for Inactive)
ROOT
ATOM      1  C   UNL d   1       1.221   0.259   1.693  0.00  0.00     0.124 A 
ATOM      2  C1  UNL d   1       0.040   0.823   2.155  0.00  0.00     0.062 A 
ATOM      3  C2  UNL d   1      -1.171   0.511   1.543  0.00  0.00     0.162 A 
ATOM      4  C3  UNL d   1      -1.207  -0.371   0.463  0.00  0.00    -0.034 A 
ATOM      5  C4  UNL d   1      -0.015  -0.934   0.004  0.00  0.00     0.162 A 
ATOM      6  C5  UNL d   1       1.193  -0.619   0.619  0.00  0.00     0.062 A 
ATOM      7  F   UNL d   1       2.333  -1.165   0.171  0.00  0.00    -0.097 F 
ATOM      8  F1  UNL d   1      -0.014  -1.786  -1.032  0.00  0.00    -0.096 F 
ATOM      9  I   UNL d   1      -3.015  -0.841  -0.454  0.00  0.00    -0.060 I 
ATOM     10  F2  UNL d   1      -2.297   1.071   2.010  0.00  0.00    -0.096 F 
ATOM     11  F3  UNL d   1       0.064   1.673   3.192  0.00  0.00    -0.097 F 
ATOM     12  F4  UNL d   1       2.384   0.562   2.283  0.00  0.00    -0.092 F 
ENDROOT
TORSDOF 0
ENDMDL
