MODEL 1
REMARK minimizedAffinity 2.95741081
REMARK minimizedRMSD -1
REMARK  0 active torsions:
REMARK  status: ('A' for Active; 'I' for Inactive)
ROOT
ATOM      1  O1  BZF d   1      -0.332  -4.035   0.201  0.00  0.00    -0.204 OA
ATOM      2  C2  BZF d   1      -1.693  -4.025  -0.038  0.00  0.00     0.174 A 
ATOM      3  C3  BZF d   1      -2.240  -2.858   0.359  0.00  0.00    -0.012 A 
ATOM      4  C3A BZF d   1      -1.138  -2.055   0.795  0.00  0.00    -0.107 A 
ATOM      5  C4  BZF d   1      -1.039  -0.785   1.288  0.00  0.00     0.055 A 
ATOM      6  C5  BZF d   1       0.176  -0.325   1.687  0.00  0.00    -0.016 A 
ATOM      7  C6  BZF d   1       1.309  -1.108   1.613  0.00  0.00     0.022 A 
ATOM      8  C7  BZF d   1       1.261  -2.372   1.126  0.00  0.00     0.029 A 
ATOM      9  C7A BZF d   1       0.041  -2.828   0.691  0.00  0.00     0.058 A 
ENDROOT
TORSDOF 0
ENDMDL
