MODEL 1
REMARK minimizedAffinity 13.6167011
REMARK minimizedRMSD -1
REMARK  0 active torsions:
REMARK  status: ('A' for Active; 'I' for Inactive)
ROOT
ATOM      1  O1  BZF d   1       1.279  -0.036   3.644  0.00  0.00    -0.204 OA
ATOM      2  C2  BZF d   1       1.500   0.016   2.281  0.00  0.00     0.174 A 
ATOM      3  C3  BZF d   1       2.016  -1.148   1.836  0.00  0.00    -0.012 A 
ATOM      4  C3A BZF d   1       2.038  -2.011   2.977  0.00  0.00    -0.107 A 
ATOM      5  C4  BZF d   1       2.429  -3.306   3.166  0.00  0.00     0.055 A 
ATOM      6  C5  BZF d   1       2.391  -3.830   4.420  0.00  0.00    -0.016 A 
ATOM      7  C6  BZF d   1       1.975  -3.087   5.505  0.00  0.00     0.022 A 
ATOM      8  C7  BZF d   1       1.573  -1.800   5.365  0.00  0.00     0.029 A 
ATOM      9  C7A BZF d   1       1.579  -1.278   4.095  0.00  0.00     0.058 A 
ENDROOT
TORSDOF 0
ENDMDL
