MODEL 1
REMARK minimizedAffinity 13.9068508
REMARK minimizedRMSD -1
REMARK  0 active torsions:
REMARK  status: ('A' for Active; 'I' for Inactive)
ROOT
ATOM      1  O1  BZF d   1      -1.779   2.589   0.952  0.00  0.00    -0.204 OA
ATOM      2  C2  BZF d   1      -1.141   1.546   0.309  0.00  0.00     0.174 A 
ATOM      3  C3  BZF d   1      -0.111   2.000  -0.433  0.00  0.00    -0.012 A 
ATOM      4  C3A BZF d   1      -0.047   3.405  -0.169  0.00  0.00    -0.107 A 
ATOM      5  C4  BZF d   1       0.777   4.404  -0.601  0.00  0.00     0.055 A 
ATOM      6  C5  BZF d   1       0.526   5.682  -0.211  0.00  0.00    -0.016 A 
ATOM      7  C6  BZF d   1      -0.543   5.996   0.603  0.00  0.00     0.022 A 
ATOM      8  C7  BZF d   1      -1.385   5.037   1.060  0.00  0.00     0.029 A 
ATOM      9  C7A BZF d   1      -1.114   3.741   0.695  0.00  0.00     0.058 A 
ENDROOT
TORSDOF 0
ENDMDL
