MODEL 1
REMARK minimizedAffinity 3.55991197
REMARK minimizedRMSD -1
REMARK  0 active torsions:
REMARK  status: ('A' for Active; 'I' for Inactive)
ROOT
ATOM      1  O1  BZF d   1       0.616   0.009   4.353  0.00  0.00    -0.204 OA
ATOM      2  C2  BZF d   1       1.319  -0.683   5.320  0.00  0.00     0.174 A 
ATOM      3  C3  BZF d   1       1.870  -1.801   4.804  0.00  0.00    -0.012 A 
ATOM      4  C3A BZF d   1       1.564  -1.760   3.407  0.00  0.00    -0.107 A 
ATOM      5  C4  BZF d   1       1.854  -2.585   2.358  0.00  0.00     0.055 A 
ATOM      6  C5  BZF d   1       1.344  -2.298   1.131  0.00  0.00    -0.016 A 
ATOM      7  C6  BZF d   1       0.539  -1.198   0.919  0.00  0.00     0.022 A 
ATOM      8  C7  BZF d   1       0.228  -0.348   1.927  0.00  0.00     0.029 A 
ATOM      9  C7A BZF d   1       0.768  -0.617   3.161  0.00  0.00     0.058 A 
ENDROOT
TORSDOF 0
ENDMDL
