MODEL 1
REMARK minimizedAffinity 1.58921909
REMARK minimizedRMSD -1
REMARK  0 active torsions:
REMARK  status: ('A' for Active; 'I' for Inactive)
ROOT
ATOM      1  O1  BZF d   1      -0.074  -0.893   1.899  0.00  0.00    -0.204 OA
ATOM      2  C2  BZF d   1      -1.405  -1.123   1.611  0.00  0.00     0.174 A 
ATOM      3  C3  BZF d   1      -1.530  -1.891   0.509  0.00  0.00    -0.012 A 
ATOM      4  C3A BZF d   1      -0.192  -2.234   0.136  0.00  0.00    -0.107 A 
ATOM      5  C4  BZF d   1       0.337  -2.992  -0.870  0.00  0.00     0.055 A 
ATOM      6  C5  BZF d   1       1.688  -3.066  -1.000  0.00  0.00    -0.016 A 
ATOM      7  C6  BZF d   1       2.537  -2.393  -0.146  0.00  0.00     0.022 A 
ATOM      8  C7  BZF d   1       2.059  -1.634   0.869  0.00  0.00     0.029 A 
ATOM      9  C7A BZF d   1       0.695  -1.583   1.023  0.00  0.00     0.058 A 
ENDROOT
TORSDOF 0
ENDMDL
