MODEL 1
REMARK minimizedAffinity -0.573011696
REMARK minimizedRMSD -1
REMARK  0 active torsions:
REMARK  status: ('A' for Active; 'I' for Inactive)
ROOT
ATOM      1  O1  BZF d   1       5.956   5.996  -1.982  0.00  0.00    -0.204 OA
ATOM      2  C2  BZF d   1       5.940   5.463  -0.708  0.00  0.00     0.174 A 
ATOM      3  C3  BZF d   1       5.890   4.116  -0.753  0.00  0.00    -0.012 A 
ATOM      4  C3A BZF d   1       5.967   3.783  -2.143  0.00  0.00    -0.107 A 
ATOM      5  C4  BZF d   1       5.979   2.600  -2.826  0.00  0.00     0.055 A 
ATOM      6  C5  BZF d   1       5.988   2.622  -4.184  0.00  0.00    -0.016 A 
ATOM      7  C6  BZF d   1       5.979   3.807  -4.891  0.00  0.00     0.022 A 
ATOM      8  C7  BZF d   1       5.972   5.005  -4.258  0.00  0.00     0.029 A 
ATOM      9  C7A BZF d   1       5.997   4.986  -2.885  0.00  0.00     0.058 A 
ENDROOT
TORSDOF 0
ENDMDL
