MODEL 1
REMARK minimizedAffinity 4.32862902
REMARK minimizedRMSD -1
REMARK  0 active torsions:
REMARK  status: ('A' for Active; 'I' for Inactive)
ROOT
ATOM      1  O1  BZF d   1       2.518   1.493   4.949  0.00  0.00    -0.204 OA
ATOM      2  C2  BZF d   1       2.841   2.506   4.066  0.00  0.00     0.174 A 
ATOM      3  C3  BZF d   1       2.836   2.053   2.796  0.00  0.00    -0.012 A 
ATOM      4  C3A BZF d   1       2.397   0.694   2.883  0.00  0.00    -0.107 A 
ATOM      5  C4  BZF d   1       2.174  -0.282   1.954  0.00  0.00     0.055 A 
ATOM      6  C5  BZF d   1       1.820  -1.525   2.374  0.00  0.00    -0.016 A 
ATOM      7  C6  BZF d   1       1.686  -1.829   3.713  0.00  0.00     0.022 A 
ATOM      8  C7  BZF d   1       1.892  -0.892   4.671  0.00  0.00     0.029 A 
ATOM      9  C7A BZF d   1       2.217   0.373   4.248  0.00  0.00     0.058 A 
ENDROOT
TORSDOF 0
ENDMDL
