MODEL 1
REMARK minimizedAffinity 2.26035166
REMARK minimizedRMSD -1
REMARK  0 active torsions:
REMARK  status: ('A' for Active; 'I' for Inactive)
ROOT
ATOM      1  O1  BZF d   1       4.200  -4.216  -5.963  0.00  0.00    -0.204 OA
ATOM      2  C2  BZF d   1       2.821  -4.295  -5.970  0.00  0.00     0.174 A 
ATOM      3  C3  BZF d   1       2.271  -3.065  -5.928  0.00  0.00    -0.012 A 
ATOM      4  C3A BZF d   1       3.375  -2.157  -5.986  0.00  0.00    -0.107 A 
ATOM      5  C4  BZF d   1       3.471  -0.794  -5.995  0.00  0.00     0.055 A 
ATOM      6  C5  BZF d   1       4.702  -0.219  -5.984  0.00  0.00    -0.016 A 
ATOM      7  C6  BZF d   1       5.856  -0.974  -5.957  0.00  0.00     0.022 A 
ATOM      8  C7  BZF d   1       5.812  -2.328  -5.952  0.00  0.00     0.029 A 
ATOM      9  C7A BZF d   1       4.570  -2.913  -5.997  0.00  0.00     0.058 A 
ENDROOT
TORSDOF 0
ENDMDL
