MODEL 1
REMARK minimizedAffinity -3.56990457
REMARK minimizedRMSD -1
REMARK  0 active torsions:
REMARK  status: ('A' for Active; 'I' for Inactive)
ROOT
ATOM      1  C   UNL d   1       0.158  -0.399  -0.220  0.00  0.00     0.172 C 
ATOM      2  N   UNL d   1       0.036   0.020   1.156  0.00  0.00    -0.070 N 
ATOM      3  C1  UNL d   1       0.947  -0.224   2.149  0.00  0.00    -0.004 A 
ATOM      4  C2  UNL d   1       0.466   0.338   3.312  0.00  0.00    -0.047 A 
ATOM      5  C3  UNL d   1      -0.779   0.940   3.007  0.00  0.00    -0.047 A 
ATOM      6  C4  UNL d   1      -1.020   0.728   1.667  0.00  0.00    -0.004 A 
ENDROOT
TORSDOF 0
ENDMDL
