MODEL 1
REMARK minimizedAffinity -3.41838598
REMARK minimizedRMSD -1
REMARK  0 active torsions:
REMARK  status: ('A' for Active; 'I' for Inactive)
ROOT
ATOM      1  C   UNL d   1       1.006  -0.120  -3.056  0.00  0.00     0.172 C 
ATOM      2  N   UNL d   1      -0.071  -0.364  -3.986  0.00  0.00    -0.070 N 
ATOM      3  C1  UNL d   1      -0.596   0.553  -4.858  0.00  0.00    -0.004 A 
ATOM      4  C2  UNL d   1      -1.602  -0.067  -5.568  0.00  0.00    -0.047 A 
ATOM      5  C3  UNL d   1      -1.685  -1.402  -5.106  0.00  0.00    -0.047 A 
ATOM      6  C4  UNL d   1      -0.726  -1.559  -4.127  0.00  0.00    -0.004 A 
ENDROOT
TORSDOF 0
ENDMDL
