MODEL 1
REMARK minimizedAffinity -3.75147009
REMARK minimizedRMSD -1
REMARK  0 active torsions:
REMARK  status: ('A' for Active; 'I' for Inactive)
ROOT
ATOM      1  C   UNL d   1       0.542  -0.414  -1.083  0.00  0.00     0.172 C 
ATOM      2  N   UNL d   1       0.152   0.075   0.219  0.00  0.00    -0.070 N 
ATOM      3  C1  UNL d   1      -1.116   0.438   0.589  0.00  0.00    -0.004 A 
ATOM      4  C2  UNL d   1      -1.071   0.846   1.904  0.00  0.00    -0.047 A 
ATOM      5  C3  UNL d   1       0.270   0.726   2.340  0.00  0.00    -0.047 A 
ATOM      6  C4  UNL d   1       1.006   0.247   1.277  0.00  0.00    -0.004 A 
ENDROOT
TORSDOF 0
ENDMDL
