MODEL 1
REMARK minimizedAffinity -3.47506046
REMARK minimizedRMSD -1
REMARK  0 active torsions:
REMARK  status: ('A' for Active; 'I' for Inactive)
ROOT
ATOM      1  C   UNL d   1      -0.485  -0.422  -0.229  0.00  0.00     0.172 C 
ATOM      2  N   UNL d   1      -0.017  -0.201  -1.577  0.00  0.00    -0.070 N 
ATOM      3  C1  UNL d   1      -0.655  -0.605  -2.720  0.00  0.00    -0.004 A 
ATOM      4  C2  UNL d   1       0.110  -0.205  -3.794  0.00  0.00    -0.047 A 
ATOM      5  C3  UNL d   1       1.247   0.462  -3.279  0.00  0.00    -0.047 A 
ATOM      6  C4  UNL d   1       1.143   0.450  -1.905  0.00  0.00    -0.004 A 
ENDROOT
TORSDOF 0
ENDMDL
