MODEL 1
REMARK minimizedAffinity -3.07700062
REMARK minimizedRMSD -1
REMARK  0 active torsions:
REMARK  status: ('A' for Active; 'I' for Inactive)
ROOT
ATOM      1  C   UNL d   1       0.759  -1.145  -0.858  0.00  0.00     0.172 C 
ATOM      2  N   UNL d   1       0.870  -0.551  -2.169  0.00  0.00    -0.070 N 
ATOM      3  C1  UNL d   1       1.720   0.465  -2.516  0.00  0.00    -0.004 A 
ATOM      4  C2  UNL d   1       1.523   0.743  -3.852  0.00  0.00    -0.047 A 
ATOM      5  C3  UNL d   1       0.518  -0.135  -4.323  0.00  0.00    -0.047 A 
ATOM      6  C4  UNL d   1       0.132  -0.926  -3.261  0.00  0.00    -0.004 A 
ENDROOT
TORSDOF 0
ENDMDL
