MODEL 1
REMARK minimizedAffinity -4.04193401
REMARK minimizedRMSD -1
REMARK  0 active torsions:
REMARK  status: ('A' for Active; 'I' for Inactive)
ROOT
ATOM      1  C   UNL d   1       0.140   0.223   0.249  0.00  0.00     0.172 C 
ATOM      2  N   UNL d   1       0.365   0.418   1.662  0.00  0.00    -0.070 N 
ATOM      3  C1  UNL d   1       1.432  -0.061   2.374  0.00  0.00    -0.004 A 
ATOM      4  C2  UNL d   1       1.279   0.340   3.684  0.00  0.00    -0.047 A 
ATOM      5  C3  UNL d   1       0.078   1.084   3.762  0.00  0.00    -0.047 A 
ATOM      6  C4  UNL d   1      -0.468   1.117   2.496  0.00  0.00    -0.004 A 
ENDROOT
TORSDOF 0
ENDMDL
