MODEL 1
REMARK minimizedAffinity -3.63221502
REMARK minimizedRMSD -1
REMARK  0 active torsions:
REMARK  status: ('A' for Active; 'I' for Inactive)
ROOT
ATOM      1  C   UNL d   1       0.275  -0.365  -0.710  0.00  0.00     0.172 C 
ATOM      2  N   UNL d   1      -0.154   0.037   0.609  0.00  0.00    -0.070 N 
ATOM      3  C1  UNL d   1       0.596  -0.045   1.752  0.00  0.00    -0.004 A 
ATOM      4  C2  UNL d   1      -0.168   0.435   2.794  0.00  0.00    -0.047 A 
ATOM      5  C3  UNL d   1      -1.420   0.819   2.258  0.00  0.00    -0.047 A 
ATOM      6  C4  UNL d   1      -1.384   0.561   0.904  0.00  0.00    -0.004 A 
ENDROOT
TORSDOF 0
ENDMDL
