MODEL 1
REMARK minimizedAffinity -2.18473029
REMARK minimizedRMSD -1
REMARK  0 active torsions:
REMARK  status: ('A' for Active; 'I' for Inactive)
ROOT
ATOM      1  C   UNL d   1       2.868   0.796  -3.311  0.00  0.00     0.172 C 
ATOM      2  N   UNL d   1       1.469   0.475  -3.467  0.00  0.00    -0.070 N 
ATOM      3  C1  UNL d   1       0.824  -0.586  -2.890  0.00  0.00    -0.004 A 
ATOM      4  C2  UNL d   1      -0.496  -0.542  -3.284  0.00  0.00    -0.047 A 
ATOM      5  C3  UNL d   1      -0.649   0.584  -4.128  0.00  0.00    -0.047 A 
ATOM      6  C4  UNL d   1       0.583   1.195  -4.224  0.00  0.00    -0.004 A 
ENDROOT
TORSDOF 0
ENDMDL
