MODEL 1
REMARK minimizedAffinity -2.22258306
REMARK minimizedRMSD -1
REMARK  0 active torsions:
REMARK  status: ('A' for Active; 'I' for Inactive)
ROOT
ATOM      1  C   UNL d   1      -0.013  -0.756  -0.000  0.00  0.00     0.172 C 
ATOM      2  N   UNL d   1      -0.188   0.215   1.054  0.00  0.00    -0.070 N 
ATOM      3  C1  UNL d   1       0.545   1.360   1.215  0.00  0.00    -0.004 A 
ATOM      4  C2  UNL d   1       0.070   2.012   2.333  0.00  0.00    -0.047 A 
ATOM      5  C3  UNL d   1      -0.985   1.232   2.861  0.00  0.00    -0.047 A 
ATOM      6  C4  UNL d   1      -1.124   0.125   2.050  0.00  0.00    -0.004 A 
ENDROOT
TORSDOF 0
ENDMDL
