MODEL 1
REMARK minimizedAffinity -2.6028049
REMARK minimizedRMSD -1
REMARK  0 active torsions:
REMARK  status: ('A' for Active; 'I' for Inactive)
ROOT
ATOM      1  C   UNL d   1       0.913   0.264  -0.741  0.00  0.00     0.172 C 
ATOM      2  N   UNL d   1       0.307   0.610   0.523  0.00  0.00    -0.070 N 
ATOM      3  C1  UNL d   1       0.697   1.637   1.341  0.00  0.00    -0.004 A 
ATOM      4  C2  UNL d   1      -0.128   1.635   2.444  0.00  0.00    -0.047 A 
ATOM      5  C3  UNL d   1      -1.045   0.568   2.285  0.00  0.00    -0.047 A 
ATOM      6  C4  UNL d   1      -0.753  -0.049   1.088  0.00  0.00    -0.004 A 
ENDROOT
TORSDOF 0
ENDMDL
