MODEL 1
REMARK minimizedAffinity -0.380515844
REMARK minimizedRMSD -1
REMARK  0 active torsions:
REMARK  status: ('A' for Active; 'I' for Inactive)
ROOT
ATOM      1  C   UNL d   1       1.520  -0.382   1.260  0.00  0.00     0.172 C 
ATOM      2  N   UNL d   1       0.089  -0.186   1.225  0.00  0.00    -0.070 N 
ATOM      3  C1  UNL d   1      -0.676   0.296   2.253  0.00  0.00    -0.004 A 
ATOM      4  C2  UNL d   1      -1.985   0.333   1.824  0.00  0.00    -0.047 A 
ATOM      5  C3  UNL d   1      -2.007  -0.145   0.492  0.00  0.00    -0.047 A 
ATOM      6  C4  UNL d   1      -0.710  -0.459   0.146  0.00  0.00    -0.004 A 
ENDROOT
TORSDOF 0
ENDMDL
