MODEL 1
REMARK minimizedAffinity -2.80940342
REMARK minimizedRMSD -1
REMARK  0 active torsions:
REMARK  status: ('A' for Active; 'I' for Inactive)
ROOT
ATOM      1  C   UNL d   1       0.371  -0.721  -0.589  0.00  0.00     0.172 C 
ATOM      2  N   UNL d   1      -0.126  -0.165   0.648  0.00  0.00    -0.070 N 
ATOM      3  C1  UNL d   1      -1.443  -0.081   1.013  0.00  0.00    -0.004 A 
ATOM      4  C2  UNL d   1      -1.500   0.508   2.257  0.00  0.00    -0.047 A 
ATOM      5  C3  UNL d   1      -0.171   0.788   2.654  0.00  0.00    -0.047 A 
ATOM      6  C4  UNL d   1       0.659   0.361   1.639  0.00  0.00    -0.004 A 
ENDROOT
TORSDOF 0
ENDMDL
