MODEL 1
REMARK minimizedAffinity -1.5011363
REMARK minimizedRMSD -1
REMARK  1 active torsions:
REMARK  status: ('A' for Active; 'I' for Inactive)
REMARK    1  A    between atoms: C1_2  and  C2_3 
ROOT
ATOM      1  C2  UNL d   1       0.052   0.164  -0.310  0.00  0.00    -0.076 A 
ATOM      2  C3  UNL d   1       0.623  -1.111  -0.462  0.00  0.00     0.004 A 
ATOM      3  C4  UNL d   1       1.847  -1.424   0.128  0.00  0.00    -0.003 A 
ATOM      4  C5  UNL d   1       2.519  -0.467   0.880  0.00  0.00     0.000 A 
ATOM      5  C6  UNL d   1       1.959   0.798   1.056  0.00  0.00     0.000 A 
ATOM      6  C7  UNL d   1       0.719   1.125   0.482  0.00  0.00    -0.073 A 
ATOM      7  C8  UNL d   1       0.164   2.506   0.699  0.00  0.00     0.078 C 
ENDROOT
BRANCH   1   8
ATOM      8  C1  UNL d   1      -1.264   0.455  -0.995  0.00  0.00     0.053 C 
ATOM      9  C   UNL d   1      -1.559  -0.518  -2.126  0.00  0.00     0.018 C 
ENDBRANCH   1   8
TORSDOF 1
ENDMDL
