MODEL 1
REMARK minimizedAffinity 3.91702366
REMARK minimizedRMSD -1
REMARK  1 active torsions:
REMARK  status: ('A' for Active; 'I' for Inactive)
REMARK    1  A    between atoms: C1_2  and  C2_3 
ROOT
ATOM      1  C2  UNL d   1      -1.230  -0.001  -1.435  0.00  0.00    -0.076 A 
ATOM      2  C3  UNL d   1      -0.801  -1.200  -2.030  0.00  0.00     0.004 A 
ATOM      3  C4  UNL d   1       0.190  -1.981  -1.438  0.00  0.00    -0.003 A 
ATOM      4  C5  UNL d   1       0.768  -1.575  -0.240  0.00  0.00     0.000 A 
ATOM      5  C6  UNL d   1       0.343  -0.397   0.373  0.00  0.00     0.000 A 
ATOM      6  C7  UNL d   1      -0.667   0.393  -0.203  0.00  0.00    -0.073 A 
ATOM      7  C8  UNL d   1      -1.084   1.657   0.499  0.00  0.00     0.078 C 
ENDROOT
BRANCH   1   8
ATOM      8  C1  UNL d   1      -2.290   0.817  -2.138  0.00  0.00     0.053 C 
ATOM      9  C   UNL d   1      -2.566   0.324  -3.550  0.00  0.00     0.018 C 
ENDBRANCH   1   8
TORSDOF 1
ENDMDL
