MODEL 1
REMARK minimizedAffinity -5.54889488
REMARK minimizedRMSD -1
REMARK  1 active torsions:
REMARK  status: ('A' for Active; 'I' for Inactive)
REMARK    1  A    between atoms: C1_2  and  C2_3 
ROOT
ATOM      1  C2  UNL d   1       0.594  -0.459   0.665  0.00  0.00    -0.076 A 
ATOM      2  C3  UNL d   1       1.332   0.621   0.152  0.00  0.00     0.004 A 
ATOM      3  C4  UNL d   1       2.715   0.685   0.312  0.00  0.00    -0.003 A 
ATOM      4  C5  UNL d   1       3.382  -0.330   0.988  0.00  0.00     0.000 A 
ATOM      5  C6  UNL d   1       2.668  -1.418   1.489  0.00  0.00     0.000 A 
ATOM      6  C7  UNL d   1       1.275  -1.507   1.321  0.00  0.00    -0.073 A 
ATOM      7  C8  UNL d   1       0.555  -2.700   1.887  0.00  0.00     0.078 C 
ENDROOT
BRANCH   1   8
ATOM      8  C1  UNL d   1      -0.908  -0.462   0.485  0.00  0.00     0.053 C 
ATOM      9  C   UNL d   1      -1.353   0.385  -0.697  0.00  0.00     0.018 C 
ENDBRANCH   1   8
TORSDOF 1
ENDMDL
