MODEL 1
REMARK minimizedAffinity -5.74968958
REMARK minimizedRMSD -1
REMARK  1 active torsions:
REMARK  status: ('A' for Active; 'I' for Inactive)
REMARK    1  A    between atoms: C1_2  and  C2_3 
ROOT
ATOM      1  C2  UNL d   1       0.496  -0.736   0.629  0.00  0.00    -0.076 A 
ATOM      2  C3  UNL d   1      -0.500  -1.443   1.324  0.00  0.00     0.004 A 
ATOM      3  C4  UNL d   1      -0.172  -2.515   2.153  0.00  0.00    -0.003 A 
ATOM      4  C5  UNL d   1       1.157  -2.897   2.300  0.00  0.00     0.000 A 
ATOM      5  C6  UNL d   1       2.159  -2.195   1.631  0.00  0.00     0.000 A 
ATOM      6  C7  UNL d   1       1.848  -1.102   0.805  0.00  0.00    -0.073 A 
ATOM      7  C8  UNL d   1       2.968  -0.385   0.103  0.00  0.00     0.078 C 
ENDROOT
BRANCH   1   8
ATOM      8  C1  UNL d   1       0.079   0.401  -0.277  0.00  0.00     0.053 C 
ATOM      9  C   UNL d   1      -0.089   1.712   0.474  0.00  0.00     0.018 C 
ENDBRANCH   1   8
TORSDOF 1
ENDMDL
