MODEL 1
REMARK minimizedAffinity -6.27750635
REMARK minimizedRMSD -1
REMARK  1 active torsions:
REMARK  status: ('A' for Active; 'I' for Inactive)
REMARK    1  A    between atoms: C1_2  and  C2_3 
ROOT
ATOM      1  C2  UNL d   1       0.537  -0.591   0.769  0.00  0.00    -0.076 A 
ATOM      2  C3  UNL d   1       1.273   0.534   0.359  0.00  0.00     0.004 A 
ATOM      3  C4  UNL d   1       2.637   0.636   0.630  0.00  0.00    -0.003 A 
ATOM      4  C5  UNL d   1       3.286  -0.386   1.313  0.00  0.00     0.000 A 
ATOM      5  C6  UNL d   1       2.575  -1.517   1.712  0.00  0.00     0.000 A 
ATOM      6  C7  UNL d   1       1.204  -1.643   1.433  0.00  0.00    -0.073 A 
ATOM      7  C8  UNL d   1       0.485  -2.883   1.891  0.00  0.00     0.078 C 
ENDROOT
BRANCH   1   8
ATOM      8  C1  UNL d   1      -0.945  -0.635   0.472  0.00  0.00     0.053 C 
ATOM      9  C   UNL d   1      -1.304   0.099  -0.811  0.00  0.00     0.018 C 
ENDBRANCH   1   8
TORSDOF 1
ENDMDL
