MODEL 1
REMARK minimizedAffinity -2.41269612
REMARK minimizedRMSD -1
REMARK  1 active torsions:
REMARK  status: ('A' for Active; 'I' for Inactive)
REMARK    1  A    between atoms: C1_2  and  C2_3 
ROOT
ATOM      1  C2  UNL d   1       0.513  -0.579   1.177  0.00  0.00    -0.076 A 
ATOM      2  C3  UNL d   1       1.815  -0.185   1.532  0.00  0.00     0.004 A 
ATOM      3  C4  UNL d   1       2.384   0.972   1.004  0.00  0.00    -0.003 A 
ATOM      4  C5  UNL d   1       1.659   1.755   0.112  0.00  0.00     0.000 A 
ATOM      5  C6  UNL d   1       0.360   1.389  -0.238  0.00  0.00     0.000 A 
ATOM      6  C7  UNL d   1      -0.234   0.234   0.299  0.00  0.00    -0.073 A 
ATOM      7  C8  UNL d   1      -1.636  -0.117  -0.118  0.00  0.00     0.078 C 
ENDROOT
BRANCH   1   8
ATOM      8  C1  UNL d   1      -0.041  -1.859   1.762  0.00  0.00     0.053 C 
ATOM      9  C   UNL d   1       0.984  -2.609   2.599  0.00  0.00     0.018 C 
ENDBRANCH   1   8
TORSDOF 1
ENDMDL
