MODEL 1
REMARK minimizedAffinity -5.91711617
REMARK minimizedRMSD -1
REMARK  1 active torsions:
REMARK  status: ('A' for Active; 'I' for Inactive)
REMARK    1  A    between atoms: C1_2  and  C2_3 
ROOT
ATOM      1  C2  UNL d   1       0.775  -0.753   0.848  0.00  0.00    -0.076 A 
ATOM      2  C3  UNL d   1       2.087  -0.248   0.841  0.00  0.00     0.004 A 
ATOM      3  C4  UNL d   1       3.102  -0.880   1.556  0.00  0.00    -0.003 A 
ATOM      4  C5  UNL d   1       2.823  -2.028   2.289  0.00  0.00     0.000 A 
ATOM      5  C6  UNL d   1       1.531  -2.553   2.293  0.00  0.00     0.000 A 
ATOM      6  C7  UNL d   1       0.499  -1.937   1.564  0.00  0.00    -0.073 A 
ATOM      7  C8  UNL d   1      -0.877  -2.543   1.609  0.00  0.00     0.078 C 
ENDROOT
BRANCH   1   8
ATOM      8  C1  UNL d   1      -0.292  -0.010   0.075  0.00  0.00     0.053 C 
ATOM      9  C   UNL d   1      -0.474   1.419   0.563  0.00  0.00     0.018 C 
ENDBRANCH   1   8
TORSDOF 1
ENDMDL
