MODEL 1
REMARK minimizedAffinity -3.80844474
REMARK minimizedRMSD -1
REMARK  1 active torsions:
REMARK  status: ('A' for Active; 'I' for Inactive)
REMARK    1  A    between atoms: C1_2  and  C2_3 
ROOT
ATOM      1  C2  UNL d   1       1.112   0.578   0.948  0.00  0.00    -0.076 A 
ATOM      2  C3  UNL d   1       2.394   0.748   1.500  0.00  0.00     0.004 A 
ATOM      3  C4  UNL d   1       3.283  -0.321   1.592  0.00  0.00    -0.003 A 
ATOM      4  C5  UNL d   1       2.906  -1.578   1.132  0.00  0.00     0.000 A 
ATOM      5  C6  UNL d   1       1.645  -1.761   0.565  0.00  0.00     0.000 A 
ATOM      6  C7  UNL d   1       0.742  -0.689   0.451  0.00  0.00    -0.073 A 
ATOM      7  C8  UNL d   1      -0.607  -0.945  -0.164  0.00  0.00     0.078 C 
ENDROOT
BRANCH   1   8
ATOM      8  C1  UNL d   1       0.181   1.768   0.900  0.00  0.00     0.053 C 
ATOM      9  C   UNL d   1       0.903   3.059   0.544  0.00  0.00     0.018 C 
ENDBRANCH   1   8
TORSDOF 1
ENDMDL
