MODEL 1
REMARK minimizedAffinity -5.76253128
REMARK minimizedRMSD -1
REMARK  1 active torsions:
REMARK  status: ('A' for Active; 'I' for Inactive)
REMARK    1  A    between atoms: C1_2  and  C2_3 
ROOT
ATOM      1  C2  UNL d   1      -0.119  -0.132   0.450  0.00  0.00    -0.076 A 
ATOM      2  C3  UNL d   1       0.114   1.247   0.306  0.00  0.00     0.004 A 
ATOM      3  C4  UNL d   1       1.369   1.794   0.568  0.00  0.00    -0.003 A 
ATOM      4  C5  UNL d   1       2.412   0.971   0.977  0.00  0.00     0.000 A 
ATOM      5  C6  UNL d   1       2.204  -0.402   1.108  0.00  0.00     0.000 A 
ATOM      6  C7  UNL d   1       0.949  -0.972   0.832  0.00  0.00    -0.073 A 
ATOM      7  C8  UNL d   1       0.779  -2.457   0.996  0.00  0.00     0.078 C 
ENDROOT
BRANCH   1   8
ATOM      8  C1  UNL d   1      -1.507  -0.664   0.178  0.00  0.00     0.053 C 
ATOM      9  C   UNL d   1      -2.238   0.133  -0.891  0.00  0.00     0.018 C 
ENDBRANCH   1   8
TORSDOF 1
ENDMDL
