MODEL 1
REMARK minimizedAffinity -3.12975073
REMARK minimizedRMSD -1
REMARK  1 active torsions:
REMARK  status: ('A' for Active; 'I' for Inactive)
REMARK    1  A    between atoms: C1_2  and  C2_3 
ROOT
ATOM      1  C2  UNL d   1      -0.400  -0.324   0.130  0.00  0.00    -0.076 A 
ATOM      2  C3  UNL d   1       0.242  -1.573   0.081  0.00  0.00     0.004 A 
ATOM      3  C4  UNL d   1       1.609  -1.688   0.326  0.00  0.00    -0.003 A 
ATOM      4  C5  UNL d   1       2.358  -0.555   0.624  0.00  0.00     0.000 A 
ATOM      5  C6  UNL d   1       1.734   0.691   0.695  0.00  0.00     0.000 A 
ATOM      6  C7  UNL d   1       0.354   0.821   0.467  0.00  0.00    -0.073 A 
ATOM      7  C8  UNL d   1      -0.265   2.190   0.550  0.00  0.00     0.078 C 
ENDROOT
BRANCH   1   8
ATOM      8  C1  UNL d   1      -1.880  -0.257  -0.170  0.00  0.00     0.053 C 
ATOM      9  C   UNL d   1      -2.170  -0.228  -1.663  0.00  0.00     0.018 C 
ENDBRANCH   1   8
TORSDOF 1
ENDMDL
