MODEL 1
REMARK minimizedAffinity 21.7991562
REMARK minimizedRMSD -1
REMARK  0 active torsions:
REMARK  status: ('A' for Active; 'I' for Inactive)
ROOT
ATOM      1  C   UNL d   1       1.921  -0.603   2.629  0.00  0.00     0.124 A 
ATOM      2  C1  UNL d   1       3.104  -0.397   1.933  0.00  0.00     0.062 A 
ATOM      3  C2  UNL d   1       4.269  -1.048   2.325  0.00  0.00     0.162 A 
ATOM      4  C3  UNL d   1       4.258  -1.913   3.419  0.00  0.00    -0.034 A 
ATOM      5  C4  UNL d   1       3.065  -2.115   4.115  0.00  0.00     0.162 A 
ATOM      6  C5  UNL d   1       1.903  -1.461   3.719  0.00  0.00     0.062 A 
ATOM      7  F   UNL d   1       0.761  -1.662   4.393  0.00  0.00    -0.097 F 
ATOM      8  F1  UNL d   1       3.019  -2.940   5.172  0.00  0.00    -0.096 F 
ATOM      9  I   UNL d   1       6.000  -2.889   4.009  0.00  0.00    -0.060 I 
ATOM     10  F2  UNL d   1       5.398  -0.830   1.633  0.00  0.00    -0.096 F 
ATOM     11  F3  UNL d   1       3.124   0.433   0.880  0.00  0.00    -0.097 F 
ATOM     12  F4  UNL d   1       0.801   0.026   2.250  0.00  0.00    -0.092 F 
ENDROOT
TORSDOF 0
ENDMDL
