MODEL 1
REMARK minimizedAffinity 10.3486109
REMARK minimizedRMSD -1
REMARK  0 active torsions:
REMARK  status: ('A' for Active; 'I' for Inactive)
ROOT
ATOM      1  C   UNL d   1       2.379  -1.247   2.875  0.00  0.00     0.124 A 
ATOM      2  C1  UNL d   1       2.094  -1.937   4.045  0.00  0.00     0.062 A 
ATOM      3  C2  UNL d   1       3.126  -2.364   4.875  0.00  0.00     0.162 A 
ATOM      4  C3  UNL d   1       4.454  -2.102   4.539  0.00  0.00    -0.034 A 
ATOM      5  C4  UNL d   1       4.733  -1.409   3.360  0.00  0.00     0.162 A 
ATOM      6  C5  UNL d   1       3.698  -0.984   2.533  0.00  0.00     0.062 A 
ATOM      7  F   UNL d   1       3.976  -0.317   1.403  0.00  0.00    -0.097 F 
ATOM      8  F1  UNL d   1       5.999  -1.140   3.007  0.00  0.00    -0.096 F 
ATOM      9  I   UNL d   1       6.000  -2.740   5.778  0.00  0.00    -0.060 I 
ATOM     10  F2  UNL d   1       2.820  -3.029   5.999  0.00  0.00    -0.096 F 
ATOM     11  F3  UNL d   1       0.820  -2.193   4.376  0.00  0.00    -0.097 F 
ATOM     12  F4  UNL d   1       1.384  -0.838   2.077  0.00  0.00    -0.092 F 
ENDROOT
TORSDOF 0
ENDMDL
