MODEL 1
REMARK minimizedAffinity 9.12993813
REMARK minimizedRMSD -1
REMARK  0 active torsions:
REMARK  status: ('A' for Active; 'I' for Inactive)
ROOT
ATOM      1  C   UNL d   1       3.201   2.610   2.720  0.00  0.00     0.124 A 
ATOM      2  C1  UNL d   1       2.951   1.341   3.226  0.00  0.00     0.062 A 
ATOM      3  C2  UNL d   1       2.192   0.433   2.493  0.00  0.00     0.162 A 
ATOM      4  C3  UNL d   1       1.678   0.790   1.246  0.00  0.00    -0.034 A 
ATOM      5  C4  UNL d   1       1.933   2.067   0.745  0.00  0.00     0.162 A 
ATOM      6  C5  UNL d   1       2.692   2.972   1.481  0.00  0.00     0.062 A 
ATOM      7  F   UNL d   1       2.933   4.197   0.991  0.00  0.00    -0.097 F 
ATOM      8  F1  UNL d   1       1.454   2.443  -0.450  0.00  0.00    -0.096 F 
ATOM      9  I   UNL d   1       0.543  -0.565   0.148  0.00  0.00    -0.060 I 
ATOM     10  F2  UNL d   1       1.967  -0.786   3.006  0.00  0.00    -0.096 F 
ATOM     11  F3  UNL d   1       3.441   0.990   4.423  0.00  0.00    -0.097 F 
ATOM     12  F4  UNL d   1       3.931   3.482   3.428  0.00  0.00    -0.092 F 
ENDROOT
TORSDOF 0
ENDMDL
