MODEL 1
REMARK minimizedAffinity 25.5600433
REMARK minimizedRMSD -1
REMARK  0 active torsions:
REMARK  status: ('A' for Active; 'I' for Inactive)
ROOT
ATOM      1  C   UNL d   1       3.144  -0.336   2.142  0.00  0.00     0.124 A 
ATOM      2  C1  UNL d   1       1.971  -0.411   2.880  0.00  0.00     0.062 A 
ATOM      3  C2  UNL d   1       1.690  -1.547   3.633  0.00  0.00     0.162 A 
ATOM      4  C3  UNL d   1       2.583  -2.618   3.652  0.00  0.00    -0.034 A 
ATOM      5  C4  UNL d   1       3.761  -2.535   2.906  0.00  0.00     0.162 A 
ATOM      6  C5  UNL d   1       4.038  -1.397   2.156  0.00  0.00     0.062 A 
ATOM      7  F   UNL d   1       5.171  -1.327   1.443  0.00  0.00    -0.097 F 
ATOM      8  F1  UNL d   1       4.642  -3.546   2.903  0.00  0.00    -0.096 F 
ATOM      9  I   UNL d   1       2.166  -4.319   4.777  0.00  0.00    -0.060 I 
ATOM     10  F2  UNL d   1       0.549  -1.592   4.336  0.00  0.00    -0.096 F 
ATOM     11  F3  UNL d   1       1.106   0.613   2.867  0.00  0.00    -0.097 F 
ATOM     12  F4  UNL d   1       3.412   0.759   1.417  0.00  0.00    -0.092 F 
ENDROOT
TORSDOF 0
ENDMDL
