MODEL 1
REMARK minimizedAffinity 24.7319775
REMARK minimizedRMSD -1
REMARK  0 active torsions:
REMARK  status: ('A' for Active; 'I' for Inactive)
ROOT
ATOM      1  C   UNL d   1      -0.773   1.054   1.513  0.00  0.00     0.124 A 
ATOM      2  C1  UNL d   1       0.303   1.880   1.808  0.00  0.00     0.062 A 
ATOM      3  C2  UNL d   1       1.593   1.360   1.853  0.00  0.00     0.162 A 
ATOM      4  C3  UNL d   1       1.816   0.006   1.603  0.00  0.00    -0.034 A 
ATOM      5  C4  UNL d   1       0.729  -0.819   1.308  0.00  0.00     0.162 A 
ATOM      6  C5  UNL d   1      -0.559  -0.295   1.264  0.00  0.00     0.062 A 
ATOM      7  F   UNL d   1      -1.597  -1.095   0.979  0.00  0.00    -0.097 F 
ATOM      8  F1  UNL d   1       0.907  -2.125   1.062  0.00  0.00    -0.096 F 
ATOM      9  I   UNL d   1       3.744  -0.775   1.670  0.00  0.00    -0.060 I 
ATOM     10  F2  UNL d   1       2.614   2.182   2.141  0.00  0.00    -0.096 F 
ATOM     11  F3  UNL d   1       0.099   3.183   2.050  0.00  0.00    -0.097 F 
ATOM     12  F4  UNL d   1      -2.013   1.556   1.471  0.00  0.00    -0.092 F 
ENDROOT
TORSDOF 0
ENDMDL
