MODEL 1
REMARK minimizedAffinity 6.88866091
REMARK minimizedRMSD -1
REMARK  0 active torsions:
REMARK  status: ('A' for Active; 'I' for Inactive)
ROOT
ATOM      1  C   UNL d   1       2.717  -2.154   2.065  0.00  0.00     0.124 A 
ATOM      2  C1  UNL d   1       2.744  -3.542   2.067  0.00  0.00     0.062 A 
ATOM      3  C2  UNL d   1       2.185  -4.252   3.126  0.00  0.00     0.162 A 
ATOM      4  C3  UNL d   1       1.592  -3.575   4.192  0.00  0.00    -0.034 A 
ATOM      5  C4  UNL d   1       1.569  -2.179   4.183  0.00  0.00     0.162 A 
ATOM      6  C5  UNL d   1       2.129  -1.474   3.123  0.00  0.00     0.062 A 
ATOM      7  F   UNL d   1       2.102  -0.133   3.123  0.00  0.00    -0.097 F 
ATOM      8  F1  UNL d   1       1.007  -1.496   5.192  0.00  0.00    -0.096 F 
ATOM      9  I   UNL d   1       0.755  -4.632   5.777  0.00  0.00    -0.060 I 
ATOM     10  F2  UNL d   1       2.226  -5.592   3.102  0.00  0.00    -0.096 F 
ATOM     11  F3  UNL d   1       3.312  -4.201   1.047  0.00  0.00    -0.097 F 
ATOM     12  F4  UNL d   1       3.257  -1.474   1.046  0.00  0.00    -0.092 F 
ENDROOT
TORSDOF 0
ENDMDL
