MODEL 1
REMARK minimizedAffinity 19.1243095
REMARK minimizedRMSD -1
REMARK  0 active torsions:
REMARK  status: ('A' for Active; 'I' for Inactive)
ROOT
ATOM      1  C   UNL d   1       2.391   1.859   3.972  0.00  0.00     0.124 A 
ATOM      2  C1  UNL d   1       2.893   1.605   2.703  0.00  0.00     0.062 A 
ATOM      3  C2  UNL d   1       2.865   0.313   2.185  0.00  0.00     0.162 A 
ATOM      4  C3  UNL d   1       2.332  -0.735   2.936  0.00  0.00    -0.034 A 
ATOM      5  C4  UNL d   1       1.830  -0.471   4.212  0.00  0.00     0.162 A 
ATOM      6  C5  UNL d   1       1.860   0.822   4.725  0.00  0.00     0.062 A 
ATOM      7  F   UNL d   1       1.375   1.066   5.951  0.00  0.00    -0.097 F 
ATOM      8  F1  UNL d   1       1.310  -1.455   4.961  0.00  0.00    -0.096 F 
ATOM      9  I   UNL d   1       2.288  -2.668   2.166  0.00  0.00    -0.060 I 
ATOM     10  F2  UNL d   1       3.357   0.096   0.956  0.00  0.00    -0.096 F 
ATOM     11  F3  UNL d   1       3.407   2.605   1.973  0.00  0.00    -0.097 F 
ATOM     12  F4  UNL d   1       2.420   3.103   4.467  0.00  0.00    -0.092 F 
ENDROOT
TORSDOF 0
ENDMDL
