MODEL 1
REMARK minimizedAffinity 14.9421043
REMARK minimizedRMSD -1
REMARK  0 active torsions:
REMARK  status: ('A' for Active; 'I' for Inactive)
ROOT
ATOM      1  C   UNL d   1       2.849  -2.927   3.574  0.00  0.00     0.124 A 
ATOM      2  C1  UNL d   1       2.401  -1.657   3.239  0.00  0.00     0.062 A 
ATOM      3  C2  UNL d   1       2.010  -1.375   1.933  0.00  0.00     0.162 A 
ATOM      4  C3  UNL d   1       2.063  -2.365   0.953  0.00  0.00    -0.034 A 
ATOM      5  C4  UNL d   1       2.516  -3.640   1.297  0.00  0.00     0.162 A 
ATOM      6  C5  UNL d   1       2.906  -3.917   2.603  0.00  0.00     0.062 A 
ATOM      7  F   UNL d   1       3.339  -5.145   2.925  0.00  0.00    -0.097 F 
ATOM      8  F1  UNL d   1       2.581  -4.616   0.379  0.00  0.00    -0.096 F 
ATOM      9  I   UNL d   1       1.479  -1.947  -1.001  0.00  0.00    -0.060 I 
ATOM     10  F2  UNL d   1       1.581  -0.139   1.638  0.00  0.00    -0.096 F 
ATOM     11  F3  UNL d   1       2.346  -0.699   4.175  0.00  0.00    -0.097 F 
ATOM     12  F4  UNL d   1       3.227  -3.196   4.830  0.00  0.00    -0.092 F 
ENDROOT
TORSDOF 0
ENDMDL
