MODEL 1
REMARK minimizedAffinity -4.2811017
REMARK minimizedRMSD -1
REMARK  0 active torsions:
REMARK  status: ('A' for Active; 'I' for Inactive)
ROOT
ATOM      1  C   UNL d   1      -0.391   3.766   0.374  0.00  0.00     0.020 A 
ATOM      2  C1  UNL d   1      -1.322   2.896   0.939  0.00  0.00     0.020 A 
ATOM      3  C2  UNL d   1      -1.038   1.531   1.028  0.00  0.00     0.034 A 
ATOM      4  C3  UNL d   1       0.180   1.033   0.552  0.00  0.00     0.017 A 
ATOM      5  C4  UNL d   1       1.114   1.908  -0.014  0.00  0.00     0.017 A 
ATOM      6  C5  UNL d   1       0.825   3.273  -0.102  0.00  0.00     0.034 A 
ATOM      7 Cl   UNL d   1       2.639   1.367  -0.623  0.00  0.00    -0.070 Cl
ATOM      8 Cl1  UNL d   1       0.465  -0.665   0.696  0.00  0.00    -0.070 Cl
ENDROOT
TORSDOF 0
ENDMDL
