MODEL 1
REMARK minimizedAffinity -3.46897244
REMARK minimizedRMSD -1
REMARK  0 active torsions:
REMARK  status: ('A' for Active; 'I' for Inactive)
ROOT
ATOM      1  C   UNL d   1       0.002   2.951   0.612  0.00  0.00     0.020 A 
ATOM      2  C1  UNL d   1      -0.971   2.689  -0.352  0.00  0.00     0.020 A 
ATOM      3  C2  UNL d   1      -1.088   1.409  -0.896  0.00  0.00     0.034 A 
ATOM      4  C3  UNL d   1      -0.232   0.384  -0.477  0.00  0.00     0.017 A 
ATOM      5  C4  UNL d   1       0.744   0.648   0.491  0.00  0.00     0.017 A 
ATOM      6  C5  UNL d   1       0.857   1.932   1.033  0.00  0.00     0.034 A 
ATOM      7 Cl   UNL d   1       1.837  -0.565   1.059  0.00  0.00    -0.070 Cl
ATOM      8 Cl1  UNL d   1      -0.434  -1.175  -1.192  0.00  0.00    -0.070 Cl
ENDROOT
TORSDOF 0
ENDMDL
