MODEL 1
REMARK minimizedAffinity -3.94029498
REMARK minimizedRMSD -1
REMARK  0 active torsions:
REMARK  status: ('A' for Active; 'I' for Inactive)
ROOT
ATOM      1  C   UNL d   1       1.434   2.817   0.395  0.00  0.00     0.020 A 
ATOM      2  C1  UNL d   1       0.257   3.501   0.699  0.00  0.00     0.020 A 
ATOM      3  C2  UNL d   1      -0.960   2.817   0.725  0.00  0.00     0.034 A 
ATOM      4  C3  UNL d   1      -1.004   1.446   0.447  0.00  0.00     0.017 A 
ATOM      5  C4  UNL d   1       0.178   0.761   0.142  0.00  0.00     0.017 A 
ATOM      6  C5  UNL d   1       1.394   1.450   0.117  0.00  0.00     0.034 A 
ATOM      7 Cl   UNL d   1       0.203  -0.930  -0.213  0.00  0.00    -0.070 Cl
ATOM      8 Cl1  UNL d   1      -2.544   0.664   0.497  0.00  0.00    -0.070 Cl
ENDROOT
TORSDOF 0
ENDMDL
