MODEL 1
REMARK minimizedAffinity -3.20018625
REMARK minimizedRMSD -1
REMARK  0 active torsions:
REMARK  status: ('A' for Active; 'I' for Inactive)
ROOT
ATOM      1  C   UNL d   1       1.365  -0.319  -0.279  0.00  0.00     0.020 A 
ATOM      2  C1  UNL d   1       0.394  -1.319  -0.251  0.00  0.00     0.020 A 
ATOM      3  C2  UNL d   1      -0.861  -1.059   0.304  0.00  0.00     0.034 A 
ATOM      4  C3  UNL d   1      -1.148   0.205   0.833  0.00  0.00     0.017 A 
ATOM      5  C4  UNL d   1      -0.173   1.208   0.804  0.00  0.00     0.017 A 
ATOM      6  C5  UNL d   1       1.082   0.942   0.247  0.00  0.00     0.034 A 
ATOM      7 Cl   UNL d   1      -0.453   2.792   1.437  0.00  0.00    -0.070 Cl
ATOM      8 Cl1  UNL d   1      -2.721   0.457   1.502  0.00  0.00    -0.070 Cl
ENDROOT
TORSDOF 0
ENDMDL
