MODEL 1
REMARK minimizedAffinity -0.863565445
REMARK minimizedRMSD -1
REMARK  0 active torsions:
REMARK  status: ('A' for Active; 'I' for Inactive)
ROOT
ATOM      1  C   UNL d   1       0.217   3.008   0.011  0.00  0.00     0.020 A 
ATOM      2  C1  UNL d   1      -0.591   3.036   1.147  0.00  0.00     0.020 A 
ATOM      3  C2  UNL d   1      -1.141   1.852   1.642  0.00  0.00     0.034 A 
ATOM      4  C3  UNL d   1      -0.883   0.635   1.001  0.00  0.00     0.017 A 
ATOM      5  C4  UNL d   1      -0.073   0.607  -0.139  0.00  0.00     0.017 A 
ATOM      6  C5  UNL d   1       0.475   1.796  -0.631  0.00  0.00     0.034 A 
ATOM      7 Cl   UNL d   1       0.290  -0.856  -0.984  0.00  0.00    -0.070 Cl
ATOM      8 Cl1  UNL d   1      -1.596  -0.791   1.669  0.00  0.00    -0.070 Cl
ENDROOT
TORSDOF 0
ENDMDL
