MODEL 1
REMARK minimizedAffinity -3.09045649
REMARK minimizedRMSD -1
REMARK  0 active torsions:
REMARK  status: ('A' for Active; 'I' for Inactive)
ROOT
ATOM      1  C   UNL d   1       0.395   2.434  -0.627  0.00  0.00     0.020 A 
ATOM      2  C1  UNL d   1      -0.662   2.976   0.103  0.00  0.00     0.020 A 
ATOM      3  C2  UNL d   1      -1.553   2.134   0.773  0.00  0.00     0.034 A 
ATOM      4  C3  UNL d   1      -1.388   0.746   0.714  0.00  0.00     0.017 A 
ATOM      5  C4  UNL d   1      -0.327   0.202  -0.019  0.00  0.00     0.017 A 
ATOM      6  C5  UNL d   1       0.562   1.050  -0.688  0.00  0.00     0.034 A 
ATOM      7 Cl   UNL d   1      -0.059  -1.501  -0.138  0.00  0.00    -0.070 Cl
ATOM      8 Cl1  UNL d   1      -2.527  -0.235   1.566  0.00  0.00    -0.070 Cl
ENDROOT
TORSDOF 0
ENDMDL
