MODEL 1
REMARK minimizedAffinity -3.93776536
REMARK minimizedRMSD -1
REMARK  0 active torsions:
REMARK  status: ('A' for Active; 'I' for Inactive)
ROOT
ATOM      1  C   UNL d   1      -1.198   1.833   0.872  0.00  0.00     0.020 A 
ATOM      2  C1  UNL d   1      -0.296   2.897   0.868  0.00  0.00     0.020 A 
ATOM      3  C2  UNL d   1       1.078   2.648   0.874  0.00  0.00     0.034 A 
ATOM      4  C3  UNL d   1       1.555   1.332   0.884  0.00  0.00     0.017 A 
ATOM      5  C4  UNL d   1       0.649   0.265   0.888  0.00  0.00     0.017 A 
ATOM      6  C5  UNL d   1      -0.726   0.520   0.882  0.00  0.00     0.034 A 
ATOM      7 Cl   UNL d   1       1.161  -1.386   0.901  0.00  0.00    -0.070 Cl
ATOM      8 Cl1  UNL d   1       3.266   1.097   0.890  0.00  0.00    -0.070 Cl
ENDROOT
TORSDOF 0
ENDMDL
