MODEL 1
REMARK minimizedAffinity -3.49481297
REMARK minimizedRMSD -1
REMARK  0 active torsions:
REMARK  status: ('A' for Active; 'I' for Inactive)
ROOT
ATOM      1  C   UNL d   1       0.465   2.187  -0.506  0.00  0.00     0.020 A 
ATOM      2  C1  UNL d   1      -0.520   2.853   0.222  0.00  0.00     0.020 A 
ATOM      3  C2  UNL d   1      -1.568   2.133   0.799  0.00  0.00     0.034 A 
ATOM      4  C3  UNL d   1      -1.634   0.743   0.648  0.00  0.00     0.017 A 
ATOM      5  C4  UNL d   1      -0.645   0.076  -0.083  0.00  0.00     0.017 A 
ATOM      6  C5  UNL d   1       0.403   0.801  -0.658  0.00  0.00     0.034 A 
ATOM      7 Cl   UNL d   1      -0.659  -1.637  -0.312  0.00  0.00    -0.070 Cl
ATOM      8 Cl1  UNL d   1      -2.959  -0.083   1.389  0.00  0.00    -0.070 Cl
ENDROOT
TORSDOF 0
ENDMDL
