MODEL 1
REMARK minimizedAffinity -3.78447366
REMARK minimizedRMSD -1
REMARK  0 active torsions:
REMARK  status: ('A' for Active; 'I' for Inactive)
ROOT
ATOM      1  C   UNL d   1       0.293  -0.637  -0.125  0.00  0.00     0.020 A 
ATOM      2  C1  UNL d   1      -0.789  -1.019   0.667  0.00  0.00     0.020 A 
ATOM      3  C2  UNL d   1      -1.681  -0.055   1.143  0.00  0.00     0.034 A 
ATOM      4  C3  UNL d   1      -1.493   1.295   0.826  0.00  0.00     0.017 A 
ATOM      5  C4  UNL d   1      -0.407   1.678   0.030  0.00  0.00     0.017 A 
ATOM      6  C5  UNL d   1       0.483   0.709  -0.443  0.00  0.00     0.034 A 
ATOM      7 Cl   UNL d   1      -0.110   3.324  -0.402  0.00  0.00    -0.070 Cl
ATOM      8 Cl1  UNL d   1      -2.636   2.432   1.448  0.00  0.00    -0.070 Cl
ENDROOT
TORSDOF 0
ENDMDL
