MODEL 1
REMARK minimizedAffinity -2.04633331
REMARK minimizedRMSD -1
REMARK  0 active torsions:
REMARK  status: ('A' for Active; 'I' for Inactive)
ROOT
ATOM      1  C   UNL d   1       0.007   0.087  -0.373  0.00  0.00     0.020 A 
ATOM      2  C1  UNL d   1      -0.979  -0.285   0.540  0.00  0.00     0.020 A 
ATOM      3  C2  UNL d   1      -1.506   0.660   1.423  0.00  0.00     0.034 A 
ATOM      4  C3  UNL d   1      -1.047   1.982   1.395  0.00  0.00     0.017 A 
ATOM      5  C4  UNL d   1      -0.058   2.355   0.478  0.00  0.00     0.017 A 
ATOM      6  C5  UNL d   1       0.467   1.405  -0.404  0.00  0.00     0.034 A 
ATOM      7 Cl   UNL d   1       0.558   3.967   0.384  0.00  0.00    -0.070 Cl
ATOM      8 Cl1  UNL d   1      -1.744   3.098   2.515  0.00  0.00    -0.070 Cl
ENDROOT
TORSDOF 0
ENDMDL
