MODEL 1
REMARK minimizedAffinity -3.65310836
REMARK minimizedRMSD -1
REMARK  0 active torsions:
REMARK  status: ('A' for Active; 'I' for Inactive)
ROOT
ATOM      1  C   UNL d   1       1.834  -0.032  -0.214  0.00  0.00     0.020 A 
ATOM      2  C1  UNL d   1       0.950  -1.053   0.132  0.00  0.00     0.020 A 
ATOM      3  C2  UNL d   1      -0.374  -0.751   0.458  0.00  0.00     0.034 A 
ATOM      4  C3  UNL d   1      -0.818   0.576   0.438  0.00  0.00     0.017 A 
ATOM      5  C4  UNL d   1       0.070   1.601   0.091  0.00  0.00     0.017 A 
ATOM      6  C5  UNL d   1       1.394   1.293  -0.234  0.00  0.00     0.034 A 
ATOM      7 Cl   UNL d   1      -0.405   3.262   0.045  0.00  0.00    -0.070 Cl
ATOM      8 Cl1  UNL d   1      -2.468   0.877   0.852  0.00  0.00    -0.070 Cl
ENDROOT
TORSDOF 0
ENDMDL
