MODEL 1
REMARK minimizedAffinity -4.46605349
REMARK minimizedRMSD -1
REMARK  0 active torsions:
REMARK  status: ('A' for Active; 'I' for Inactive)
ROOT
ATOM      1  C   UNL d   1       0.478   2.822   0.218  0.00  0.00     0.020 A 
ATOM      2  C1  UNL d   1       1.453   1.951  -0.267  0.00  0.00     0.020 A 
ATOM      3  C2  UNL d   1       1.202   0.578  -0.315  0.00  0.00     0.034 A 
ATOM      4  C3  UNL d   1      -0.028   0.072   0.123  0.00  0.00     0.017 A 
ATOM      5  C4  UNL d   1      -1.005   0.947   0.610  0.00  0.00     0.017 A 
ATOM      6  C5  UNL d   1      -0.748   2.321   0.655  0.00  0.00     0.034 A 
ATOM      7 Cl   UNL d   1      -2.546   0.397   1.168  0.00  0.00    -0.070 Cl
ATOM      8 Cl1  UNL d   1      -0.270  -1.637   0.036  0.00  0.00    -0.070 Cl
ENDROOT
TORSDOF 0
ENDMDL
