MODEL 1
REMARK minimizedAffinity -1.76092255
REMARK minimizedRMSD -1
REMARK  0 active torsions:
REMARK  status: ('A' for Active; 'I' for Inactive)
ROOT
ATOM      1  C   UNL d   1       0.274   2.598  -1.010  0.00  0.00     0.020 A 
ATOM      2  C1  UNL d   1      -0.395   3.229   0.038  0.00  0.00     0.020 A 
ATOM      3  C2  UNL d   1      -1.072   2.467   0.993  0.00  0.00     0.034 A 
ATOM      4  C3  UNL d   1      -1.080   1.070   0.903  0.00  0.00     0.017 A 
ATOM      5  C4  UNL d   1      -0.407   0.438  -0.149  0.00  0.00     0.017 A 
ATOM      6  C5  UNL d   1       0.268   1.206  -1.103  0.00  0.00     0.034 A 
ATOM      7 Cl   UNL d   1      -0.373  -1.281  -0.327  0.00  0.00    -0.070 Cl
ATOM      8 Cl1  UNL d   1      -1.936   0.192   2.120  0.00  0.00    -0.070 Cl
ENDROOT
TORSDOF 0
ENDMDL
