MODEL 1
REMARK minimizedAffinity -1.81355262
REMARK minimizedRMSD -1
REMARK  0 active torsions:
REMARK  status: ('A' for Active; 'I' for Inactive)
ROOT
ATOM      1  C   UNL d   1       1.065  -0.485  -0.194  0.00  0.00     0.020 A 
ATOM      2  C1  UNL d   1      -0.054  -1.287   0.024  0.00  0.00     0.020 A 
ATOM      3  C2  UNL d   1      -1.298  -0.700   0.266  0.00  0.00     0.034 A 
ATOM      4  C3  UNL d   1      -1.425   0.693   0.291  0.00  0.00     0.017 A 
ATOM      5  C4  UNL d   1      -0.301   1.498   0.073  0.00  0.00     0.017 A 
ATOM      6  C5  UNL d   1       0.942   0.905  -0.170  0.00  0.00     0.034 A 
ATOM      7 Cl   UNL d   1      -0.380   3.225   0.088  0.00  0.00    -0.070 Cl
ATOM      8 Cl1  UNL d   1      -2.994   1.351   0.597  0.00  0.00    -0.070 Cl
ENDROOT
TORSDOF 0
ENDMDL
