MODEL 1
REMARK minimizedAffinity -3.29491329
REMARK minimizedRMSD -1
REMARK  0 active torsions:
REMARK  status: ('A' for Active; 'I' for Inactive)
ROOT
ATOM      1  C   UNL d   1      -1.428  -0.311   0.415  0.00  0.00     0.020 A 
ATOM      2  C1  UNL d   1      -0.357  -1.204   0.408  0.00  0.00     0.020 A 
ATOM      3  C2  UNL d   1       0.941  -0.736   0.189  0.00  0.00     0.034 A 
ATOM      4  C3  UNL d   1       1.171   0.629  -0.023  0.00  0.00     0.017 A 
ATOM      5  C4  UNL d   1       0.095   1.524  -0.015  0.00  0.00     0.017 A 
ATOM      6  C5  UNL d   1      -1.202   1.050   0.205  0.00  0.00     0.034 A 
ATOM      7 Cl   UNL d   1       0.300   3.221  -0.269  0.00  0.00    -0.070 Cl
ATOM      8 Cl1  UNL d   1       2.801   1.137  -0.287  0.00  0.00    -0.070 Cl
ENDROOT
TORSDOF 0
ENDMDL
