MODEL 1
REMARK minimizedAffinity 3.46583724
REMARK minimizedRMSD -1
REMARK  0 active torsions:
REMARK  status: ('A' for Active; 'I' for Inactive)
ROOT
ATOM      1  C2' OXE d   1       2.938   5.263  -1.900  0.00  0.00     0.078 C 
ATOM      2  C1' OXE d   1       5.634   6.000  -1.639  0.00  0.00     0.078 C 
ATOM      3  C1  OXE d   1       5.131   5.649  -3.017  0.00  0.00    -0.078 A 
ATOM      4  C2  OXE d   1       3.822   5.244  -3.128  0.00  0.00    -0.078 A 
ATOM      5  C3  OXE d   1       3.292   4.962  -4.384  0.00  0.00     0.003 A 
ATOM      6  C4  OXE d   1       4.119   4.937  -5.513  0.00  0.00    -0.002 A 
ATOM      7  C5  OXE d   1       5.465   5.307  -5.416  0.00  0.00    -0.002 A 
ATOM      8  C6  OXE d   1       5.975   5.706  -4.185  0.00  0.00     0.003 A 
ENDROOT
TORSDOF 0
ENDMDL
