MODEL 1
REMARK minimizedAffinity 3.2626698
REMARK minimizedRMSD -1
REMARK  0 active torsions:
REMARK  status: ('A' for Active; 'I' for Inactive)
ROOT
ATOM      1  C2' OXE d   1       4.850   5.902  -1.418  0.00  0.00     0.078 C 
ATOM      2  C1' OXE d   1       2.541   5.999  -3.012  0.00  0.00     0.078 C 
ATOM      3  C1  OXE d   1       3.732   5.242  -3.544  0.00  0.00    -0.078 A 
ATOM      4  C2  OXE d   1       4.873   5.239  -2.778  0.00  0.00    -0.078 A 
ATOM      5  C3  OXE d   1       5.982   4.509  -3.197  0.00  0.00     0.003 A 
ATOM      6  C4  OXE d   1       5.998   3.907  -4.461  0.00  0.00    -0.002 A 
ATOM      7  C5  OXE d   1       4.860   3.931  -5.274  0.00  0.00    -0.002 A 
ATOM      8  C6  OXE d   1       3.707   4.557  -4.813  0.00  0.00     0.003 A 
ENDROOT
TORSDOF 0
ENDMDL
