MODEL 1
REMARK minimizedAffinity -0.624938071
REMARK minimizedRMSD -1
REMARK  0 active torsions:
REMARK  status: ('A' for Active; 'I' for Inactive)
ROOT
ATOM      1  C2' OXE d   1       4.873   4.955  -1.524  0.00  0.00     0.078 C 
ATOM      2  C1' OXE d   1       2.595   4.282  -3.019  0.00  0.00     0.078 C 
ATOM      3  C1  OXE d   1       3.773   4.868  -3.757  0.00  0.00    -0.078 A 
ATOM      4  C2  OXE d   1       4.866   5.237  -3.010  0.00  0.00    -0.078 A 
ATOM      5  C3  OXE d   1       6.000   5.732  -3.648  0.00  0.00     0.003 A 
ATOM      6  C4  OXE d   1       5.981   5.999  -5.022  0.00  0.00    -0.002 A 
ATOM      7  C5  OXE d   1       4.863   5.667  -5.795  0.00  0.00    -0.002 A 
ATOM      8  C6  OXE d   1       3.769   5.063  -5.185  0.00  0.00     0.003 A 
ENDROOT
TORSDOF 0
ENDMDL
