MODEL 1
REMARK minimizedAffinity 9.76982403
REMARK minimizedRMSD -1
REMARK  0 active torsions:
REMARK  status: ('A' for Active; 'I' for Inactive)
ROOT
ATOM      1  C2' OXE d   1       3.691  -3.256  -2.561  0.00  0.00     0.078 C 
ATOM      2  C1' OXE d   1       3.246  -1.546  -4.742  0.00  0.00     0.078 C 
ATOM      3  C1  OXE d   1       2.076  -1.858  -3.843  0.00  0.00    -0.078 A 
ATOM      4  C2  OXE d   1       2.292  -2.733  -2.805  0.00  0.00    -0.078 A 
ATOM      5  C3  OXE d   1       1.261  -3.012  -1.913  0.00  0.00     0.003 A 
ATOM      6  C4  OXE d   1      -0.032  -2.532  -2.151  0.00  0.00    -0.002 A 
ATOM      7  C5  OXE d   1      -0.283  -1.671  -3.225  0.00  0.00    -0.002 A 
ATOM      8  C6  OXE d   1       0.767  -1.291  -4.054  0.00  0.00     0.003 A 
ENDROOT
TORSDOF 0
ENDMDL
