MODEL 1
REMARK minimizedAffinity 4.08413839
REMARK minimizedRMSD -1
REMARK  0 active torsions:
REMARK  status: ('A' for Active; 'I' for Inactive)
ROOT
ATOM      1  C2' OXE d   1       4.919   3.187  -5.164  0.00  0.00     0.078 C 
ATOM      2  C1' OXE d   1       2.977   5.196  -4.899  0.00  0.00     0.078 C 
ATOM      3  C1  OXE d   1       4.033   5.093  -3.827  0.00  0.00    -0.078 A 
ATOM      4  C2  OXE d   1       4.952   4.078  -3.941  0.00  0.00    -0.078 A 
ATOM      5  C3  OXE d   1       5.980   3.971  -3.009  0.00  0.00     0.003 A 
ATOM      6  C4  OXE d   1       5.997   4.793  -1.875  0.00  0.00    -0.002 A 
ATOM      7  C5  OXE d   1       5.048   5.808  -1.720  0.00  0.00    -0.002 A 
ATOM      8  C6  OXE d   1       4.086   5.999  -2.706  0.00  0.00     0.003 A 
ENDROOT
TORSDOF 0
ENDMDL
