MODEL 1
REMARK minimizedAffinity 1.16842985
REMARK minimizedRMSD -1
REMARK  0 active torsions:
REMARK  status: ('A' for Active; 'I' for Inactive)
ROOT
ATOM      1  C2' OXE d   1       3.327   4.873  -0.341  0.00  0.00     0.078 C 
ATOM      2  C1' OXE d   1       5.869   5.998  -0.730  0.00  0.00     0.078 C 
ATOM      3  C1  OXE d   1       5.299   5.149  -1.838  0.00  0.00    -0.078 A 
ATOM      4  C2  OXE d   1       4.074   4.565  -1.621  0.00  0.00    -0.078 A 
ATOM      5  C3  OXE d   1       3.478   3.817  -2.632  0.00  0.00     0.003 A 
ATOM      6  C4  OXE d   1       4.180   3.528  -3.808  0.00  0.00    -0.002 A 
ATOM      7  C5  OXE d   1       5.445   4.081  -4.034  0.00  0.00    -0.002 A 
ATOM      8  C6  OXE d   1       5.999   4.926  -3.079  0.00  0.00     0.003 A 
ENDROOT
TORSDOF 0
ENDMDL
