MODEL 1
REMARK minimizedAffinity 3.08228827
REMARK minimizedRMSD -1
REMARK  0 active torsions:
REMARK  status: ('A' for Active; 'I' for Inactive)
ROOT
ATOM      1  C2' OXE d   1       2.589   4.526  -3.008  0.00  0.00     0.078 C 
ATOM      2  C1' OXE d   1       4.832   5.632  -1.732  0.00  0.00     0.078 C 
ATOM      3  C1  OXE d   1       4.873   5.496  -3.234  0.00  0.00    -0.078 A 
ATOM      4  C2  OXE d   1       3.790   4.911  -3.845  0.00  0.00    -0.078 A 
ATOM      5  C3  OXE d   1       3.753   4.812  -5.233  0.00  0.00     0.003 A 
ATOM      6  C4  OXE d   1       4.871   5.162  -5.999  0.00  0.00    -0.002 A 
ATOM      7  C5  OXE d   1       6.000   5.723  -5.392  0.00  0.00    -0.002 A 
ATOM      8  C6  OXE d   1       6.000   5.936  -4.018  0.00  0.00     0.003 A 
ENDROOT
TORSDOF 0
ENDMDL
