MODEL 1
REMARK minimizedAffinity 8.49152851
REMARK minimizedRMSD -1
REMARK  0 active torsions:
REMARK  status: ('A' for Active; 'I' for Inactive)
ROOT
ATOM      1  C2' OXE d   1       5.996   3.266  -3.646  0.00  0.00     0.078 C 
ATOM      2  C1' OXE d   1       5.997   5.986  -2.952  0.00  0.00     0.078 C 
ATOM      3  C1  OXE d   1       4.662   5.300  -3.110  0.00  0.00    -0.078 A 
ATOM      4  C2  OXE d   1       4.671   3.982  -3.496  0.00  0.00    -0.078 A 
ATOM      5  C3  OXE d   1       3.469   3.287  -3.604  0.00  0.00     0.003 A 
ATOM      6  C4  OXE d   1       2.248   3.959  -3.473  0.00  0.00    -0.002 A 
ATOM      7  C5  OXE d   1       2.217   5.312  -3.119  0.00  0.00    -0.002 A 
ATOM      8  C6  OXE d   1       3.412   5.985  -2.893  0.00  0.00     0.003 A 
ENDROOT
TORSDOF 0
ENDMDL
