MODEL 1
REMARK minimizedAffinity -5.00610256
REMARK minimizedRMSD -1
REMARK  0 active torsions:
REMARK  status: ('A' for Active; 'I' for Inactive)
ROOT
ATOM      1  C2' OXE d   1       2.671   5.384  -4.126  0.00  0.00     0.078 C 
ATOM      2  C1' OXE d   1       5.237   5.561  -3.000  0.00  0.00     0.078 C 
ATOM      3  C1  OXE d   1       4.977   4.452  -3.989  0.00  0.00    -0.078 A 
ATOM      4  C2  OXE d   1       3.706   4.345  -4.500  0.00  0.00    -0.078 A 
ATOM      5  C3  OXE d   1       3.428   3.374  -5.457  0.00  0.00     0.003 A 
ATOM      6  C4  OXE d   1       4.388   2.410  -5.789  0.00  0.00    -0.002 A 
ATOM      7  C5  OXE d   1       5.677   2.477  -5.251  0.00  0.00    -0.002 A 
ATOM      8  C6  OXE d   1       6.000   3.515  -4.383  0.00  0.00     0.003 A 
ENDROOT
TORSDOF 0
ENDMDL
