MODEL 1
REMARK minimizedAffinity -0.397899628
REMARK minimizedRMSD -1
REMARK  0 active torsions:
REMARK  status: ('A' for Active; 'I' for Inactive)
ROOT
ATOM      1  C2' OXE d   1       2.336   4.096  -3.760  0.00  0.00     0.078 C 
ATOM      2  C1' OXE d   1       2.276   4.528  -0.987  0.00  0.00     0.078 C 
ATOM      3  C1  OXE d   1       3.597   4.691  -1.696  0.00  0.00    -0.078 A 
ATOM      4  C2  OXE d   1       3.627   4.432  -3.045  0.00  0.00    -0.078 A 
ATOM      5  C3  OXE d   1       4.808   4.621  -3.757  0.00  0.00     0.003 A 
ATOM      6  C4  OXE d   1       5.999   4.922  -3.087  0.00  0.00    -0.002 A 
ATOM      7  C5  OXE d   1       5.999   5.152  -1.707  0.00  0.00    -0.002 A 
ATOM      8  C6  OXE d   1       4.801   5.082  -1.005  0.00  0.00     0.003 A 
ENDROOT
TORSDOF 0
ENDMDL
