MODEL 1
REMARK minimizedAffinity 18.0662251
REMARK minimizedRMSD -1
REMARK  0 active torsions:
REMARK  status: ('A' for Active; 'I' for Inactive)
ROOT
ATOM      1  C2' OXE d   1       4.828   2.956  -4.152  0.00  0.00     0.078 C 
ATOM      2  C1' OXE d   1       2.593   4.621  -3.816  0.00  0.00     0.078 C 
ATOM      3  C1  OXE d   1       3.779   4.844  -2.911  0.00  0.00    -0.078 A 
ATOM      4  C2  OXE d   1       4.850   3.995  -3.052  0.00  0.00    -0.078 A 
ATOM      5  C3  OXE d   1       5.991   4.192  -2.280  0.00  0.00     0.003 A 
ATOM      6  C4  OXE d   1       6.000   5.148  -1.258  0.00  0.00    -0.002 A 
ATOM      7  C5  OXE d   1       4.904   5.998  -1.072  0.00  0.00    -0.002 A 
ATOM      8  C6  OXE d   1       3.805   5.887  -1.916  0.00  0.00     0.003 A 
ENDROOT
TORSDOF 0
ENDMDL
