MODEL 1
REMARK minimizedAffinity -2.03311896
REMARK minimizedRMSD -1
REMARK  0 active torsions:
REMARK  status: ('A' for Active; 'I' for Inactive)
ROOT
ATOM      1  C2' OXE d   1       3.303  -1.083   5.999  0.00  0.00     0.078 C 
ATOM      2  C1' OXE d   1       4.891  -3.397   5.949  0.00  0.00     0.078 C 
ATOM      3  C1  OXE d   1       4.545  -2.752   4.630  0.00  0.00    -0.078 A 
ATOM      4  C2  OXE d   1       3.729  -1.647   4.661  0.00  0.00    -0.078 A 
ATOM      5  C3  OXE d   1       3.424  -0.982   3.477  0.00  0.00     0.003 A 
ATOM      6  C4  OXE d   1       3.814  -1.517   2.243  0.00  0.00    -0.002 A 
ATOM      7  C5  OXE d   1       4.612  -2.664   2.187  0.00  0.00    -0.002 A 
ATOM      8  C6  OXE d   1       5.021  -3.268   3.370  0.00  0.00     0.003 A 
ENDROOT
TORSDOF 0
ENDMDL
