MODEL 1
REMARK minimizedAffinity 11.9554548
REMARK minimizedRMSD -1
REMARK  0 active torsions:
REMARK  status: ('A' for Active; 'I' for Inactive)
ROOT
ATOM      1  C2' OXE d   1       0.489  -3.724   0.439  0.00  0.00     0.078 C 
ATOM      2  C1' OXE d   1      -1.958  -2.461  -0.105  0.00  0.00     0.078 C 
ATOM      3  C1  OXE d   1      -0.883  -2.398  -1.162  0.00  0.00    -0.078 A 
ATOM      4  C2  OXE d   1       0.327  -2.979  -0.869  0.00  0.00    -0.078 A 
ATOM      5  C3  OXE d   1       1.334  -2.997  -1.829  0.00  0.00     0.003 A 
ATOM      6  C4  OXE d   1       1.179  -2.297  -3.032  0.00  0.00    -0.002 A 
ATOM      7  C5  OXE d   1      -0.032  -1.664  -3.334  0.00  0.00    -0.002 A 
ATOM      8  C6  OXE d   1      -1.085  -1.742  -2.430  0.00  0.00     0.003 A 
ENDROOT
TORSDOF 0
ENDMDL
