MODEL 1
REMARK minimizedAffinity -2.40587068
REMARK minimizedRMSD -1
REMARK  0 active torsions:
REMARK  status: ('A' for Active; 'I' for Inactive)
ROOT
ATOM      1  C2' OXE d   1       4.978   5.964  -1.887  0.00  0.00     0.078 C 
ATOM      2  C1' OXE d   1       2.816   6.000  -3.676  0.00  0.00     0.078 C 
ATOM      3  C1  OXE d   1       3.909   4.988  -3.914  0.00  0.00    -0.078 A 
ATOM      4  C2  OXE d   1       4.986   5.009  -3.060  0.00  0.00    -0.078 A 
ATOM      5  C3  OXE d   1       5.996   4.061  -3.201  0.00  0.00     0.003 A 
ATOM      6  C4  OXE d   1       6.000   3.187  -4.295  0.00  0.00    -0.002 A 
ATOM      7  C5  OXE d   1       4.932   3.176  -5.199  0.00  0.00    -0.002 A 
ATOM      8  C6  OXE d   1       3.861   4.039  -4.999  0.00  0.00     0.003 A 
ENDROOT
TORSDOF 0
ENDMDL
