MODEL 1
REMARK minimizedAffinity 1.20643234
REMARK minimizedRMSD -1
REMARK  0 active torsions:
REMARK  status: ('A' for Active; 'I' for Inactive)
ROOT
ATOM      1  C2' OXE d   1       3.413   4.231  -2.441  0.00  0.00     0.078 C 
ATOM      2  C1' OXE d   1       6.000   5.284  -2.159  0.00  0.00     0.078 C 
ATOM      3  C1  OXE d   1       5.347   5.375  -3.516  0.00  0.00    -0.078 A 
ATOM      4  C2  OXE d   1       4.100   4.815  -3.656  0.00  0.00    -0.078 A 
ATOM      5  C3  OXE d   1       3.430   4.920  -4.872  0.00  0.00     0.003 A 
ATOM      6  C4  OXE d   1       4.077   5.453  -5.994  0.00  0.00    -0.002 A 
ATOM      7  C5  OXE d   1       5.363   5.992  -5.882  0.00  0.00    -0.002 A 
ATOM      8  C6  OXE d   1       5.994   6.000  -4.643  0.00  0.00     0.003 A 
ENDROOT
TORSDOF 0
ENDMDL
