MODEL 1
REMARK minimizedAffinity 2.07135344
REMARK minimizedRMSD -1
REMARK  0 active torsions:
REMARK  status: ('A' for Active; 'I' for Inactive)
ROOT
ATOM      1  C2' OXE d   1       4.945   5.624  -1.930  0.00  0.00     0.078 C 
ATOM      2  C1' OXE d   1       2.762   6.000  -3.655  0.00  0.00     0.078 C 
ATOM      3  C1  OXE d   1       3.874   5.091  -4.115  0.00  0.00    -0.078 A 
ATOM      4  C2  OXE d   1       4.960   4.950  -3.285  0.00  0.00    -0.078 A 
ATOM      5  C3  OXE d   1       5.989   4.080  -3.636  0.00  0.00     0.003 A 
ATOM      6  C4  OXE d   1       6.000   3.468  -4.895  0.00  0.00    -0.002 A 
ATOM      7  C5  OXE d   1       4.922   3.629  -5.773  0.00  0.00    -0.002 A 
ATOM      8  C6  OXE d   1       3.835   4.402  -5.381  0.00  0.00     0.003 A 
ENDROOT
TORSDOF 0
ENDMDL
