MODEL 1
REMARK minimizedAffinity -1.41226757
REMARK minimizedRMSD -1
REMARK  0 active torsions:
REMARK  status: ('A' for Active; 'I' for Inactive)
ROOT
ATOM      1  C2' OXE d   1       2.618   5.931  -3.355  0.00  0.00     0.078 C 
ATOM      2  C1' OXE d   1       4.735   5.998  -1.512  0.00  0.00     0.078 C 
ATOM      3  C1  OXE d   1       4.842   5.040  -2.673  0.00  0.00    -0.078 A 
ATOM      4  C2  OXE d   1       3.781   4.981  -3.543  0.00  0.00    -0.078 A 
ATOM      5  C3  OXE d   1       3.852   4.154  -4.661  0.00  0.00     0.003 A 
ATOM      6  C4  OXE d   1       4.926   3.271  -4.822  0.00  0.00    -0.002 A 
ATOM      7  C5  OXE d   1       5.999   3.287  -3.925  0.00  0.00    -0.002 A 
ATOM      8  C6  OXE d   1       5.992   4.194  -2.871  0.00  0.00     0.003 A 
ENDROOT
TORSDOF 0
ENDMDL
