MODEL 1
REMARK minimizedAffinity -4.197155
REMARK minimizedRMSD -1
REMARK  0 active torsions:
REMARK  status: ('A' for Active; 'I' for Inactive)
ROOT
ATOM      1  C2' OXE d   1       5.942   5.997  -2.021  0.00  0.00     0.078 C 
ATOM      2  C1' OXE d   1       3.575   4.494  -1.883  0.00  0.00     0.078 C 
ATOM      3  C1  OXE d   1       4.211   4.683  -3.238  0.00  0.00    -0.078 A 
ATOM      4  C2  OXE d   1       5.343   5.459  -3.302  0.00  0.00    -0.078 A 
ATOM      5  C3  OXE d   1       6.000   5.620  -4.519  0.00  0.00     0.003 A 
ATOM      6  C4  OXE d   1       5.434   5.128  -5.701  0.00  0.00    -0.002 A 
ATOM      7  C5  OXE d   1       4.260   4.368  -5.663  0.00  0.00    -0.002 A 
ATOM      8  C6  OXE d   1       3.660   4.101  -4.437  0.00  0.00     0.003 A 
ENDROOT
TORSDOF 0
ENDMDL
