MODEL 1
REMARK minimizedAffinity 1.87628531
REMARK minimizedRMSD -1
REMARK  0 active torsions:
REMARK  status: ('A' for Active; 'I' for Inactive)
ROOT
ATOM      1  C1  BNZ d   1       4.859  -5.465   1.066  0.00  0.00     0.000 A 
ATOM      2  C2  BNZ d   1       3.816  -4.976   0.326  0.00  0.00     0.000 A 
ATOM      3  C3  BNZ d   1       3.846  -5.019  -1.040  0.00  0.00     0.000 A 
ATOM      4  C4  BNZ d   1       4.935  -5.512  -1.664  0.00  0.00     0.000 A 
ATOM      5  C5  BNZ d   1       5.999  -6.000  -0.932  0.00  0.00     0.000 A 
ATOM      6  C6  BNZ d   1       5.949  -5.991   0.444  0.00  0.00     0.000 A 
ENDROOT
TORSDOF 0
ENDMDL
