MODEL 1
REMARK minimizedAffinity 5.61258173
REMARK minimizedRMSD -1
REMARK  0 active torsions:
REMARK  status: ('A' for Active; 'I' for Inactive)
ROOT
ATOM      1  C1  BNZ d   1       3.022  -4.187   1.504  0.00  0.00     0.000 A 
ATOM      2  C2  BNZ d   1       3.372  -4.759   0.310  0.00  0.00     0.000 A 
ATOM      3  C3  BNZ d   1       4.680  -4.813  -0.083  0.00  0.00     0.000 A 
ATOM      4  C4  BNZ d   1       5.631  -4.259   0.697  0.00  0.00     0.000 A 
ATOM      5  C5  BNZ d   1       5.293  -3.670   1.899  0.00  0.00     0.000 A 
ATOM      6  C6  BNZ d   1       3.980  -3.652   2.310  0.00  0.00     0.000 A 
ENDROOT
TORSDOF 0
ENDMDL
