MODEL 1
REMARK minimizedAffinity 4.16293478
REMARK minimizedRMSD -1
REMARK  0 active torsions:
REMARK  status: ('A' for Active; 'I' for Inactive)
ROOT
ATOM      1  C1  BNZ d   1       1.546  -0.771   1.243  0.00  0.00     0.000 A 
ATOM      2  C2  BNZ d   1       2.175   0.381   0.850  0.00  0.00     0.000 A 
ATOM      3  C3  BNZ d   1       1.870   0.971  -0.345  0.00  0.00     0.000 A 
ATOM      4  C4  BNZ d   1       0.968   0.389  -1.161  0.00  0.00     0.000 A 
ATOM      5  C5  BNZ d   1       0.333  -0.777  -0.783  0.00  0.00     0.000 A 
ATOM      6  C6  BNZ d   1       0.614  -1.348   0.437  0.00  0.00     0.000 A 
ENDROOT
TORSDOF 0
ENDMDL
