MODEL 1
REMARK minimizedAffinity 4.89127922
REMARK minimizedRMSD -1
REMARK  0 active torsions:
REMARK  status: ('A' for Active; 'I' for Inactive)
ROOT
ATOM      1  C1  BNZ d   1      -3.740  -1.375  -1.972  0.00  0.00     0.000 A 
ATOM      2  C2  BNZ d   1      -3.686  -2.251  -3.023  0.00  0.00     0.000 A 
ATOM      3  C3  BNZ d   1      -4.514  -2.104  -4.101  0.00  0.00     0.000 A 
ATOM      4  C4  BNZ d   1      -5.422  -1.107  -4.108  0.00  0.00     0.000 A 
ATOM      5  C5  BNZ d   1      -5.495  -0.221  -3.051  0.00  0.00     0.000 A 
ATOM      6  C6  BNZ d   1      -4.633  -0.348  -1.986  0.00  0.00     0.000 A 
ENDROOT
TORSDOF 0
ENDMDL
