MODEL 1
REMARK minimizedAffinity 3.68489122
REMARK minimizedRMSD -1
REMARK  0 active torsions:
REMARK  status: ('A' for Active; 'I' for Inactive)
ROOT
ATOM      1  C1  BNZ d   1      -4.709  -2.282  -4.067  0.00  0.00     0.000 A 
ATOM      2  C2  BNZ d   1      -3.807  -2.427  -3.047  0.00  0.00     0.000 A 
ATOM      3  C3  BNZ d   1      -3.654  -1.449  -2.104  0.00  0.00     0.000 A 
ATOM      4  C4  BNZ d   1      -4.372  -0.312  -2.205  0.00  0.00     0.000 A 
ATOM      5  C5  BNZ d   1      -5.279  -0.147  -3.233  0.00  0.00     0.000 A 
ATOM      6  C6  BNZ d   1      -5.459  -1.150  -4.159  0.00  0.00     0.000 A 
ENDROOT
TORSDOF 0
ENDMDL
