MODEL 1
REMARK minimizedAffinity 5.50777578
REMARK minimizedRMSD -1
REMARK  0 active torsions:
REMARK  status: ('A' for Active; 'I' for Inactive)
ROOT
ATOM      1  C1  BNZ d   1       2.130  -2.013   3.021  0.00  0.00     0.000 A 
ATOM      2  C2  BNZ d   1       3.011  -3.029   2.763  0.00  0.00     0.000 A 
ATOM      3  C3  BNZ d   1       2.667  -4.060   1.935  0.00  0.00     0.000 A 
ATOM      4  C4  BNZ d   1       1.430  -4.096   1.398  0.00  0.00     0.000 A 
ATOM      5  C5  BNZ d   1       0.527  -3.084   1.656  0.00  0.00     0.000 A 
ATOM      6  C6  BNZ d   1       0.890  -2.027   2.459  0.00  0.00     0.000 A 
ENDROOT
TORSDOF 0
ENDMDL
