MODEL 1
REMARK minimizedAffinity 6.36094236
REMARK minimizedRMSD -1
REMARK  0 active torsions:
REMARK  status: ('A' for Active; 'I' for Inactive)
ROOT
ATOM      1  C1  BNZ d   1      -3.934  -2.193  -3.125  0.00  0.00     0.000 A 
ATOM      2  C2  BNZ d   1      -4.880  -1.910  -4.074  0.00  0.00     0.000 A 
ATOM      3  C3  BNZ d   1      -5.582  -0.738  -4.035  0.00  0.00     0.000 A 
ATOM      4  C4  BNZ d   1      -5.367   0.131  -3.026  0.00  0.00     0.000 A 
ATOM      5  C5  BNZ d   1      -4.424  -0.144  -2.057  0.00  0.00     0.000 A 
ATOM      6  C6  BNZ d   1      -3.691  -1.307  -2.121  0.00  0.00     0.000 A 
ENDROOT
TORSDOF 0
ENDMDL
