MODEL 1
REMARK minimizedAffinity -1.04611182
REMARK minimizedRMSD -1
REMARK  0 active torsions:
REMARK  status: ('A' for Active; 'I' for Inactive)
ROOT
ATOM      1  C1  BNZ d   1       3.410  -4.140   4.996  0.00  0.00     0.000 A 
ATOM      2  C2  BNZ d   1       4.342  -4.160   6.000  0.00  0.00     0.000 A 
ATOM      3  C3  BNZ d   1       5.356  -5.076   5.995  0.00  0.00     0.000 A 
ATOM      4  C4  BNZ d   1       5.414  -5.995   5.010  0.00  0.00     0.000 A 
ATOM      5  C5  BNZ d   1       4.476  -5.995   3.997  0.00  0.00     0.000 A 
ATOM      6  C6  BNZ d   1       3.479  -5.047   3.984  0.00  0.00     0.000 A 
ENDROOT
TORSDOF 0
ENDMDL
