MODEL 1
REMARK minimizedAffinity -2.69174933
REMARK minimizedRMSD -1
REMARK  0 active torsions:
REMARK  status: ('A' for Active; 'I' for Inactive)
ROOT
ATOM      1  C1  BNZ d   1       4.097  -4.103   6.000  0.00  0.00     0.000 A 
ATOM      2  C2  BNZ d   1       4.868  -5.234   5.999  0.00  0.00     0.000 A 
ATOM      3  C3  BNZ d   1       4.987  -5.999   4.872  0.00  0.00     0.000 A 
ATOM      4  C4  BNZ d   1       4.304  -5.655   3.762  0.00  0.00     0.000 A 
ATOM      5  C5  BNZ d   1       3.515  -4.521   3.749  0.00  0.00     0.000 A 
ATOM      6  C6  BNZ d   1       3.429  -3.732   4.873  0.00  0.00     0.000 A 
ENDROOT
TORSDOF 0
ENDMDL
