MODEL 1
REMARK minimizedAffinity -4.7604928
REMARK minimizedRMSD -1
REMARK  0 active torsions:
REMARK  status: ('A' for Active; 'I' for Inactive)
ROOT
ATOM      1  C   UNL d   1       1.009  -1.283   0.355  0.00  0.00     0.124 A 
ATOM      2  C1  UNL d   1      -0.276  -0.765   0.274  0.00  0.00     0.062 A 
ATOM      3  C2  UNL d   1      -0.473   0.611   0.206  0.00  0.00     0.162 A 
ATOM      4  C3  UNL d   1       0.619   1.480   0.217  0.00  0.00    -0.034 A 
ATOM      5  C4  UNL d   1       1.908   0.951   0.299  0.00  0.00     0.162 A 
ATOM      6  C5  UNL d   1       2.100  -0.425   0.367  0.00  0.00     0.062 A 
ATOM      7  F   UNL d   1       3.342  -0.924   0.444  0.00  0.00    -0.097 F 
ATOM      8  F1  UNL d   1       2.980   1.758   0.311  0.00  0.00    -0.096 F 
ATOM      9  I   UNL d   1       0.329   3.538   0.115  0.00  0.00    -0.060 I 
ATOM     10  F2  UNL d   1      -1.726   1.084   0.129  0.00  0.00    -0.096 F 
ATOM     11  F3  UNL d   1      -1.331  -1.592   0.264  0.00  0.00    -0.097 F 
ATOM     12  F4  UNL d   1       1.196  -2.607   0.421  0.00  0.00    -0.092 F 
ENDROOT
TORSDOF 0
ENDMDL
