MODEL 1
REMARK minimizedAffinity -3.63166976
REMARK minimizedRMSD -1
REMARK  0 active torsions:
REMARK  status: ('A' for Active; 'I' for Inactive)
ROOT
ATOM      1  C   UNL d   1       2.063   1.569   0.053  0.00  0.00     0.124 A 
ATOM      2  C1  UNL d   1       0.963   2.414   0.094  0.00  0.00     0.062 A 
ATOM      3  C2  UNL d   1      -0.293   1.912   0.423  0.00  0.00     0.162 A 
ATOM      4  C3  UNL d   1      -0.456   0.558   0.715  0.00  0.00    -0.034 A 
ATOM      5  C4  UNL d   1       0.656  -0.286   0.671  0.00  0.00     0.162 A 
ATOM      6  C5  UNL d   1       1.909   0.221   0.341  0.00  0.00     0.062 A 
ATOM      7  F   UNL d   1       2.971  -0.597   0.302  0.00  0.00    -0.097 F 
ATOM      8  F1  UNL d   1       0.535  -1.593   0.946  0.00  0.00    -0.096 F 
ATOM      9  I   UNL d   1      -2.332  -0.196   1.208  0.00  0.00    -0.060 I 
ATOM     10  F2  UNL d   1      -1.339   2.752   0.454  0.00  0.00    -0.096 F 
ATOM     11  F3  UNL d   1       1.109   3.717  -0.186  0.00  0.00    -0.097 F 
ATOM     12  F4  UNL d   1       3.270   2.054  -0.265  0.00  0.00    -0.092 F 
ENDROOT
TORSDOF 0
ENDMDL
