MODEL 1
REMARK minimizedAffinity -0.0121913599
REMARK minimizedRMSD -1
REMARK  0 active torsions:
REMARK  status: ('A' for Active; 'I' for Inactive)
ROOT
ATOM      1  C   UNL d   1       0.696   2.279   0.560  0.00  0.00     0.124 A 
ATOM      2  C1  UNL d   1      -0.605   1.881   0.835  0.00  0.00     0.062 A 
ATOM      3  C2  UNL d   1      -0.998   0.566   0.608  0.00  0.00     0.162 A 
ATOM      4  C3  UNL d   1      -0.088  -0.363   0.102  0.00  0.00    -0.034 A 
ATOM      5  C4  UNL d   1       1.218   0.045  -0.174  0.00  0.00     0.162 A 
ATOM      6  C5  UNL d   1       1.606   1.361   0.056  0.00  0.00     0.062 A 
ATOM      7  F   UNL d   1       2.863   1.744  -0.211  0.00  0.00    -0.097 F 
ATOM      8  F1  UNL d   1       2.119  -0.822  -0.660  0.00  0.00    -0.096 F 
ATOM      9  I   UNL d   1      -0.671  -2.331  -0.240  0.00  0.00    -0.060 I 
ATOM     10  F2  UNL d   1      -2.261   0.209   0.883  0.00  0.00    -0.096 F 
ATOM     11  F3  UNL d   1      -1.487   2.767   1.322  0.00  0.00    -0.097 F 
ATOM     12  F4  UNL d   1       1.070   3.546   0.779  0.00  0.00    -0.092 F 
ENDROOT
TORSDOF 0
ENDMDL
