MODEL 1
REMARK minimizedAffinity -4.62714386
REMARK minimizedRMSD -1
REMARK  0 active torsions:
REMARK  status: ('A' for Active; 'I' for Inactive)
ROOT
ATOM      1  C   UNL d   1       1.260   2.649   0.918  0.00  0.00     0.124 A 
ATOM      2  C1  UNL d   1       2.187   1.617   0.963  0.00  0.00     0.062 A 
ATOM      3  C2  UNL d   1       1.831   0.337   0.548  0.00  0.00     0.162 A 
ATOM      4  C3  UNL d   1       0.541   0.082   0.083  0.00  0.00    -0.034 A 
ATOM      5  C4  UNL d   1      -0.386   1.124   0.041  0.00  0.00     0.162 A 
ATOM      6  C5  UNL d   1      -0.026   2.402   0.457  0.00  0.00     0.062 A 
ATOM      7  F   UNL d   1      -0.923   3.397   0.412  0.00  0.00    -0.097 F 
ATOM      8  F1  UNL d   1      -1.635   0.913  -0.401  0.00  0.00    -0.096 F 
ATOM      9  I   UNL d   1       0.005  -1.831  -0.538  0.00  0.00    -0.060 I 
ATOM     10  F2  UNL d   1       2.748  -0.640   0.603  0.00  0.00    -0.096 F 
ATOM     11  F3  UNL d   1       3.429   1.854   1.409  0.00  0.00    -0.097 F 
ATOM     12  F4  UNL d   1       1.605   3.880   1.318  0.00  0.00    -0.092 F 
ENDROOT
TORSDOF 0
ENDMDL
