MODEL 1
REMARK minimizedAffinity 0.00577170169
REMARK minimizedRMSD -1
REMARK  0 active torsions:
REMARK  status: ('A' for Active; 'I' for Inactive)
ROOT
ATOM      1  C   UNL d   1       0.320   2.558   0.016  0.00  0.00     0.124 A 
ATOM      2  C1  UNL d   1       1.272   1.586  -0.259  0.00  0.00     0.062 A 
ATOM      3  C2  UNL d   1       0.903   0.246  -0.333  0.00  0.00     0.162 A 
ATOM      4  C3  UNL d   1      -0.425  -0.131  -0.131  0.00  0.00    -0.034 A 
ATOM      5  C4  UNL d   1      -1.376   0.852   0.146  0.00  0.00     0.162 A 
ATOM      6  C5  UNL d   1      -1.002   2.190   0.218  0.00  0.00     0.062 A 
ATOM      7  F   UNL d   1      -1.923   3.128   0.484  0.00  0.00    -0.097 F 
ATOM      8  F1  UNL d   1      -2.662   0.525   0.345  0.00  0.00    -0.096 F 
ATOM      9  I   UNL d   1      -0.980  -2.133  -0.240  0.00  0.00    -0.060 I 
ATOM     10  F2  UNL d   1       1.844  -0.672  -0.600  0.00  0.00    -0.096 F 
ATOM     11  F3  UNL d   1       2.551   1.938  -0.454  0.00  0.00    -0.097 F 
ATOM     12  F4  UNL d   1       0.678   3.846   0.087  0.00  0.00    -0.092 F 
ENDROOT
TORSDOF 0
ENDMDL
