MODEL 1
REMARK minimizedAffinity -3.29188037
REMARK minimizedRMSD -1
REMARK  0 active torsions:
REMARK  status: ('A' for Active; 'I' for Inactive)
ROOT
ATOM      1  C   UNL d   1       0.652  -1.228   1.038  0.00  0.00     0.124 A 
ATOM      2  C1  UNL d   1       1.763  -0.534   0.579  0.00  0.00     0.062 A 
ATOM      3  C2  UNL d   1       1.625   0.759   0.084  0.00  0.00     0.162 A 
ATOM      4  C3  UNL d   1       0.371   1.368   0.045  0.00  0.00    -0.034 A 
ATOM      5  C4  UNL d   1      -0.742   0.663   0.506  0.00  0.00     0.162 A 
ATOM      6  C5  UNL d   1      -0.599  -0.629   1.001  0.00  0.00     0.062 A 
ATOM      7  F   UNL d   1      -1.674  -1.298   1.443  0.00  0.00    -0.097 F 
ATOM      8  F1  UNL d   1      -1.963   1.218   0.483  0.00  0.00    -0.096 F 
ATOM      9  I   UNL d   1       0.161   3.302  -0.696  0.00  0.00    -0.060 I 
ATOM     10  F2  UNL d   1       2.716   1.406  -0.352  0.00  0.00    -0.096 F 
ATOM     11  F3  UNL d   1       2.973  -1.111   0.613  0.00  0.00    -0.097 F 
ATOM     12  F4  UNL d   1       0.787  -2.473   1.513  0.00  0.00    -0.092 F 
ENDROOT
TORSDOF 0
ENDMDL
