MODEL 1
REMARK minimizedAffinity -1.55291617
REMARK minimizedRMSD -1
REMARK  0 active torsions:
REMARK  status: ('A' for Active; 'I' for Inactive)
ROOT
ATOM      1  C   UNL d   1       0.543   2.463  -0.143  0.00  0.00     0.124 A 
ATOM      2  C1  UNL d   1       1.477   1.449  -0.307  0.00  0.00     0.062 A 
ATOM      3  C2  UNL d   1       1.080   0.116  -0.249  0.00  0.00     0.162 A 
ATOM      4  C3  UNL d   1      -0.258  -0.211  -0.026  0.00  0.00    -0.034 A 
ATOM      5  C4  UNL d   1      -1.191   0.814   0.139  0.00  0.00     0.162 A 
ATOM      6  C5  UNL d   1      -0.789   2.145   0.080  0.00  0.00     0.062 A 
ATOM      7  F   UNL d   1      -1.693   3.123   0.238  0.00  0.00    -0.097 F 
ATOM      8  F1  UNL d   1      -2.485   0.535   0.355  0.00  0.00    -0.096 F 
ATOM      9  I   UNL d   1      -0.855  -2.203   0.062  0.00  0.00    -0.060 I 
ATOM     10  F2  UNL d   1       2.004  -0.843  -0.411  0.00  0.00    -0.096 F 
ATOM     11  F3  UNL d   1       2.764   1.754  -0.522  0.00  0.00    -0.097 F 
ATOM     12  F4  UNL d   1       0.927   3.745  -0.199  0.00  0.00    -0.092 F 
ENDROOT
TORSDOF 0
ENDMDL
