MODEL 1
REMARK minimizedAffinity 0.545476079
REMARK minimizedRMSD -1
REMARK  0 active torsions:
REMARK  status: ('A' for Active; 'I' for Inactive)
ROOT
ATOM      1  C   UNL d   1       0.059   2.144  -0.181  0.00  0.00     0.124 A 
ATOM      2  C1  UNL d   1       0.879   1.217  -0.809  0.00  0.00     0.062 A 
ATOM      3  C2  UNL d   1       0.621  -0.144  -0.682  0.00  0.00     0.162 A 
ATOM      4  C3  UNL d   1      -0.462  -0.588   0.077  0.00  0.00    -0.034 A 
ATOM      5  C4  UNL d   1      -1.281   0.350   0.706  0.00  0.00     0.162 A 
ATOM      6  C5  UNL d   1      -1.020   1.710   0.576  0.00  0.00     0.062 A 
ATOM      7  F   UNL d   1      -1.813   2.604   1.184  0.00  0.00    -0.097 F 
ATOM      8  F1  UNL d   1      -2.331  -0.042   1.443  0.00  0.00    -0.096 F 
ATOM      9  I   UNL d   1      -0.850  -2.624   0.269  0.00  0.00    -0.060 I 
ATOM     10  F2  UNL d   1       1.430  -1.018  -1.300  0.00  0.00    -0.096 F 
ATOM     11  F3  UNL d   1       1.922   1.635  -1.541  0.00  0.00    -0.097 F 
ATOM     12  F4  UNL d   1       0.309   3.454  -0.304  0.00  0.00    -0.092 F 
ENDROOT
TORSDOF 0
ENDMDL
