MODEL 1
REMARK minimizedAffinity -2.93182158
REMARK minimizedRMSD -1
REMARK  0 active torsions:
REMARK  status: ('A' for Active; 'I' for Inactive)
ROOT
ATOM      1  C   UNL d   1       0.732  -1.426   0.762  0.00  0.00     0.124 A 
ATOM      2  C1  UNL d   1      -0.572  -0.951   0.774  0.00  0.00     0.062 A 
ATOM      3  C2  UNL d   1      -0.830   0.394   0.527  0.00  0.00     0.162 A 
ATOM      4  C3  UNL d   1       0.220   1.274   0.262  0.00  0.00    -0.034 A 
ATOM      5  C4  UNL d   1       1.529   0.790   0.252  0.00  0.00     0.162 A 
ATOM      6  C5  UNL d   1       1.781  -0.556   0.501  0.00  0.00     0.062 A 
ATOM      7  F   UNL d   1       3.042  -1.013   0.488  0.00  0.00    -0.097 F 
ATOM      8  F1  UNL d   1       2.561   1.608   0.002  0.00  0.00    -0.096 F 
ATOM      9  I   UNL d   1      -0.161   3.286  -0.109  0.00  0.00    -0.060 I 
ATOM     10  F2  UNL d   1      -2.100   0.825   0.545  0.00  0.00    -0.096 F 
ATOM     11  F3  UNL d   1      -1.587  -1.790   1.027  0.00  0.00    -0.097 F 
ATOM     12  F4  UNL d   1       0.977  -2.721   1.002  0.00  0.00    -0.092 F 
ENDROOT
TORSDOF 0
ENDMDL
