MODEL 1
REMARK minimizedAffinity -2.89288759
REMARK minimizedRMSD -1
REMARK  0 active torsions:
REMARK  status: ('A' for Active; 'I' for Inactive)
ROOT
ATOM      1  C   UNL d   1      -0.063   2.104   0.052  0.00  0.00     0.124 A 
ATOM      2  C1  UNL d   1       0.981   1.316  -0.411  0.00  0.00     0.062 A 
ATOM      3  C2  UNL d   1       0.825  -0.064  -0.511  0.00  0.00     0.162 A 
ATOM      4  C3  UNL d   1      -0.380  -0.664  -0.147  0.00  0.00    -0.034 A 
ATOM      5  C4  UNL d   1      -1.425   0.135   0.320  0.00  0.00     0.162 A 
ATOM      6  C5  UNL d   1      -1.265   1.513   0.417  0.00  0.00     0.062 A 
ATOM      7  F   UNL d   1      -2.274   2.273   0.865  0.00  0.00    -0.097 F 
ATOM      8  F1  UNL d   1      -2.597  -0.410   0.678  0.00  0.00    -0.096 F 
ATOM      9  I   UNL d   1      -0.616  -2.727  -0.294  0.00  0.00    -0.060 I 
ATOM     10  F2  UNL d   1       1.851  -0.801  -0.962  0.00  0.00    -0.096 F 
ATOM     11  F3  UNL d   1       2.143   1.884  -0.764  0.00  0.00    -0.097 F 
ATOM     12  F4  UNL d   1       0.089   3.431   0.148  0.00  0.00    -0.092 F 
ENDROOT
TORSDOF 0
ENDMDL
