MODEL 1
REMARK minimizedAffinity -1.31080914
REMARK minimizedRMSD -1
REMARK  0 active torsions:
REMARK  status: ('A' for Active; 'I' for Inactive)
ROOT
ATOM      1  C   UNL d   1       0.814   1.849   0.021  0.00  0.00     0.124 A 
ATOM      2  C1  UNL d   1      -0.560   1.713  -0.116  0.00  0.00     0.062 A 
ATOM      3  C2  UNL d   1      -1.123   0.454  -0.306  0.00  0.00     0.162 A 
ATOM      4  C3  UNL d   1      -0.311  -0.679  -0.358  0.00  0.00    -0.034 A 
ATOM      5  C4  UNL d   1       1.070  -0.534  -0.221  0.00  0.00     0.162 A 
ATOM      6  C5  UNL d   1       1.628   0.726  -0.032  0.00  0.00     0.062 A 
ATOM      7  F   UNL d   1       2.956   0.856   0.100  0.00  0.00    -0.097 F 
ATOM      8  F1  UNL d   1       1.880  -1.602  -0.267  0.00  0.00    -0.096 F 
ATOM      9  I   UNL d   1      -1.149  -2.563  -0.642  0.00  0.00    -0.060 I 
ATOM     10  F2  UNL d   1      -2.454   0.352  -0.435  0.00  0.00    -0.096 F 
ATOM     11  F3  UNL d   1      -1.348   2.796  -0.066  0.00  0.00    -0.097 F 
ATOM     12  F4  UNL d   1       1.354   3.062   0.202  0.00  0.00    -0.092 F 
ENDROOT
TORSDOF 0
ENDMDL
