MODEL 1
REMARK minimizedAffinity -0.574310839
REMARK minimizedRMSD -1
REMARK  0 active torsions:
REMARK  status: ('A' for Active; 'I' for Inactive)
ROOT
ATOM      1  C   UNL d   1       0.630  -1.511   0.696  0.00  0.00     0.124 A 
ATOM      2  C1  UNL d   1       1.739  -0.675   0.700  0.00  0.00     0.062 A 
ATOM      3  C2  UNL d   1       1.591   0.685   0.447  0.00  0.00     0.162 A 
ATOM      4  C3  UNL d   1       0.329   1.220   0.188  0.00  0.00    -0.034 A 
ATOM      5  C4  UNL d   1      -0.781   0.373   0.184  0.00  0.00     0.162 A 
ATOM      6  C5  UNL d   1      -0.628  -0.986   0.438  0.00  0.00     0.062 A 
ATOM      7  F   UNL d   1      -1.700  -1.791   0.434  0.00  0.00    -0.097 F 
ATOM      8  F1  UNL d   1      -2.009   0.854  -0.061  0.00  0.00    -0.096 F 
ATOM      9  I   UNL d   1       0.104   3.254  -0.192  0.00  0.00    -0.060 I 
ATOM     10  F2  UNL d   1       2.680   1.469   0.457  0.00  0.00    -0.096 F 
ATOM     11  F3  UNL d   1       2.956  -1.180   0.948  0.00  0.00    -0.097 F 
ATOM     12  F4  UNL d   1       0.776  -2.819   0.940  0.00  0.00    -0.092 F 
ENDROOT
TORSDOF 0
ENDMDL
