MODEL 1
REMARK minimizedAffinity 0.492729396
REMARK minimizedRMSD -1
REMARK  0 active torsions:
REMARK  status: ('A' for Active; 'I' for Inactive)
ROOT
ATOM      1  C   UNL d   1      -0.017   2.843   0.239  0.00  0.00     0.124 A 
ATOM      2  C1  UNL d   1       0.918   2.071  -0.437  0.00  0.00     0.062 A 
ATOM      3  C2  UNL d   1       0.737   0.696  -0.553  0.00  0.00     0.162 A 
ATOM      4  C3  UNL d   1      -0.383   0.083   0.007  0.00  0.00    -0.034 A 
ATOM      5  C4  UNL d   1      -1.318   0.866   0.687  0.00  0.00     0.162 A 
ATOM      6  C5  UNL d   1      -1.134   2.240   0.800  0.00  0.00     0.062 A 
ATOM      7  F   UNL d   1      -2.038   2.984   1.454  0.00  0.00    -0.097 F 
ATOM      8  F1  UNL d   1      -2.407   0.309   1.238  0.00  0.00    -0.096 F 
ATOM      9  I   UNL d   1      -0.657  -1.973  -0.164  0.00  0.00    -0.060 I 
ATOM     10  F2  UNL d   1       1.656  -0.026  -1.212  0.00  0.00    -0.096 F 
ATOM     11  F3  UNL d   1       1.998   2.651  -0.980  0.00  0.00    -0.097 F 
ATOM     12  F4  UNL d   1       0.160   4.166   0.350  0.00  0.00    -0.092 F 
ENDROOT
TORSDOF 0
ENDMDL
