MODEL 1
REMARK minimizedAffinity -1.68054008
REMARK minimizedRMSD -1
REMARK  0 active torsions:
REMARK  status: ('A' for Active; 'I' for Inactive)
ROOT
ATOM      1  C   UNL d   1       0.959  -1.590   0.285  0.00  0.00     0.124 A 
ATOM      2  C1  UNL d   1      -0.348  -1.140   0.157  0.00  0.00     0.062 A 
ATOM      3  C2  UNL d   1      -0.609   0.219   0.006  0.00  0.00     0.162 A 
ATOM      4  C3  UNL d   1       0.439   1.138  -0.019  0.00  0.00    -0.034 A 
ATOM      5  C4  UNL d   1       1.751   0.679   0.110  0.00  0.00     0.162 A 
ATOM      6  C5  UNL d   1       2.007  -0.680   0.261  0.00  0.00     0.062 A 
ATOM      7  F   UNL d   1       3.270  -1.113   0.384  0.00  0.00    -0.097 F 
ATOM      8  F1  UNL d   1       2.783   1.536   0.090  0.00  0.00    -0.096 F 
ATOM      9  I   UNL d   1       0.053   3.171  -0.245  0.00  0.00    -0.060 I 
ATOM     10  F2  UNL d   1      -1.882   0.625  -0.115  0.00  0.00    -0.096 F 
ATOM     11  F3  UNL d   1      -1.362  -2.017   0.181  0.00  0.00    -0.097 F 
ATOM     12  F4  UNL d   1       1.208  -2.897   0.431  0.00  0.00    -0.092 F 
ENDROOT
TORSDOF 0
ENDMDL
