MODEL 1
REMARK minimizedAffinity 0.0533770509
REMARK minimizedRMSD -1
REMARK  0 active torsions:
REMARK  status: ('A' for Active; 'I' for Inactive)
ROOT
ATOM      1  C   UNL d   1       0.200   2.775   0.284  0.00  0.00     0.124 A 
ATOM      2  C1  UNL d   1      -1.064   2.222   0.442  0.00  0.00     0.062 A 
ATOM      3  C2  UNL d   1      -1.259   0.857   0.250  0.00  0.00     0.162 A 
ATOM      4  C3  UNL d   1      -0.188   0.035  -0.101  0.00  0.00    -0.034 A 
ATOM      5  C4  UNL d   1       1.079   0.598  -0.258  0.00  0.00     0.162 A 
ATOM      6  C5  UNL d   1       1.269   1.963  -0.066  0.00  0.00     0.062 A 
ATOM      7  F   UNL d   1       2.491   2.495  -0.219  0.00  0.00    -0.097 F 
ATOM      8  F1  UNL d   1       2.131  -0.163  -0.595  0.00  0.00    -0.096 F 
ATOM      9  I   UNL d   1      -0.477  -2.006  -0.388  0.00  0.00    -0.060 I 
ATOM     10  F2  UNL d   1      -2.491   0.350   0.409  0.00  0.00    -0.096 F 
ATOM     11  F3  UNL d   1      -2.099   3.004   0.779  0.00  0.00    -0.097 F 
ATOM     12  F4  UNL d   1       0.385   4.088   0.468  0.00  0.00    -0.092 F 
ENDROOT
TORSDOF 0
ENDMDL
