MODEL 1
REMARK minimizedAffinity 4.76655293
REMARK minimizedRMSD -1
REMARK  1 active torsions:
REMARK  status: ('A' for Active; 'I' for Inactive)
REMARK    1  A    between atoms: C1_2  and  C2_3 
ROOT
ATOM      1  C2  UNL d   1       3.663  -5.008  -3.573  0.00  0.00    -0.076 A 
ATOM      2  C3  UNL d   1       5.008  -4.623  -3.721  0.00  0.00     0.004 A 
ATOM      3  C4  UNL d   1       5.683  -4.823  -4.923  0.00  0.00    -0.003 A 
ATOM      4  C5  UNL d   1       5.025  -5.409  -5.999  0.00  0.00     0.000 A 
ATOM      5  C6  UNL d   1       3.687  -5.781  -5.876  0.00  0.00     0.000 A 
ATOM      6  C7  UNL d   1       2.986  -5.572  -4.676  0.00  0.00    -0.073 A 
ATOM      7  C8  UNL d   1       1.546  -5.997  -4.597  0.00  0.00     0.078 C 
ENDROOT
BRANCH   1   8
ATOM      8  C1  UNL d   1       2.991  -4.791  -2.237  0.00  0.00     0.053 C 
ATOM      9  C   UNL d   1       3.129  -5.992  -1.314  0.00  0.00     0.018 C 
ENDBRANCH   1   8
TORSDOF 1
ENDMDL
