MODEL 1
REMARK minimizedAffinity -0.515415609
REMARK minimizedRMSD -1
REMARK  1 active torsions:
REMARK  status: ('A' for Active; 'I' for Inactive)
REMARK    1  A    between atoms: C1_2  and  C2_3 
ROOT
ATOM      1  C2  UNL d   1       3.186  -5.700  -4.559  0.00  0.00    -0.076 A 
ATOM      2  C3  UNL d   1       3.892  -5.937  -5.751  0.00  0.00     0.004 A 
ATOM      3  C4  UNL d   1       5.285  -5.979  -5.763  0.00  0.00    -0.003 A 
ATOM      4  C5  UNL d   1       5.995  -5.785  -4.583  0.00  0.00     0.000 A 
ATOM      5  C6  UNL d   1       5.310  -5.565  -3.388  0.00  0.00     0.000 A 
ATOM      6  C7  UNL d   1       3.905  -5.536  -3.355  0.00  0.00    -0.073 A 
ATOM      7  C8  UNL d   1       3.218  -5.290  -2.040  0.00  0.00     0.078 C 
ENDROOT
BRANCH   1   8
ATOM      8  C1  UNL d   1       1.676  -5.638  -4.612  0.00  0.00     0.053 C 
ATOM      9  C   UNL d   1       1.128  -5.959  -5.994  0.00  0.00     0.018 C 
ENDBRANCH   1   8
TORSDOF 1
ENDMDL
