MODEL 1
REMARK minimizedAffinity 1.25784504
REMARK minimizedRMSD -1
REMARK  1 active torsions:
REMARK  status: ('A' for Active; 'I' for Inactive)
REMARK    1  A    between atoms: C1_2  and  C2_3 
ROOT
ATOM      1  C2  UNL d   1       3.235  -5.750  -4.646  0.00  0.00    -0.076 A 
ATOM      2  C3  UNL d   1       3.885  -5.812  -5.891  0.00  0.00     0.004 A 
ATOM      3  C4  UNL d   1       5.256  -5.585  -5.996  0.00  0.00    -0.003 A 
ATOM      4  C5  UNL d   1       6.000  -5.293  -4.858  0.00  0.00     0.000 A 
ATOM      5  C6  UNL d   1       5.374  -5.245  -3.613  0.00  0.00     0.000 A 
ATOM      6  C7  UNL d   1       3.995  -5.487  -3.487  0.00  0.00    -0.073 A 
ATOM      7  C8  UNL d   1       3.372  -5.417  -2.120  0.00  0.00     0.078 C 
ENDROOT
BRANCH   1   8
ATOM      8  C1  UNL d   1       1.741  -5.978  -4.598  0.00  0.00     0.053 C 
ATOM      9  C   UNL d   1       1.102  -5.950  -5.977  0.00  0.00     0.018 C 
ENDBRANCH   1   8
TORSDOF 1
ENDMDL
