MODEL 1
REMARK minimizedAffinity 4.59366131
REMARK minimizedRMSD -1
REMARK  1 active torsions:
REMARK  status: ('A' for Active; 'I' for Inactive)
REMARK    1  A    between atoms: C1_2  and  C2_3 
ROOT
ATOM      1  C2  UNL d   1       5.045   4.445   2.785  0.00  0.00    -0.076 A 
ATOM      2  C3  UNL d   1       5.998   3.440   3.025  0.00  0.00     0.004 A 
ATOM      3  C4  UNL d   1       5.997   2.259   2.284  0.00  0.00    -0.003 A 
ATOM      4  C5  UNL d   1       5.042   2.064   1.292  0.00  0.00     0.000 A 
ATOM      5  C6  UNL d   1       4.100   3.058   1.029  0.00  0.00     0.000 A 
ATOM      6  C7  UNL d   1       4.098   4.261   1.755  0.00  0.00    -0.073 A 
ATOM      7  C8  UNL d   1       3.055   5.296   1.434  0.00  0.00     0.078 C 
ENDROOT
BRANCH   1   8
ATOM      8  C1  UNL d   1       5.078   5.693   3.639  0.00  0.00     0.053 C 
ATOM      9  C   UNL d   1       4.850   5.397   5.113  0.00  0.00     0.018 C 
ENDBRANCH   1   8
TORSDOF 1
ENDMDL
