MODEL 1
REMARK minimizedAffinity -2.10296154
REMARK minimizedRMSD -1
REMARK  1 active torsions:
REMARK  status: ('A' for Active; 'I' for Inactive)
REMARK    1  A    between atoms: C1_2  and  C2_3 
ROOT
ATOM      1  C2  UNL d   1       2.439   1.963   0.966  0.00  0.00    -0.076 A 
ATOM      2  C3  UNL d   1       1.212   1.328   0.703  0.00  0.00     0.004 A 
ATOM      3  C4  UNL d   1       0.004   1.927   1.058  0.00  0.00    -0.003 A 
ATOM      4  C5  UNL d   1       0.003   3.170   1.681  0.00  0.00     0.000 A 
ATOM      5  C6  UNL d   1       1.210   3.822   1.933  0.00  0.00     0.000 A 
ATOM      6  C7  UNL d   1       2.436   3.240   1.566  0.00  0.00    -0.073 A 
ATOM      7  C8  UNL d   1       3.707   3.985   1.868  0.00  0.00     0.078 C 
ENDROOT
BRANCH   1   8
ATOM      8  C1  UNL d   1       3.718   1.253   0.583  0.00  0.00     0.053 C 
ATOM      9  C   UNL d   1       4.019   1.357  -0.905  0.00  0.00     0.018 C 
ENDBRANCH   1   8
TORSDOF 1
ENDMDL
