MODEL 1
REMARK minimizedAffinity 9.96672344
REMARK minimizedRMSD -1
REMARK  1 active torsions:
REMARK  status: ('A' for Active; 'I' for Inactive)
REMARK    1  A    between atoms: C1_2  and  C2_3 
ROOT
ATOM      1  C2  UNL d   1       4.130   3.769   1.542  0.00  0.00    -0.076 A 
ATOM      2  C3  UNL d   1       4.120   2.456   2.046  0.00  0.00     0.004 A 
ATOM      3  C4  UNL d   1       3.132   1.549   1.668  0.00  0.00    -0.003 A 
ATOM      4  C5  UNL d   1       2.137   1.940   0.778  0.00  0.00     0.000 A 
ATOM      5  C6  UNL d   1       2.141   3.233   0.255  0.00  0.00     0.000 A 
ATOM      6  C7  UNL d   1       3.139   4.154   0.614  0.00  0.00    -0.073 A 
ATOM      7  C8  UNL d   1       3.091   5.537   0.023  0.00  0.00     0.078 C 
ENDROOT
BRANCH   1   8
ATOM      8  C1  UNL d   1       5.211   4.716   2.010  0.00  0.00     0.053 C 
ATOM      9  C   UNL d   1       4.916   5.307   3.380  0.00  0.00     0.018 C 
ENDBRANCH   1   8
TORSDOF 1
ENDMDL
