MODEL 1
REMARK minimizedAffinity 6.02501726
REMARK minimizedRMSD -1
REMARK  1 active torsions:
REMARK  status: ('A' for Active; 'I' for Inactive)
REMARK    1  A    between atoms: C1_2  and  C2_3 
ROOT
ATOM      1  C2  UNL d   1       3.088   1.674  -0.466  0.00  0.00    -0.076 A 
ATOM      2  C3  UNL d   1       1.793   2.090  -0.819  0.00  0.00     0.004 A 
ATOM      3  C4  UNL d   1       0.833   2.352   0.157  0.00  0.00    -0.003 A 
ATOM      4  C5  UNL d   1       1.153   2.202   1.502  0.00  0.00     0.000 A 
ATOM      5  C6  UNL d   1       2.438   1.807   1.871  0.00  0.00     0.000 A 
ATOM      6  C7  UNL d   1       3.423   1.555   0.900  0.00  0.00    -0.073 A 
ATOM      7  C8  UNL d   1       4.791   1.126   1.354  0.00  0.00     0.078 C 
ENDROOT
BRANCH   1   8
ATOM      8  C1  UNL d   1       4.080   1.379  -1.569  0.00  0.00     0.053 C 
ATOM      9  C   UNL d   1       3.457   1.474  -2.953  0.00  0.00     0.018 C 
ENDBRANCH   1   8
TORSDOF 1
ENDMDL
