MODEL 1
REMARK minimizedAffinity 6.62596703
REMARK minimizedRMSD -1
REMARK  1 active torsions:
REMARK  status: ('A' for Active; 'I' for Inactive)
REMARK    1  A    between atoms: C1_2  and  C2_3 
ROOT
ATOM      1  C2  UNL d   1       3.583   3.567   0.881  0.00  0.00    -0.076 A 
ATOM      2  C3  UNL d   1       3.035   4.808   1.250  0.00  0.00     0.004 A 
ATOM      3  C4  UNL d   1       3.556   6.000   0.749  0.00  0.00    -0.003 A 
ATOM      4  C5  UNL d   1       4.634   5.970  -0.129  0.00  0.00     0.000 A 
ATOM      5  C6  UNL d   1       5.179   4.747  -0.519  0.00  0.00     0.000 A 
ATOM      6  C7  UNL d   1       4.654   3.536  -0.036  0.00  0.00    -0.073 A 
ATOM      7  C8  UNL d   1       5.285   2.246  -0.486  0.00  0.00     0.078 C 
ENDROOT
BRANCH   1   8
ATOM      8  C1  UNL d   1       2.993   2.309   1.478  0.00  0.00     0.053 C 
ATOM      9  C   UNL d   1       1.776   1.816   0.711  0.00  0.00     0.018 C 
ENDBRANCH   1   8
TORSDOF 1
ENDMDL
