MODEL 1
REMARK minimizedAffinity 2.09657884
REMARK minimizedRMSD -1
REMARK  1 active torsions:
REMARK  status: ('A' for Active; 'I' for Inactive)
REMARK    1  A    between atoms: C1_2  and  C2_3 
ROOT
ATOM      1  C2  UNL d   1       3.697  -5.261  -3.684  0.00  0.00    -0.076 A 
ATOM      2  C3  UNL d   1       5.019  -4.885  -3.389  0.00  0.00     0.004 A 
ATOM      3  C4  UNL d   1       6.000  -4.875  -4.379  0.00  0.00    -0.003 A 
ATOM      4  C5  UNL d   1       5.674  -5.240  -5.681  0.00  0.00     0.000 A 
ATOM      5  C6  UNL d   1       4.364  -5.598  -5.996  0.00  0.00     0.000 A 
ATOM      6  C7  UNL d   1       3.359  -5.597  -5.012  0.00  0.00    -0.073 A 
ATOM      7  C8  UNL d   1       1.964  -5.998  -5.406  0.00  0.00     0.078 C 
ENDROOT
BRANCH   1   8
ATOM      8  C1  UNL d   1       2.682  -5.279  -2.564  0.00  0.00     0.053 C 
ATOM      9  C   UNL d   1       3.151  -4.506  -1.340  0.00  0.00     0.018 C 
ENDBRANCH   1   8
TORSDOF 1
ENDMDL
