MODEL 1
REMARK minimizedAffinity 6.31573677
REMARK minimizedRMSD -1
REMARK  1 active torsions:
REMARK  status: ('A' for Active; 'I' for Inactive)
REMARK    1  A    between atoms: C1_2  and  C2_3 
ROOT
ATOM      1  C2  UNL d   1      -4.084   2.907  -5.319  0.00  0.00    -0.076 A 
ATOM      2  C3  UNL d   1      -2.947   3.374  -5.999  0.00  0.00     0.004 A 
ATOM      3  C4  UNL d   1      -1.685   3.320  -5.409  0.00  0.00    -0.003 A 
ATOM      4  C5  UNL d   1      -1.540   2.797  -4.129  0.00  0.00     0.000 A 
ATOM      5  C6  UNL d   1      -2.655   2.313  -3.446  0.00  0.00     0.000 A 
ATOM      6  C7  UNL d   1      -3.932   2.345  -4.033  0.00  0.00    -0.073 A 
ATOM      7  C8  UNL d   1      -5.101   1.814  -3.249  0.00  0.00     0.078 C 
ENDROOT
BRANCH   1   8
ATOM      8  C1  UNL d   1      -5.430   3.015  -5.998  0.00  0.00     0.053 C 
ATOM      9  C   UNL d   1      -5.997   4.426  -5.946  0.00  0.00     0.018 C 
ENDBRANCH   1   8
TORSDOF 1
ENDMDL
