MODEL 1
REMARK minimizedAffinity 0.559467137
REMARK minimizedRMSD -1
REMARK  1 active torsions:
REMARK  status: ('A' for Active; 'I' for Inactive)
REMARK    1  A    between atoms: C1_2  and  C2_3 
ROOT
ATOM      1  C2  UNL d   1       3.590  -5.375  -3.736  0.00  0.00    -0.076 A 
ATOM      2  C3  UNL d   1       4.796  -5.029  -3.102  0.00  0.00     0.004 A 
ATOM      3  C4  UNL d   1       5.991  -4.972  -3.816  0.00  0.00    -0.003 A 
ATOM      4  C5  UNL d   1       6.000  -5.259  -5.177  0.00  0.00     0.000 A 
ATOM      5  C6  UNL d   1       4.810  -5.587  -5.825  0.00  0.00     0.000 A 
ATOM      6  C7  UNL d   1       3.593  -5.633  -5.123  0.00  0.00    -0.073 A 
ATOM      7  C8  UNL d   1       2.341  -5.998  -5.872  0.00  0.00     0.078 C 
ENDROOT
BRANCH   1   8
ATOM      8  C1  UNL d   1       2.329  -5.448  -2.904  0.00  0.00     0.053 C 
ATOM      9  C   UNL d   1       2.600  -5.878  -1.471  0.00  0.00     0.018 C 
ENDBRANCH   1   8
TORSDOF 1
ENDMDL
