MODEL 1
REMARK minimizedAffinity 12.5264692
REMARK minimizedRMSD -1
REMARK  1 active torsions:
REMARK  status: ('A' for Active; 'I' for Inactive)
REMARK    1  A    between atoms: C3_4  and  O_7 
ROOT
ATOM      1  C   UNL d   1       3.811  -1.608  -2.909  0.00  0.00    -0.033 A 
ATOM      2  C1  UNL d   1       3.635  -1.979  -4.243  0.00  0.00     0.039 A 
ATOM      3  C2  UNL d   1       3.973  -3.268  -4.661  0.00  0.00    -0.080 A 
ATOM      4  C3  UNL d   1       4.484  -4.175  -3.737  0.00  0.00     0.150 A 
ATOM      5  C4  UNL d   1       4.658  -3.813  -2.405  0.00  0.00    -0.007 A 
ATOM      6  C5  UNL d   1       4.321  -2.525  -1.989  0.00  0.00     0.039 A 
ENDROOT
BRANCH   4   7
ATOM      7  O   UNL d   1       4.832  -5.442  -4.099  0.00  0.00    -0.526 OA
ATOM      8  H5  UNL d   1       4.684  -5.541  -5.054  0.00  0.00     0.418 HD
ENDBRANCH   4   7
TORSDOF 1
ENDMDL
