MODEL 1
REMARK minimizedAffinity 3.76653838
REMARK minimizedRMSD -1
REMARK  1 active torsions:
REMARK  status: ('A' for Active; 'I' for Inactive)
REMARK    1  A    between atoms: C3_4  and  O_7 
ROOT
ATOM      1  C   UNL d   1      -5.968   2.762   5.402  0.00  0.00    -0.033 A 
ATOM      2  C1  UNL d   1      -5.868   1.504   5.999  0.00  0.00     0.039 A 
ATOM      3  C2  UNL d   1      -4.711   0.740   5.833  0.00  0.00    -0.080 A 
ATOM      4  C3  UNL d   1      -3.662   1.246   5.069  0.00  0.00     0.150 A 
ATOM      5  C4  UNL d   1      -3.753   2.500   4.475  0.00  0.00    -0.007 A 
ATOM      6  C5  UNL d   1      -4.910   3.261   4.641  0.00  0.00     0.039 A 
ENDROOT
BRANCH   4   7
ATOM      7  O   UNL d   1      -2.515   0.535   4.875  0.00  0.00    -0.526 OA
ATOM      8  H5  UNL d   1      -2.606  -0.324   5.321  0.00  0.00     0.418 HD
ENDBRANCH   4   7
TORSDOF 1
ENDMDL
