MODEL 1
REMARK minimizedAffinity 12.1620378
REMARK minimizedRMSD -1
REMARK  1 active torsions:
REMARK  status: ('A' for Active; 'I' for Inactive)
REMARK    1  A    between atoms: C3_4  and  O_7 
ROOT
ATOM      1  C   UNL d   1      -0.736  -3.274   1.452  0.00  0.00    -0.033 A 
ATOM      2  C1  UNL d   1      -0.438  -2.838   0.160  0.00  0.00     0.039 A 
ATOM      3  C2  UNL d   1      -1.469  -2.558  -0.739  0.00  0.00    -0.080 A 
ATOM      4  C3  UNL d   1      -2.791  -2.718  -0.334  0.00  0.00     0.150 A 
ATOM      5  C4  UNL d   1      -3.095  -3.148   0.954  0.00  0.00    -0.007 A 
ATOM      6  C5  UNL d   1      -2.064  -3.427   1.850  0.00  0.00     0.039 A 
ENDROOT
BRANCH   4   7
ATOM      7  O   UNL d   1      -3.831  -2.462  -1.177  0.00  0.00    -0.526 OA
ATOM      8  H5  UNL d   1      -3.470  -2.201  -2.041  0.00  0.00     0.418 HD
ENDBRANCH   4   7
TORSDOF 1
ENDMDL
