MODEL 1
REMARK minimizedAffinity 3.59436703
REMARK minimizedRMSD -1
REMARK  1 active torsions:
REMARK  status: ('A' for Active; 'I' for Inactive)
REMARK    1  A    between atoms: C3_4  and  O_7 
ROOT
ATOM      1  C   UNL d   1      -2.938   0.797   4.868  0.00  0.00    -0.033 A 
ATOM      2  C1  UNL d   1      -4.078   0.480   5.609  0.00  0.00     0.039 A 
ATOM      3  C2  UNL d   1      -4.314  -0.839   6.000  0.00  0.00    -0.080 A 
ATOM      4  C3  UNL d   1      -3.404  -1.831   5.644  0.00  0.00     0.150 A 
ATOM      5  C4  UNL d   1      -2.264  -1.521   4.909  0.00  0.00    -0.007 A 
ATOM      6  C5  UNL d   1      -2.030  -0.203   4.519  0.00  0.00     0.039 A 
ENDROOT
BRANCH   4   7
ATOM      7  O   UNL d   1      -3.594  -3.133   5.999  0.00  0.00    -0.526 OA
ATOM      8  H5  UNL d   1      -4.436  -3.202   6.478  0.00  0.00     0.418 HD
ENDBRANCH   4   7
TORSDOF 1
ENDMDL
