MODEL 1
REMARK minimizedAffinity 1.92527366
REMARK minimizedRMSD -1
REMARK  1 active torsions:
REMARK  status: ('A' for Active; 'I' for Inactive)
REMARK    1  A    between atoms: C3_4  and  O_7 
ROOT
ATOM      1  C   UNL d   1       4.308  -4.693  -5.998  0.00  0.00    -0.033 A 
ATOM      2  C1  UNL d   1       3.274  -4.108  -5.265  0.00  0.00     0.039 A 
ATOM      3  C2  UNL d   1       3.512  -2.948  -4.524  0.00  0.00    -0.080 A 
ATOM      4  C3  UNL d   1       4.785  -2.385  -4.525  0.00  0.00     0.150 A 
ATOM      5  C4  UNL d   1       5.818  -2.961  -5.257  0.00  0.00    -0.007 A 
ATOM      6  C5  UNL d   1       5.579  -4.119  -5.996  0.00  0.00     0.039 A 
ENDROOT
BRANCH   4   7
ATOM      7  O   UNL d   1       5.066  -1.257  -3.814  0.00  0.00    -0.526 OA
ATOM      8  H5  UNL d   1       4.264  -0.987  -3.335  0.00  0.00     0.418 HD
ENDBRANCH   4   7
TORSDOF 1
ENDMDL
