MODEL 1
REMARK minimizedAffinity 4.21482468
REMARK minimizedRMSD -1
REMARK  1 active torsions:
REMARK  status: ('A' for Active; 'I' for Inactive)
REMARK    1  A    between atoms: C3_4  and  O_7 
ROOT
ATOM      1  C   UNL d   1       4.521  -1.125   5.613  0.00  0.00    -0.033 A 
ATOM      2  C1  UNL d   1       3.232  -1.500   5.227  0.00  0.00     0.039 A 
ATOM      3  C2  UNL d   1       2.867  -2.848   5.225  0.00  0.00    -0.080 A 
ATOM      4  C3  UNL d   1       3.797  -3.809   5.611  0.00  0.00     0.150 A 
ATOM      5  C4  UNL d   1       5.081  -3.442   5.999  0.00  0.00    -0.007 A 
ATOM      6  C5  UNL d   1       5.445  -2.096   6.000  0.00  0.00     0.039 A 
ENDROOT
BRANCH   4   7
ATOM      7  O   UNL d   1       3.488  -5.136   5.620  0.00  0.00    -0.526 OA
ATOM      8  H5  UNL d   1       2.576  -5.242   5.300  0.00  0.00     0.418 HD
ENDBRANCH   4   7
TORSDOF 1
ENDMDL
