MODEL 1
REMARK minimizedAffinity 8.88551235
REMARK minimizedRMSD -1
REMARK  1 active torsions:
REMARK  status: ('A' for Active; 'I' for Inactive)
REMARK    1  A    between atoms: C3_4  and  O_7 
ROOT
ATOM      1  C   UNL d   1      -2.073  -0.363   3.651  0.00  0.00    -0.033 A 
ATOM      2  C1  UNL d   1      -2.207  -1.678   3.203  0.00  0.00     0.039 A 
ATOM      3  C2  UNL d   1      -2.887  -2.617   3.981  0.00  0.00    -0.080 A 
ATOM      4  C3  UNL d   1      -3.429  -2.229   5.203  0.00  0.00     0.150 A 
ATOM      5  C4  UNL d   1      -3.302  -0.919   5.654  0.00  0.00    -0.007 A 
ATOM      6  C5  UNL d   1      -2.622   0.017   4.876  0.00  0.00     0.039 A 
ENDROOT
BRANCH   4   7
ATOM      7  O   UNL d   1      -4.097  -3.111   5.999  0.00  0.00    -0.526 OA
ATOM      8  H5  UNL d   1      -4.080  -3.984   5.572  0.00  0.00     0.418 HD
ENDBRANCH   4   7
TORSDOF 1
ENDMDL
