MODEL 1
REMARK minimizedAffinity -3.77671909
REMARK minimizedRMSD -1
REMARK  1 active torsions:
REMARK  status: ('A' for Active; 'I' for Inactive)
REMARK    1  A    between atoms: C3_4  and  O_7 
ROOT
ATOM      1  C   UNL d   1       2.863  -2.761   6.000  0.00  0.00    -0.033 A 
ATOM      2  C1  UNL d   1       3.627  -1.724   5.463  0.00  0.00     0.039 A 
ATOM      3  C2  UNL d   1       4.636  -2.004   4.539  0.00  0.00    -0.080 A 
ATOM      4  C3  UNL d   1       4.869  -3.323   4.160  0.00  0.00     0.150 A 
ATOM      5  C4  UNL d   1       4.109  -4.361   4.689  0.00  0.00    -0.007 A 
ATOM      6  C5  UNL d   1       3.102  -4.080   5.612  0.00  0.00     0.039 A 
ENDROOT
BRANCH   4   7
ATOM      7  O   UNL d   1       5.846  -3.646   3.266  0.00  0.00    -0.526 OA
ATOM      8  H5  UNL d   1       6.308  -2.831   3.008  0.00  0.00     0.418 HD
ENDBRANCH   4   7
TORSDOF 1
ENDMDL
