MODEL 1
REMARK minimizedAffinity 1.58809602
REMARK minimizedRMSD -1
REMARK  1 active torsions:
REMARK  status: ('A' for Active; 'I' for Inactive)
REMARK    1  A    between atoms: C3_4  and  O_7 
ROOT
ATOM      1  C   UNL d   1       5.192  -4.925   5.839  0.00  0.00    -0.033 A 
ATOM      2  C1  UNL d   1       5.997  -3.795   5.680  0.00  0.00     0.039 A 
ATOM      3  C2  UNL d   1       5.495  -2.664   5.032  0.00  0.00    -0.080 A 
ATOM      4  C3  UNL d   1       4.189  -2.676   4.551  0.00  0.00     0.150 A 
ATOM      5  C4  UNL d   1       3.381  -3.797   4.710  0.00  0.00    -0.007 A 
ATOM      6  C5  UNL d   1       3.884  -4.925   5.356  0.00  0.00     0.039 A 
ENDROOT
BRANCH   4   7
ATOM      7  O   UNL d   1       3.657  -1.598   3.908  0.00  0.00    -0.526 OA
ATOM      8  H5  UNL d   1       4.339  -0.909   3.846  0.00  0.00     0.418 HD
ENDBRANCH   4   7
TORSDOF 1
ENDMDL
