MODEL 1
REMARK minimizedAffinity 5.658041
REMARK minimizedRMSD -1
REMARK  1 active torsions:
REMARK  status: ('A' for Active; 'I' for Inactive)
REMARK    1  A    between atoms: C3_4  and  O_7 
ROOT
ATOM      1  C   UNL d   1      -3.591   0.183   5.978  0.00  0.00    -0.033 A 
ATOM      2  C1  UNL d   1      -4.910  -0.274   5.988  0.00  0.00     0.039 A 
ATOM      3  C2  UNL d   1      -5.176  -1.645   5.994  0.00  0.00    -0.080 A 
ATOM      4  C3  UNL d   1      -4.115  -2.546   5.992  0.00  0.00     0.150 A 
ATOM      5  C4  UNL d   1      -2.799  -2.098   5.987  0.00  0.00    -0.007 A 
ATOM      6  C5  UNL d   1      -2.535  -0.729   5.979  0.00  0.00     0.039 A 
ENDROOT
BRANCH   4   7
ATOM      7  O   UNL d   1      -4.325  -3.893   5.994  0.00  0.00    -0.526 OA
ATOM      8  H5  UNL d   1      -5.283  -4.056   5.969  0.00  0.00     0.418 HD
ENDBRANCH   4   7
TORSDOF 1
ENDMDL
