MODEL 1
REMARK minimizedAffinity 1.38834083
REMARK minimizedRMSD -1
REMARK  1 active torsions:
REMARK  status: ('A' for Active; 'I' for Inactive)
REMARK    1  A    between atoms: C3_4  and  O_7 
ROOT
ATOM      1  C   UNL d   1       4.036  -4.305   5.997  0.00  0.00    -0.033 A 
ATOM      2  C1  UNL d   1       5.335  -3.794   5.998  0.00  0.00     0.039 A 
ATOM      3  C2  UNL d   1       5.597  -2.545   5.432  0.00  0.00    -0.080 A 
ATOM      4  C3  UNL d   1       4.552  -1.817   4.869  0.00  0.00     0.150 A 
ATOM      5  C4  UNL d   1       3.254  -2.318   4.868  0.00  0.00    -0.007 A 
ATOM      6  C5  UNL d   1       2.995  -3.566   5.433  0.00  0.00     0.039 A 
ENDROOT
BRANCH   4   7
ATOM      7  O   UNL d   1       4.759  -0.596   4.301  0.00  0.00    -0.526 OA
ATOM      8  H5  UNL d   1       5.708  -0.391   4.349  0.00  0.00     0.418 HD
ENDBRANCH   4   7
TORSDOF 1
ENDMDL
