MODEL 1
REMARK minimizedAffinity 4.55634832
REMARK minimizedRMSD -1
REMARK  1 active torsions:
REMARK  status: ('A' for Active; 'I' for Inactive)
REMARK    1  A    between atoms: C3_4  and  O_7 
ROOT
ATOM      1  C   UNL d   1       5.990  -4.112  -5.603  0.00  0.00    -0.033 A 
ATOM      2  C1  UNL d   1       5.321  -2.952  -6.000  0.00  0.00     0.039 A 
ATOM      3  C2  UNL d   1       4.205  -2.510  -5.288  0.00  0.00    -0.080 A 
ATOM      4  C3  UNL d   1       3.768  -3.236  -4.183  0.00  0.00     0.150 A 
ATOM      5  C4  UNL d   1       4.431  -4.390  -3.780  0.00  0.00    -0.007 A 
ATOM      6  C5  UNL d   1       5.546  -4.830  -4.493  0.00  0.00     0.039 A 
ENDROOT
BRANCH   4   7
ATOM      7  O   UNL d   1       2.680  -2.846  -3.459  0.00  0.00    -0.526 OA
ATOM      8  H5  UNL d   1       2.306  -2.049  -3.871  0.00  0.00     0.418 HD
ENDBRANCH   4   7
TORSDOF 1
ENDMDL
