MODEL 1
REMARK minimizedAffinity -1.2276746
REMARK minimizedRMSD -1
REMARK  1 active torsions:
REMARK  status: ('A' for Active; 'I' for Inactive)
REMARK    1  A    between atoms: C3_4  and  O_7 
ROOT
ATOM      1  C   UNL d   1       4.308  -4.486  -6.000  0.00  0.00    -0.033 A 
ATOM      2  C1  UNL d   1       3.372  -3.946  -5.115  0.00  0.00     0.039 A 
ATOM      3  C2  UNL d   1       3.749  -2.937  -4.227  0.00  0.00    -0.080 A 
ATOM      4  C3  UNL d   1       5.063  -2.477  -4.233  0.00  0.00     0.150 A 
ATOM      5  C4  UNL d   1       6.000  -3.008  -5.114  0.00  0.00    -0.007 A 
ATOM      6  C5  UNL d   1       5.622  -4.016  -6.000  0.00  0.00     0.039 A 
ENDROOT
BRANCH   4   7
ATOM      7  O   UNL d   1       5.479  -1.498  -3.382  0.00  0.00    -0.526 OA
ATOM      8  H5  UNL d   1       4.733  -1.247  -2.813  0.00  0.00     0.418 HD
ENDBRANCH   4   7
TORSDOF 1
ENDMDL
