MODEL 1
REMARK minimizedAffinity 15.7522392
REMARK minimizedRMSD -1
REMARK  1 active torsions:
REMARK  status: ('A' for Active; 'I' for Inactive)
REMARK    1  A    between atoms: C3_4  and  O_7 
ROOT
ATOM      1  C   UNL d   1      -1.912  -0.113   5.320  0.00  0.00    -0.033 A 
ATOM      2  C1  UNL d   1      -3.183  -0.278   4.767  0.00  0.00     0.039 A 
ATOM      3  C2  UNL d   1      -3.802  -1.530   4.796  0.00  0.00    -0.080 A 
ATOM      4  C3  UNL d   1      -3.140  -2.605   5.382  0.00  0.00     0.150 A 
ATOM      5  C4  UNL d   1      -1.876  -2.446   5.939  0.00  0.00    -0.007 A 
ATOM      6  C5  UNL d   1      -1.259  -1.196   5.908  0.00  0.00     0.039 A 
ENDROOT
BRANCH   4   7
ATOM      7  O   UNL d   1      -3.702  -3.847   5.430  0.00  0.00    -0.526 OA
ATOM      8  H5  UNL d   1      -4.563  -3.812   4.982  0.00  0.00     0.418 HD
ENDBRANCH   4   7
TORSDOF 1
ENDMDL
