MODEL 1
REMARK minimizedAffinity -2.32733822
REMARK minimizedRMSD -1
REMARK  1 active torsions:
REMARK  status: ('A' for Active; 'I' for Inactive)
REMARK    1  A    between atoms: C3_4  and  O_7 
ROOT
ATOM      1  C   UNL d   1       6.000   3.994  -3.708  0.00  0.00    -0.033 A 
ATOM      2  C1  UNL d   1       5.942   5.323  -3.283  0.00  0.00     0.039 A 
ATOM      3  C2  UNL d   1       4.719   5.996  -3.256  0.00  0.00    -0.080 A 
ATOM      4  C3  UNL d   1       3.563   5.330  -3.654  0.00  0.00     0.150 A 
ATOM      5  C4  UNL d   1       3.613   4.005  -4.074  0.00  0.00    -0.007 A 
ATOM      6  C5  UNL d   1       4.835   3.335  -4.102  0.00  0.00     0.039 A 
ENDROOT
BRANCH   4   7
ATOM      7  O   UNL d   1       2.348   5.947  -3.649  0.00  0.00    -0.526 OA
ATOM      8  H5  UNL d   1       2.471   6.867  -3.363  0.00  0.00     0.418 HD
ENDBRANCH   4   7
TORSDOF 1
ENDMDL
