MODEL 1
REMARK minimizedAffinity 0.658893168
REMARK minimizedRMSD -1
REMARK  1 active torsions:
REMARK  status: ('A' for Active; 'I' for Inactive)
REMARK    1  A    between atoms: C3_4  and  O_7 
ROOT
ATOM      1  C   UNL d   1      -2.488  -2.759   0.303  0.00  0.00    -0.033 A 
ATOM      2  C1  UNL d   1      -2.906  -2.724  -1.029  0.00  0.00     0.039 A 
ATOM      3  C2  UNL d   1      -1.964  -2.664  -2.058  0.00  0.00    -0.080 A 
ATOM      4  C3  UNL d   1      -0.609  -2.641  -1.742  0.00  0.00     0.150 A 
ATOM      5  C4  UNL d   1      -0.184  -2.679  -0.418  0.00  0.00    -0.007 A 
ATOM      6  C5  UNL d   1      -1.126  -2.738   0.608  0.00  0.00     0.039 A 
ENDROOT
BRANCH   4   7
ATOM      7  O   UNL d   1       0.348  -2.577  -2.711  0.00  0.00    -0.526 OA
ATOM      8  H5  UNL d   1      -0.093  -2.528  -3.576  0.00  0.00     0.418 HD
ENDBRANCH   4   7
TORSDOF 1
ENDMDL
