MODEL 1
REMARK minimizedAffinity -0.303831697
REMARK minimizedRMSD -1
REMARK  1 active torsions:
REMARK  status: ('A' for Active; 'I' for Inactive)
REMARK    1  A    between atoms: C3_4  and  O_7 
ROOT
ATOM      1  C   UNL d   1      -2.561  -5.704  -5.952  0.00  0.00    -0.033 A 
ATOM      2  C1  UNL d   1      -1.783  -4.546  -5.992  0.00  0.00     0.039 A 
ATOM      3  C2  UNL d   1      -1.766  -3.676  -4.900  0.00  0.00    -0.080 A 
ATOM      4  C3  UNL d   1      -2.529  -3.976  -3.775  0.00  0.00     0.150 A 
ATOM      5  C4  UNL d   1      -3.304  -5.131  -3.727  0.00  0.00    -0.007 A 
ATOM      6  C5  UNL d   1      -3.320  -5.998  -4.819  0.00  0.00     0.039 A 
ENDROOT
BRANCH   4   7
ATOM      7  O   UNL d   1      -2.548  -3.155  -2.687  0.00  0.00    -0.526 OA
ATOM      8  H5  UNL d   1      -1.989  -2.383  -2.874  0.00  0.00     0.418 HD
ENDBRANCH   4   7
TORSDOF 1
ENDMDL
