MODEL 1
REMARK minimizedAffinity 12.1997147
REMARK minimizedRMSD -1
REMARK  0 active torsions:
REMARK  status: ('A' for Active; 'I' for Inactive)
ROOT
ATOM      1  C1  DEN d   1      -0.373   0.907   2.311  0.00  0.00     0.130 A 
ATOM      2  C2  DEN d   1       0.333   1.498   3.444  0.00  0.00    -0.031 A 
ATOM      3  C3  DEN d   1       0.686   2.887   3.088  0.00  0.00     0.027 A 
ATOM      4  C4  DEN d   1       0.207   4.174   0.905  0.00  0.00     0.027 A 
ATOM      5  C5  DEN d   1      -0.354   4.086  -0.350  0.00  0.00    -0.003 A 
ATOM      6  C6  DEN d   1      -0.926   2.931  -0.815  0.00  0.00     0.001 A 
ATOM      7  C7  DEN d   1      -0.990   1.830  -0.002  0.00  0.00     0.017 A 
ATOM      8  C8  DEN d   1      -0.420   1.909   1.262  0.00  0.00    -0.094 A 
ATOM      9  C9  DEN d   1       0.143   3.089   1.718  0.00  0.00    -0.072 A 
ENDROOT
TORSDOF 0
ENDMDL
