MODEL 1
REMARK minimizedAffinity 8.5440731
REMARK minimizedRMSD -1
REMARK  0 active torsions:
REMARK  status: ('A' for Active; 'I' for Inactive)
ROOT
ATOM      1  C1  DEN d   1       0.629   4.057  -0.165  0.00  0.00     0.130 A 
ATOM      2  C2  DEN d   1      -0.482   4.135  -1.110  0.00  0.00    -0.031 A 
ATOM      3  C3  DEN d   1      -1.629   3.410  -0.527  0.00  0.00     0.027 A 
ATOM      4  C4  DEN d   1      -1.793   2.186   1.738  0.00  0.00     0.027 A 
ATOM      5  C5  DEN d   1      -1.103   1.839   2.879  0.00  0.00    -0.003 A 
ATOM      6  C6  DEN d   1       0.211   2.175   3.068  0.00  0.00     0.001 A 
ATOM      7  C7  DEN d   1       0.865   2.918   2.121  0.00  0.00     0.017 A 
ATOM      8  C8  DEN d   1       0.179   3.266   0.965  0.00  0.00    -0.094 A 
ATOM      9  C9  DEN d   1      -1.153   2.928   0.798  0.00  0.00    -0.072 A 
ENDROOT
TORSDOF 0
ENDMDL
