MODEL 1
REMARK minimizedAffinity 7.54309654
REMARK minimizedRMSD -1
REMARK  0 active torsions:
REMARK  status: ('A' for Active; 'I' for Inactive)
ROOT
ATOM      1  C1  DEN d   1      -0.450   0.813  -1.253  0.00  0.00     0.130 A 
ATOM      2  C2  DEN d   1       0.293  -0.377  -1.657  0.00  0.00    -0.031 A 
ATOM      3  C3  DEN d   1      -0.670  -1.352  -2.206  0.00  0.00     0.027 A 
ATOM      4  C4  DEN d   1      -3.226  -1.134  -2.473  0.00  0.00     0.027 A 
ATOM      5  C5  DEN d   1      -4.311  -0.311  -2.261  0.00  0.00    -0.003 A 
ATOM      6  C6  DEN d   1      -4.190   0.920  -1.673  0.00  0.00     0.001 A 
ATOM      7  C7  DEN d   1      -2.951   1.383  -1.316  0.00  0.00     0.017 A 
ATOM      8  C8  DEN d   1      -1.854   0.556  -1.519  0.00  0.00    -0.094 A 
ATOM      9  C9  DEN d   1      -1.995  -0.680  -2.127  0.00  0.00    -0.072 A 
ENDROOT
TORSDOF 0
ENDMDL
