MODEL 1
REMARK minimizedAffinity 9.71892166
REMARK minimizedRMSD -1
REMARK  0 active torsions:
REMARK  status: ('A' for Active; 'I' for Inactive)
ROOT
ATOM      1  C1  DEN d   1      -3.255  -0.369  -0.033  0.00  0.00     0.130 A 
ATOM      2  C2  DEN d   1      -2.979  -1.063  -1.287  0.00  0.00    -0.031 A 
ATOM      3  C3  DEN d   1      -1.762  -0.472  -1.879  0.00  0.00     0.027 A 
ATOM      4  C4  DEN d   1      -0.283   1.439  -0.975  0.00  0.00     0.027 A 
ATOM      5  C5  DEN d   1      -0.123   2.347   0.048  0.00  0.00    -0.003 A 
ATOM      6  C6  DEN d   1      -1.007   2.435   1.090  0.00  0.00     0.001 A 
ATOM      7  C7  DEN d   1      -2.068   1.571   1.156  0.00  0.00     0.017 A 
ATOM      8  C8  DEN d   1      -2.240   0.658   0.124  0.00  0.00    -0.094 A 
ATOM      9  C9  DEN d   1      -1.328   0.575  -0.914  0.00  0.00    -0.072 A 
ENDROOT
TORSDOF 0
ENDMDL
