MODEL 1
REMARK minimizedAffinity 13.7501698
REMARK minimizedRMSD -1
REMARK  0 active torsions:
REMARK  status: ('A' for Active; 'I' for Inactive)
ROOT
ATOM      1  C1  DEN d   1      -3.334  -0.745  -1.920  0.00  0.00     0.130 A 
ATOM      2  C2  DEN d   1      -3.574   0.440  -1.101  0.00  0.00    -0.031 A 
ATOM      3  C3  DEN d   1      -2.268   1.063  -0.806  0.00  0.00     0.027 A 
ATOM      4  C4  DEN d   1       0.089   0.315  -1.538  0.00  0.00     0.027 A 
ATOM      5  C5  DEN d   1       0.799  -0.640  -2.233  0.00  0.00    -0.003 A 
ATOM      6  C6  DEN d   1       0.189  -1.706  -2.839  0.00  0.00     0.001 A 
ATOM      7  C7  DEN d   1      -1.176  -1.819  -2.800  0.00  0.00     0.017 A 
ATOM      8  C8  DEN d   1      -1.897  -0.865  -2.094  0.00  0.00    -0.094 A 
ATOM      9  C9  DEN d   1      -1.263   0.212  -1.499  0.00  0.00    -0.072 A 
ENDROOT
TORSDOF 0
ENDMDL
