MODEL 1
REMARK minimizedAffinity 11.5608072
REMARK minimizedRMSD -1
REMARK  0 active torsions:
REMARK  status: ('A' for Active; 'I' for Inactive)
ROOT
ATOM      1  C1  DEN d   1       1.926  -3.157  -5.999  0.00  0.00     0.130 A 
ATOM      2  C2  DEN d   1       0.733  -2.982  -5.175  0.00  0.00    -0.031 A 
ATOM      3  C3  DEN d   1       0.939  -3.718  -3.912  0.00  0.00     0.027 A 
ATOM      4  C4  DEN d   1       2.980  -5.101  -3.154  0.00  0.00     0.027 A 
ATOM      5  C5  DEN d   1       4.230  -5.549  -3.518  0.00  0.00    -0.003 A 
ATOM      6  C6  DEN d   1       4.781  -5.262  -4.739  0.00  0.00     0.001 A 
ATOM      7  C7  DEN d   1       4.099  -4.468  -5.622  0.00  0.00     0.017 A 
ATOM      8  C8  DEN d   1       2.835  -4.018  -5.264  0.00  0.00    -0.094 A 
ATOM      9  C9  DEN d   1       2.300  -4.309  -4.021  0.00  0.00    -0.072 A 
ENDROOT
TORSDOF 0
ENDMDL
