MODEL 1
REMARK minimizedAffinity 5.05772257
REMARK minimizedRMSD -1
REMARK  0 active torsions:
REMARK  status: ('A' for Active; 'I' for Inactive)
ROOT
ATOM      1  C2' OXE d   1      -1.566   2.711   1.803  0.00  0.00     0.078 C 
ATOM      2  C1' OXE d   1       1.176   2.514   2.373  0.00  0.00     0.078 C 
ATOM      3  C1  OXE d   1       0.724   2.194   0.970  0.00  0.00    -0.078 A 
ATOM      4  C2  OXE d   1      -0.624   2.247   0.712  0.00  0.00    -0.078 A 
ATOM      5  C3  OXE d   1      -1.089   2.014  -0.579  0.00  0.00     0.003 A 
ATOM      6  C4  OXE d   1      -0.213   1.576  -1.579  0.00  0.00    -0.002 A 
ATOM      7  C5  OXE d   1       1.159   1.476  -1.327  0.00  0.00    -0.002 A 
ATOM      8  C6  OXE d   1       1.649   1.822  -0.073  0.00  0.00     0.003 A 
ENDROOT
TORSDOF 0
ENDMDL
