MODEL 1
REMARK minimizedAffinity 16.7281284
REMARK minimizedRMSD -1
REMARK  0 active torsions:
REMARK  status: ('A' for Active; 'I' for Inactive)
ROOT
ATOM      1  C2' OXE d   1      -6.000  -2.364   2.431  0.00  0.00     0.078 C 
ATOM      2  C1' OXE d   1      -5.970  -2.741   5.213  0.00  0.00     0.078 C 
ATOM      3  C1  OXE d   1      -5.970  -1.325   4.694  0.00  0.00    -0.078 A 
ATOM      4  C2  OXE d   1      -5.938  -1.150   3.332  0.00  0.00    -0.078 A 
ATOM      5  C3  OXE d   1      -5.993   0.135   2.800  0.00  0.00     0.003 A 
ATOM      6  C4  OXE d   1      -5.925   1.253   3.640  0.00  0.00    -0.002 A 
ATOM      7  C5  OXE d   1      -5.917   1.097   5.031  0.00  0.00    -0.002 A 
ATOM      8  C6  OXE d   1      -5.982  -0.181   5.573  0.00  0.00     0.003 A 
ENDROOT
TORSDOF 0
ENDMDL
