MODEL 1
REMARK minimizedAffinity 10.261116
REMARK minimizedRMSD -1
REMARK  0 active torsions:
REMARK  status: ('A' for Active; 'I' for Inactive)
ROOT
ATOM      1  C2' OXE d   1       1.547   4.792  -1.063  0.00  0.00     0.078 C 
ATOM      2  C1' OXE d   1       1.259   2.011  -1.318  0.00  0.00     0.078 C 
ATOM      3  C1  OXE d   1       1.888   2.540  -0.053  0.00  0.00    -0.078 A 
ATOM      4  C2  OXE d   1       2.068   3.899   0.043  0.00  0.00    -0.078 A 
ATOM      5  C3  OXE d   1       2.593   4.444   1.211  0.00  0.00     0.003 A 
ATOM      6  C4  OXE d   1       3.081   3.611   2.224  0.00  0.00    -0.002 A 
ATOM      7  C5  OXE d   1       2.944   2.222   2.129  0.00  0.00    -0.002 A 
ATOM      8  C6  OXE d   1       2.313   1.674   1.018  0.00  0.00     0.003 A 
ENDROOT
TORSDOF 0
ENDMDL
