MODEL 1
REMARK minimizedAffinity 4.13607836
REMARK minimizedRMSD -1
REMARK  0 active torsions:
REMARK  status: ('A' for Active; 'I' for Inactive)
ROOT
ATOM      1  C2' OXE d   1      -0.392   1.286  -1.062  0.00  0.00     0.078 C 
ATOM      2  C1' OXE d   1       2.032   1.888  -2.344  0.00  0.00     0.078 C 
ATOM      3  C1  OXE d   1       1.844   0.487  -1.818  0.00  0.00    -0.078 A 
ATOM      4  C2  OXE d   1       0.674   0.215  -1.151  0.00  0.00    -0.078 A 
ATOM      5  C3  OXE d   1       0.426  -1.076  -0.693  0.00  0.00     0.003 A 
ATOM      6  C4  OXE d   1       1.421  -2.059  -0.770  0.00  0.00    -0.002 A 
ATOM      7  C5  OXE d   1       2.635  -1.791  -1.411  0.00  0.00    -0.002 A 
ATOM      8  C6  OXE d   1       2.845  -0.538  -1.976  0.00  0.00     0.003 A 
ENDROOT
TORSDOF 0
ENDMDL
