MODEL 1
REMARK minimizedAffinity 1.13429117
REMARK minimizedRMSD -1
REMARK  0 active torsions:
REMARK  status: ('A' for Active; 'I' for Inactive)
ROOT
ATOM      1  C2' OXE d   1       1.913   0.820  -3.006  0.00  0.00     0.078 C 
ATOM      2  C1' OXE d   1       0.861  -1.754  -3.396  0.00  0.00     0.078 C 
ATOM      3  C1  OXE d   1       1.541  -1.464  -2.082  0.00  0.00    -0.078 A 
ATOM      4  C2  OXE d   1       2.094  -0.216  -1.917  0.00  0.00    -0.078 A 
ATOM      5  C3  OXE d   1       2.685   0.121  -0.703  0.00  0.00     0.003 A 
ATOM      6  C4  OXE d   1       2.857  -0.846   0.294  0.00  0.00    -0.002 A 
ATOM      7  C5  OXE d   1       2.337  -2.134   0.132  0.00  0.00    -0.002 A 
ATOM      8  C6  OXE d   1       1.640  -2.446  -1.030  0.00  0.00     0.003 A 
ENDROOT
TORSDOF 0
ENDMDL
