MODEL 1
REMARK minimizedAffinity 2.49216366
REMARK minimizedRMSD -1
REMARK  0 active torsions:
REMARK  status: ('A' for Active; 'I' for Inactive)
ROOT
ATOM      1  C2' OXE d   1       2.664   0.257  -2.282  0.00  0.00     0.078 C 
ATOM      2  C1' OXE d   1       4.222  -1.087  -0.372  0.00  0.00     0.078 C 
ATOM      3  C1  OXE d   1       2.821  -1.588  -0.616  0.00  0.00    -0.078 A 
ATOM      4  C2  OXE d   1       2.050  -0.896  -1.518  0.00  0.00    -0.078 A 
ATOM      5  C3  OXE d   1       0.768  -1.349  -1.820  0.00  0.00     0.003 A 
ATOM      6  C4  OXE d   1       0.204  -2.410  -1.102  0.00  0.00    -0.002 A 
ATOM      7  C5  OXE d   1       0.958  -3.104  -0.150  0.00  0.00    -0.002 A 
ATOM      8  C6  OXE d   1       2.280  -2.733   0.074  0.00  0.00     0.003 A 
ENDROOT
TORSDOF 0
ENDMDL
