MODEL 1
REMARK minimizedAffinity 10.7076912
REMARK minimizedRMSD -1
REMARK  0 active torsions:
REMARK  status: ('A' for Active; 'I' for Inactive)
ROOT
ATOM      1  C2' OXE d   1       4.052   0.227  -2.216  0.00  0.00     0.078 C 
ATOM      2  C1' OXE d   1       2.152  -1.675  -1.410  0.00  0.00     0.078 C 
ATOM      3  C1  OXE d   1       1.696  -0.246  -1.562  0.00  0.00    -0.078 A 
ATOM      4  C2  OXE d   1       2.643   0.687  -1.911  0.00  0.00    -0.078 A 
ATOM      5  C3  OXE d   1       2.264   2.010  -2.117  0.00  0.00     0.003 A 
ATOM      6  C4  OXE d   1       0.961   2.428  -1.823  0.00  0.00    -0.002 A 
ATOM      7  C5  OXE d   1      -0.010   1.502  -1.427  0.00  0.00    -0.002 A 
ATOM      8  C6  OXE d   1       0.330   0.157  -1.333  0.00  0.00     0.003 A 
ENDROOT
TORSDOF 0
ENDMDL
