MODEL 1
REMARK minimizedAffinity -0.614968538
REMARK minimizedRMSD -1
REMARK  0 active torsions:
REMARK  status: ('A' for Active; 'I' for Inactive)
ROOT
ATOM      1  C2' OXE d   1       5.672  -5.264   6.000  0.00  0.00     0.078 C 
ATOM      2  C1' OXE d   1       6.000  -5.334   3.213  0.00  0.00     0.078 C 
ATOM      3  C1  OXE d   1       5.903  -3.983   3.876  0.00  0.00    -0.078 A 
ATOM      4  C2  OXE d   1       5.695  -3.959   5.234  0.00  0.00    -0.078 A 
ATOM      5  C3  OXE d   1       5.653  -2.739   5.903  0.00  0.00     0.003 A 
ATOM      6  C4  OXE d   1       5.666  -1.536   5.186  0.00  0.00    -0.002 A 
ATOM      7  C5  OXE d   1       5.836  -1.539   3.798  0.00  0.00    -0.002 A 
ATOM      8  C6  OXE d   1       5.999  -2.750   3.134  0.00  0.00     0.003 A 
ENDROOT
TORSDOF 0
ENDMDL
