MODEL 1
REMARK minimizedAffinity 7.17322779
REMARK minimizedRMSD -1
REMARK  0 active torsions:
REMARK  status: ('A' for Active; 'I' for Inactive)
ROOT
ATOM      1  C2' OXE d   1      -5.565  -2.553   2.175  0.00  0.00     0.078 C 
ATOM      2  C1' OXE d   1      -2.775  -2.246   2.227  0.00  0.00     0.078 C 
ATOM      3  C1  OXE d   1      -3.509  -1.802   0.987  0.00  0.00    -0.078 A 
ATOM      4  C2  OXE d   1      -4.868  -1.999   0.951  0.00  0.00    -0.078 A 
ATOM      5  C3  OXE d   1      -5.601  -1.557  -0.147  0.00  0.00     0.003 A 
ATOM      6  C4  OXE d   1      -4.948  -1.054  -1.279  0.00  0.00    -0.002 A 
ATOM      7  C5  OXE d   1      -3.559  -0.882  -1.279  0.00  0.00    -0.002 A 
ATOM      8  C6  OXE d   1      -2.832  -1.210  -0.141  0.00  0.00     0.003 A 
ENDROOT
TORSDOF 0
ENDMDL
