MODEL 1
REMARK minimizedAffinity 1.50233042
REMARK minimizedRMSD -1
REMARK  0 active torsions:
REMARK  status: ('A' for Active; 'I' for Inactive)
ROOT
ATOM      1  C2' OXE d   1       2.245   0.239  -1.979  0.00  0.00     0.078 C 
ATOM      2  C1' OXE d   1       4.060  -1.082  -0.293  0.00  0.00     0.078 C 
ATOM      3  C1  OXE d   1       2.662  -1.638  -0.395  0.00  0.00    -0.078 A 
ATOM      4  C2  OXE d   1       1.767  -0.958  -1.186  0.00  0.00    -0.078 A 
ATOM      5  C3  OXE d   1       0.480  -1.459  -1.358  0.00  0.00     0.003 A 
ATOM      6  C4  OXE d   1       0.042  -2.560  -0.612  0.00  0.00    -0.002 A 
ATOM      7  C5  OXE d   1       0.926  -3.244   0.230  0.00  0.00    -0.002 A 
ATOM      8  C6  OXE d   1       2.248  -2.822   0.317  0.00  0.00     0.003 A 
ENDROOT
TORSDOF 0
ENDMDL
