MODEL 1
REMARK minimizedAffinity 4.6391139
REMARK minimizedRMSD -1
REMARK  0 active torsions:
REMARK  status: ('A' for Active; 'I' for Inactive)
ROOT
ATOM      1  C2' OXE d   1       0.837  -2.975  -1.837  0.00  0.00     0.078 C 
ATOM      2  C1' OXE d   1       2.772  -3.910  -0.031  0.00  0.00     0.078 C 
ATOM      3  C1  OXE d   1       3.110  -2.694  -0.857  0.00  0.00    -0.078 A 
ATOM      4  C2  OXE d   1       2.175  -2.271  -1.772  0.00  0.00    -0.078 A 
ATOM      5  C3  OXE d   1       2.414  -1.122  -2.520  0.00  0.00     0.003 A 
ATOM      6  C4  OXE d   1       3.659  -0.484  -2.461  0.00  0.00    -0.002 A 
ATOM      7  C5  OXE d   1       4.640  -0.922  -1.565  0.00  0.00    -0.002 A 
ATOM      8  C6  OXE d   1       4.366  -1.997  -0.727  0.00  0.00     0.003 A 
ENDROOT
TORSDOF 0
ENDMDL
