MODEL 1
REMARK minimizedAffinity 2.09906769
REMARK minimizedRMSD -1
REMARK  0 active torsions:
REMARK  status: ('A' for Active; 'I' for Inactive)
ROOT
ATOM      1  C2' OXE d   1       4.597  -0.784  -0.742  0.00  0.00     0.078 C 
ATOM      2  C1' OXE d   1       2.485  -2.081  -2.061  0.00  0.00     0.078 C 
ATOM      3  C1  OXE d   1       2.472  -0.573  -2.025  0.00  0.00    -0.078 A 
ATOM      4  C2  OXE d   1       3.485   0.052  -1.338  0.00  0.00    -0.078 A 
ATOM      5  C3  OXE d   1       3.551   1.442  -1.321  0.00  0.00     0.003 A 
ATOM      6  C4  OXE d   1       2.513   2.208  -1.866  0.00  0.00    -0.002 A 
ATOM      7  C5  OXE d   1       1.452   1.590  -2.536  0.00  0.00    -0.002 A 
ATOM      8  C6  OXE d   1       1.438   0.205  -2.662  0.00  0.00     0.003 A 
ENDROOT
TORSDOF 0
ENDMDL
