MODEL 1
REMARK minimizedAffinity 2.3972435
REMARK minimizedRMSD -1
REMARK  0 active torsions:
REMARK  status: ('A' for Active; 'I' for Inactive)
ROOT
ATOM      1  C2' OXE d   1       1.785   0.841  -1.269  0.00  0.00     0.078 C 
ATOM      2  C1' OXE d   1      -0.925   1.509  -1.565  0.00  0.00     0.078 C 
ATOM      3  C1  OXE d   1      -0.247   1.878  -0.270  0.00  0.00    -0.078 A 
ATOM      4  C2  OXE d   1       1.066   1.506  -0.115  0.00  0.00    -0.078 A 
ATOM      5  C3  OXE d   1       1.755   1.870   1.038  0.00  0.00     0.003 A 
ATOM      6  C4  OXE d   1       1.081   2.476   2.105  0.00  0.00    -0.002 A 
ATOM      7  C5  OXE d   1      -0.268   2.828   1.984  0.00  0.00    -0.002 A 
ATOM      8  C6  OXE d   1      -0.934   2.576   0.790  0.00  0.00     0.003 A 
ENDROOT
TORSDOF 0
ENDMDL
