MODEL 1
REMARK minimizedAffinity 0.776729882
REMARK minimizedRMSD -1
REMARK  0 active torsions:
REMARK  status: ('A' for Active; 'I' for Inactive)
ROOT
ATOM      1  C2' OXE d   1      -0.702   3.725  -1.871  0.00  0.00     0.078 C 
ATOM      2  C1' OXE d   1       0.767   1.340  -1.681  0.00  0.00     0.078 C 
ATOM      3  C1  OXE d   1       0.533   2.125  -0.414  0.00  0.00    -0.078 A 
ATOM      4  C2  OXE d   1      -0.146   3.314  -0.524  0.00  0.00    -0.078 A 
ATOM      5  C3  OXE d   1      -0.436   4.051   0.621  0.00  0.00     0.003 A 
ATOM      6  C4  OXE d   1       0.090   3.670   1.861  0.00  0.00    -0.002 A 
ATOM      7  C5  OXE d   1       0.818   2.482   1.988  0.00  0.00    -0.002 A 
ATOM      8  C6  OXE d   1       1.012   1.678   0.870  0.00  0.00     0.003 A 
ENDROOT
TORSDOF 0
ENDMDL
