MODEL 1
REMARK minimizedAffinity 2.90788555
REMARK minimizedRMSD -1
REMARK  0 active torsions:
REMARK  status: ('A' for Active; 'I' for Inactive)
ROOT
ATOM      1  C2' OXE d   1      -0.019   1.858   1.325  0.00  0.00     0.078 C 
ATOM      2  C1' OXE d   1       2.771   2.131   1.465  0.00  0.00     0.078 C 
ATOM      3  C1  OXE d   1       2.173   1.678   0.157  0.00  0.00    -0.078 A 
ATOM      4  C2  OXE d   1       0.811   1.502   0.111  0.00  0.00    -0.078 A 
ATOM      5  C3  OXE d   1       0.203   1.138  -1.087  0.00  0.00     0.003 A 
ATOM      6  C4  OXE d   1       0.979   0.801  -2.203  0.00  0.00    -0.002 A 
ATOM      7  C5  OXE d   1       2.371   0.935  -2.165  0.00  0.00    -0.002 A 
ATOM      8  C6  OXE d   1       2.979   1.412  -1.009  0.00  0.00     0.003 A 
ENDROOT
TORSDOF 0
ENDMDL
