MODEL 1
REMARK minimizedAffinity 13.3655977
REMARK minimizedRMSD -1
REMARK  0 active torsions:
REMARK  status: ('A' for Active; 'I' for Inactive)
ROOT
ATOM      1  C2' OXE d   1      -1.343   3.178   1.299  0.00  0.00     0.078 C 
ATOM      2  C1' OXE d   1       1.171   2.336   2.221  0.00  0.00     0.078 C 
ATOM      3  C1  OXE d   1       0.814   2.043   0.785  0.00  0.00    -0.078 A 
ATOM      4  C2  OXE d   1      -0.437   2.418   0.356  0.00  0.00    -0.078 A 
ATOM      5  C3  OXE d   1      -0.797   2.220  -0.974  0.00  0.00     0.003 A 
ATOM      6  C4  OXE d   1       0.043   1.507  -1.838  0.00  0.00    -0.002 A 
ATOM      7  C5  OXE d   1       1.305   1.082  -1.410  0.00  0.00    -0.002 A 
ATOM      8  C6  OXE d   1       1.722   1.379  -0.117  0.00  0.00     0.003 A 
ENDROOT
TORSDOF 0
ENDMDL
