MODEL 1
REMARK minimizedAffinity 11.0229578
REMARK minimizedRMSD -1
REMARK  0 active torsions:
REMARK  status: ('A' for Active; 'I' for Inactive)
ROOT
ATOM      1  C2' OXE d   1      -1.352   3.062   1.424  0.00  0.00     0.078 C 
ATOM      2  C1' OXE d   1       1.288   2.821   2.348  0.00  0.00     0.078 C 
ATOM      3  C1  OXE d   1       0.979   2.318   0.960  0.00  0.00    -0.078 A 
ATOM      4  C2  OXE d   1      -0.325   2.398   0.534  0.00  0.00    -0.078 A 
ATOM      5  C3  OXE d   1      -0.653   1.999  -0.759  0.00  0.00     0.003 A 
ATOM      6  C4  OXE d   1       0.301   1.377  -1.573  0.00  0.00    -0.002 A 
ATOM      7  C5  OXE d   1       1.626   1.250  -1.143  0.00  0.00    -0.002 A 
ATOM      8  C6  OXE d   1       1.991   1.753   0.101  0.00  0.00     0.003 A 
ENDROOT
TORSDOF 0
ENDMDL
