MODEL 1
REMARK minimizedAffinity 12.6187897
REMARK minimizedRMSD -1
REMARK  0 active torsions:
REMARK  status: ('A' for Active; 'I' for Inactive)
ROOT
ATOM      1  C2' OXE d   1       1.847  -1.967  -1.574  0.00  0.00     0.078 C 
ATOM      2  C1' OXE d   1       3.878  -0.097  -2.078  0.00  0.00     0.078 C 
ATOM      3  C1  OXE d   1       2.469   0.418  -1.932  0.00  0.00    -0.078 A 
ATOM      4  C2  OXE d   1       1.474  -0.509  -1.732  0.00  0.00    -0.078 A 
ATOM      5  C3  OXE d   1       0.164  -0.083  -1.535  0.00  0.00     0.003 A 
ATOM      6  C4  OXE d   1      -0.174   1.267  -1.693  0.00  0.00    -0.002 A 
ATOM      7  C5  OXE d   1       0.818   2.223  -1.936  0.00  0.00    -0.002 A 
ATOM      8  C6  OXE d   1       2.147   1.821  -2.016  0.00  0.00     0.003 A 
ENDROOT
TORSDOF 0
ENDMDL
