MODEL 1
REMARK minimizedAffinity 10.5070696
REMARK minimizedRMSD -1
REMARK  0 active torsions:
REMARK  status: ('A' for Active; 'I' for Inactive)
ROOT
ATOM      1  N1  IND d   1       5.983  -0.715  -5.958  0.00  0.00    -0.196 N 
ATOM      2  C2  IND d   1       5.010  -1.668  -5.846  0.00  0.00     0.054 A 
ATOM      3  C3  IND d   1       3.838  -1.103  -5.478  0.00  0.00    -0.031 A 
ATOM      4  C4  IND d   1       3.265   1.379  -5.105  0.00  0.00     0.051 A 
ATOM      5  C5  IND d   1       3.835   2.620  -5.055  0.00  0.00    -0.031 A 
ATOM      6  C6  IND d   1       5.176   2.818  -5.312  0.00  0.00     0.015 A 
ATOM      7  C7  IND d   1       5.999   1.778  -5.640  0.00  0.00    -0.016 A 
ATOM      8  C8  IND d   1       5.426   0.515  -5.685  0.00  0.00    -0.047 A 
ATOM      9  C9  IND d   1       4.074   0.303  -5.384  0.00  0.00    -0.096 A 
ATOM     10  HN1 IND d   1       6.805  -0.859  -6.165  0.00  0.00     0.298 HD
ENDROOT
TORSDOF 0
ENDMDL
