MODEL 1
REMARK minimizedAffinity -1.07438219
REMARK minimizedRMSD -1
REMARK  0 active torsions:
REMARK  status: ('A' for Active; 'I' for Inactive)
ROOT
ATOM      1  N1  IND d   1       1.755  -0.025  -0.152  0.00  0.00    -0.196 N 
ATOM      2  C2  IND d   1       1.736   1.287  -0.535  0.00  0.00     0.054 A 
ATOM      3  C3  IND d   1       0.468   1.757  -0.542  0.00  0.00    -0.031 A 
ATOM      4  C4  IND d   1      -1.717   0.577   0.137  0.00  0.00     0.051 A 
ATOM      5  C5  IND d   1      -2.211  -0.638   0.522  0.00  0.00    -0.031 A 
ATOM      6  C6  IND d   1      -1.391  -1.732   0.708  0.00  0.00     0.015 A 
ATOM      7  C7  IND d   1      -0.039  -1.649   0.527  0.00  0.00    -0.016 A 
ATOM      8  C8  IND d   1       0.465  -0.418   0.129  0.00  0.00    -0.047 A 
ATOM      9  C9  IND d   1      -0.367   0.685  -0.102  0.00  0.00    -0.096 A 
ATOM     10  HN1 IND d   1       2.455  -0.521  -0.095  0.00  0.00     0.298 HD
ENDROOT
TORSDOF 0
ENDMDL
