MODEL 1
REMARK minimizedAffinity -1.43882966
REMARK minimizedRMSD -1
REMARK  0 active torsions:
REMARK  status: ('A' for Active; 'I' for Inactive)
ROOT
ATOM      1  N1  IND d   1       1.559  -1.024   2.721  0.00  0.00    -0.196 N 
ATOM      2  C2  IND d   1       2.685  -0.290   2.973  0.00  0.00     0.054 A 
ATOM      3  C3  IND d   1       2.772   0.748   2.112  0.00  0.00    -0.031 A 
ATOM      4  C4  IND d   1       1.127   1.493   0.276  0.00  0.00     0.051 A 
ATOM      5  C5  IND d   1      -0.026   1.117  -0.354  0.00  0.00    -0.031 A 
ATOM      6  C6  IND d   1      -0.726  -0.013   0.019  0.00  0.00     0.015 A 
ATOM      7  C7  IND d   1      -0.302  -0.806   1.047  0.00  0.00    -0.016 A 
ATOM      8  C8  IND d   1       0.873  -0.432   1.684  0.00  0.00    -0.047 A 
ATOM      9  C9  IND d   1       1.610   0.690   1.283  0.00  0.00    -0.096 A 
ATOM     10  HN1 IND d   1       1.320  -1.736   3.140  0.00  0.00     0.298 HD
ENDROOT
TORSDOF 0
ENDMDL
