MODEL 1
REMARK minimizedAffinity -3.34626937
REMARK minimizedRMSD -1
REMARK  0 active torsions:
REMARK  status: ('A' for Active; 'I' for Inactive)
ROOT
ATOM      1  N1  IND d   1       1.366  -1.283   1.906  0.00  0.00    -0.196 N 
ATOM      2  C2  IND d   1       2.708  -1.047   2.018  0.00  0.00     0.054 A 
ATOM      3  C3  IND d   1       3.027   0.134   1.443  0.00  0.00    -0.031 A 
ATOM      4  C4  IND d   1       1.494   1.889   0.348  0.00  0.00     0.051 A 
ATOM      5  C5  IND d   1       0.196   2.103  -0.023  0.00  0.00    -0.031 A 
ATOM      6  C6  IND d   1      -0.799   1.183   0.237  0.00  0.00     0.015 A 
ATOM      7  C7  IND d   1      -0.533   0.013   0.892  0.00  0.00    -0.016 A 
ATOM      8  C8  IND d   1       0.784  -0.211   1.264  0.00  0.00    -0.047 A 
ATOM      9  C9  IND d   1       1.806   0.700   0.965  0.00  0.00    -0.096 A 
ATOM     10  HN1 IND d   1       0.954  -1.983   2.188  0.00  0.00     0.298 HD
ENDROOT
TORSDOF 0
ENDMDL
