MODEL 1
REMARK minimizedAffinity 12.3420858
REMARK minimizedRMSD -1
REMARK  0 active torsions:
REMARK  status: ('A' for Active; 'I' for Inactive)
ROOT
ATOM      1  N1  IND d   1      -3.168  -0.053  -5.000  0.00  0.00    -0.196 N 
ATOM      2  C2  IND d   1      -2.627  -0.746  -3.953  0.00  0.00     0.054 A 
ATOM      3  C3  IND d   1      -2.828  -0.080  -2.794  0.00  0.00    -0.031 A 
ATOM      4  C4  IND d   1      -4.106   2.114  -2.368  0.00  0.00     0.051 A 
ATOM      5  C5  IND d   1      -4.744   3.132  -3.019  0.00  0.00    -0.031 A 
ATOM      6  C6  IND d   1      -4.894   3.140  -4.391  0.00  0.00     0.015 A 
ATOM      7  C7  IND d   1      -4.420   2.119  -5.165  0.00  0.00    -0.016 A 
ATOM      8  C8  IND d   1      -3.766   1.087  -4.509  0.00  0.00    -0.047 A 
ATOM      9  C9  IND d   1      -3.573   1.094  -3.121  0.00  0.00    -0.096 A 
ATOM     10  HN1 IND d   1      -3.139  -0.289  -5.826  0.00  0.00     0.298 HD
ENDROOT
TORSDOF 0
ENDMDL
