MODEL 1
REMARK minimizedAffinity 6.14052677
REMARK minimizedRMSD -1
REMARK  0 active torsions:
REMARK  status: ('A' for Active; 'I' for Inactive)
ROOT
ATOM      1  N1  IND d   1      -1.260  -2.232   0.882  0.00  0.00    -0.196 N 
ATOM      2  C2  IND d   1      -0.027  -2.123   1.461  0.00  0.00     0.054 A 
ATOM      3  C3  IND d   1       0.935  -2.060   0.513  0.00  0.00    -0.031 A 
ATOM      4  C4  IND d   1       0.702  -2.017  -2.051  0.00  0.00     0.051 A 
ATOM      5  C5  IND d   1      -0.222  -2.130  -3.050  0.00  0.00    -0.031 A 
ATOM      6  C6  IND d   1      -1.568  -2.284  -2.785  0.00  0.00     0.015 A 
ATOM      7  C7  IND d   1      -2.042  -2.318  -1.504  0.00  0.00    -0.016 A 
ATOM      8  C8  IND d   1      -1.105  -2.211  -0.487  0.00  0.00    -0.047 A 
ATOM      9  C9  IND d   1       0.266  -2.098  -0.749  0.00  0.00    -0.096 A 
ATOM     10  HN1 IND d   1      -2.007  -2.303   1.302  0.00  0.00     0.298 HD
ENDROOT
TORSDOF 0
ENDMDL
