MODEL 1
REMARK minimizedAffinity 4.94946194
REMARK minimizedRMSD -1
REMARK  0 active torsions:
REMARK  status: ('A' for Active; 'I' for Inactive)
ROOT
ATOM      1  N1  IND d   1       0.034  -0.778   0.470  0.00  0.00    -0.196 N 
ATOM      2  C2  IND d   1       0.146   0.196  -0.483  0.00  0.00     0.054 A 
ATOM      3  C3  IND d   1       1.071   1.110  -0.114  0.00  0.00    -0.031 A 
ATOM      4  C4  IND d   1       2.595   1.150   1.961  0.00  0.00     0.051 A 
ATOM      5  C5  IND d   1       2.834   0.493   3.135  0.00  0.00    -0.031 A 
ATOM      6  C6  IND d   1       2.140  -0.647   3.486  0.00  0.00     0.015 A 
ATOM      7  C7  IND d   1       1.184  -1.180   2.668  0.00  0.00    -0.016 A 
ATOM      8  C8  IND d   1       0.934  -0.511   1.478  0.00  0.00    -0.047 A 
ATOM      9  C9  IND d   1       1.605   0.670   1.136  0.00  0.00    -0.096 A 
ATOM     10  HN1 IND d   1      -0.507  -1.446   0.443  0.00  0.00     0.298 HD
ENDROOT
TORSDOF 0
ENDMDL
