MODEL 1
REMARK minimizedAffinity 6.14057541
REMARK minimizedRMSD -1
REMARK  0 active torsions:
REMARK  status: ('A' for Active; 'I' for Inactive)
ROOT
ATOM      1  N1  IND d   1       4.509  -3.197  -5.998  0.00  0.00    -0.196 N 
ATOM      2  C2  IND d   1       3.155  -3.366  -5.915  0.00  0.00     0.054 A 
ATOM      3  C3  IND d   1       2.538  -2.168  -5.804  0.00  0.00    -0.031 A 
ATOM      4  C4  IND d   1       3.546   0.201  -5.840  0.00  0.00     0.051 A 
ATOM      5  C5  IND d   1       4.742   0.862  -5.862  0.00  0.00    -0.031 A 
ATOM      6  C6  IND d   1       5.945   0.191  -5.935  0.00  0.00     0.015 A 
ATOM      7  C7  IND d   1       5.998  -1.173  -6.000  0.00  0.00    -0.016 A 
ATOM      8  C8  IND d   1       4.786  -1.848  -5.971  0.00  0.00    -0.047 A 
ATOM      9  C9  IND d   1       3.563  -1.174  -5.854  0.00  0.00    -0.096 A 
ATOM     10  HN1 IND d   1       5.091  -3.828  -6.057  0.00  0.00     0.298 HD
ENDROOT
TORSDOF 0
ENDMDL
