MODEL 1
REMARK minimizedAffinity 2.5201304
REMARK minimizedRMSD -1
REMARK  0 active torsions:
REMARK  status: ('A' for Active; 'I' for Inactive)
ROOT
ATOM      1  C1  DEN d   1       1.926  -2.805  -0.132  0.00  0.00     0.130 A 
ATOM      2  C2  DEN d   1       1.035  -2.169   0.834  0.00  0.00    -0.031 A 
ATOM      3  C3  DEN d   1       1.548  -2.459   2.188  0.00  0.00     0.027 A 
ATOM      4  C4  DEN d   1       3.627  -3.821   2.878  0.00  0.00     0.027 A 
ATOM      5  C5  DEN d   1       4.687  -4.565   2.410  0.00  0.00    -0.003 A 
ATOM      6  C6  DEN d   1       4.881  -4.801   1.075  0.00  0.00     0.001 A 
ATOM      7  C7  DEN d   1       4.026  -4.250   0.157  0.00  0.00     0.017 A 
ATOM      8  C8  DEN d   1       2.950  -3.505   0.622  0.00  0.00    -0.094 A 
ATOM      9  C9  DEN d   1       2.778  -3.268   1.975  0.00  0.00    -0.072 A 
ENDROOT
TORSDOF 0
ENDMDL
