MODEL 1
REMARK minimizedAffinity 13.0022163
REMARK minimizedRMSD -1
REMARK  0 active torsions:
REMARK  status: ('A' for Active; 'I' for Inactive)
ROOT
ATOM      1  C1  DEN d   1       4.809  -4.545   2.251  0.00  0.00     0.130 A 
ATOM      2  C2  DEN d   1       4.291  -5.861   2.614  0.00  0.00    -0.031 A 
ATOM      3  C3  DEN d   1       4.334  -5.979   4.085  0.00  0.00     0.027 A 
ATOM      4  C4  DEN d   1       5.143  -4.259   5.828  0.00  0.00     0.027 A 
ATOM      5  C5  DEN d   1       5.681  -3.003   6.000  0.00  0.00    -0.003 A 
ATOM      6  C6  DEN d   1       5.995  -2.192   4.941  0.00  0.00     0.001 A 
ATOM      7  C7  DEN d   1       5.732  -2.611   3.664  0.00  0.00     0.017 A 
ATOM      8  C8  DEN d   1       5.196  -3.880   3.483  0.00  0.00    -0.094 A 
ATOM      9  C9  DEN d   1       4.874  -4.679   4.566  0.00  0.00    -0.072 A 
ENDROOT
TORSDOF 0
ENDMDL
