MODEL 1
REMARK minimizedAffinity 10.6003761
REMARK minimizedRMSD -1
REMARK  0 active torsions:
REMARK  status: ('A' for Active; 'I' for Inactive)
ROOT
ATOM      1  C1  DEN d   1       4.526  -3.515   2.300  0.00  0.00     0.130 A 
ATOM      2  C2  DEN d   1       4.525  -4.696   1.440  0.00  0.00    -0.031 A 
ATOM      3  C3  DEN d   1       4.758  -5.880   2.291  0.00  0.00     0.027 A 
ATOM      4  C4  DEN d   1       5.113  -6.000   4.843  0.00  0.00     0.027 A 
ATOM      5  C5  DEN d   1       5.209  -5.257   5.999  0.00  0.00    -0.003 A 
ATOM      6  C6  DEN d   1       5.118  -3.890   5.999  0.00  0.00     0.001 A 
ATOM      7  C7  DEN d   1       4.881  -3.226   4.824  0.00  0.00     0.017 A 
ATOM      8  C8  DEN d   1       4.791  -3.968   3.654  0.00  0.00    -0.094 A 
ATOM      9  C9  DEN d   1       4.873  -5.350   3.677  0.00  0.00    -0.072 A 
ENDROOT
TORSDOF 0
ENDMDL
