MODEL 1
REMARK minimizedAffinity 3.17920208
REMARK minimizedRMSD -1
REMARK  0 active torsions:
REMARK  status: ('A' for Active; 'I' for Inactive)
ROOT
ATOM      1  C1  DEN d   1       2.955  -3.379  -0.676  0.00  0.00     0.130 A 
ATOM      2  C2  DEN d   1       3.042  -3.422   0.781  0.00  0.00    -0.031 A 
ATOM      3  C3  DEN d   1       4.136  -4.345   1.145  0.00  0.00     0.027 A 
ATOM      4  C4  DEN d   1       5.698  -5.699  -0.397  0.00  0.00     0.027 A 
ATOM      5  C5  DEN d   1       6.000  -5.996  -1.708  0.00  0.00    -0.003 A 
ATOM      6  C6  DEN d   1       5.291  -5.473  -2.757  0.00  0.00     0.001 A 
ATOM      7  C7  DEN d   1       4.274  -4.589  -2.515  0.00  0.00     0.017 A 
ATOM      8  C8  DEN d   1       3.959  -4.289  -1.196  0.00  0.00    -0.094 A 
ATOM      9  C9  DEN d   1       4.695  -4.819  -0.149  0.00  0.00    -0.072 A 
ENDROOT
TORSDOF 0
ENDMDL
