MODEL 1
REMARK minimizedAffinity 0.383011907
REMARK minimizedRMSD -1
REMARK  0 active torsions:
REMARK  status: ('A' for Active; 'I' for Inactive)
ROOT
ATOM      1  C1  DEN d   1       2.839   2.192  -5.930  0.00  0.00     0.130 A 
ATOM      2  C2  DEN d   1       4.036   1.357  -5.882  0.00  0.00    -0.031 A 
ATOM      3  C3  DEN d   1       5.213   2.248  -5.847  0.00  0.00     0.027 A 
ATOM      4  C4  DEN d   1       5.298   4.825  -5.859  0.00  0.00     0.027 A 
ATOM      5  C5  DEN d   1       4.539   5.973  -5.905  0.00  0.00    -0.003 A 
ATOM      6  C6  DEN d   1       3.172   5.942  -5.996  0.00  0.00     0.001 A 
ATOM      7  C7  DEN d   1       2.520   4.737  -5.999  0.00  0.00     0.017 A 
ATOM      8  C8  DEN d   1       3.280   3.575  -5.960  0.00  0.00    -0.094 A 
ATOM      9  C9  DEN d   1       4.659   3.628  -5.855  0.00  0.00    -0.072 A 
ENDROOT
TORSDOF 0
ENDMDL
