MODEL 1
REMARK minimizedAffinity 12.3382711
REMARK minimizedRMSD -1
REMARK  0 active torsions:
REMARK  status: ('A' for Active; 'I' for Inactive)
ROOT
ATOM      1  C1  DEN d   1       4.404   3.599  -6.000  0.00  0.00     0.130 A 
ATOM      2  C2  DEN d   1       4.880   2.219  -5.964  0.00  0.00    -0.031 A 
ATOM      3  C3  DEN d   1       3.701   1.330  -5.946  0.00  0.00     0.027 A 
ATOM      4  C4  DEN d   1       1.199   1.952  -5.976  0.00  0.00     0.027 A 
ATOM      5  C5  DEN d   1       0.302   2.998  -5.995  0.00  0.00    -0.003 A 
ATOM      6  C6  DEN d   1       0.706   4.307  -5.983  0.00  0.00     0.001 A 
ATOM      7  C7  DEN d   1       2.043   4.604  -5.996  0.00  0.00     0.017 A 
ATOM      8  C8  DEN d   1       2.953   3.555  -5.970  0.00  0.00    -0.094 A 
ATOM      9  C9  DEN d   1       2.525   2.239  -5.995  0.00  0.00    -0.072 A 
ENDROOT
TORSDOF 0
ENDMDL
