MODEL 1
REMARK minimizedAffinity 9.48602009
REMARK minimizedRMSD -1
REMARK  0 active torsions:
REMARK  status: ('A' for Active; 'I' for Inactive)
ROOT
ATOM      1  C1  DEN d   1       4.763   3.154  -5.994  0.00  0.00     0.130 A 
ATOM      2  C2  DEN d   1       4.581   1.706  -5.954  0.00  0.00    -0.031 A 
ATOM      3  C3  DEN d   1       3.130   1.428  -5.938  0.00  0.00     0.027 A 
ATOM      4  C4  DEN d   1       1.159   3.091  -5.976  0.00  0.00     0.027 A 
ATOM      5  C5  DEN d   1       0.816   4.425  -5.999  0.00  0.00    -0.003 A 
ATOM      6  C6  DEN d   1       1.756   5.421  -5.988  0.00  0.00     0.001 A 
ATOM      7  C7  DEN d   1       3.088   5.098  -5.998  0.00  0.00     0.017 A 
ATOM      8  C8  DEN d   1       3.441   3.755  -5.967  0.00  0.00    -0.094 A 
ATOM      9  C9  DEN d   1       2.476   2.763  -5.992  0.00  0.00    -0.072 A 
ENDROOT
TORSDOF 0
ENDMDL
