MODEL 1
REMARK minimizedAffinity 0.64254868
REMARK minimizedRMSD -1
REMARK  0 active torsions:
REMARK  status: ('A' for Active; 'I' for Inactive)
ROOT
ATOM      1  C1  DEN d   1       4.334   2.289  -5.921  0.00  0.00     0.130 A 
ATOM      2  C2  DEN d   1       3.236   1.327  -5.958  0.00  0.00    -0.031 A 
ATOM      3  C3  DEN d   1       1.967   2.081  -5.955  0.00  0.00     0.027 A 
ATOM      4  C4  DEN d   1       1.596   4.633  -5.902  0.00  0.00     0.027 A 
ATOM      5  C5  DEN d   1       2.225   5.858  -5.853  0.00  0.00    -0.003 A 
ATOM      6  C6  DEN d   1       3.588   5.977  -5.789  0.00  0.00     0.001 A 
ATOM      7  C7  DEN d   1       4.370   4.853  -5.819  0.00  0.00     0.017 A 
ATOM      8  C8  DEN d   1       3.743   3.614  -5.860  0.00  0.00    -0.094 A 
ATOM      9  C9  DEN d   1       2.364   3.515  -5.937  0.00  0.00    -0.072 A 
ENDROOT
TORSDOF 0
ENDMDL
