MODEL 1
REMARK minimizedAffinity 5.77438211
REMARK minimizedRMSD -1
REMARK  0 active torsions:
REMARK  status: ('A' for Active; 'I' for Inactive)
ROOT
ATOM      1  C1  DEN d   1       1.307  -0.726   1.419  0.00  0.00     0.130 A 
ATOM      2  C2  DEN d   1       1.920  -1.890   0.785  0.00  0.00    -0.031 A 
ATOM      3  C3  DEN d   1       3.114  -1.431   0.046  0.00  0.00     0.027 A 
ATOM      4  C4  DEN d   1       4.069   0.955  -0.172  0.00  0.00     0.027 A 
ATOM      5  C5  DEN d   1       3.886   2.274   0.180  0.00  0.00    -0.003 A 
ATOM      6  C6  DEN d   1       2.821   2.687   0.936  0.00  0.00     0.001 A 
ATOM      7  C7  DEN d   1       1.921   1.765   1.402  0.00  0.00     0.017 A 
ATOM      8  C8  DEN d   1       2.095   0.434   1.044  0.00  0.00    -0.094 A 
ATOM      9  C9  DEN d   1       3.185   0.035   0.290  0.00  0.00    -0.072 A 
ENDROOT
TORSDOF 0
ENDMDL
