MODEL 1
REMARK minimizedAffinity 14.4864979
REMARK minimizedRMSD -1
REMARK  0 active torsions:
REMARK  status: ('A' for Active; 'I' for Inactive)
ROOT
ATOM      1  C1  DEN d   1      -2.619   1.671   4.482  0.00  0.00     0.130 A 
ATOM      2  C2  DEN d   1      -3.134   2.278   5.706  0.00  0.00    -0.031 A 
ATOM      3  C3  DEN d   1      -4.554   2.617   5.486  0.00  0.00     0.027 A 
ATOM      4  C4  DEN d   1      -5.999   2.260   3.380  0.00  0.00     0.027 A 
ATOM      5  C5  DEN d   1      -5.999   1.792   2.084  0.00  0.00    -0.003 A 
ATOM      6  C6  DEN d   1      -4.873   1.286   1.491  0.00  0.00     0.001 A 
ATOM      7  C7  DEN d   1      -3.710   1.194   2.209  0.00  0.00     0.017 A 
ATOM      8  C8  DEN d   1      -3.701   1.671   3.513  0.00  0.00    -0.094 A 
ATOM      9  C9  DEN d   1      -4.853   2.168   4.099  0.00  0.00    -0.072 A 
ENDROOT
TORSDOF 0
ENDMDL
