MODEL 1
REMARK minimizedAffinity -0.545421004
REMARK minimizedRMSD -1
REMARK  2 active torsions:
REMARK  status: ('A' for Active; 'I' for Inactive)
REMARK    1  A    between atoms: C1_2  and  C2_3 
REMARK    2  A    between atoms: C2_3  and  C3_4 
ROOT
ATOM      1  C3  UNL d   1       1.877   1.877   0.850  0.00  0.00    -0.075 A 
ATOM      2  C4  UNL d   1       1.646   1.864   2.233  0.00  0.00     0.002 A 
ATOM      3  C5  UNL d   1       0.681   2.699   2.798  0.00  0.00     0.002 A 
ATOM      4  C6  UNL d   1      -0.056   3.563   1.991  0.00  0.00    -0.004 A 
ATOM      5  C7  UNL d   1       0.177   3.596   0.618  0.00  0.00     0.002 A 
ATOM      6  C8  UNL d   1       1.138   2.759   0.049  0.00  0.00     0.002 A 
ENDROOT
BRANCH   1   7
ATOM      7  C2  UNL d   1       2.899   0.955   0.229  0.00  0.00     0.056 C 
BRANCH   7   8
ATOM      8  C1  UNL d   1       2.304  -0.326  -0.365  0.00  0.00     0.007 C 
ATOM      9  C   UNL d   1       1.948  -0.196  -1.840  0.00  0.00     0.009 C 
ENDBRANCH   7   8
ENDBRANCH   1   7
TORSDOF 2
ENDMDL
