MODEL 1
REMARK minimizedAffinity 4.67606831
REMARK minimizedRMSD -1
REMARK  2 active torsions:
REMARK  status: ('A' for Active; 'I' for Inactive)
REMARK    1  A    between atoms: C1_2  and  C2_3 
REMARK    2  A    between atoms: C2_3  and  C3_4 
ROOT
ATOM      1  C3  UNL d   1       1.151   1.394   0.185  0.00  0.00    -0.075 A 
ATOM      2  C4  UNL d   1      -0.008   1.360   0.974  0.00  0.00     0.002 A 
ATOM      3  C5  UNL d   1      -0.897   2.435   0.973  0.00  0.00     0.002 A 
ATOM      4  C6  UNL d   1      -0.634   3.559   0.194  0.00  0.00    -0.004 A 
ATOM      5  C7  UNL d   1       0.522   3.611  -0.581  0.00  0.00     0.002 A 
ATOM      6  C8  UNL d   1       1.411   2.535  -0.586  0.00  0.00     0.002 A 
ENDROOT
BRANCH   1   7
ATOM      7  C2  UNL d   1       2.102   0.221   0.158  0.00  0.00     0.056 C 
BRANCH   7   8
ATOM      8  C1  UNL d   1       1.420  -1.140   0.336  0.00  0.00     0.007 C 
ATOM      9  C   UNL d   1       1.585  -2.056  -0.869  0.00  0.00     0.009 C 
ENDBRANCH   7   8
ENDBRANCH   1   7
TORSDOF 2
ENDMDL
