MODEL 1
REMARK minimizedAffinity 8.26646042
REMARK minimizedRMSD -1
REMARK  2 active torsions:
REMARK  status: ('A' for Active; 'I' for Inactive)
REMARK    1  A    between atoms: C1_2  and  C2_3 
REMARK    2  A    between atoms: C2_3  and  C3_4 
ROOT
ATOM      1  C3  UNL d   1      -1.806   0.663   2.179  0.00  0.00    -0.075 A 
ATOM      2  C4  UNL d   1      -0.872   1.692   1.993  0.00  0.00     0.002 A 
ATOM      3  C5  UNL d   1      -1.177   2.788   1.185  0.00  0.00     0.002 A 
ATOM      4  C6  UNL d   1      -2.413   2.864   0.546  0.00  0.00    -0.004 A 
ATOM      5  C7  UNL d   1      -3.342   1.839   0.711  0.00  0.00     0.002 A 
ATOM      6  C8  UNL d   1      -3.042   0.743   1.522  0.00  0.00     0.002 A 
ENDROOT
BRANCH   1   7
ATOM      7  C2  UNL d   1      -1.494  -0.511   3.076  0.00  0.00     0.056 C 
BRANCH   7   8
ATOM      8  C1  UNL d   1      -1.252  -1.824   2.324  0.00  0.00     0.007 C 
ATOM      9  C   UNL d   1      -1.225  -3.043   3.236  0.00  0.00     0.009 C 
ENDBRANCH   7   8
ENDBRANCH   1   7
TORSDOF 2
ENDMDL
