MODEL 1
REMARK minimizedAffinity 7.20008278
REMARK minimizedRMSD -1
REMARK  2 active torsions:
REMARK  status: ('A' for Active; 'I' for Inactive)
REMARK    1  A    between atoms: C1_2  and  C2_3 
REMARK    2  A    between atoms: C2_3  and  C3_4 
ROOT
ATOM      1  C3  UNL d   1       0.456   2.275   0.873  0.00  0.00    -0.075 A 
ATOM      2  C4  UNL d   1      -0.481   2.821   1.762  0.00  0.00     0.002 A 
ATOM      3  C5  UNL d   1      -1.284   1.990   2.544  0.00  0.00     0.002 A 
ATOM      4  C6  UNL d   1      -1.167   0.606   2.441  0.00  0.00    -0.004 A 
ATOM      5  C7  UNL d   1      -0.250   0.052   1.549  0.00  0.00     0.002 A 
ATOM      6  C8  UNL d   1       0.557   0.882   0.769  0.00  0.00     0.002 A 
ENDROOT
BRANCH   1   7
ATOM      7  C2  UNL d   1       1.348   3.170   0.045  0.00  0.00     0.056 C 
BRANCH   7   8
ATOM      8  C1  UNL d   1       2.770   3.316   0.598  0.00  0.00     0.007 C 
ATOM      9  C   UNL d   1       3.548   2.008   0.608  0.00  0.00     0.009 C 
ENDBRANCH   7   8
ENDBRANCH   1   7
TORSDOF 2
ENDMDL
