MODEL 1
REMARK minimizedAffinity 0.149130553
REMARK minimizedRMSD -1
REMARK  2 active torsions:
REMARK  status: ('A' for Active; 'I' for Inactive)
REMARK    1  A    between atoms: C1_2  and  C2_3 
REMARK    2  A    between atoms: C2_3  and  C3_4 
ROOT
ATOM      1  C3  UNL d   1      -0.859  -3.390   1.920  0.00  0.00    -0.075 A 
ATOM      2  C4  UNL d   1      -0.627  -3.894   3.208  0.00  0.00     0.002 A 
ATOM      3  C5  UNL d   1      -1.151  -5.129   3.590  0.00  0.00     0.002 A 
ATOM      4  C6  UNL d   1      -1.921  -5.869   2.696  0.00  0.00    -0.004 A 
ATOM      5  C7  UNL d   1      -2.171  -5.370   1.419  0.00  0.00     0.002 A 
ATOM      6  C8  UNL d   1      -1.644  -4.137   1.033  0.00  0.00     0.002 A 
ENDROOT
BRANCH   1   7
ATOM      7  C2  UNL d   1      -0.269  -2.067   1.491  0.00  0.00     0.056 C 
BRANCH   7   8
ATOM      8  C1  UNL d   1       1.160  -2.168   0.949  0.00  0.00     0.007 C 
ATOM      9  C   UNL d   1       1.218  -2.392  -0.556  0.00  0.00     0.009 C 
ENDBRANCH   7   8
ENDBRANCH   1   7
TORSDOF 2
ENDMDL
