MODEL 1
REMARK minimizedAffinity 3.55617499
REMARK minimizedRMSD -1
REMARK  2 active torsions:
REMARK  status: ('A' for Active; 'I' for Inactive)
REMARK    1  A    between atoms: C1_2  and  C2_3 
REMARK    2  A    between atoms: C2_3  and  C3_4 
ROOT
ATOM      1  C3  UNL d   1       1.346   2.504   0.705  0.00  0.00    -0.075 A 
ATOM      2  C4  UNL d   1       0.313   3.395   0.376  0.00  0.00     0.002 A 
ATOM      3  C5  UNL d   1      -1.006   2.949   0.293  0.00  0.00     0.002 A 
ATOM      4  C6  UNL d   1      -1.309   1.610   0.527  0.00  0.00    -0.004 A 
ATOM      5  C7  UNL d   1      -0.289   0.713   0.838  0.00  0.00     0.002 A 
ATOM      6  C8  UNL d   1       1.032   1.157   0.926  0.00  0.00     0.002 A 
ENDROOT
BRANCH   1   7
ATOM      7  C2  UNL d   1       2.772   2.986   0.825  0.00  0.00     0.056 C 
BRANCH   7   8
ATOM      8  C1  UNL d   1       3.786   1.870   1.098  0.00  0.00     0.007 C 
ATOM      9  C   UNL d   1       5.043   1.979   0.245  0.00  0.00     0.009 C 
ENDBRANCH   7   8
ENDBRANCH   1   7
TORSDOF 2
ENDMDL
