MODEL 1
REMARK minimizedAffinity 1.75035703
REMARK minimizedRMSD -1
REMARK  2 active torsions:
REMARK  status: ('A' for Active; 'I' for Inactive)
REMARK    1  A    between atoms: C1_2  and  C2_3 
REMARK    2  A    between atoms: C2_3  and  C3_4 
ROOT
ATOM      1  C3  UNL d   1       0.258   1.865   0.916  0.00  0.00    -0.075 A 
ATOM      2  C4  UNL d   1       1.127   0.934   0.329  0.00  0.00     0.002 A 
ATOM      3  C5  UNL d   1       2.505   1.149   0.334  0.00  0.00     0.002 A 
ATOM      4  C6  UNL d   1       3.031   2.300   0.916  0.00  0.00    -0.004 A 
ATOM      5  C7  UNL d   1       2.177   3.240   1.488  0.00  0.00     0.002 A 
ATOM      6  C8  UNL d   1       0.798   3.026   1.488  0.00  0.00     0.002 A 
ENDROOT
BRANCH   1   7
ATOM      7  C2  UNL d   1      -1.232   1.624   0.940  0.00  0.00     0.056 C 
BRANCH   7   8
ATOM      8  C1  UNL d   1      -2.036   2.599   0.072  0.00  0.00     0.007 C 
ATOM      9  C   UNL d   1      -3.504   2.216  -0.059  0.00  0.00     0.009 C 
ENDBRANCH   7   8
ENDBRANCH   1   7
TORSDOF 2
ENDMDL
