MODEL 1
REMARK minimizedAffinity 0.512749851
REMARK minimizedRMSD -1
REMARK  2 active torsions:
REMARK  status: ('A' for Active; 'I' for Inactive)
REMARK    1  A    between atoms: C1_2  and  C2_3 
REMARK    2  A    between atoms: C2_3  and  C3_4 
ROOT
ATOM      1  C3  UNL d   1       0.150   2.473   0.572  0.00  0.00    -0.075 A 
ATOM      2  C4  UNL d   1       0.583   3.490  -0.291  0.00  0.00     0.002 A 
ATOM      3  C5  UNL d   1       1.832   3.413  -0.907  0.00  0.00     0.002 A 
ATOM      4  C6  UNL d   1       2.667   2.326  -0.661  0.00  0.00    -0.004 A 
ATOM      5  C7  UNL d   1       2.255   1.317   0.207  0.00  0.00     0.002 A 
ATOM      6  C8  UNL d   1       1.003   1.389   0.821  0.00  0.00     0.002 A 
ENDROOT
BRANCH   1   7
ATOM      7  C2  UNL d   1      -1.213   2.535   1.218  0.00  0.00     0.056 C 
BRANCH   7   8
ATOM      8  C1  UNL d   1      -2.357   2.808   0.237  0.00  0.00     0.007 C 
ATOM      9  C   UNL d   1      -3.537   1.860   0.411  0.00  0.00     0.009 C 
ENDBRANCH   7   8
ENDBRANCH   1   7
TORSDOF 2
ENDMDL
