MODEL 1
REMARK minimizedAffinity 6.33605909
REMARK minimizedRMSD -1
REMARK  2 active torsions:
REMARK  status: ('A' for Active; 'I' for Inactive)
REMARK    1  A    between atoms: C1_2  and  C2_3 
REMARK    2  A    between atoms: C2_3  and  C3_4 
ROOT
ATOM      1  C3  UNL d   1       1.977   0.396  -0.135  0.00  0.00    -0.075 A 
ATOM      2  C4  UNL d   1       2.146   0.867  -1.445  0.00  0.00     0.002 A 
ATOM      3  C5  UNL d   1       2.038  -0.003  -2.530  0.00  0.00     0.002 A 
ATOM      4  C6  UNL d   1       1.771  -1.354  -2.319  0.00  0.00    -0.004 A 
ATOM      5  C7  UNL d   1       1.618  -1.836  -1.021  0.00  0.00     0.002 A 
ATOM      6  C8  UNL d   1       1.721  -0.966   0.066  0.00  0.00     0.002 A 
ENDROOT
BRANCH   1   7
ATOM      7  C2  UNL d   1       2.063   1.339   1.042  0.00  0.00     0.056 C 
BRANCH   7   8
ATOM      8  C1  UNL d   1       0.706   1.686   1.663  0.00  0.00     0.007 C 
ATOM      9  C   UNL d   1      -0.010   2.823   0.945  0.00  0.00     0.009 C 
ENDBRANCH   7   8
ENDBRANCH   1   7
TORSDOF 2
ENDMDL
