MODEL 1
REMARK minimizedAffinity 0.381978363
REMARK minimizedRMSD -1
REMARK  2 active torsions:
REMARK  status: ('A' for Active; 'I' for Inactive)
REMARK    1  A    between atoms: C1_2  and  C2_3 
REMARK    2  A    between atoms: C2_3  and  C3_4 
ROOT
ATOM      1  C3  UNL d   1       0.754   2.462   0.875  0.00  0.00    -0.075 A 
ATOM      2  C4  UNL d   1      -0.000   1.365   1.315  0.00  0.00     0.002 A 
ATOM      3  C5  UNL d   1      -1.375   1.311   1.081  0.00  0.00     0.002 A 
ATOM      4  C6  UNL d   1      -2.012   2.355   0.414  0.00  0.00    -0.004 A 
ATOM      5  C7  UNL d   1      -1.275   3.457  -0.013  0.00  0.00     0.002 A 
ATOM      6  C8  UNL d   1       0.101   3.512   0.216  0.00  0.00     0.002 A 
ENDROOT
BRANCH   1   7
ATOM      7  C2  UNL d   1       2.247   2.513   1.100  0.00  0.00     0.056 C 
BRANCH   7   8
ATOM      8  C1  UNL d   1       3.032   1.458   0.314  0.00  0.00     0.007 C 
ATOM      9  C   UNL d   1       2.586   0.033   0.610  0.00  0.00     0.009 C 
ENDBRANCH   7   8
ENDBRANCH   1   7
TORSDOF 2
ENDMDL
