MODEL 1
REMARK minimizedAffinity 3.8845551
REMARK minimizedRMSD -1
REMARK  2 active torsions:
REMARK  status: ('A' for Active; 'I' for Inactive)
REMARK    1  A    between atoms: C1_2  and  C2_3 
REMARK    2  A    between atoms: C2_3  and  C3_4 
ROOT
ATOM      1  C3  UNL d   1       1.099   1.436   0.873  0.00  0.00    -0.075 A 
ATOM      2  C4  UNL d   1       0.646   0.115   0.745  0.00  0.00     0.002 A 
ATOM      3  C5  UNL d   1       1.545  -0.921   0.489  0.00  0.00     0.002 A 
ATOM      4  C6  UNL d   1       2.904  -0.649   0.349  0.00  0.00    -0.004 A 
ATOM      5  C7  UNL d   1       3.363   0.662   0.458  0.00  0.00     0.002 A 
ATOM      6  C8  UNL d   1       2.466   1.700   0.718  0.00  0.00     0.002 A 
ENDROOT
BRANCH   1   7
ATOM      7  C2  UNL d   1       0.135   2.557   1.178  0.00  0.00     0.056 C 
BRANCH   7   8
ATOM      8  C1  UNL d   1      -1.180   2.479   0.396  0.00  0.00     0.007 C 
ATOM      9  C   UNL d   1      -2.335   3.188   1.090  0.00  0.00     0.009 C 
ENDBRANCH   7   8
ENDBRANCH   1   7
TORSDOF 2
ENDMDL
