MODEL 1
REMARK minimizedAffinity 11.8070202
REMARK minimizedRMSD -1
REMARK  2 active torsions:
REMARK  status: ('A' for Active; 'I' for Inactive)
REMARK    1  A    between atoms: C1_2  and  C2_3 
REMARK    2  A    between atoms: C2_3  and  C3_4 
ROOT
ATOM      1  C3  UNL d   1       0.880   2.636   1.124  0.00  0.00    -0.075 A 
ATOM      2  C4  UNL d   1       0.341   2.308   2.376  0.00  0.00     0.002 A 
ATOM      3  C5  UNL d   1      -1.012   2.521   2.643  0.00  0.00     0.002 A 
ATOM      4  C6  UNL d   1      -1.839   3.073   1.668  0.00  0.00    -0.004 A 
ATOM      5  C7  UNL d   1      -1.311   3.418   0.426  0.00  0.00     0.002 A 
ATOM      6  C8  UNL d   1       0.041   3.202   0.154  0.00  0.00     0.002 A 
ENDROOT
BRANCH   1   7
ATOM      7  C2  UNL d   1       2.336   2.381   0.819  0.00  0.00     0.056 C 
BRANCH   7   8
ATOM      8  C1  UNL d   1       2.594   1.083   0.046  0.00  0.00     0.007 C 
ATOM      9  C   UNL d   1       3.832   0.335   0.523  0.00  0.00     0.009 C 
ENDBRANCH   7   8
ENDBRANCH   1   7
TORSDOF 2
ENDMDL
