MODEL 1
REMARK minimizedAffinity 5.5939436
REMARK minimizedRMSD -1
REMARK  1 active torsions:
REMARK  status: ('A' for Active; 'I' for Inactive)
REMARK    1  A    between atoms: C1_2  and  C2_3 
ROOT
ATOM      1  C2  UNL d   1      -4.773  -2.525   3.528  0.00  0.00    -0.073 A 
ATOM      2  C3  UNL d   1      -5.710  -2.844   2.539  0.00  0.00    -0.002 A 
ATOM      3  C4  UNL d   1      -6.000  -4.178   2.247  0.00  0.00     0.004 A 
ATOM      4  C5  UNL d   1      -5.363  -5.204   2.944  0.00  0.00    -0.004 A 
ATOM      5  C6  UNL d   1      -4.432  -4.905   3.944  0.00  0.00    -0.075 A 
ATOM      6  C7  UNL d   1      -3.737  -5.998   4.702  0.00  0.00     0.076 C 
ATOM      7  C8  UNL d   1      -4.144  -3.564   4.230  0.00  0.00     0.001 A 
ENDROOT
BRANCH   1   8
ATOM      8  C1  UNL d   1      -4.461  -1.087   3.852  0.00  0.00     0.053 C 
ATOM      9  C   UNL d   1      -3.956  -0.326   2.637  0.00  0.00     0.018 C 
ENDBRANCH   1   8
TORSDOF 1
ENDMDL
