MODEL 1
REMARK minimizedAffinity 6.0804739
REMARK minimizedRMSD -1
REMARK  1 active torsions:
REMARK  status: ('A' for Active; 'I' for Inactive)
REMARK    1  A    between atoms: C1_2  and  C2_3 
ROOT
ATOM      1  C2  UNL d   1       3.477  -4.498  -1.773  0.00  0.00    -0.073 A 
ATOM      2  C3  UNL d   1       2.232  -3.889  -1.967  0.00  0.00    -0.002 A 
ATOM      3  C4  UNL d   1       1.912  -3.314  -3.198  0.00  0.00     0.004 A 
ATOM      4  C5  UNL d   1       2.830  -3.347  -4.247  0.00  0.00    -0.004 A 
ATOM      5  C6  UNL d   1       4.075  -3.961  -4.077  0.00  0.00    -0.075 A 
ATOM      6  C7  UNL d   1       5.074  -4.004  -5.195  0.00  0.00     0.076 C 
ATOM      7  C8  UNL d   1       4.389  -4.534  -2.837  0.00  0.00     0.001 A 
ENDROOT
BRANCH   1   8
ATOM      8  C1  UNL d   1       3.824  -5.126  -0.448  0.00  0.00     0.053 C 
ATOM      9  C   UNL d   1       3.933  -4.092   0.662  0.00  0.00     0.018 C 
ENDBRANCH   1   8
TORSDOF 1
ENDMDL
