MODEL 1
REMARK minimizedAffinity 6.04083586
REMARK minimizedRMSD -1
REMARK  1 active torsions:
REMARK  status: ('A' for Active; 'I' for Inactive)
REMARK    1  A    between atoms: C1_2  and  C2_3 
ROOT
ATOM      1  C2  UNL d   1       2.489  -3.513  -2.547  0.00  0.00    -0.073 A 
ATOM      2  C3  UNL d   1       3.316  -3.893  -3.609  0.00  0.00    -0.002 A 
ATOM      3  C4  UNL d   1       4.392  -4.755  -3.391  0.00  0.00     0.004 A 
ATOM      4  C5  UNL d   1       4.646  -5.250  -2.112  0.00  0.00    -0.004 A 
ATOM      5  C6  UNL d   1       3.824  -4.891  -1.040  0.00  0.00    -0.075 A 
ATOM      6  C7  UNL d   1       4.085  -5.414   0.342  0.00  0.00     0.076 C 
ATOM      7  C8  UNL d   1       2.747  -4.023  -1.266  0.00  0.00     0.001 A 
ENDROOT
BRANCH   1   8
ATOM      8  C1  UNL d   1       1.322  -2.587  -2.779  0.00  0.00     0.053 C 
ATOM      9  C   UNL d   1       1.584  -1.193  -2.232  0.00  0.00     0.018 C 
ENDBRANCH   1   8
TORSDOF 1
ENDMDL
