MODEL 1
REMARK minimizedAffinity 2.41568804
REMARK minimizedRMSD -1
REMARK  1 active torsions:
REMARK  status: ('A' for Active; 'I' for Inactive)
REMARK    1  A    between atoms: C1_2  and  C2_3 
ROOT
ATOM      1  C2  UNL d   1       2.044  -1.844  -1.922  0.00  0.00    -0.073 A 
ATOM      2  C3  UNL d   1       2.658  -2.080  -0.687  0.00  0.00    -0.002 A 
ATOM      3  C4  UNL d   1       3.268  -3.308  -0.427  0.00  0.00     0.004 A 
ATOM      4  C5  UNL d   1       3.275  -4.309  -1.399  0.00  0.00    -0.004 A 
ATOM      5  C6  UNL d   1       2.676  -4.087  -2.643  0.00  0.00    -0.075 A 
ATOM      6  C7  UNL d   1       2.674  -5.153  -3.699  0.00  0.00     0.076 C 
ATOM      7  C8  UNL d   1       2.064  -2.852  -2.896  0.00  0.00     0.001 A 
ENDROOT
BRANCH   1   8
ATOM      8  C1  UNL d   1       1.390  -0.517  -2.210  0.00  0.00     0.053 C 
ATOM      9  C   UNL d   1       2.295   0.653  -1.858  0.00  0.00     0.018 C 
ENDBRANCH   1   8
TORSDOF 1
ENDMDL
