MODEL 1
REMARK minimizedAffinity 1.55811024
REMARK minimizedRMSD -1
REMARK  1 active torsions:
REMARK  status: ('A' for Active; 'I' for Inactive)
REMARK    1  A    between atoms: C1_2  and  C2_3 
ROOT
ATOM      1  C2  UNL d   1       2.639  -2.956  -1.651  0.00  0.00    -0.073 A 
ATOM      2  C3  UNL d   1       2.473  -3.554  -2.905  0.00  0.00    -0.002 A 
ATOM      3  C4  UNL d   1       3.196  -4.699  -3.242  0.00  0.00     0.004 A 
ATOM      4  C5  UNL d   1       4.086  -5.262  -2.326  0.00  0.00    -0.004 A 
ATOM      5  C6  UNL d   1       4.256  -4.686  -1.063  0.00  0.00    -0.075 A 
ATOM      6  C7  UNL d   1       5.211  -5.278  -0.068  0.00  0.00     0.076 C 
ATOM      7  C8  UNL d   1       3.529  -3.534  -0.734  0.00  0.00     0.001 A 
ENDROOT
BRANCH   1   8
ATOM      8  C1  UNL d   1       1.856  -1.723  -1.281  0.00  0.00     0.053 C 
ATOM      9  C   UNL d   1       1.590  -0.834  -2.485  0.00  0.00     0.018 C 
ENDBRANCH   1   8
TORSDOF 1
ENDMDL
