MODEL 1
REMARK minimizedAffinity 0.704250693
REMARK minimizedRMSD -1
REMARK  1 active torsions:
REMARK  status: ('A' for Active; 'I' for Inactive)
REMARK    1  A    between atoms: C1_2  and  C2_3 
ROOT
ATOM      1  C2  UNL d   1       3.517  -3.793  -1.416  0.00  0.00    -0.073 A 
ATOM      2  C3  UNL d   1       2.309  -3.233  -1.845  0.00  0.00    -0.002 A 
ATOM      3  C4  UNL d   1       2.091  -2.983  -3.201  0.00  0.00     0.004 A 
ATOM      4  C5  UNL d   1       3.074  -3.295  -4.140  0.00  0.00    -0.004 A 
ATOM      5  C6  UNL d   1       4.283  -3.866  -3.731  0.00  0.00    -0.075 A 
ATOM      6  C7  UNL d   1       5.352  -4.206  -4.728  0.00  0.00     0.076 C 
ATOM      7  C8  UNL d   1       4.496  -4.112  -2.368  0.00  0.00     0.001 A 
ENDROOT
BRANCH   1   8
ATOM      8  C1  UNL d   1       3.755  -4.071   0.046  0.00  0.00     0.053 C 
ATOM      9  C   UNL d   1       5.110  -3.562   0.510  0.00  0.00     0.018 C 
ENDBRANCH   1   8
TORSDOF 1
ENDMDL
