MODEL 1
REMARK minimizedAffinity 7.44199181
REMARK minimizedRMSD -1
REMARK  1 active torsions:
REMARK  status: ('A' for Active; 'I' for Inactive)
REMARK    1  A    between atoms: C1_2  and  C2_3 
ROOT
ATOM      1  C2  UNL d   1       3.787  -4.926  -1.485  0.00  0.00    -0.073 A 
ATOM      2  C3  UNL d   1       4.693  -4.991  -2.550  0.00  0.00    -0.002 A 
ATOM      3  C4  UNL d   1       4.255  -4.799  -3.861  0.00  0.00     0.004 A 
ATOM      4  C5  UNL d   1       2.910  -4.535  -4.120  0.00  0.00    -0.004 A 
ATOM      5  C6  UNL d   1       1.991  -4.455  -3.068  0.00  0.00    -0.075 A 
ATOM      6  C7  UNL d   1       0.541  -4.173  -3.331  0.00  0.00     0.076 C 
ATOM      7  C8  UNL d   1       2.438  -4.650  -1.755  0.00  0.00     0.001 A 
ENDROOT
BRANCH   1   8
ATOM      8  C1  UNL d   1       4.256  -5.125  -0.067  0.00  0.00     0.053 C 
ATOM      9  C   UNL d   1       5.481  -4.283   0.252  0.00  0.00     0.018 C 
ENDBRANCH   1   8
TORSDOF 1
ENDMDL
