MODEL 1
REMARK minimizedAffinity -0.751298606
REMARK minimizedRMSD -1
REMARK  1 active torsions:
REMARK  status: ('A' for Active; 'I' for Inactive)
REMARK    1  A    between atoms: C1_2  and  C2_3 
ROOT
ATOM      1  C2  UNL d   1       2.424  -3.336  -2.750  0.00  0.00    -0.073 A 
ATOM      2  C3  UNL d   1       3.342  -3.679  -3.749  0.00  0.00    -0.002 A 
ATOM      3  C4  UNL d   1       4.518  -4.355  -3.425  0.00  0.00     0.004 A 
ATOM      4  C5  UNL d   1       4.786  -4.703  -2.101  0.00  0.00    -0.004 A 
ATOM      5  C6  UNL d   1       3.875  -4.380  -1.089  0.00  0.00    -0.075 A 
ATOM      6  C7  UNL d   1       4.149  -4.744   0.341  0.00  0.00     0.076 C 
ATOM      7  C8  UNL d   1       2.698  -3.698  -1.423  0.00  0.00     0.001 A 
ENDROOT
BRANCH   1   8
ATOM      8  C1  UNL d   1       1.150  -2.611  -3.096  0.00  0.00     0.053 C 
ATOM      9  C   UNL d   1       1.279  -1.108  -2.904  0.00  0.00     0.018 C 
ENDBRANCH   1   8
TORSDOF 1
ENDMDL
