MODEL 1
REMARK minimizedAffinity 22.163908
REMARK minimizedRMSD -1
REMARK  1 active torsions:
REMARK  status: ('A' for Active; 'I' for Inactive)
REMARK    1  A    between atoms: C1_2  and  C2_3 
ROOT
ATOM      1  C2  UNL d   1      -0.647   1.444   2.844  0.00  0.00    -0.073 A 
ATOM      2  C3  UNL d   1      -0.317   1.382   4.202  0.00  0.00    -0.002 A 
ATOM      3  C4  UNL d   1       1.019   1.407   4.604  0.00  0.00     0.004 A 
ATOM      4  C5  UNL d   1       2.037   1.500   3.655  0.00  0.00    -0.004 A 
ATOM      5  C6  UNL d   1       1.726   1.575   2.293  0.00  0.00    -0.075 A 
ATOM      6  C7  UNL d   1       2.809   1.674   1.259  0.00  0.00     0.076 C 
ATOM      7  C8  UNL d   1       0.382   1.547   1.897  0.00  0.00     0.001 A 
ENDROOT
BRANCH   1   8
ATOM      8  C1  UNL d   1      -2.089   1.424   2.405  0.00  0.00     0.053 C 
ATOM      9  C   UNL d   1      -3.021   0.997   3.528  0.00  0.00     0.018 C 
ENDBRANCH   1   8
TORSDOF 1
ENDMDL
