MODEL 1
REMARK minimizedAffinity -1.04162383
REMARK minimizedRMSD -1
REMARK  0 active torsions:
REMARK  status: ('A' for Active; 'I' for Inactive)
ROOT
ATOM      1  N1  IND d   1       0.676  -2.140  -0.749  0.00  0.00    -0.196 N 
ATOM      2  C2  IND d   1       0.711  -1.897  -2.093  0.00  0.00     0.054 A 
ATOM      3  C3  IND d   1       0.142  -0.702  -2.370  0.00  0.00    -0.031 A 
ATOM      4  C4  IND d   1      -0.820   1.063  -0.761  0.00  0.00     0.051 A 
ATOM      5  C5  IND d   1      -1.106   1.276   0.559  0.00  0.00    -0.031 A 
ATOM      6  C6  IND d   1      -0.804   0.343   1.530  0.00  0.00     0.015 A 
ATOM      7  C7  IND d   1      -0.192  -0.838   1.217  0.00  0.00    -0.016 A 
ATOM      8  C8  IND d   1       0.094  -1.060  -0.122  0.00  0.00    -0.047 A 
ATOM      9  C9  IND d   1      -0.248  -0.136  -1.117  0.00  0.00    -0.096 A 
ATOM     10  HN1 IND d   1       0.969  -2.849  -0.359  0.00  0.00     0.298 HD
ENDROOT
TORSDOF 0
ENDMDL
