MODEL 1
REMARK minimizedAffinity -1.05587196
REMARK minimizedRMSD -1
REMARK  0 active torsions:
REMARK  status: ('A' for Active; 'I' for Inactive)
ROOT
ATOM      1  N1  IND d   1      -1.126   2.398   1.100  0.00  0.00    -0.196 N 
ATOM      2  C2  IND d   1      -1.767   2.173   2.287  0.00  0.00     0.054 A 
ATOM      3  C3  IND d   1      -1.630   0.880   2.658  0.00  0.00    -0.031 A 
ATOM      4  C4  IND d   1      -0.311  -1.016   1.523  0.00  0.00     0.051 A 
ATOM      5  C5  IND d   1       0.410  -1.304   0.398  0.00  0.00    -0.031 A 
ATOM      6  C6  IND d   1       0.663  -0.352  -0.569  0.00  0.00     0.015 A 
ATOM      7  C7  IND d   1       0.212   0.931  -0.440  0.00  0.00    -0.016 A 
ATOM      8  C8  IND d   1      -0.526   1.225   0.698  0.00  0.00    -0.047 A 
ATOM      9  C9  IND d   1      -0.822   0.252   1.662  0.00  0.00    -0.096 A 
ATOM     10  HN1 IND d   1      -1.101   3.146   0.677  0.00  0.00     0.298 HD
ENDROOT
TORSDOF 0
ENDMDL
