MODEL 1
REMARK minimizedAffinity -2.12699294
REMARK minimizedRMSD -1
REMARK  0 active torsions:
REMARK  status: ('A' for Active; 'I' for Inactive)
ROOT
ATOM      1  N1  IND d   1       0.913   0.615  -0.569  0.00  0.00    -0.196 N 
ATOM      2  C2  IND d   1       0.899   1.814  -1.226  0.00  0.00     0.054 A 
ATOM      3  C3  IND d   1      -0.119   2.583  -0.779  0.00  0.00    -0.031 A 
ATOM      4  C4  IND d   1      -1.823   2.115   1.093  0.00  0.00     0.051 A 
ATOM      5  C5  IND d   1      -2.232   1.139   1.958  0.00  0.00    -0.031 A 
ATOM      6  C6  IND d   1      -1.599  -0.085   2.028  0.00  0.00     0.015 A 
ATOM      7  C7  IND d   1      -0.522  -0.376   1.240  0.00  0.00    -0.016 A 
ATOM      8  C8  IND d   1      -0.108   0.610   0.356  0.00  0.00    -0.047 A 
ATOM      9  C9  IND d   1      -0.772   1.838   0.250  0.00  0.00    -0.096 A 
ATOM     10  HN1 IND d   1       1.466  -0.028  -0.710  0.00  0.00     0.298 HD
ENDROOT
TORSDOF 0
ENDMDL
