MODEL 1
REMARK minimizedAffinity -5.88455915
REMARK minimizedRMSD -1
REMARK  0 active torsions:
REMARK  status: ('A' for Active; 'I' for Inactive)
ROOT
ATOM      1  N1  IND d   1      -1.094  -0.798  -1.447  0.00  0.00    -0.196 N 
ATOM      2  C2  IND d   1       0.032  -1.563  -1.324  0.00  0.00     0.054 A 
ATOM      3  C3  IND d   1       0.720  -1.214  -0.214  0.00  0.00    -0.031 A 
ATOM      4  C4  IND d   1       0.129   0.516   1.599  0.00  0.00     0.051 A 
ATOM      5  C5  IND d   1      -0.783   1.488   1.905  0.00  0.00    -0.031 A 
ATOM      6  C6  IND d   1      -1.868   1.750   1.094  0.00  0.00     0.015 A 
ATOM      7  C7  IND d   1      -2.089   1.040  -0.052  0.00  0.00    -0.016 A 
ATOM      8  C8  IND d   1      -1.162   0.058  -0.370  0.00  0.00    -0.047 A 
ATOM      9  C9  IND d   1      -0.036  -0.185   0.427  0.00  0.00    -0.096 A 
ATOM     10  HN1 IND d   1      -1.664  -0.844  -2.089  0.00  0.00     0.298 HD
ENDROOT
TORSDOF 0
ENDMDL
