MODEL 1
REMARK minimizedAffinity -4.56011581
REMARK minimizedRMSD -1
REMARK  0 active torsions:
REMARK  status: ('A' for Active; 'I' for Inactive)
ROOT
ATOM      1  N1  IND d   1      -0.407  -1.930   0.221  0.00  0.00    -0.196 N 
ATOM      2  C2  IND d   1       0.063  -1.744  -1.049  0.00  0.00     0.054 A 
ATOM      3  C3  IND d   1       0.018  -0.434  -1.380  0.00  0.00    -0.031 A 
ATOM      4  C4  IND d   1      -0.694   1.589   0.043  0.00  0.00     0.051 A 
ATOM      5  C5  IND d   1      -1.233   1.918   1.255  0.00  0.00    -0.031 A 
ATOM      6  C6  IND d   1      -1.528   0.961   2.205  0.00  0.00     0.015 A 
ATOM      7  C7  IND d   1      -1.283  -0.364   1.981  0.00  0.00    -0.016 A 
ATOM      8  C8  IND d   1      -0.742  -0.702   0.749  0.00  0.00    -0.047 A 
ATOM      9  C9  IND d   1      -0.480   0.260  -0.235  0.00  0.00    -0.096 A 
ATOM     10  HN1 IND d   1      -0.481  -2.686   0.623  0.00  0.00     0.298 HD
ENDROOT
TORSDOF 0
ENDMDL
