MODEL 1
REMARK minimizedAffinity -4.91330099
REMARK minimizedRMSD -1
REMARK  0 active torsions:
REMARK  status: ('A' for Active; 'I' for Inactive)
ROOT
ATOM      1  N1  IND d   1      -1.055  -0.310  -1.226  0.00  0.00    -0.196 N 
ATOM      2  C2  IND d   1       0.008  -1.161  -1.105  0.00  0.00     0.054 A 
ATOM      3  C3  IND d   1       0.576  -1.035   0.115  0.00  0.00    -0.031 A 
ATOM      4  C4  IND d   1      -0.135   0.434   2.106  0.00  0.00     0.051 A 
ATOM      5  C5  IND d   1      -1.025   1.408   2.462  0.00  0.00    -0.031 A 
ATOM      6  C6  IND d   1      -1.992   1.867   1.591  0.00  0.00     0.015 A 
ATOM      7  C7  IND d   1      -2.112   1.358   0.328  0.00  0.00    -0.016 A 
ATOM      8  C8  IND d   1      -1.206   0.374  -0.039  0.00  0.00    -0.047 A 
ATOM      9  C9  IND d   1      -0.196  -0.066   0.826  0.00  0.00    -0.096 A 
ATOM     10  HN1 IND d   1      -1.547  -0.217  -1.925  0.00  0.00     0.298 HD
ENDROOT
TORSDOF 0
ENDMDL
