MODEL 1
REMARK minimizedAffinity -4.6642313
REMARK minimizedRMSD -1
REMARK  0 active torsions:
REMARK  status: ('A' for Active; 'I' for Inactive)
ROOT
ATOM      1  N1  IND d   1       0.705   1.637  -1.073  0.00  0.00    -0.196 N 
ATOM      2  C2  IND d   1       1.617   0.640  -1.279  0.00  0.00     0.054 A 
ATOM      3  C3  IND d   1       1.316  -0.438  -0.520  0.00  0.00    -0.031 A 
ATOM      4  C4  IND d   1      -0.684  -0.823   1.054  0.00  0.00     0.051 A 
ATOM      5  C5  IND d   1      -1.766  -0.187   1.596  0.00  0.00    -0.031 A 
ATOM      6  C6  IND d   1      -2.088   1.114   1.267  0.00  0.00     0.015 A 
ATOM      7  C7  IND d   1      -1.342   1.827   0.372  0.00  0.00    -0.016 A 
ATOM      8  C8  IND d   1      -0.239   1.188  -0.175  0.00  0.00    -0.047 A 
ATOM      9  C9  IND d   1       0.117  -0.118   0.187  0.00  0.00    -0.096 A 
ATOM     10  HN1 IND d   1       0.718   2.413  -1.441  0.00  0.00     0.298 HD
ENDROOT
TORSDOF 0
ENDMDL
