MODEL 1
REMARK minimizedAffinity -5.13856697
REMARK minimizedRMSD -1
REMARK  0 active torsions:
REMARK  status: ('A' for Active; 'I' for Inactive)
ROOT
ATOM      1  N1  IND d   1       0.945   0.332  -0.747  0.00  0.00    -0.196 N 
ATOM      2  C2  IND d   1       0.926   1.412  -1.584  0.00  0.00     0.054 A 
ATOM      3  C3  IND d   1      -0.055   2.270  -1.224  0.00  0.00    -0.031 A 
ATOM      4  C4  IND d   1      -1.683   2.149   0.767  0.00  0.00     0.051 A 
ATOM      5  C5  IND d   1      -2.073   1.333   1.791  0.00  0.00    -0.031 A 
ATOM      6  C6  IND d   1      -1.463   0.118   2.029  0.00  0.00     0.015 A 
ATOM      7  C7  IND d   1      -0.428  -0.323   1.254  0.00  0.00    -0.016 A 
ATOM      8  C8  IND d   1      -0.034   0.500   0.208  0.00  0.00    -0.047 A 
ATOM      9  C9  IND d   1      -0.677   1.715  -0.063  0.00  0.00    -0.096 A 
ATOM     10  HN1 IND d   1       1.478  -0.340  -0.806  0.00  0.00     0.298 HD
ENDROOT
TORSDOF 0
ENDMDL
