MODEL 1
REMARK minimizedAffinity -4.17054653
REMARK minimizedRMSD -1
REMARK  0 active torsions:
REMARK  status: ('A' for Active; 'I' for Inactive)
ROOT
ATOM      1  N1  IND d   1      -1.335   2.389   0.604  0.00  0.00    -0.196 N 
ATOM      2  C2  IND d   1      -1.764   2.085   1.866  0.00  0.00     0.054 A 
ATOM      3  C3  IND d   1      -1.397   0.826   2.196  0.00  0.00    -0.031 A 
ATOM      4  C4  IND d   1      -0.002  -0.875   0.859  0.00  0.00     0.051 A 
ATOM      5  C5  IND d   1       0.584  -1.066  -0.360  0.00  0.00    -0.031 A 
ATOM      6  C6  IND d   1       0.562  -0.094  -1.340  0.00  0.00     0.015 A 
ATOM      7  C7  IND d   1      -0.039   1.114  -1.131  0.00  0.00    -0.016 A 
ATOM      8  C8  IND d   1      -0.641   1.309   0.104  0.00  0.00    -0.047 A 
ATOM      9  C9  IND d   1      -0.659   0.311   1.087  0.00  0.00    -0.096 A 
ATOM     10  HN1 IND d   1      -1.474   3.131   0.192  0.00  0.00     0.298 HD
ENDROOT
TORSDOF 0
ENDMDL
