MODEL 1
REMARK minimizedAffinity -3.91036105
REMARK minimizedRMSD -1
REMARK  0 active torsions:
REMARK  status: ('A' for Active; 'I' for Inactive)
ROOT
ATOM      1  N1  IND d   1      -1.798   0.974   2.193  0.00  0.00    -0.196 N 
ATOM      2  C2  IND d   1      -2.515   2.035   1.714  0.00  0.00     0.054 A 
ATOM      3  C3  IND d   1      -2.091   2.368   0.474  0.00  0.00    -0.031 A 
ATOM      4  C4  IND d   1      -0.306   1.244  -1.001  0.00  0.00     0.051 A 
ATOM      5  C5  IND d   1       0.644   0.261  -0.983  0.00  0.00    -0.031 A 
ATOM      6  C6  IND d   1       0.830  -0.552   0.116  0.00  0.00     0.015 A 
ATOM      7  C7  IND d   1       0.063  -0.420   1.238  0.00  0.00    -0.016 A 
ATOM      8  C8  IND d   1      -0.898   0.581   1.226  0.00  0.00    -0.047 A 
ATOM      9  C9  IND d   1      -1.063   1.437   0.130  0.00  0.00    -0.096 A 
ATOM     10  HN1 IND d   1      -1.893   0.612   2.967  0.00  0.00     0.298 HD
ENDROOT
TORSDOF 0
ENDMDL
