MODEL 1
REMARK minimizedAffinity -5.40467405
REMARK minimizedRMSD -1
REMARK  0 active torsions:
REMARK  status: ('A' for Active; 'I' for Inactive)
ROOT
ATOM      1  N1  IND d   1       1.195   0.178  -0.893  0.00  0.00    -0.196 N 
ATOM      2  C2  IND d   1       1.251   1.259  -1.728  0.00  0.00     0.054 A 
ATOM      3  C3  IND d   1       0.288   2.151  -1.408  0.00  0.00    -0.031 A 
ATOM      4  C4  IND d   1      -1.427   2.090   0.511  0.00  0.00     0.051 A 
ATOM      5  C5  IND d   1      -1.890   1.288   1.516  0.00  0.00    -0.031 A 
ATOM      6  C6  IND d   1      -1.336   0.051   1.777  0.00  0.00     0.015 A 
ATOM      7  C7  IND d   1      -0.285  -0.427   1.046  0.00  0.00    -0.016 A 
ATOM      8  C8  IND d   1       0.183   0.382   0.020  0.00  0.00    -0.047 A 
ATOM      9  C9  IND d   1      -0.403   1.619  -0.277  0.00  0.00    -0.096 A 
ATOM     10  HN1 IND d   1       1.705  -0.513  -0.931  0.00  0.00     0.298 HD
ENDROOT
TORSDOF 0
ENDMDL
