MODEL 1
REMARK minimizedAffinity -5.0194993
REMARK minimizedRMSD -1
REMARK  0 active torsions:
REMARK  status: ('A' for Active; 'I' for Inactive)
ROOT
ATOM      1  N1  IND d   1       1.522  -5.354  -1.200  0.00  0.00    -0.196 N 
ATOM      2  C2  IND d   1       2.511  -5.210  -0.267  0.00  0.00     0.054 A 
ATOM      3  C3  IND d   1       2.647  -3.909   0.076  0.00  0.00    -0.031 A 
ATOM      4  C4  IND d   1       1.284  -1.864  -0.690  0.00  0.00     0.051 A 
ATOM      5  C5  IND d   1       0.299  -1.491  -1.561  0.00  0.00    -0.031 A 
ATOM      6  C6  IND d   1      -0.343  -2.405  -2.371  0.00  0.00     0.015 A 
ATOM      7  C7  IND d   1      -0.031  -3.735  -2.331  0.00  0.00    -0.016 A 
ATOM      8  C8  IND d   1       0.973  -4.116  -1.453  0.00  0.00    -0.047 A 
ATOM      9  C9  IND d   1       1.658  -3.187  -0.659  0.00  0.00    -0.096 A 
ATOM     10  HN1 IND d   1       1.283  -6.094  -1.567  0.00  0.00     0.298 HD
ENDROOT
TORSDOF 0
ENDMDL
