MODEL 1
REMARK minimizedAffinity -4.63821316
REMARK minimizedRMSD -1
REMARK  0 active torsions:
REMARK  status: ('A' for Active; 'I' for Inactive)
ROOT
ATOM      1  N1  IND d   1       1.517  -0.116  -0.260  0.00  0.00    -0.196 N 
ATOM      2  C2  IND d   1       1.727   0.845  -1.210  0.00  0.00     0.054 A 
ATOM      3  C3  IND d   1       0.672   1.689  -1.265  0.00  0.00    -0.031 A 
ATOM      4  C4  IND d   1      -1.459   1.741   0.179  0.00  0.00     0.051 A 
ATOM      5  C5  IND d   1      -2.117   1.045   1.154  0.00  0.00    -0.031 A 
ATOM      6  C6  IND d   1      -1.585  -0.096   1.720  0.00  0.00     0.015 A 
ATOM      7  C7  IND d   1      -0.365  -0.578   1.339  0.00  0.00    -0.016 A 
ATOM      8  C8  IND d   1       0.303   0.123   0.345  0.00  0.00    -0.047 A 
ATOM      9  C9  IND d   1      -0.251   1.257  -0.264  0.00  0.00    -0.096 A 
ATOM     10  HN1 IND d   1       2.054  -0.761  -0.073  0.00  0.00     0.298 HD
ENDROOT
TORSDOF 0
ENDMDL
