MODEL 1
REMARK minimizedAffinity -5.42031527
REMARK minimizedRMSD -1
REMARK  0 active torsions:
REMARK  status: ('A' for Active; 'I' for Inactive)
ROOT
ATOM      1  N1  IND d   1       0.271   0.055  -1.003  0.00  0.00    -0.196 N 
ATOM      2  C2  IND d   1       0.914  -0.821  -0.172  0.00  0.00     0.054 A 
ATOM      3  C3  IND d   1       0.370  -0.782   1.065  0.00  0.00    -0.031 A 
ATOM      4  C4  IND d   1      -1.645   0.570   1.923  0.00  0.00     0.051 A 
ATOM      5  C5  IND d   1      -2.536   1.535   1.543  0.00  0.00    -0.031 A 
ATOM      6  C6  IND d   1      -2.537   2.065   0.269  0.00  0.00     0.015 A 
ATOM      7  C7  IND d   1      -1.652   1.639  -0.681  0.00  0.00    -0.016 A 
ATOM      8  C8  IND d   1      -0.742   0.664  -0.297  0.00  0.00    -0.047 A 
ATOM      9  C9  IND d   1      -0.708   0.154   1.007  0.00  0.00    -0.096 A 
ATOM     10  HN1 IND d   1       0.467   0.200  -1.827  0.00  0.00     0.298 HD
ENDROOT
TORSDOF 0
ENDMDL
