MODEL 1
REMARK minimizedAffinity -1.24843419
REMARK minimizedRMSD -1
REMARK  0 active torsions:
REMARK  status: ('A' for Active; 'I' for Inactive)
ROOT
ATOM      1  N1  IND d   1      -2.569   0.985   0.798  0.00  0.00    -0.196 N 
ATOM      2  C2  IND d   1      -2.023   2.085   1.397  0.00  0.00     0.054 A 
ATOM      3  C3  IND d   1      -0.681   2.092   1.233  0.00  0.00    -0.031 A 
ATOM      4  C4  IND d   1       0.817   0.453  -0.070  0.00  0.00     0.051 A 
ATOM      5  C5  IND d   1       0.778  -0.728  -0.757  0.00  0.00    -0.031 A 
ATOM      6  C6  IND d   1      -0.402  -1.411  -0.967  0.00  0.00     0.015 A 
ATOM      7  C7  IND d   1      -1.595  -0.930  -0.506  0.00  0.00    -0.016 A 
ATOM      8  C8  IND d   1      -1.559   0.265   0.198  0.00  0.00    -0.047 A 
ATOM      9  C9  IND d   1      -0.359   0.941   0.451  0.00  0.00    -0.096 A 
ATOM     10  HN1 IND d   1      -3.404   0.777   0.795  0.00  0.00     0.298 HD
ENDROOT
TORSDOF 0
ENDMDL
