MODEL 1
REMARK minimizedAffinity -3.14610386
REMARK minimizedRMSD -1
REMARK  0 active torsions:
REMARK  status: ('A' for Active; 'I' for Inactive)
ROOT
ATOM      1  N1  IND d   1       0.481  -1.084   0.322  0.00  0.00    -0.196 N 
ATOM      2  C2  IND d   1       0.923  -0.848  -0.950  0.00  0.00     0.054 A 
ATOM      3  C3  IND d   1       0.436   0.328  -1.406  0.00  0.00    -0.031 A 
ATOM      4  C4  IND d   1      -1.020   2.074  -0.200  0.00  0.00     0.051 A 
ATOM      5  C5  IND d   1      -1.705   2.287   0.964  0.00  0.00    -0.031 A 
ATOM      6  C6  IND d   1      -1.694   1.370   1.995  0.00  0.00     0.015 A 
ATOM      7  C7  IND d   1      -0.985   0.205   1.905  0.00  0.00    -0.016 A 
ATOM      8  C8  IND d   1      -0.294  -0.017   0.722  0.00  0.00    -0.047 A 
ATOM      9  C9  IND d   1      -0.336   0.890  -0.344  0.00  0.00    -0.096 A 
ATOM     10  HN1 IND d   1       0.657  -1.781   0.793  0.00  0.00     0.298 HD
ENDROOT
TORSDOF 0
ENDMDL
