MODEL 1
REMARK minimizedAffinity 8.21985722
REMARK minimizedRMSD -1
REMARK  0 active torsions:
REMARK  status: ('A' for Active; 'I' for Inactive)
ROOT
ATOM      1  C2' OXE d   1       3.782   3.225  -0.242  0.00  0.00     0.078 C 
ATOM      2  C1' OXE d   1       3.407   5.999  -0.042  0.00  0.00     0.078 C 
ATOM      3  C1  OXE d   1       4.078   5.295   1.111  0.00  0.00    -0.078 A 
ATOM      4  C2  OXE d   1       4.215   3.931   1.024  0.00  0.00    -0.078 A 
ATOM      5  C3  OXE d   1       4.876   3.239   2.035  0.00  0.00     0.003 A 
ATOM      6  C4  OXE d   1       5.265   3.898   3.208  0.00  0.00    -0.002 A 
ATOM      7  C5  OXE d   1       5.099   5.282   3.333  0.00  0.00    -0.002 A 
ATOM      8  C6  OXE d   1       4.547   6.000   2.278  0.00  0.00     0.003 A 
ENDROOT
TORSDOF 0
ENDMDL
