MODEL 1
REMARK minimizedAffinity 1.8543458
REMARK minimizedRMSD -1
REMARK  0 active torsions:
REMARK  status: ('A' for Active; 'I' for Inactive)
ROOT
ATOM      1  C2' OXE d   1       1.939   0.037  -3.519  0.00  0.00     0.078 C 
ATOM      2  C1' OXE d   1       1.761  -2.764  -3.453  0.00  0.00     0.078 C 
ATOM      3  C1  OXE d   1       1.108  -1.990  -2.335  0.00  0.00    -0.078 A 
ATOM      4  C2  OXE d   1       1.240  -0.623  -2.350  0.00  0.00    -0.078 A 
ATOM      5  C3  OXE d   1       0.611   0.142  -1.372  0.00  0.00     0.003 A 
ATOM      6  C4  OXE d   1      -0.025  -0.477  -0.289  0.00  0.00    -0.002 A 
ATOM      7  C5  OXE d   1      -0.137  -1.870  -0.233  0.00  0.00    -0.002 A 
ATOM      8  C6  OXE d   1       0.386  -2.638  -1.267  0.00  0.00     0.003 A 
ENDROOT
TORSDOF 0
ENDMDL
