MODEL 1
REMARK minimizedAffinity 5.32075024
REMARK minimizedRMSD -1
REMARK  0 active torsions:
REMARK  status: ('A' for Active; 'I' for Inactive)
ROOT
ATOM      1  C2' OXE d   1      -3.589  -1.571  -0.733  0.00  0.00     0.078 C 
ATOM      2  C1' OXE d   1      -0.890  -1.346   0.008  0.00  0.00     0.078 C 
ATOM      3  C1  OXE d   1      -1.524  -2.714   0.064  0.00  0.00    -0.078 A 
ATOM      4  C2  OXE d   1      -2.857  -2.806  -0.255  0.00  0.00    -0.078 A 
ATOM      5  C3  OXE d   1      -3.477  -4.053  -0.273  0.00  0.00     0.003 A 
ATOM      6  C4  OXE d   1      -2.796  -5.189   0.180  0.00  0.00    -0.002 A 
ATOM      7  C5  OXE d   1      -1.449  -5.110   0.549  0.00  0.00    -0.002 A 
ATOM      8  C6  OXE d   1      -0.788  -3.890   0.456  0.00  0.00     0.003 A 
ENDROOT
TORSDOF 0
ENDMDL
