MODEL 1
REMARK minimizedAffinity 3.57240438
REMARK minimizedRMSD -1
REMARK  0 active torsions:
REMARK  status: ('A' for Active; 'I' for Inactive)
ROOT
ATOM      1  C2' OXE d   1       3.636   4.880   2.278  0.00  0.00     0.078 C 
ATOM      2  C1' OXE d   1       2.560   2.793   0.740  0.00  0.00     0.078 C 
ATOM      3  C1  OXE d   1       3.292   3.895   0.016  0.00  0.00    -0.078 A 
ATOM      4  C2  OXE d   1       3.775   4.936   0.771  0.00  0.00    -0.078 A 
ATOM      5  C3  OXE d   1       4.505   5.950   0.160  0.00  0.00     0.003 A 
ATOM      6  C4  OXE d   1       4.620   6.000  -1.235  0.00  0.00    -0.002 A 
ATOM      7  C5  OXE d   1       4.101   4.970  -2.026  0.00  0.00    -0.002 A 
ATOM      8  C6  OXE d   1       3.473   3.891  -1.415  0.00  0.00     0.003 A 
ENDROOT
TORSDOF 0
ENDMDL
