MODEL 1
REMARK minimizedAffinity 4.00238562
REMARK minimizedRMSD -1
REMARK  0 active torsions:
REMARK  status: ('A' for Active; 'I' for Inactive)
ROOT
ATOM      1  C2' OXE d   1       5.160   2.549   4.489  0.00  0.00     0.078 C 
ATOM      2  C1' OXE d   1       4.221   0.835   2.474  0.00  0.00     0.078 C 
ATOM      3  C1  OXE d   1       4.825   0.208   3.706  0.00  0.00    -0.078 A 
ATOM      4  C2  OXE d   1       5.324   1.055   4.666  0.00  0.00    -0.078 A 
ATOM      5  C3  OXE d   1       5.842   0.530   5.846  0.00  0.00     0.003 A 
ATOM      6  C4  OXE d   1       5.999  -0.853   5.998  0.00  0.00    -0.002 A 
ATOM      7  C5  OXE d   1       5.534  -1.733   5.015  0.00  0.00    -0.002 A 
ATOM      8  C6  OXE d   1       4.907  -1.221   3.884  0.00  0.00     0.003 A 
ENDROOT
TORSDOF 0
ENDMDL
