MODEL 1
REMARK minimizedAffinity 1.84206557
REMARK minimizedRMSD -1
REMARK  0 active torsions:
REMARK  status: ('A' for Active; 'I' for Inactive)
ROOT
ATOM      1  C2' OXE d   1      -0.663   0.060  -0.113  0.00  0.00     0.078 C 
ATOM      2  C1' OXE d   1      -0.248  -2.715  -0.034  0.00  0.00     0.078 C 
ATOM      3  C1  OXE d   1       0.396  -1.939  -1.155  0.00  0.00    -0.078 A 
ATOM      4  C2  OXE d   1       0.149  -0.589  -1.213  0.00  0.00    -0.078 A 
ATOM      5  C3  OXE d   1       0.763   0.183  -2.196  0.00  0.00     0.003 A 
ATOM      6  C4  OXE d   1       1.504  -0.427  -3.215  0.00  0.00    -0.002 A 
ATOM      7  C5  OXE d   1       1.735  -1.806  -3.198  0.00  0.00    -0.002 A 
ATOM      8  C6  OXE d   1       1.225  -2.569  -2.153  0.00  0.00     0.003 A 
ENDROOT
TORSDOF 0
ENDMDL
