MODEL 1
REMARK minimizedAffinity 1.94451308
REMARK minimizedRMSD -1
REMARK  0 active torsions:
REMARK  status: ('A' for Active; 'I' for Inactive)
ROOT
ATOM      1  C2' OXE d   1      -3.475  -1.641  -1.259  0.00  0.00     0.078 C 
ATOM      2  C1' OXE d   1      -2.544  -4.286  -1.115  0.00  0.00     0.078 C 
ATOM      3  C1  OXE d   1      -1.549  -3.176  -0.883  0.00  0.00    -0.078 A 
ATOM      4  C2  OXE d   1      -2.003  -1.884  -1.002  0.00  0.00    -0.078 A 
ATOM      5  C3  OXE d   1      -1.139  -0.824  -0.744  0.00  0.00     0.003 A 
ATOM      6  C4  OXE d   1       0.222  -1.057  -0.517  0.00  0.00    -0.002 A 
ATOM      7  C5  OXE d   1       0.714  -2.364  -0.431  0.00  0.00    -0.002 A 
ATOM      8  C6  OXE d   1      -0.165  -3.433  -0.570  0.00  0.00     0.003 A 
ENDROOT
TORSDOF 0
ENDMDL
