MODEL 1
REMARK minimizedAffinity 1.7319355
REMARK minimizedRMSD -1
REMARK  0 active torsions:
REMARK  status: ('A' for Active; 'I' for Inactive)
ROOT
ATOM      1  C2' OXE d   1       0.830  -4.036   0.130  0.00  0.00     0.078 C 
ATOM      2  C1' OXE d   1       0.155  -1.372  -0.444  0.00  0.00     0.078 C 
ATOM      3  C1  OXE d   1      -0.911  -2.423  -0.628  0.00  0.00    -0.078 A 
ATOM      4  C2  OXE d   1      -0.558  -3.730  -0.390  0.00  0.00    -0.078 A 
ATOM      5  C3  OXE d   1      -1.519  -4.732  -0.492  0.00  0.00     0.003 A 
ATOM      6  C4  OXE d   1      -2.797  -4.442  -0.983  0.00  0.00    -0.002 A 
ATOM      7  C5  OXE d   1      -3.165  -3.123  -1.270  0.00  0.00    -0.002 A 
ATOM      8  C6  OXE d   1      -2.249  -2.098  -1.058  0.00  0.00     0.003 A 
ENDROOT
TORSDOF 0
ENDMDL
