MODEL 1
REMARK minimizedAffinity 11.0159578
REMARK minimizedRMSD -1
REMARK  0 active torsions:
REMARK  status: ('A' for Active; 'I' for Inactive)
ROOT
ATOM      1  C2' OXE d   1      -0.574   3.229   0.059  0.00  0.00     0.078 C 
ATOM      2  C1' OXE d   1       2.172   2.681  -0.135  0.00  0.00     0.078 C 
ATOM      3  C1  OXE d   1       1.211   1.536  -0.333  0.00  0.00    -0.078 A 
ATOM      4  C2  OXE d   1      -0.129   1.804  -0.190  0.00  0.00    -0.078 A 
ATOM      5  C3  OXE d   1      -1.061   0.795  -0.416  0.00  0.00     0.003 A 
ATOM      6  C4  OXE d   1      -0.641  -0.522  -0.635  0.00  0.00    -0.002 A 
ATOM      7  C5  OXE d   1       0.720  -0.824  -0.745  0.00  0.00    -0.002 A 
ATOM      8  C6  OXE d   1       1.656   0.199  -0.639  0.00  0.00     0.003 A 
ENDROOT
TORSDOF 0
ENDMDL
