MODEL 1
REMARK minimizedAffinity 7.22462606
REMARK minimizedRMSD -1
REMARK  0 active torsions:
REMARK  status: ('A' for Active; 'I' for Inactive)
ROOT
ATOM      1  C2' OXE d   1       3.570   3.694   1.522  0.00  0.00     0.078 C 
ATOM      2  C1' OXE d   1       2.510   3.621   4.120  0.00  0.00     0.078 C 
ATOM      3  C1  OXE d   1       3.726   4.480   3.880  0.00  0.00    -0.078 A 
ATOM      4  C2  OXE d   1       4.266   4.473   2.617  0.00  0.00    -0.078 A 
ATOM      5  C3  OXE d   1       5.356   5.290   2.328  0.00  0.00     0.003 A 
ATOM      6  C4  OXE d   1       6.000   6.000   3.349  0.00  0.00    -0.002 A 
ATOM      7  C5  OXE d   1       5.490   5.989   4.652  0.00  0.00    -0.002 A 
ATOM      8  C6  OXE d   1       4.332   5.270   4.924  0.00  0.00     0.003 A 
ENDROOT
TORSDOF 0
ENDMDL
