MODEL 1
REMARK minimizedAffinity 2.72590923
REMARK minimizedRMSD -1
REMARK  0 active torsions:
REMARK  status: ('A' for Active; 'I' for Inactive)
ROOT
ATOM      1  C2' OXE d   1      -3.002  -1.558  -1.144  0.00  0.00     0.078 C 
ATOM      2  C1' OXE d   1      -0.390  -2.078  -0.257  0.00  0.00     0.078 C 
ATOM      3  C1  OXE d   1      -1.328  -3.249  -0.407  0.00  0.00    -0.078 A 
ATOM      4  C2  OXE d   1      -2.618  -2.981  -0.797  0.00  0.00    -0.078 A 
ATOM      5  C3  OXE d   1      -3.509  -4.030  -1.003  0.00  0.00     0.003 A 
ATOM      6  C4  OXE d   1      -3.148  -5.341  -0.670  0.00  0.00    -0.002 A 
ATOM      7  C5  OXE d   1      -1.852  -5.632  -0.234  0.00  0.00    -0.002 A 
ATOM      8  C6  OXE d   1      -0.919  -4.606  -0.137  0.00  0.00     0.003 A 
ENDROOT
TORSDOF 0
ENDMDL
