MODEL 1
REMARK minimizedAffinity -2.24894953
REMARK minimizedRMSD -1
REMARK  0 active torsions:
REMARK  status: ('A' for Active; 'I' for Inactive)
ROOT
ATOM      1  C2' OXE d   1       5.915   6.000   3.741  0.00  0.00     0.078 C 
ATOM      2  C1' OXE d   1       5.962   3.193   3.679  0.00  0.00     0.078 C 
ATOM      3  C1  OXE d   1       5.340   3.913   2.508  0.00  0.00    -0.078 A 
ATOM      4  C2  OXE d   1       5.279   5.284   2.568  0.00  0.00    -0.078 A 
ATOM      5  C3  OXE d   1       4.766   6.000   1.491  0.00  0.00     0.003 A 
ATOM      6  C4  OXE d   1       4.171   5.331   0.414  0.00  0.00    -0.002 A 
ATOM      7  C5  OXE d   1       4.186   3.933   0.352  0.00  0.00    -0.002 A 
ATOM      8  C6  OXE d   1       4.803   3.212   1.368  0.00  0.00     0.003 A 
ENDROOT
TORSDOF 0
ENDMDL
