MODEL 1
REMARK minimizedAffinity 2.09693646
REMARK minimizedRMSD -1
REMARK  0 active torsions:
REMARK  status: ('A' for Active; 'I' for Inactive)
ROOT
ATOM      1  C2' OXE d   1       5.216   1.936   2.359  0.00  0.00     0.078 C 
ATOM      2  C1' OXE d   1       5.978   3.263   4.712  0.00  0.00     0.078 C 
ATOM      3  C1  OXE d   1       5.782   1.769   4.779  0.00  0.00    -0.078 A 
ATOM      4  C2  OXE d   1       5.364   1.135   3.634  0.00  0.00    -0.078 A 
ATOM      5  C3  OXE d   1       5.221  -0.250   3.626  0.00  0.00     0.003 A 
ATOM      6  C4  OXE d   1       5.350  -0.983   4.812  0.00  0.00    -0.002 A 
ATOM      7  C5  OXE d   1       5.736  -0.351   5.998  0.00  0.00    -0.002 A 
ATOM      8  C6  OXE d   1       5.997   1.015   5.989  0.00  0.00     0.003 A 
ENDROOT
TORSDOF 0
ENDMDL
