MODEL 1
REMARK minimizedAffinity 6.64867449
REMARK minimizedRMSD -1
REMARK  0 active torsions:
REMARK  status: ('A' for Active; 'I' for Inactive)
ROOT
ATOM      1  C2' OXE d   1       4.128   4.902  -0.454  0.00  0.00     0.078 C 
ATOM      2  C1' OXE d   1       3.203   2.775   1.127  0.00  0.00     0.078 C 
ATOM      3  C1  OXE d   1       3.935   3.898   1.818  0.00  0.00    -0.078 A 
ATOM      4  C2  OXE d   1       4.425   4.912   1.031  0.00  0.00    -0.078 A 
ATOM      5  C3  OXE d   1       5.059   6.000   1.623  0.00  0.00     0.003 A 
ATOM      6  C4  OXE d   1       5.338   5.997   2.996  0.00  0.00    -0.002 A 
ATOM      7  C5  OXE d   1       4.883   4.954   3.810  0.00  0.00    -0.002 A 
ATOM      8  C6  OXE d   1       4.144   3.921   3.244  0.00  0.00     0.003 A 
ENDROOT
TORSDOF 0
ENDMDL
