MODEL 1
REMARK minimizedAffinity 2.79239655
REMARK minimizedRMSD -1
REMARK  0 active torsions:
REMARK  status: ('A' for Active; 'I' for Inactive)
ROOT
ATOM      1  C2' OXE d   1      -3.415  -0.936  -0.525  0.00  0.00     0.078 C 
ATOM      2  C1' OXE d   1      -0.681  -0.551  -0.021  0.00  0.00     0.078 C 
ATOM      3  C1  OXE d   1      -1.579  -0.840   1.156  0.00  0.00    -0.078 A 
ATOM      4  C2  OXE d   1      -2.923  -0.981   0.906  0.00  0.00    -0.078 A 
ATOM      5  C3  OXE d   1      -3.788  -1.303   1.948  0.00  0.00     0.003 A 
ATOM      6  C4  OXE d   1      -3.326  -1.334   3.269  0.00  0.00    -0.002 A 
ATOM      7  C5  OXE d   1      -1.967  -1.154   3.550  0.00  0.00    -0.002 A 
ATOM      8  C6  OXE d   1      -1.076  -0.949   2.503  0.00  0.00     0.003 A 
ENDROOT
TORSDOF 0
ENDMDL
