MODEL 1
REMARK minimizedAffinity 4.89437246
REMARK minimizedRMSD -1
REMARK  0 active torsions:
REMARK  status: ('A' for Active; 'I' for Inactive)
ROOT
ATOM      1  C2' OXE d   1       4.576   4.985  -1.102  0.00  0.00     0.078 C 
ATOM      2  C1' OXE d   1       2.866   3.070   0.034  0.00  0.00     0.078 C 
ATOM      3  C1  OXE d   1       3.484   4.095   0.952  0.00  0.00    -0.078 A 
ATOM      4  C2  OXE d   1       4.356   4.999   0.395  0.00  0.00    -0.078 A 
ATOM      5  C3  OXE d   1       4.911   6.000   1.188  0.00  0.00     0.003 A 
ATOM      6  C4  OXE d   1       4.710   6.000   2.574  0.00  0.00    -0.002 A 
ATOM      7  C5  OXE d   1       3.857   5.063   3.167  0.00  0.00    -0.002 A 
ATOM      8  C6  OXE d   1       3.204   4.133   2.367  0.00  0.00     0.003 A 
ENDROOT
TORSDOF 0
ENDMDL
