MODEL 1
REMARK minimizedAffinity 3.37854624
REMARK minimizedRMSD -1
REMARK  0 active torsions:
REMARK  status: ('A' for Active; 'I' for Inactive)
ROOT
ATOM      1  C2' OXE d   1       4.148   4.498   2.477  0.00  0.00     0.078 C 
ATOM      2  C1' OXE d   1       5.955   5.724   4.242  0.00  0.00     0.078 C 
ATOM      3  C1  OXE d   1       5.493   4.325   4.567  0.00  0.00    -0.078 A 
ATOM      4  C2  OXE d   1       4.574   3.751   3.723  0.00  0.00    -0.078 A 
ATOM      5  C3  OXE d   1       4.156   2.442   3.946  0.00  0.00     0.003 A 
ATOM      6  C4  OXE d   1       4.547   1.762   5.106  0.00  0.00    -0.002 A 
ATOM      7  C5  OXE d   1       5.452   2.344   6.000  0.00  0.00    -0.002 A 
ATOM      8  C6  OXE d   1       5.967   3.605   5.723  0.00  0.00     0.003 A 
ENDROOT
TORSDOF 0
ENDMDL
