MODEL 1
REMARK minimizedAffinity -0.858191252
REMARK minimizedRMSD -1
REMARK  0 active torsions:
REMARK  status: ('A' for Active; 'I' for Inactive)
ROOT
ATOM      1  C   UNL d   1      -3.698  -2.617  -1.157  0.00  0.00     0.023 A 
ATOM      2  C1  UNL d   1      -3.761  -1.266  -0.816  0.00  0.00     0.003 A 
ATOM      3  C2  UNL d   1      -2.604  -0.588  -0.429  0.00  0.00     0.048 A 
ATOM      4  C3  UNL d   1      -1.386  -1.266  -0.386  0.00  0.00     0.023 A 
ATOM      5  C4  UNL d   1      -1.318  -2.618  -0.728  0.00  0.00     0.048 A 
ATOM      6  C5  UNL d   1      -2.478  -3.292  -1.113  0.00  0.00     0.003 A 
ATOM      7  I   UNL d   1       0.338  -0.258   0.189  0.00  0.00    -0.146 I 
ENDROOT
TORSDOF 0
ENDMDL
