MODEL 1
REMARK minimizedAffinity -2.61840963
REMARK minimizedRMSD -1
REMARK  0 active torsions:
REMARK  status: ('A' for Active; 'I' for Inactive)
ROOT
ATOM      1  C   UNL d   1      -0.711   1.509   3.069  0.00  0.00     0.023 A 
ATOM      2  C1  UNL d   1       0.591   1.825   2.680  0.00  0.00     0.003 A 
ATOM      3  C2  UNL d   1       1.135   1.256   1.527  0.00  0.00     0.048 A 
ATOM      4  C3  UNL d   1       0.371   0.371   0.767  0.00  0.00     0.023 A 
ATOM      5  C4  UNL d   1      -0.933   0.052   1.152  0.00  0.00     0.048 A 
ATOM      6  C5  UNL d   1      -1.472   0.623   2.306  0.00  0.00     0.003 A 
ATOM      7  I   UNL d   1       1.177  -0.478  -0.950  0.00  0.00    -0.146 I 
ENDROOT
TORSDOF 0
ENDMDL
