MODEL 1
REMARK minimizedAffinity -0.702414632
REMARK minimizedRMSD -1
REMARK  0 active torsions:
REMARK  status: ('A' for Active; 'I' for Inactive)
ROOT
ATOM      1  C   UNL d   1       0.875  -0.090   1.169  0.00  0.00     0.023 A 
ATOM      2  C1  UNL d   1      -0.014  -0.022   0.096  0.00  0.00     0.003 A 
ATOM      3  C2  UNL d   1       0.440   0.371  -1.165  0.00  0.00     0.048 A 
ATOM      4  C3  UNL d   1       1.784   0.694  -1.346  0.00  0.00     0.023 A 
ATOM      5  C4  UNL d   1       2.678   0.627  -0.276  0.00  0.00     0.048 A 
ATOM      6  C5  UNL d   1       2.219   0.234   0.983  0.00  0.00     0.003 A 
ATOM      7  I   UNL d   1       2.462   1.279  -3.222  0.00  0.00    -0.146 I 
ENDROOT
TORSDOF 0
ENDMDL
