MODEL 1
REMARK minimizedAffinity -4.43033504
REMARK minimizedRMSD -1
REMARK  0 active torsions:
REMARK  status: ('A' for Active; 'I' for Inactive)
ROOT
ATOM      1  C   UNL d   1      -3.429  -3.600  -1.601  0.00  0.00     0.023 A 
ATOM      2  C1  UNL d   1      -2.036  -3.680  -1.625  0.00  0.00     0.003 A 
ATOM      3  C2  UNL d   1      -1.266  -2.610  -1.164  0.00  0.00     0.048 A 
ATOM      4  C3  UNL d   1      -1.895  -1.463  -0.680  0.00  0.00     0.023 A 
ATOM      5  C4  UNL d   1      -3.288  -1.379  -0.653  0.00  0.00     0.048 A 
ATOM      6  C5  UNL d   1      -4.054  -2.451  -1.116  0.00  0.00     0.003 A 
ATOM      7  I   UNL d   1      -0.751   0.130   0.007  0.00  0.00    -0.146 I 
ENDROOT
TORSDOF 0
ENDMDL
