MODEL 1
REMARK minimizedAffinity 0.0699451268
REMARK minimizedRMSD -1
REMARK  0 active torsions:
REMARK  status: ('A' for Active; 'I' for Inactive)
ROOT
ATOM      1  C   UNL d   1       0.544   0.351   1.461  0.00  0.00     0.023 A 
ATOM      2  C1  UNL d   1       0.919  -0.742   0.680  0.00  0.00     0.003 A 
ATOM      3  C2  UNL d   1       0.888  -0.651  -0.713  0.00  0.00     0.048 A 
ATOM      4  C3  UNL d   1       0.482   0.537  -1.319  0.00  0.00     0.023 A 
ATOM      5  C4  UNL d   1       0.106   1.634  -0.542  0.00  0.00     0.048 A 
ATOM      6  C5  UNL d   1       0.138   1.538   0.851  0.00  0.00     0.003 A 
ATOM      7  I   UNL d   1       0.434   0.676  -3.392  0.00  0.00    -0.146 I 
ENDROOT
TORSDOF 0
ENDMDL
