MODEL 1
REMARK minimizedAffinity -5.46465302
REMARK minimizedRMSD -1
REMARK  0 active torsions:
REMARK  status: ('A' for Active; 'I' for Inactive)
ROOT
ATOM      1  C   UNL d   1      -3.107   4.462  -1.556  0.00  0.00     0.023 A 
ATOM      2  C1  UNL d   1      -3.112   5.716  -0.946  0.00  0.00     0.003 A 
ATOM      3  C2  UNL d   1      -2.235   5.985   0.107  0.00  0.00     0.048 A 
ATOM      4  C3  UNL d   1      -1.355   4.996   0.544  0.00  0.00     0.023 A 
ATOM      5  C4  UNL d   1      -1.346   3.739  -0.064  0.00  0.00     0.048 A 
ATOM      6  C5  UNL d   1      -2.226   3.474  -1.116  0.00  0.00     0.003 A 
ATOM      7  I   UNL d   1      -0.049   5.394   2.110  0.00  0.00    -0.146 I 
ENDROOT
TORSDOF 0
ENDMDL
