MODEL 1
REMARK minimizedAffinity -4.81399345
REMARK minimizedRMSD -1
REMARK  0 active torsions:
REMARK  status: ('A' for Active; 'I' for Inactive)
ROOT
ATOM      1  C   UNL d   1      -0.145  -2.925   0.541  0.00  0.00     0.023 A 
ATOM      2  C1  UNL d   1       0.935  -2.344   1.206  0.00  0.00     0.003 A 
ATOM      3  C2  UNL d   1       0.983  -0.960   1.385  0.00  0.00     0.048 A 
ATOM      4  C3  UNL d   1      -0.053  -0.163   0.899  0.00  0.00     0.023 A 
ATOM      5  C4  UNL d   1      -1.136  -0.741   0.234  0.00  0.00     0.048 A 
ATOM      6  C5  UNL d   1      -1.179  -2.125   0.056  0.00  0.00     0.003 A 
ATOM      7  I   UNL d   1       0.017   1.897   1.165  0.00  0.00    -0.146 I 
ENDROOT
TORSDOF 0
ENDMDL
