MODEL 1
REMARK minimizedAffinity -2.4899106
REMARK minimizedRMSD -1
REMARK  0 active torsions:
REMARK  status: ('A' for Active; 'I' for Inactive)
ROOT
ATOM      1  C   UNL d   1      -0.554  -0.828  -0.204  0.00  0.00     0.023 A 
ATOM      2  C1  UNL d   1       0.092  -0.568   1.005  0.00  0.00     0.003 A 
ATOM      3  C2  UNL d   1       0.761   0.642   1.195  0.00  0.00     0.048 A 
ATOM      4  C3  UNL d   1       0.780   1.590   0.172  0.00  0.00     0.023 A 
ATOM      5  C4  UNL d   1       0.135   1.335  -1.039  0.00  0.00     0.048 A 
ATOM      6  C5  UNL d   1      -0.532   0.123  -1.225  0.00  0.00     0.003 A 
ATOM      7  I   UNL d   1       1.776   3.393   0.452  0.00  0.00    -0.146 I 
ENDROOT
TORSDOF 0
ENDMDL
