MODEL 1
REMARK minimizedAffinity -0.0456062965
REMARK minimizedRMSD -1
REMARK  0 active torsions:
REMARK  status: ('A' for Active; 'I' for Inactive)
ROOT
ATOM      1  C   UNL d   1       3.103   3.496   0.527  0.00  0.00     0.023 A 
ATOM      2  C1  UNL d   1       2.897   4.568   1.395  0.00  0.00     0.003 A 
ATOM      3  C2  UNL d   1       1.603   4.902   1.800  0.00  0.00     0.048 A 
ATOM      4  C3  UNL d   1       0.519   4.158   1.334  0.00  0.00     0.023 A 
ATOM      5  C4  UNL d   1       0.721   3.084   0.466  0.00  0.00     0.048 A 
ATOM      6  C5  UNL d   1       2.017   2.755   0.063  0.00  0.00     0.003 A 
ATOM      7  I   UNL d   1      -1.408   4.653   1.934  0.00  0.00    -0.146 I 
ENDROOT
TORSDOF 0
ENDMDL
