MODEL 1
REMARK minimizedAffinity -1.18740892
REMARK minimizedRMSD -1
REMARK  0 active torsions:
REMARK  status: ('A' for Active; 'I' for Inactive)
ROOT
ATOM      1  C   UNL d   1      -1.191  -1.031   0.630  0.00  0.00     0.023 A 
ATOM      2  C1  UNL d   1      -1.823   0.198   0.819  0.00  0.00     0.003 A 
ATOM      3  C2  UNL d   1      -1.278   1.358   0.264  0.00  0.00     0.048 A 
ATOM      4  C3  UNL d   1      -0.101   1.281  -0.480  0.00  0.00     0.023 A 
ATOM      5  C4  UNL d   1       0.534   0.053  -0.672  0.00  0.00     0.048 A 
ATOM      6  C5  UNL d   1      -0.014  -1.103  -0.115  0.00  0.00     0.003 A 
ATOM      7  I   UNL d   1       0.712   3.006  -1.307  0.00  0.00    -0.146 I 
ENDROOT
TORSDOF 0
ENDMDL
