MODEL 1
REMARK minimizedAffinity -3.20231795
REMARK minimizedRMSD -1
REMARK  0 active torsions:
REMARK  status: ('A' for Active; 'I' for Inactive)
ROOT
ATOM      1  C   UNL d   1       3.885   3.764   0.026  0.00  0.00     0.023 A 
ATOM      2  C1  UNL d   1       3.869   2.476   0.562  0.00  0.00     0.003 A 
ATOM      3  C2  UNL d   1       2.850   1.586   0.216  0.00  0.00     0.048 A 
ATOM      4  C3  UNL d   1       1.851   1.991  -0.669  0.00  0.00     0.023 A 
ATOM      5  C4  UNL d   1       1.863   3.278  -1.208  0.00  0.00     0.048 A 
ATOM      6  C5  UNL d   1       2.883   4.164  -0.858  0.00  0.00     0.003 A 
ATOM      7  I   UNL d   1       0.333   0.668  -1.186  0.00  0.00    -0.146 I 
ENDROOT
TORSDOF 0
ENDMDL
