MODEL 1
REMARK minimizedAffinity -4.24535704
REMARK minimizedRMSD -1
REMARK  0 active torsions:
REMARK  status: ('A' for Active; 'I' for Inactive)
ROOT
ATOM      1  C   UNL d   1      -0.185   0.032  -0.985  0.00  0.00     0.023 A 
ATOM      2  C1  UNL d   1      -1.204   0.138  -0.038  0.00  0.00     0.003 A 
ATOM      3  C2  UNL d   1      -1.431   1.354   0.611  0.00  0.00     0.048 A 
ATOM      4  C3  UNL d   1      -0.638   2.459   0.307  0.00  0.00     0.023 A 
ATOM      5  C4  UNL d   1       0.382   2.358  -0.641  0.00  0.00     0.048 A 
ATOM      6  C5  UNL d   1       0.606   1.140  -1.287  0.00  0.00     0.003 A 
ATOM      7  I   UNL d   1      -0.975   4.269   1.270  0.00  0.00    -0.146 I 
ENDROOT
TORSDOF 0
ENDMDL
