MODEL 1
REMARK minimizedAffinity -3.88861847
REMARK minimizedRMSD -1
REMARK  0 active torsions:
REMARK  status: ('A' for Active; 'I' for Inactive)
ROOT
ATOM      1  C   UNL d   1       0.689   5.259   1.892  0.00  0.00     0.023 A 
ATOM      2  C1  UNL d   1       1.624   4.393   1.323  0.00  0.00     0.003 A 
ATOM      3  C2  UNL d   1       1.196   3.300   0.568  0.00  0.00     0.048 A 
ATOM      4  C3  UNL d   1      -0.168   3.079   0.383  0.00  0.00     0.023 A 
ATOM      5  C4  UNL d   1      -1.107   3.942   0.949  0.00  0.00     0.048 A 
ATOM      6  C5  UNL d   1      -0.674   5.034   1.705  0.00  0.00     0.003 A 
ATOM      7  I   UNL d   1      -0.808   1.452  -0.742  0.00  0.00    -0.146 I 
ENDROOT
TORSDOF 0
ENDMDL
