MODEL 1
REMARK minimizedAffinity -2.97915554
REMARK minimizedRMSD -1
REMARK  0 active torsions:
REMARK  status: ('A' for Active; 'I' for Inactive)
ROOT
ATOM      1  C   UNL d   1      -0.199   2.489   0.538  0.00  0.00     0.023 A 
ATOM      2  C1  UNL d   1       0.882   1.609   0.499  0.00  0.00     0.003 A 
ATOM      3  C2  UNL d   1       0.662   0.231   0.464  0.00  0.00     0.048 A 
ATOM      4  C3  UNL d   1      -0.643  -0.261   0.467  0.00  0.00     0.023 A 
ATOM      5  C4  UNL d   1      -1.729   0.616   0.505  0.00  0.00     0.048 A 
ATOM      6  C5  UNL d   1      -1.503   1.994   0.541  0.00  0.00     0.003 A 
ATOM      7  I   UNL d   1      -0.974  -2.312   0.414  0.00  0.00    -0.146 I 
ENDROOT
TORSDOF 0
ENDMDL
