MODEL 1
REMARK minimizedAffinity -3.52739882
REMARK minimizedRMSD -1
REMARK  0 active torsions:
REMARK  status: ('A' for Active; 'I' for Inactive)
ROOT
ATOM      1  C   UNL d   1      -1.512   4.275   1.524  0.00  0.00     0.023 A 
ATOM      2  C1  UNL d   1      -0.591   4.936   2.337  0.00  0.00     0.003 A 
ATOM      3  C2  UNL d   1       0.775   4.691   2.189  0.00  0.00     0.048 A 
ATOM      4  C3  UNL d   1       1.215   3.785   1.225  0.00  0.00     0.023 A 
ATOM      5  C4  UNL d   1       0.298   3.122   0.408  0.00  0.00     0.048 A 
ATOM      6  C5  UNL d   1      -1.068   3.369   0.560  0.00  0.00     0.003 A 
ATOM      7  I   UNL d   1       3.249   3.419   1.002  0.00  0.00    -0.146 I 
ENDROOT
TORSDOF 0
ENDMDL
