MODEL 1
REMARK minimizedAffinity -3.61650205
REMARK minimizedRMSD -1
REMARK  0 active torsions:
REMARK  status: ('A' for Active; 'I' for Inactive)
ROOT
ATOM      1  C   UNL d   1       0.632   5.287   1.724  0.00  0.00     0.023 A 
ATOM      2  C1  UNL d   1      -0.730   4.994   1.666  0.00  0.00     0.003 A 
ATOM      3  C2  UNL d   1      -1.167   3.815   1.058  0.00  0.00     0.048 A 
ATOM      4  C3  UNL d   1      -0.236   2.933   0.512  0.00  0.00     0.023 A 
ATOM      5  C4  UNL d   1       1.129   3.221   0.568  0.00  0.00     0.048 A 
ATOM      6  C5  UNL d   1       1.561   4.402   1.176  0.00  0.00     0.003 A 
ATOM      7  I   UNL d   1      -0.883   1.177  -0.393  0.00  0.00    -0.146 I 
ENDROOT
TORSDOF 0
ENDMDL
