MODEL 1
REMARK minimizedAffinity -4.33225584
REMARK minimizedRMSD -1
REMARK  0 active torsions:
REMARK  status: ('A' for Active; 'I' for Inactive)
ROOT
ATOM      1  C   UNL d   1       0.333   5.133   1.977  0.00  0.00     0.023 A 
ATOM      2  C1  UNL d   1       1.424   4.491   1.391  0.00  0.00     0.003 A 
ATOM      3  C2  UNL d   1       1.217   3.453   0.479  0.00  0.00     0.048 A 
ATOM      4  C3  UNL d   1      -0.083   3.064   0.157  0.00  0.00     0.023 A 
ATOM      5  C4  UNL d   1      -1.177   3.705   0.741  0.00  0.00     0.048 A 
ATOM      6  C5  UNL d   1      -0.966   4.741   1.652  0.00  0.00     0.003 A 
ATOM      7  I   UNL d   1      -0.392   1.520  -1.199  0.00  0.00    -0.146 I 
ENDROOT
TORSDOF 0
ENDMDL
