MODEL 1
REMARK minimizedAffinity -4.25611019
REMARK minimizedRMSD -1
REMARK  0 active torsions:
REMARK  status: ('A' for Active; 'I' for Inactive)
ROOT
ATOM      1  C   UNL d   1      -0.239   1.800  -1.174  0.00  0.00     0.023 A 
ATOM      2  C1  UNL d   1       0.153   0.733  -1.981  0.00  0.00     0.003 A 
ATOM      3  C2  UNL d   1      -0.092  -0.580  -1.573  0.00  0.00     0.048 A 
ATOM      4  C3  UNL d   1      -0.730  -0.818  -0.356  0.00  0.00     0.023 A 
ATOM      5  C4  UNL d   1      -1.124   0.248   0.455  0.00  0.00     0.048 A 
ATOM      6  C5  UNL d   1      -0.877   1.558   0.043  0.00  0.00     0.003 A 
ATOM      7  I   UNL d   1      -1.095  -2.770   0.255  0.00  0.00    -0.146 I 
ENDROOT
TORSDOF 0
ENDMDL
