MODEL 1
REMARK minimizedAffinity -1.06274462
REMARK minimizedRMSD -1
REMARK  0 active torsions:
REMARK  status: ('A' for Active; 'I' for Inactive)
ROOT
ATOM      1  C   UNL d   1       0.795  -0.837  -1.916  0.00  0.00     0.023 A 
ATOM      2  C1  UNL d   1       0.512   0.375  -2.547  0.00  0.00     0.003 A 
ATOM      3  C2  UNL d   1      -0.256   1.341  -1.894  0.00  0.00     0.048 A 
ATOM      4  C3  UNL d   1      -0.737   1.090  -0.610  0.00  0.00     0.023 A 
ATOM      5  C4  UNL d   1      -0.456  -0.121   0.026  0.00  0.00     0.048 A 
ATOM      6  C5  UNL d   1       0.311  -1.084  -0.631  0.00  0.00     0.003 A 
ATOM      7  I   UNL d   1      -1.880   2.526   0.365  0.00  0.00    -0.146 I 
ENDROOT
TORSDOF 0
ENDMDL
