MODEL 1
REMARK minimizedAffinity -2.52317333
REMARK minimizedRMSD -1
REMARK  0 active torsions:
REMARK  status: ('A' for Active; 'I' for Inactive)
ROOT
ATOM      1  C   UNL d   1       0.752   2.941  -0.612  0.00  0.00     0.023 A 
ATOM      2  C1  UNL d   1       0.896   2.641   0.743  0.00  0.00     0.003 A 
ATOM      3  C2  UNL d   1       0.352   1.464   1.259  0.00  0.00     0.048 A 
ATOM      4  C3  UNL d   1      -0.333   0.590   0.416  0.00  0.00     0.023 A 
ATOM      5  C4  UNL d   1      -0.478   0.886  -0.941  0.00  0.00     0.048 A 
ATOM      6  C5  UNL d   1       0.066   2.065  -1.453  0.00  0.00     0.003 A 
ATOM      7  I   UNL d   1      -1.144  -1.164   1.183  0.00  0.00    -0.146 I 
ENDROOT
TORSDOF 0
ENDMDL
