MODEL 1
REMARK minimizedAffinity 17.2560101
REMARK minimizedRMSD -1
REMARK  2 active torsions:
REMARK  status: ('A' for Active; 'I' for Inactive)
REMARK    1  A    between atoms: C2'_3  and  C1'_4 
REMARK    2  A    between atoms: C1'_4  and  C1_5 
ROOT
ATOM      1  C1  I4B d   1      -3.944   3.785  -5.224  0.00  0.00    -0.075 A 
ATOM      2  C2  I4B d   1      -5.127   3.773  -5.920  0.00  0.00     0.003 A 
ATOM      3  C3  I4B d   1      -5.990   4.895  -5.877  0.00  0.00     0.002 A 
ATOM      4  C4  I4B d   1      -5.658   5.978  -5.090  0.00  0.00    -0.004 A 
ATOM      5  C5  I4B d   1      -4.448   5.998  -4.403  0.00  0.00     0.002 A 
ATOM      6  C6  I4B d   1      -3.579   4.899  -4.480  0.00  0.00     0.003 A 
ENDROOT
BRANCH   1   7
ATOM      7  C1' I4B d   1      -3.072   2.570  -5.265  0.00  0.00     0.060 C 
BRANCH   7   8
ATOM      8  C2' I4B d   1      -2.277   2.523  -3.976  0.00  0.00    -0.013 C 
ATOM      9  C4' I4B d   1      -2.814   1.471  -3.042  0.00  0.00     0.013 C 
ATOM     10  C3' I4B d   1      -0.843   2.255  -4.326  0.00  0.00     0.013 C 
ENDBRANCH   7   8
ENDBRANCH   1   7
TORSDOF 2
ENDMDL
