MODEL 1
REMARK minimizedAffinity 17.1206989
REMARK minimizedRMSD -1
REMARK  2 active torsions:
REMARK  status: ('A' for Active; 'I' for Inactive)
REMARK    1  A    between atoms: C2'_3  and  C1'_4 
REMARK    2  A    between atoms: C1'_4  and  C1_5 
ROOT
ATOM      1  C1  I4B d   1      -1.449  -2.470  -0.878  0.00  0.00    -0.075 A 
ATOM      2  C2  I4B d   1      -1.102  -3.769  -1.153  0.00  0.00     0.003 A 
ATOM      3  C3  I4B d   1      -0.924  -4.697  -0.099  0.00  0.00     0.002 A 
ATOM      4  C4  I4B d   1      -1.053  -4.274   1.209  0.00  0.00    -0.004 A 
ATOM      5  C5  I4B d   1      -1.427  -2.962   1.484  0.00  0.00     0.002 A 
ATOM      6  C6  I4B d   1      -1.639  -2.057   0.434  0.00  0.00     0.003 A 
ENDROOT
BRANCH   1   7
ATOM      7  C1' I4B d   1      -1.597  -1.508  -2.014  0.00  0.00     0.060 C 
BRANCH   7   8
ATOM      8  C2' I4B d   1      -1.154  -2.210  -3.282  0.00  0.00    -0.013 C 
ATOM      9  C4' I4B d   1      -2.265  -2.254  -4.297  0.00  0.00     0.013 C 
ATOM     10  C3' I4B d   1       0.043  -1.484  -3.820  0.00  0.00     0.013 C 
ENDBRANCH   7   8
ENDBRANCH   1   7
TORSDOF 2
ENDMDL
