MODEL 1
REMARK minimizedAffinity 13.1233301
REMARK minimizedRMSD -1
REMARK  2 active torsions:
REMARK  status: ('A' for Active; 'I' for Inactive)
REMARK    1  A    between atoms: C2'_3  and  C1'_4 
REMARK    2  A    between atoms: C1'_4  and  C1_5 
ROOT
ATOM      1  C1  I4B d   1      -1.819  -2.666   2.077  0.00  0.00    -0.075 A 
ATOM      2  C2  I4B d   1      -0.905  -3.669   1.871  0.00  0.00     0.003 A 
ATOM      3  C3  I4B d   1      -0.347  -3.872   0.586  0.00  0.00     0.002 A 
ATOM      4  C4  I4B d   1      -0.766  -3.087  -0.469  0.00  0.00    -0.004 A 
ATOM      5  C5  I4B d   1      -1.676  -2.056  -0.254  0.00  0.00     0.002 A 
ATOM      6  C6  I4B d   1      -2.197  -1.836   1.030  0.00  0.00     0.003 A 
ENDROOT
BRANCH   1   7
ATOM      7  C1' I4B d   1      -2.413  -2.500   3.440  0.00  0.00     0.060 C 
BRANCH   7   8
ATOM      8  C2' I4B d   1      -1.372  -2.922   4.457  0.00  0.00    -0.013 C 
ATOM      9  C4' I4B d   1      -1.130  -1.836   5.472  0.00  0.00     0.013 C 
ATOM     10  C3' I4B d   1      -1.851  -4.181   5.115  0.00  0.00     0.013 C 
ENDBRANCH   7   8
ENDBRANCH   1   7
TORSDOF 2
ENDMDL
