MODEL 1
REMARK minimizedAffinity 16.6517582
REMARK minimizedRMSD -1
REMARK  2 active torsions:
REMARK  status: ('A' for Active; 'I' for Inactive)
REMARK    1  A    between atoms: C2'_3  and  C1'_4 
REMARK    2  A    between atoms: C1'_4  and  C1_5 
ROOT
ATOM      1  C1  I4B d   1       3.863   2.165   2.584  0.00  0.00    -0.075 A 
ATOM      2  C2  I4B d   1       3.125   2.814   1.626  0.00  0.00     0.003 A 
ATOM      3  C3  I4B d   1       3.571   2.846   0.282  0.00  0.00     0.002 A 
ATOM      4  C4  I4B d   1       4.778   2.263  -0.047  0.00  0.00    -0.004 A 
ATOM      5  C5  I4B d   1       5.513   1.586   0.921  0.00  0.00     0.002 A 
ATOM      6  C6  I4B d   1       5.047   1.525   2.243  0.00  0.00     0.003 A 
ENDROOT
BRANCH   1   7
ATOM      7  C1' I4B d   1       3.378   2.179   3.999  0.00  0.00     0.060 C 
BRANCH   7   8
ATOM      8  C2' I4B d   1       3.904   3.436   4.660  0.00  0.00    -0.013 C 
ATOM      9  C4' I4B d   1       3.254   3.661   6.000  0.00  0.00     0.013 C 
ATOM     10  C3' I4B d   1       5.392   3.301   4.796  0.00  0.00     0.013 C 
ENDBRANCH   7   8
ENDBRANCH   1   7
TORSDOF 2
ENDMDL
