MODEL 1
REMARK minimizedAffinity 15.0897121
REMARK minimizedRMSD -1
REMARK  2 active torsions:
REMARK  status: ('A' for Active; 'I' for Inactive)
REMARK    1  A    between atoms: C2'_3  and  C1'_4 
REMARK    2  A    between atoms: C1'_4  and  C1_5 
ROOT
ATOM      1  C1  I4B d   1      -2.298  -1.416  -1.220  0.00  0.00    -0.075 A 
ATOM      2  C2  I4B d   1      -1.422  -2.450  -0.998  0.00  0.00     0.003 A 
ATOM      3  C3  I4B d   1      -1.344  -3.057   0.278  0.00  0.00     0.002 A 
ATOM      4  C4  I4B d   1      -2.119  -2.569   1.311  0.00  0.00    -0.004 A 
ATOM      5  C5  I4B d   1      -3.022  -1.537   1.079  0.00  0.00     0.002 A 
ATOM      6  C6  I4B d   1      -3.122  -0.964  -0.197  0.00  0.00     0.003 A 
ENDROOT
BRANCH   1   7
ATOM      7  C1' I4B d   1      -2.331  -0.776  -2.571  0.00  0.00     0.060 C 
BRANCH   7   8
ATOM      8  C2' I4B d   1      -1.498  -1.625  -3.510  0.00  0.00    -0.013 C 
ATOM      9  C4' I4B d   1      -2.328  -2.147  -4.653  0.00  0.00     0.013 C 
ATOM     10  C3' I4B d   1      -0.359  -0.786  -4.007  0.00  0.00     0.013 C 
ENDBRANCH   7   8
ENDBRANCH   1   7
TORSDOF 2
ENDMDL
