MODEL 1
REMARK minimizedAffinity 7.94585657
REMARK minimizedRMSD -1
REMARK  2 active torsions:
REMARK  status: ('A' for Active; 'I' for Inactive)
REMARK    1  A    between atoms: C2'_3  and  C1'_4 
REMARK    2  A    between atoms: C1'_4  and  C1_5 
ROOT
ATOM      1  C1  I4B d   1      -1.484  -2.518   0.306  0.00  0.00    -0.075 A 
ATOM      2  C2  I4B d   1      -1.139  -3.505   1.195  0.00  0.00     0.003 A 
ATOM      3  C3  I4B d   1      -0.536  -4.701   0.734  0.00  0.00     0.002 A 
ATOM      4  C4  I4B d   1      -0.344  -4.887  -0.620  0.00  0.00    -0.004 A 
ATOM      5  C5  I4B d   1      -0.674  -3.876  -1.518  0.00  0.00     0.002 A 
ATOM      6  C6  I4B d   1      -1.236  -2.679  -1.051  0.00  0.00     0.003 A 
ENDROOT
BRANCH   1   7
ATOM      7  C1' I4B d   1      -2.149  -1.283   0.824  0.00  0.00     0.060 C 
BRANCH   7   8
ATOM      8  C2' I4B d   1      -3.452  -1.103   0.071  0.00  0.00    -0.013 C 
ATOM      9  C4' I4B d   1      -4.575  -1.852   0.739  0.00  0.00     0.013 C 
ATOM     10  C3' I4B d   1      -3.748   0.365   0.000  0.00  0.00     0.013 C 
ENDBRANCH   7   8
ENDBRANCH   1   7
TORSDOF 2
ENDMDL
