MODEL 1
REMARK minimizedAffinity 9.60248947
REMARK minimizedRMSD -1
REMARK  2 active torsions:
REMARK  status: ('A' for Active; 'I' for Inactive)
REMARK    1  A    between atoms: C2'_3  and  C1'_4 
REMARK    2  A    between atoms: C1'_4  and  C1_5 
ROOT
ATOM      1  C1  I4B d   1      -3.906  -0.431   5.925  0.00  0.00    -0.075 A 
ATOM      2  C2  I4B d   1      -2.974   0.577   5.899  0.00  0.00     0.003 A 
ATOM      3  C3  I4B d   1      -3.388   1.931   5.936  0.00  0.00     0.002 A 
ATOM      4  C4  I4B d   1      -4.735   2.229   5.948  0.00  0.00    -0.004 A 
ATOM      5  C5  I4B d   1      -5.677   1.206   5.997  0.00  0.00     0.002 A 
ATOM      6  C6  I4B d   1      -5.260  -0.133   5.999  0.00  0.00     0.003 A 
ENDROOT
BRANCH   1   7
ATOM      7  C1' I4B d   1      -3.435  -1.849   5.852  0.00  0.00     0.060 C 
BRANCH   7   8
ATOM      8  C2' I4B d   1      -2.132  -1.869   5.079  0.00  0.00    -0.013 C 
ATOM      9  C4' I4B d   1      -0.984  -2.291   5.957  0.00  0.00     0.013 C 
ATOM     10  C3' I4B d   1      -2.297  -2.803   3.917  0.00  0.00     0.013 C 
ENDBRANCH   7   8
ENDBRANCH   1   7
TORSDOF 2
ENDMDL
