MODEL 1
REMARK minimizedAffinity 8.90285969
REMARK minimizedRMSD -1
REMARK  2 active torsions:
REMARK  status: ('A' for Active; 'I' for Inactive)
REMARK    1  A    between atoms: C2'_3  and  C1'_4 
REMARK    2  A    between atoms: C1'_4  and  C1_5 
ROOT
ATOM      1  C1  I4B d   1       3.547   1.175  -1.868  0.00  0.00    -0.075 A 
ATOM      2  C2  I4B d   1       4.379   1.917  -1.067  0.00  0.00     0.003 A 
ATOM      3  C3  I4B d   1       3.977   2.268   0.245  0.00  0.00     0.002 A 
ATOM      4  C4  I4B d   1       2.725   1.902   0.694  0.00  0.00    -0.004 A 
ATOM      5  C5  I4B d   1       1.893   1.130  -0.112  0.00  0.00     0.002 A 
ATOM      6  C6  I4B d   1       2.311   0.753  -1.396  0.00  0.00     0.003 A 
ENDROOT
BRANCH   1   7
ATOM      7  C1' I4B d   1       3.989   0.850  -3.260  0.00  0.00     0.060 C 
BRANCH   7   8
ATOM      8  C2' I4B d   1       5.503   0.796  -3.268  0.00  0.00    -0.013 C 
ATOM      9  C4' I4B d   1       5.999  -0.558  -3.703  0.00  0.00     0.013 C 
ATOM     10  C3' I4B d   1       5.999   1.874  -4.185  0.00  0.00     0.013 C 
ENDBRANCH   7   8
ENDBRANCH   1   7
TORSDOF 2
ENDMDL
