MODEL 1
REMARK minimizedAffinity 11.9718332
REMARK minimizedRMSD -1
REMARK  2 active torsions:
REMARK  status: ('A' for Active; 'I' for Inactive)
REMARK    1  A    between atoms: C2'_3  and  C1'_4 
REMARK    2  A    between atoms: C1'_4  and  C1_5 
ROOT
ATOM      1  C1  I4B d   1      -2.066  -3.011   2.863  0.00  0.00    -0.075 A 
ATOM      2  C2  I4B d   1      -2.246  -1.902   2.075  0.00  0.00     0.003 A 
ATOM      3  C3  I4B d   1      -1.833  -1.915   0.721  0.00  0.00     0.002 A 
ATOM      4  C4  I4B d   1      -1.202  -3.032   0.213  0.00  0.00    -0.004 A 
ATOM      5  C5  I4B d   1      -1.040  -4.164   1.007  0.00  0.00     0.002 A 
ATOM      6  C6  I4B d   1      -1.486  -4.159   2.337  0.00  0.00     0.003 A 
ENDROOT
BRANCH   1   7
ATOM      7  C1' I4B d   1      -2.484  -2.952   4.298  0.00  0.00     0.060 C 
BRANCH   7   8
ATOM      8  C2' I4B d   1      -1.737  -1.809   4.955  0.00  0.00    -0.013 C 
ATOM      9  C4' I4B d   1      -2.689  -0.820   5.574  0.00  0.00     0.013 C 
ATOM     10  C3' I4B d   1      -0.815  -2.391   5.985  0.00  0.00     0.013 C 
ENDBRANCH   7   8
ENDBRANCH   1   7
TORSDOF 2
ENDMDL
