MODEL 1
REMARK minimizedAffinity 12.3532658
REMARK minimizedRMSD -1
REMARK  2 active torsions:
REMARK  status: ('A' for Active; 'I' for Inactive)
REMARK    1  A    between atoms: C2'_3  and  C1'_4 
REMARK    2  A    between atoms: C1'_4  and  C1_5 
ROOT
ATOM      1  C1  I4B d   1       3.569   2.453   0.255  0.00  0.00    -0.075 A 
ATOM      2  C2  I4B d   1       2.913   2.880  -0.872  0.00  0.00     0.003 A 
ATOM      3  C3  I4B d   1       2.165   1.964  -1.651  0.00  0.00     0.002 A 
ATOM      4  C4  I4B d   1       2.142   0.631  -1.297  0.00  0.00    -0.004 A 
ATOM      5  C5  I4B d   1       2.789   0.204  -0.141  0.00  0.00     0.002 A 
ATOM      6  C6  I4B d   1       3.497   1.123   0.647  0.00  0.00     0.003 A 
ENDROOT
BRANCH   1   7
ATOM      7  C1' I4B d   1       4.377   3.441   1.037  0.00  0.00     0.060 C 
BRANCH   7   8
ATOM      8  C2' I4B d   1       4.692   4.610   0.126  0.00  0.00    -0.013 C 
ATOM      9  C4' I4B d   1       4.898   5.876   0.916  0.00  0.00     0.013 C 
ATOM     10  C3' I4B d   1       5.917   4.262  -0.667  0.00  0.00     0.013 C 
ENDBRANCH   7   8
ENDBRANCH   1   7
TORSDOF 2
ENDMDL
