MODEL 1
REMARK minimizedAffinity 6.49517822
REMARK minimizedRMSD -1
REMARK  2 active torsions:
REMARK  status: ('A' for Active; 'I' for Inactive)
REMARK    1  A    between atoms: C2'_3  and  C1'_4 
REMARK    2  A    between atoms: C1'_4  and  C1_5 
ROOT
ATOM      1  C1  I4B d   1      -3.588   4.326  -4.707  0.00  0.00    -0.075 A 
ATOM      2  C2  I4B d   1      -4.042   5.615  -4.572  0.00  0.00     0.003 A 
ATOM      3  C3  I4B d   1      -5.278   5.999  -5.145  0.00  0.00     0.002 A 
ATOM      4  C4  I4B d   1      -6.000   5.083  -5.883  0.00  0.00    -0.004 A 
ATOM      5  C5  I4B d   1      -5.550   3.771  -5.999  0.00  0.00     0.002 A 
ATOM      6  C6  I4B d   1      -4.343   3.387  -5.398  0.00  0.00     0.003 A 
ENDROOT
BRANCH   1   7
ATOM      7  C1' I4B d   1      -2.262   3.963  -4.118  0.00  0.00     0.060 C 
BRANCH   7   8
ATOM      8  C2' I4B d   1      -1.551   3.050  -5.096  0.00  0.00    -0.013 C 
ATOM      9  C4' I4B d   1      -0.086   3.386  -5.188  0.00  0.00     0.013 C 
ATOM     10  C3' I4B d   1      -1.755   1.636  -4.641  0.00  0.00     0.013 C 
ENDBRANCH   7   8
ENDBRANCH   1   7
TORSDOF 2
ENDMDL
