MODEL 1
REMARK minimizedAffinity 1.72441685
REMARK minimizedRMSD -1
REMARK  2 active torsions:
REMARK  status: ('A' for Active; 'I' for Inactive)
REMARK    1  A    between atoms: C2'_3  and  C1'_4 
REMARK    2  A    between atoms: C1'_4  and  C1_5 
ROOT
ATOM      1  C1  I4B d   1      -1.102  -0.233  -2.416  0.00  0.00    -0.075 A 
ATOM      2  C2  I4B d   1      -1.389  -0.636  -1.136  0.00  0.00     0.003 A 
ATOM      3  C3  I4B d   1      -2.710  -0.534  -0.635  0.00  0.00     0.002 A 
ATOM      4  C4  I4B d   1      -3.696   0.019  -1.427  0.00  0.00    -0.004 A 
ATOM      5  C5  I4B d   1      -3.408   0.405  -2.733  0.00  0.00     0.002 A 
ATOM      6  C6  I4B d   1      -2.106   0.267  -3.236  0.00  0.00     0.003 A 
ENDROOT
BRANCH   1   7
ATOM      7  C1' I4B d   1       0.310  -0.325  -2.901  0.00  0.00     0.060 C 
BRANCH   7   8
ATOM      8  C2' I4B d   1       1.166   0.555  -2.013  0.00  0.00    -0.013 C 
ATOM      9  C4' I4B d   1       2.617   0.158  -2.089  0.00  0.00     0.013 C 
ATOM     10  C3' I4B d   1       0.970   1.978  -2.444  0.00  0.00     0.013 C 
ENDBRANCH   7   8
ENDBRANCH   1   7
TORSDOF 2
ENDMDL
