MODEL 1
REMARK minimizedAffinity 19.9796219
REMARK minimizedRMSD -1
REMARK  2 active torsions:
REMARK  status: ('A' for Active; 'I' for Inactive)
REMARK    1  A    between atoms: C2'_3  and  C1'_4 
REMARK    2  A    between atoms: C1'_4  and  C1_5 
ROOT
ATOM      1  C1  I4B d   1      -3.247  -0.917   0.322  0.00  0.00    -0.075 A 
ATOM      2  C2  I4B d   1      -4.099  -0.356  -0.597  0.00  0.00     0.003 A 
ATOM      3  C3  I4B d   1      -5.497  -0.367  -0.373  0.00  0.00     0.002 A 
ATOM      4  C4  I4B d   1      -5.999  -0.988   0.752  0.00  0.00    -0.004 A 
ATOM      5  C5  I4B d   1      -5.133  -1.535   1.694  0.00  0.00     0.002 A 
ATOM      6  C6  I4B d   1      -3.747  -1.489   1.484  0.00  0.00     0.003 A 
ENDROOT
BRANCH   1   7
ATOM      7  C1' I4B d   1      -1.778  -0.917   0.037  0.00  0.00     0.060 C 
BRANCH   7   8
ATOM      8  C2' I4B d   1      -1.495  -2.029  -0.953  0.00  0.00    -0.013 C 
ATOM      9  C4' I4B d   1      -1.143  -1.475  -2.309  0.00  0.00     0.013 C 
ATOM     10  C3' I4B d   1      -0.379  -2.866  -0.403  0.00  0.00     0.013 C 
ENDBRANCH   7   8
ENDBRANCH   1   7
TORSDOF 2
ENDMDL
