MODEL 1
REMARK minimizedAffinity 3.96109223
REMARK minimizedRMSD -1
REMARK  0 active torsions:
REMARK  status: ('A' for Active; 'I' for Inactive)
ROOT
ATOM      1  C   UNL d   1       5.030  -0.969   5.063  0.00  0.00     0.023 A 
ATOM      2  C1  UNL d   1       5.718  -0.198   6.000  0.00  0.00     0.003 A 
ATOM      3  C2  UNL d   1       5.996   1.144   5.732  0.00  0.00     0.048 A 
ATOM      4  C3  UNL d   1       5.583   1.708   4.526  0.00  0.00     0.023 A 
ATOM      5  C4  UNL d   1       4.894   0.941   3.585  0.00  0.00     0.048 A 
ATOM      6  C5  UNL d   1       4.619  -0.401   3.857  0.00  0.00     0.003 A 
ATOM      7  I   UNL d   1       5.997   3.705   4.125  0.00  0.00    -0.146 I 
ENDROOT
TORSDOF 0
ENDMDL
