MODEL 1
REMARK minimizedAffinity 9.79937649
REMARK minimizedRMSD -1
REMARK  0 active torsions:
REMARK  status: ('A' for Active; 'I' for Inactive)
ROOT
ATOM      1  C   UNL d   1       0.805   1.208  -3.831  0.00  0.00     0.023 A 
ATOM      2  C1  UNL d   1       1.587   0.715  -2.787  0.00  0.00     0.003 A 
ATOM      3  C2  UNL d   1       2.973   0.631  -2.931  0.00  0.00     0.048 A 
ATOM      4  C3  UNL d   1       3.571   1.042  -4.122  0.00  0.00     0.023 A 
ATOM      5  C4  UNL d   1       2.792   1.537  -5.169  0.00  0.00     0.048 A 
ATOM      6  C5  UNL d   1       1.406   1.619  -5.021  0.00  0.00     0.003 A 
ATOM      7  I   UNL d   1       5.634   0.918  -4.339  0.00  0.00    -0.146 I 
ENDROOT
TORSDOF 0
ENDMDL
