MODEL 1
REMARK minimizedAffinity 10.133358
REMARK minimizedRMSD -1
REMARK  0 active torsions:
REMARK  status: ('A' for Active; 'I' for Inactive)
ROOT
ATOM      1  C   UNL d   1      -4.886  -1.839   4.712  0.00  0.00     0.023 A 
ATOM      2  C1  UNL d   1      -4.136  -2.892   4.189  0.00  0.00     0.003 A 
ATOM      3  C2  UNL d   1      -3.105  -2.633   3.283  0.00  0.00     0.048 A 
ATOM      4  C3  UNL d   1      -2.829  -1.320   2.906  0.00  0.00     0.023 A 
ATOM      5  C4  UNL d   1      -3.577  -0.263   3.428  0.00  0.00     0.048 A 
ATOM      6  C5  UNL d   1      -4.607  -0.526   4.332  0.00  0.00     0.003 A 
ATOM      7  I   UNL d   1      -1.295  -0.933   1.558  0.00  0.00    -0.146 I 
ENDROOT
TORSDOF 0
ENDMDL
