MODEL 1
REMARK minimizedAffinity 0.401247561
REMARK minimizedRMSD -1
REMARK  0 active torsions:
REMARK  status: ('A' for Active; 'I' for Inactive)
ROOT
ATOM      1  C   UNL d   1       1.987   1.893  -3.772  0.00  0.00     0.023 A 
ATOM      2  C1  UNL d   1       2.642   3.015  -3.264  0.00  0.00     0.003 A 
ATOM      3  C2  UNL d   1       2.438   3.404  -1.938  0.00  0.00     0.048 A 
ATOM      4  C3  UNL d   1       1.577   2.666  -1.126  0.00  0.00     0.023 A 
ATOM      5  C4  UNL d   1       0.920   1.543  -1.630  0.00  0.00     0.048 A 
ATOM      6  C5  UNL d   1       1.126   1.158  -2.956  0.00  0.00     0.003 A 
ATOM      7  I   UNL d   1       1.271   3.243   0.847  0.00  0.00    -0.146 I 
ENDROOT
TORSDOF 0
ENDMDL
