MODEL 1
REMARK minimizedAffinity 8.1436491
REMARK minimizedRMSD -1
REMARK  0 active torsions:
REMARK  status: ('A' for Active; 'I' for Inactive)
ROOT
ATOM      1  C   UNL d   1       0.580  -3.229  -0.672  0.00  0.00     0.023 A 
ATOM      2  C1  UNL d   1       1.630  -2.551  -1.292  0.00  0.00     0.003 A 
ATOM      3  C2  UNL d   1       1.658  -1.155  -1.293  0.00  0.00     0.048 A 
ATOM      4  C3  UNL d   1       0.632  -0.443  -0.671  0.00  0.00     0.023 A 
ATOM      5  C4  UNL d   1      -0.420  -1.117  -0.049  0.00  0.00     0.048 A 
ATOM      6  C5  UNL d   1      -0.444  -2.513  -0.052  0.00  0.00     0.003 A 
ATOM      7  I   UNL d   1       0.671   1.635  -0.671  0.00  0.00    -0.146 I 
ENDROOT
TORSDOF 0
ENDMDL
