MODEL 1
REMARK minimizedAffinity 3.58428168
REMARK minimizedRMSD -1
REMARK  0 active torsions:
REMARK  status: ('A' for Active; 'I' for Inactive)
ROOT
ATOM      1  C   UNL d   1      -0.673  -3.034  -0.024  0.00  0.00     0.023 A 
ATOM      2  C1  UNL d   1      -1.688  -2.108   0.213  0.00  0.00     0.003 A 
ATOM      3  C2  UNL d   1      -1.446  -0.744   0.037  0.00  0.00     0.048 A 
ATOM      4  C3  UNL d   1      -0.187  -0.313  -0.379  0.00  0.00     0.023 A 
ATOM      5  C4  UNL d   1       0.832  -1.237  -0.618  0.00  0.00     0.048 A 
ATOM      6  C5  UNL d   1       0.586  -2.599  -0.440  0.00  0.00     0.003 A 
ATOM      7  I   UNL d   1       0.176   1.716  -0.642  0.00  0.00    -0.146 I 
ENDROOT
TORSDOF 0
ENDMDL
