MODEL 1
REMARK minimizedAffinity 1.97071254
REMARK minimizedRMSD -1
REMARK  0 active torsions:
REMARK  status: ('A' for Active; 'I' for Inactive)
ROOT
ATOM      1  C   UNL d   1       5.411   3.870   4.226  0.00  0.00     0.023 A 
ATOM      2  C1  UNL d   1       5.955   3.634   5.488  0.00  0.00     0.003 A 
ATOM      3  C2  UNL d   1       5.999   2.335   5.999  0.00  0.00     0.048 A 
ATOM      4  C3  UNL d   1       5.498   1.277   5.242  0.00  0.00     0.023 A 
ATOM      5  C4  UNL d   1       4.954   1.508   3.977  0.00  0.00     0.048 A 
ATOM      6  C5  UNL d   1       4.911   2.809   3.471  0.00  0.00     0.003 A 
ATOM      7  I   UNL d   1       5.563  -0.657   6.000  0.00  0.00    -0.146 I 
ENDROOT
TORSDOF 0
ENDMDL
