MODEL 1
REMARK minimizedAffinity 5.82225657
REMARK minimizedRMSD -1
REMARK  0 active torsions:
REMARK  status: ('A' for Active; 'I' for Inactive)
ROOT
ATOM      1  C   UNL d   1       0.743  -2.028  -0.004  0.00  0.00     0.023 A 
ATOM      2  C1  UNL d   1       0.141  -0.848  -0.440  0.00  0.00     0.003 A 
ATOM      3  C2  UNL d   1       0.420  -0.349  -1.714  0.00  0.00     0.048 A 
ATOM      4  C3  UNL d   1       1.302  -1.036  -2.547  0.00  0.00     0.023 A 
ATOM      5  C4  UNL d   1       1.907  -2.217  -2.116  0.00  0.00     0.048 A 
ATOM      6  C5  UNL d   1       1.626  -2.712  -0.841  0.00  0.00     0.003 A 
ATOM      7  I   UNL d   1       1.720  -0.296  -4.444  0.00  0.00    -0.146 I 
ENDROOT
TORSDOF 0
ENDMDL
