MODEL 1
REMARK minimizedAffinity 3.80554605
REMARK minimizedRMSD -1
REMARK  0 active torsions:
REMARK  status: ('A' for Active; 'I' for Inactive)
ROOT
ATOM      1  C   UNL d   1       0.062  -3.334  -0.347  0.00  0.00     0.023 A 
ATOM      2  C1  UNL d   1      -1.035  -2.622   0.137  0.00  0.00     0.003 A 
ATOM      3  C2  UNL d   1      -1.040  -1.226   0.090  0.00  0.00     0.048 A 
ATOM      4  C3  UNL d   1       0.056  -0.549  -0.444  0.00  0.00     0.023 A 
ATOM      5  C4  UNL d   1       1.156  -1.257  -0.931  0.00  0.00     0.048 A 
ATOM      6  C5  UNL d   1       1.156  -2.652  -0.881  0.00  0.00     0.003 A 
ATOM      7  I   UNL d   1       0.051   1.528  -0.516  0.00  0.00    -0.146 I 
ENDROOT
TORSDOF 0
ENDMDL
