MODEL 1
REMARK minimizedAffinity 3.31322002
REMARK minimizedRMSD -1
REMARK  0 active torsions:
REMARK  status: ('A' for Active; 'I' for Inactive)
ROOT
ATOM      1  C   UNL d   1       1.084  -1.719  -0.958  0.00  0.00     0.023 A 
ATOM      2  C1  UNL d   1       0.442  -0.481  -0.919  0.00  0.00     0.003 A 
ATOM      3  C2  UNL d   1       0.583   0.414  -1.983  0.00  0.00     0.048 A 
ATOM      4  C3  UNL d   1       1.367   0.063  -3.082  0.00  0.00     0.023 A 
ATOM      5  C4  UNL d   1       2.010  -1.175  -3.125  0.00  0.00     0.048 A 
ATOM      6  C5  UNL d   1       1.867  -2.065  -2.059  0.00  0.00     0.003 A 
ATOM      7  I   UNL d   1       1.577   1.392  -4.665  0.00  0.00    -0.146 I 
ENDROOT
TORSDOF 0
ENDMDL
