MODEL 1
REMARK minimizedAffinity 2.44097757
REMARK minimizedRMSD -1
REMARK  0 active torsions:
REMARK  status: ('A' for Active; 'I' for Inactive)
ROOT
ATOM      1  C   UNL d   1       0.149  -2.314   0.627  0.00  0.00     0.023 A 
ATOM      2  C1  UNL d   1       1.167  -2.886  -0.137  0.00  0.00     0.003 A 
ATOM      3  C2  UNL d   1       1.634  -2.235  -1.280  0.00  0.00     0.048 A 
ATOM      4  C3  UNL d   1       1.079  -1.012  -1.654  0.00  0.00     0.023 A 
ATOM      5  C4  UNL d   1       0.060  -0.435  -0.893  0.00  0.00     0.048 A 
ATOM      6  C5  UNL d   1      -0.404  -1.091   0.249  0.00  0.00     0.003 A 
ATOM      7  I   UNL d   1       1.771  -0.040  -3.356  0.00  0.00    -0.146 I 
ENDROOT
TORSDOF 0
ENDMDL
