MODEL 1
REMARK minimizedAffinity 0.647857487
REMARK minimizedRMSD -1
REMARK  0 active torsions:
REMARK  status: ('A' for Active; 'I' for Inactive)
ROOT
ATOM      1  C   UNL d   1       5.484  -0.743   4.769  0.00  0.00     0.023 A 
ATOM      2  C1  UNL d   1       5.266   0.010   3.616  0.00  0.00     0.003 A 
ATOM      3  C2  UNL d   1       5.413   1.398   3.649  0.00  0.00     0.048 A 
ATOM      4  C3  UNL d   1       5.779   2.027   4.839  0.00  0.00     0.023 A 
ATOM      5  C4  UNL d   1       6.000   1.276   5.996  0.00  0.00     0.048 A 
ATOM      6  C5  UNL d   1       5.851  -0.111   5.958  0.00  0.00     0.003 A 
ATOM      7  I   UNL d   1       5.999   4.093   4.891  0.00  0.00    -0.146 I 
ENDROOT
TORSDOF 0
ENDMDL
