MODEL 1
REMARK minimizedAffinity 10.2057438
REMARK minimizedRMSD -1
REMARK  0 active torsions:
REMARK  status: ('A' for Active; 'I' for Inactive)
ROOT
ATOM      1  C   UNL d   1      -1.638   1.248   3.448  0.00  0.00     0.023 A 
ATOM      2  C1  UNL d   1      -2.856   1.553   4.056  0.00  0.00     0.003 A 
ATOM      3  C2  UNL d   1      -3.855   0.581   4.148  0.00  0.00     0.048 A 
ATOM      4  C3  UNL d   1      -3.628  -0.694   3.631  0.00  0.00     0.023 A 
ATOM      5  C4  UNL d   1      -2.411  -1.004   3.023  0.00  0.00     0.048 A 
ATOM      6  C5  UNL d   1      -1.416  -0.029   2.932  0.00  0.00     0.003 A 
ATOM      7  I   UNL d   1      -5.113  -2.142   3.767  0.00  0.00    -0.146 I 
ENDROOT
TORSDOF 0
ENDMDL
