MODEL 1
REMARK minimizedAffinity -2.17217207
REMARK minimizedRMSD -1
REMARK  0 active torsions:
REMARK  status: ('A' for Active; 'I' for Inactive)
ROOT
ATOM      1  C   UNL d   1       4.859  -1.646   4.879  0.00  0.00     0.023 A 
ATOM      2  C1  UNL d   1       5.689  -1.190   5.903  0.00  0.00     0.003 A 
ATOM      3  C2  UNL d   1       6.000   0.168   6.000  0.00  0.00     0.048 A 
ATOM      4  C3  UNL d   1       5.476   1.065   5.070  0.00  0.00     0.023 A 
ATOM      5  C4  UNL d   1       4.644   0.614   4.043  0.00  0.00     0.048 A 
ATOM      6  C5  UNL d   1       4.337  -0.745   3.950  0.00  0.00     0.003 A 
ATOM      7  I   UNL d   1       5.937   3.086   5.212  0.00  0.00    -0.146 I 
ENDROOT
TORSDOF 0
ENDMDL
