MODEL 1
REMARK minimizedAffinity 9.91429043
REMARK minimizedRMSD -1
REMARK  2 active torsions:
REMARK  status: ('A' for Active; 'I' for Inactive)
REMARK    1  A    between atoms: C1_2  and  C2_3 
REMARK    2  A    between atoms: C2_3  and  C3_4 
ROOT
ATOM      1  C3  UNL d   1      -0.283   2.007  -0.241  0.00  0.00    -0.075 A 
ATOM      2  C4  UNL d   1       0.912   1.286  -0.379  0.00  0.00     0.002 A 
ATOM      3  C5  UNL d   1       1.526   1.164  -1.627  0.00  0.00     0.002 A 
ATOM      4  C6  UNL d   1       0.948   1.751  -2.750  0.00  0.00    -0.004 A 
ATOM      5  C7  UNL d   1      -0.248   2.455  -2.627  0.00  0.00     0.002 A 
ATOM      6  C8  UNL d   1      -0.861   2.582  -1.380  0.00  0.00     0.002 A 
ENDROOT
BRANCH   1   7
ATOM      7  C2  UNL d   1      -0.935   2.167   1.111  0.00  0.00     0.056 C 
BRANCH   7   8
ATOM      8  C1  UNL d   1       0.052   2.423   2.255  0.00  0.00     0.007 C 
ATOM      9  C   UNL d   1      -0.222   1.571   3.487  0.00  0.00     0.009 C 
ENDBRANCH   7   8
ENDBRANCH   1   7
TORSDOF 2
ENDMDL
