MODEL 1
REMARK minimizedAffinity 1.63713741
REMARK minimizedRMSD -1
REMARK  2 active torsions:
REMARK  status: ('A' for Active; 'I' for Inactive)
REMARK    1  A    between atoms: C1_2  and  C2_3 
REMARK    2  A    between atoms: C2_3  and  C3_4 
ROOT
ATOM      1  C3  UNL d   1      -2.702   3.313  -5.038  0.00  0.00    -0.075 A 
ATOM      2  C4  UNL d   1      -1.970   3.683  -3.900  0.00  0.00     0.002 A 
ATOM      3  C5  UNL d   1      -1.632   5.018  -3.678  0.00  0.00     0.002 A 
ATOM      4  C6  UNL d   1      -2.013   5.997  -4.594  0.00  0.00    -0.004 A 
ATOM      5  C7  UNL d   1      -2.726   5.639  -5.736  0.00  0.00     0.002 A 
ATOM      6  C8  UNL d   1      -3.068   4.304  -5.958  0.00  0.00     0.002 A 
ENDROOT
BRANCH   1   7
ATOM      7  C2  UNL d   1      -3.095   1.873  -5.269  0.00  0.00     0.056 C 
BRANCH   7   8
ATOM      8  C1  UNL d   1      -4.460   1.498  -4.681  0.00  0.00     0.007 C 
ATOM      9  C   UNL d   1      -5.567   1.438  -5.724  0.00  0.00     0.009 C 
ENDBRANCH   7   8
ENDBRANCH   1   7
TORSDOF 2
ENDMDL
