MODEL 1
REMARK minimizedAffinity -0.236766174
REMARK minimizedRMSD -1
REMARK  2 active torsions:
REMARK  status: ('A' for Active; 'I' for Inactive)
REMARK    1  A    between atoms: C1_2  and  C2_3 
REMARK    2  A    between atoms: C2_3  and  C3_4 
ROOT
ATOM      1  C3  UNL d   1      -3.007   3.460  -5.502  0.00  0.00    -0.075 A 
ATOM      2  C4  UNL d   1      -1.616   3.509  -5.327  0.00  0.00     0.002 A 
ATOM      3  C5  UNL d   1      -0.945   4.732  -5.330  0.00  0.00     0.002 A 
ATOM      4  C6  UNL d   1      -1.652   5.918  -5.517  0.00  0.00    -0.004 A 
ATOM      5  C7  UNL d   1      -3.032   5.879  -5.708  0.00  0.00     0.002 A 
ATOM      6  C8  UNL d   1      -3.706   4.657  -5.701  0.00  0.00     0.002 A 
ENDROOT
BRANCH   1   7
ATOM      7  C2  UNL d   1      -3.743   2.142  -5.471  0.00  0.00     0.056 C 
BRANCH   7   8
ATOM      8  C1  UNL d   1      -5.213   2.238  -5.891  0.00  0.00     0.007 C 
ATOM      9  C   UNL d   1      -5.996   0.958  -5.635  0.00  0.00     0.009 C 
ENDBRANCH   7   8
ENDBRANCH   1   7
TORSDOF 2
ENDMDL
