MODEL 1
REMARK minimizedAffinity 12.3273916
REMARK minimizedRMSD -1
REMARK  2 active torsions:
REMARK  status: ('A' for Active; 'I' for Inactive)
REMARK    1  A    between atoms: C1_2  and  C2_3 
REMARK    2  A    between atoms: C2_3  and  C3_4 
ROOT
ATOM      1  C3  UNL d   1      -1.134  -0.723   4.448  0.00  0.00    -0.075 A 
ATOM      2  C4  UNL d   1      -0.309  -1.840   4.252  0.00  0.00     0.002 A 
ATOM      3  C5  UNL d   1      -0.575  -3.042   4.909  0.00  0.00     0.002 A 
ATOM      4  C6  UNL d   1      -1.661  -3.139   5.777  0.00  0.00    -0.004 A 
ATOM      5  C7  UNL d   1      -2.477  -2.030   5.992  0.00  0.00     0.002 A 
ATOM      6  C8  UNL d   1      -2.216  -0.828   5.333  0.00  0.00     0.002 A 
ENDROOT
BRANCH   1   7
ATOM      7  C2  UNL d   1      -0.868   0.572   3.718  0.00  0.00     0.056 C 
BRANCH   7   8
ATOM      8  C1  UNL d   1       0.076   0.429   2.519  0.00  0.00     0.007 C 
ATOM      9  C   UNL d   1      -0.336   1.281   1.326  0.00  0.00     0.009 C 
ENDBRANCH   7   8
ENDBRANCH   1   7
TORSDOF 2
ENDMDL
