MODEL 1
REMARK minimizedAffinity 17.4745083
REMARK minimizedRMSD -1
REMARK  2 active torsions:
REMARK  status: ('A' for Active; 'I' for Inactive)
REMARK    1  A    between atoms: C1_2  and  C2_3 
REMARK    2  A    between atoms: C2_3  and  C3_4 
ROOT
ATOM      1  C3  UNL d   1      -2.449   1.909   1.378  0.00  0.00    -0.075 A 
ATOM      2  C4  UNL d   1      -2.213   1.481   2.692  0.00  0.00     0.002 A 
ATOM      3  C5  UNL d   1      -0.959   0.997   3.065  0.00  0.00     0.002 A 
ATOM      4  C6  UNL d   1       0.069   0.924   2.128  0.00  0.00    -0.004 A 
ATOM      5  C7  UNL d   1      -0.159   1.331   0.816  0.00  0.00     0.002 A 
ATOM      6  C8  UNL d   1      -1.411   1.821   0.441  0.00  0.00     0.002 A 
ENDROOT
BRANCH   1   7
ATOM      7  C2  UNL d   1      -3.796   2.462   0.976  0.00  0.00     0.056 C 
BRANCH   7   8
ATOM      8  C1  UNL d   1      -3.775   3.950   0.608  0.00  0.00     0.007 C 
ATOM      9  C   UNL d   1      -4.938   4.732   1.203  0.00  0.00     0.009 C 
ENDBRANCH   7   8
ENDBRANCH   1   7
TORSDOF 2
ENDMDL
