MODEL 1
REMARK minimizedAffinity 13.2219286
REMARK minimizedRMSD -1
REMARK  2 active torsions:
REMARK  status: ('A' for Active; 'I' for Inactive)
REMARK    1  A    between atoms: C1_2  and  C2_3 
REMARK    2  A    between atoms: C2_3  and  C3_4 
ROOT
ATOM      1  C3  UNL d   1      -3.563   3.194  -4.821  0.00  0.00    -0.075 A 
ATOM      2  C4  UNL d   1      -4.450   4.025  -5.521  0.00  0.00     0.002 A 
ATOM      3  C5  UNL d   1      -5.661   3.524  -6.000  0.00  0.00     0.002 A 
ATOM      4  C6  UNL d   1      -5.995   2.187  -5.796  0.00  0.00    -0.004 A 
ATOM      5  C7  UNL d   1      -5.113   1.349  -5.117  0.00  0.00     0.002 A 
ATOM      6  C8  UNL d   1      -3.903   1.848  -4.632  0.00  0.00     0.002 A 
ENDROOT
BRANCH   1   7
ATOM      7  C2  UNL d   1      -2.264   3.737  -4.274  0.00  0.00     0.056 C 
BRANCH   7   8
ATOM      8  C1  UNL d   1      -2.169   5.267  -4.297  0.00  0.00     0.007 C 
ATOM      9  C   UNL d   1      -1.123   5.788  -5.273  0.00  0.00     0.009 C 
ENDBRANCH   7   8
ENDBRANCH   1   7
TORSDOF 2
ENDMDL
