MODEL 1
REMARK minimizedAffinity 10.2263699
REMARK minimizedRMSD -1
REMARK  2 active torsions:
REMARK  status: ('A' for Active; 'I' for Inactive)
REMARK    1  A    between atoms: C1_2  and  C2_3 
REMARK    2  A    between atoms: C2_3  and  C3_4 
ROOT
ATOM      1  C3  UNL d   1      -3.494   2.654  -5.151  0.00  0.00    -0.075 A 
ATOM      2  C4  UNL d   1      -4.519   3.383  -5.772  0.00  0.00     0.002 A 
ATOM      3  C5  UNL d   1      -5.765   2.799  -6.000  0.00  0.00     0.002 A 
ATOM      4  C6  UNL d   1      -6.000   1.479  -5.620  0.00  0.00    -0.004 A 
ATOM      5  C7  UNL d   1      -4.984   0.741  -5.017  0.00  0.00     0.002 A 
ATOM      6  C8  UNL d   1      -3.737   1.323  -4.784  0.00  0.00     0.002 A 
ENDROOT
BRANCH   1   7
ATOM      7  C2  UNL d   1      -2.152   3.289  -4.875  0.00  0.00     0.056 C 
BRANCH   7   8
ATOM      8  C1  UNL d   1      -2.229   4.774  -4.505  0.00  0.00     0.007 C 
ATOM      9  C   UNL d   1      -1.470   5.673  -5.471  0.00  0.00     0.009 C 
ENDBRANCH   7   8
ENDBRANCH   1   7
TORSDOF 2
ENDMDL
