MODEL 1
REMARK minimizedAffinity 14.2520008
REMARK minimizedRMSD -1
REMARK  2 active torsions:
REMARK  status: ('A' for Active; 'I' for Inactive)
REMARK    1  A    between atoms: C1_2  and  C2_3 
REMARK    2  A    between atoms: C2_3  and  C3_4 
ROOT
ATOM      1  C3  UNL d   1       3.941  -5.222  -0.594  0.00  0.00    -0.075 A 
ATOM      2  C4  UNL d   1       3.166  -4.140  -0.152  0.00  0.00     0.002 A 
ATOM      3  C5  UNL d   1       1.939  -3.855  -0.753  0.00  0.00     0.002 A 
ATOM      4  C6  UNL d   1       1.478  -4.640  -1.807  0.00  0.00    -0.004 A 
ATOM      5  C7  UNL d   1       2.247  -5.707  -2.265  0.00  0.00     0.002 A 
ATOM      6  C8  UNL d   1       3.473  -5.997  -1.663  0.00  0.00     0.002 A 
ENDROOT
BRANCH   1   7
ATOM      7  C2  UNL d   1       5.255  -5.553   0.072  0.00  0.00     0.056 C 
BRANCH   7   8
ATOM      8  C1  UNL d   1       5.429  -4.924   1.458  0.00  0.00     0.007 C 
ATOM      9  C   UNL d   1       5.347  -5.937   2.592  0.00  0.00     0.009 C 
ENDBRANCH   7   8
ENDBRANCH   1   7
TORSDOF 2
ENDMDL
