MODEL 1
REMARK minimizedAffinity -0.0429757796
REMARK minimizedRMSD -1
REMARK  2 active torsions:
REMARK  status: ('A' for Active; 'I' for Inactive)
REMARK    1  A    between atoms: C1_2  and  C2_3 
REMARK    2  A    between atoms: C2_3  and  C3_4 
ROOT
ATOM      1  C3  UNL d   1      -4.195   4.112  -5.241  0.00  0.00    -0.075 A 
ATOM      2  C4  UNL d   1      -3.151   3.250  -4.872  0.00  0.00     0.002 A 
ATOM      3  C5  UNL d   1      -1.976   3.759  -4.318  0.00  0.00     0.002 A 
ATOM      4  C6  UNL d   1      -1.825   5.132  -4.137  0.00  0.00    -0.004 A 
ATOM      5  C7  UNL d   1      -2.848   5.998  -4.516  0.00  0.00     0.002 A 
ATOM      6  C8  UNL d   1      -4.027   5.492  -5.066  0.00  0.00     0.002 A 
ENDROOT
BRANCH   1   7
ATOM      7  C2  UNL d   1      -5.481   3.566  -5.813  0.00  0.00     0.056 C 
BRANCH   7   8
ATOM      8  C1  UNL d   1      -5.994   2.306  -5.106  0.00  0.00     0.007 C 
ATOM      9  C   UNL d   1      -5.874   1.049  -5.957  0.00  0.00     0.009 C 
ENDBRANCH   7   8
ENDBRANCH   1   7
TORSDOF 2
ENDMDL
