MODEL 1
REMARK minimizedAffinity 1.4948194
REMARK minimizedRMSD -1
REMARK  2 active torsions:
REMARK  status: ('A' for Active; 'I' for Inactive)
REMARK    1  A    between atoms: C1_2  and  C2_3 
REMARK    2  A    between atoms: C2_3  and  C3_4 
ROOT
ATOM      1  C3  UNL d   1      -4.461   3.869  -5.639  0.00  0.00    -0.075 A 
ATOM      2  C4  UNL d   1      -3.471   2.956  -5.245  0.00  0.00     0.002 A 
ATOM      3  C5  UNL d   1      -3.736   1.587  -5.234  0.00  0.00     0.002 A 
ATOM      4  C6  UNL d   1      -4.992   1.113  -5.606  0.00  0.00    -0.004 A 
ATOM      5  C7  UNL d   1      -5.987   2.012  -5.983  0.00  0.00     0.002 A 
ATOM      6  C8  UNL d   1      -5.725   3.383  -5.999  0.00  0.00     0.002 A 
ENDROOT
BRANCH   1   7
ATOM      7  C2  UNL d   1      -4.172   5.351  -5.681  0.00  0.00     0.056 C 
BRANCH   7   8
ATOM      8  C1  UNL d   1      -2.950   5.772  -4.858  0.00  0.00     0.007 C 
ATOM      9  C   UNL d   1      -1.705   6.000  -5.704  0.00  0.00     0.009 C 
ENDBRANCH   7   8
ENDBRANCH   1   7
TORSDOF 2
ENDMDL
