MODEL 1
REMARK minimizedAffinity 5.17892504
REMARK minimizedRMSD -1
REMARK  2 active torsions:
REMARK  status: ('A' for Active; 'I' for Inactive)
REMARK    1  A    between atoms: C1_2  and  C2_3 
REMARK    2  A    between atoms: C2_3  and  C3_4 
ROOT
ATOM      1  C3  UNL d   1      -3.626   3.825  -5.628  0.00  0.00    -0.075 A 
ATOM      2  C4  UNL d   1      -2.546   3.287  -4.913  0.00  0.00     0.002 A 
ATOM      3  C5  UNL d   1      -1.463   4.089  -4.556  0.00  0.00     0.002 A 
ATOM      4  C6  UNL d   1      -1.440   5.435  -4.917  0.00  0.00    -0.004 A 
ATOM      5  C7  UNL d   1      -2.500   5.976  -5.642  0.00  0.00     0.002 A 
ATOM      6  C8  UNL d   1      -3.587   5.176  -5.997  0.00  0.00     0.002 A 
ENDROOT
BRANCH   1   7
ATOM      7  C2  UNL d   1      -4.816   2.968  -5.992  0.00  0.00     0.056 C 
BRANCH   7   8
ATOM      8  C1  UNL d   1      -4.694   1.508  -5.542  0.00  0.00     0.007 C 
ATOM      9  C   UNL d   1      -5.998   0.731  -5.666  0.00  0.00     0.009 C 
ENDBRANCH   7   8
ENDBRANCH   1   7
TORSDOF 2
ENDMDL
