MODEL 1
REMARK minimizedAffinity 3.99489093
REMARK minimizedRMSD -1
REMARK  2 active torsions:
REMARK  status: ('A' for Active; 'I' for Inactive)
REMARK    1  A    between atoms: C1_2  and  C2_3 
REMARK    2  A    between atoms: C2_3  and  C3_4 
ROOT
ATOM      1  C3  UNL d   1      -3.459   3.173  -4.862  0.00  0.00    -0.075 A 
ATOM      2  C4  UNL d   1      -3.712   1.927  -4.271  0.00  0.00     0.002 A 
ATOM      3  C5  UNL d   1      -4.891   1.236  -4.552  0.00  0.00     0.002 A 
ATOM      4  C6  UNL d   1      -5.834   1.784  -5.419  0.00  0.00    -0.004 A 
ATOM      5  C7  UNL d   1      -5.600   3.029  -5.999  0.00  0.00     0.002 A 
ATOM      6  C8  UNL d   1      -4.420   3.721  -5.723  0.00  0.00     0.002 A 
ENDROOT
BRANCH   1   7
ATOM      7  C2  UNL d   1      -2.172   3.913  -4.585  0.00  0.00     0.056 C 
BRANCH   7   8
ATOM      8  C1  UNL d   1      -2.255   5.423  -4.833  0.00  0.00     0.007 C 
ATOM      9  C   UNL d   1      -0.991   6.000  -5.455  0.00  0.00     0.009 C 
ENDBRANCH   7   8
ENDBRANCH   1   7
TORSDOF 2
ENDMDL
