MODEL 1
REMARK minimizedAffinity 16.5377121
REMARK minimizedRMSD -1
REMARK  2 active torsions:
REMARK  status: ('A' for Active; 'I' for Inactive)
REMARK    1  A    between atoms: C1_2  and  C2_3 
REMARK    2  A    between atoms: C2_3  and  C3_4 
ROOT
ATOM      1  C3  UNL d   1      -1.283  -0.793   4.519  0.00  0.00    -0.075 A 
ATOM      2  C4  UNL d   1      -0.425  -1.872   4.261  0.00  0.00     0.002 A 
ATOM      3  C5  UNL d   1      -0.651  -3.114   4.856  0.00  0.00     0.002 A 
ATOM      4  C6  UNL d   1      -1.727  -3.290   5.723  0.00  0.00    -0.004 A 
ATOM      5  C7  UNL d   1      -2.576  -2.220   6.000  0.00  0.00     0.002 A 
ATOM      6  C8  UNL d   1      -2.355  -0.978   5.402  0.00  0.00     0.002 A 
ENDROOT
BRANCH   1   7
ATOM      7  C2  UNL d   1      -1.062   0.545   3.856  0.00  0.00     0.056 C 
BRANCH   7   8
ATOM      8  C1  UNL d   1       0.263   0.652   3.094  0.00  0.00     0.007 C 
ATOM      9  C   UNL d   1       0.128   1.355   1.750  0.00  0.00     0.009 C 
ENDBRANCH   7   8
ENDBRANCH   1   7
TORSDOF 2
ENDMDL
