MODEL 1
REMARK minimizedAffinity 4.63050985
REMARK minimizedRMSD -1
REMARK  2 active torsions:
REMARK  status: ('A' for Active; 'I' for Inactive)
REMARK    1  A    between atoms: C1_2  and  C2_3 
REMARK    2  A    between atoms: C2_3  and  C3_4 
ROOT
ATOM      1  C3  UNL d   1      -2.991   3.606  -4.742  0.00  0.00    -0.075 A 
ATOM      2  C4  UNL d   1      -1.860   3.660  -3.914  0.00  0.00     0.002 A 
ATOM      3  C5  UNL d   1      -1.151   4.852  -3.760  0.00  0.00     0.002 A 
ATOM      4  C6  UNL d   1      -1.556   5.999  -4.438  0.00  0.00    -0.004 A 
ATOM      5  C7  UNL d   1      -2.668   5.953  -5.277  0.00  0.00     0.002 A 
ATOM      6  C8  UNL d   1      -3.382   4.763  -5.429  0.00  0.00     0.002 A 
ENDROOT
BRANCH   1   7
ATOM      7  C2  UNL d   1      -3.780   2.327  -4.889  0.00  0.00     0.056 C 
BRANCH   7   8
ATOM      8  C1  UNL d   1      -5.250   2.541  -5.266  0.00  0.00     0.007 C 
ATOM      9  C   UNL d   1      -5.999   1.240  -5.524  0.00  0.00     0.009 C 
ENDBRANCH   7   8
ENDBRANCH   1   7
TORSDOF 2
ENDMDL
