MODEL 1
REMARK minimizedAffinity 14.6958303
REMARK minimizedRMSD -1
REMARK  2 active torsions:
REMARK  status: ('A' for Active; 'I' for Inactive)
REMARK    1  A    between atoms: C1_2  and  C2_3 
REMARK    2  A    between atoms: C2_3  and  C3_4 
ROOT
ATOM      1  C3  UNL d   1      -1.441   2.156  -0.143  0.00  0.00    -0.075 A 
ATOM      2  C4  UNL d   1      -0.104   1.920   0.205  0.00  0.00     0.002 A 
ATOM      3  C5  UNL d   1       0.212   1.253   1.390  0.00  0.00     0.002 A 
ATOM      4  C6  UNL d   1      -0.802   0.825   2.244  0.00  0.00    -0.004 A 
ATOM      5  C7  UNL d   1      -2.133   1.069   1.915  0.00  0.00     0.002 A 
ATOM      6  C8  UNL d   1      -2.453   1.731   0.729  0.00  0.00     0.002 A 
ENDROOT
BRANCH   1   7
ATOM      7  C2  UNL d   1      -1.791   2.850  -1.438  0.00  0.00     0.056 C 
BRANCH   7   8
ATOM      8  C1  UNL d   1      -0.759   2.649  -2.552  0.00  0.00     0.007 C 
ATOM      9  C   UNL d   1      -1.376   2.611  -3.943  0.00  0.00     0.009 C 
ENDBRANCH   7   8
ENDBRANCH   1   7
TORSDOF 2
ENDMDL
