MODEL 1
REMARK minimizedAffinity 15.4545059
REMARK minimizedRMSD -1
REMARK  2 active torsions:
REMARK  status: ('A' for Active; 'I' for Inactive)
REMARK    1  A    between atoms: C1_2  and  C2_3 
REMARK    2  A    between atoms: C2_3  and  C3_4 
ROOT
ATOM      1  C3  UNL d   1      -3.821   3.920   0.611  0.00  0.00    -0.075 A 
ATOM      2  C4  UNL d   1      -2.626   4.126  -0.092  0.00  0.00     0.002 A 
ATOM      3  C5  UNL d   1      -1.686   3.102  -0.207  0.00  0.00     0.002 A 
ATOM      4  C6  UNL d   1      -1.923   1.865   0.388  0.00  0.00    -0.004 A 
ATOM      5  C7  UNL d   1      -3.100   1.654   1.103  0.00  0.00     0.002 A 
ATOM      6  C8  UNL d   1      -4.045   2.676   1.216  0.00  0.00     0.002 A 
ENDROOT
BRANCH   1   7
ATOM      7  C2  UNL d   1      -4.856   5.015   0.713  0.00  0.00     0.056 C 
BRANCH   7   8
ATOM      8  C1  UNL d   1      -4.615   5.995   1.866  0.00  0.00     0.007 C 
ATOM      9  C   UNL d   1      -5.737   5.998   2.896  0.00  0.00     0.009 C 
ENDBRANCH   7   8
ENDBRANCH   1   7
TORSDOF 2
ENDMDL
