MODEL 1
REMARK minimizedAffinity 2.13839006
REMARK minimizedRMSD -1
REMARK  1 active torsions:
REMARK  status: ('A' for Active; 'I' for Inactive)
REMARK    1  A    between atoms: C1_2  and  C2_3 
ROOT
ATOM      1  C2  UNL d   1       1.829  -0.920  -0.247  0.00  0.00    -0.073 A 
ATOM      2  C3  UNL d   1       1.895  -1.205  -1.616  0.00  0.00    -0.002 A 
ATOM      3  C4  UNL d   1       2.109  -0.181  -2.540  0.00  0.00     0.004 A 
ATOM      4  C5  UNL d   1       2.266   1.134  -2.105  0.00  0.00    -0.004 A 
ATOM      5  C6  UNL d   1       2.216   1.438  -0.741  0.00  0.00    -0.075 A 
ATOM      6  C7  UNL d   1       2.382   2.849  -0.257  0.00  0.00     0.076 C 
ATOM      7  C8  UNL d   1       1.998   0.405   0.181  0.00  0.00     0.001 A 
ENDROOT
BRANCH   1   8
ATOM      8  C1  UNL d   1       1.605  -2.023   0.755  0.00  0.00     0.053 C 
ATOM      9  C   UNL d   1       1.031  -1.498   2.061  0.00  0.00     0.018 C 
ENDBRANCH   1   8
TORSDOF 1
ENDMDL
