MODEL 1
REMARK minimizedAffinity 2.01041961
REMARK minimizedRMSD -1
REMARK  1 active torsions:
REMARK  status: ('A' for Active; 'I' for Inactive)
REMARK    1  A    between atoms: C1_2  and  C2_3 
ROOT
ATOM      1  C2  UNL d   1       2.169  -1.045   0.613  0.00  0.00    -0.073 A 
ATOM      2  C3  UNL d   1       2.004  -1.766  -0.575  0.00  0.00    -0.002 A 
ATOM      3  C4  UNL d   1       1.950  -1.101  -1.801  0.00  0.00     0.004 A 
ATOM      4  C5  UNL d   1       2.067   0.287  -1.852  0.00  0.00    -0.004 A 
ATOM      5  C6  UNL d   1       2.245   1.025  -0.677  0.00  0.00    -0.075 A 
ATOM      6  C7  UNL d   1       2.371   2.519  -0.715  0.00  0.00     0.076 C 
ATOM      7  C8  UNL d   1       2.295   0.350   0.551  0.00  0.00     0.001 A 
ENDROOT
BRANCH   1   8
ATOM      8  C1  UNL d   1       2.234  -1.758   1.939  0.00  0.00     0.053 C 
ATOM      9  C   UNL d   1       2.025  -0.809   3.108  0.00  0.00     0.018 C 
ENDBRANCH   1   8
TORSDOF 1
ENDMDL
