MODEL 1
REMARK minimizedAffinity -5.26944828
REMARK minimizedRMSD -1
REMARK  0 active torsions:
REMARK  status: ('A' for Active; 'I' for Inactive)
ROOT
ATOM      1  C1  BNZ d   1       2.382  -1.787   2.613  0.00  0.00     0.000 A 
ATOM      2  C2  BNZ d   1       1.355  -0.912   2.844  0.00  0.00     0.000 A 
ATOM      3  C3  BNZ d   1       0.610  -0.418   1.810  0.00  0.00     0.000 A 
ATOM      4  C4  BNZ d   1       0.917  -0.769   0.545  0.00  0.00     0.000 A 
ATOM      5  C5  BNZ d   1       1.955  -1.644   0.294  0.00  0.00     0.000 A 
ATOM      6  C6  BNZ d   1       2.679  -2.169   1.340  0.00  0.00     0.000 A 
ENDROOT
TORSDOF 0
ENDMDL
