MODEL 1
REMARK minimizedAffinity -4.6456809
REMARK minimizedRMSD -1
REMARK  0 active torsions:
REMARK  status: ('A' for Active; 'I' for Inactive)
ROOT
ATOM      1  C1  BNZ d   1      -0.057  -0.086   1.055  0.00  0.00     0.000 A 
ATOM      2  C2  BNZ d   1       0.284  -0.714   2.223  0.00  0.00     0.000 A 
ATOM      3  C3  BNZ d   1       1.394  -1.509   2.291  0.00  0.00     0.000 A 
ATOM      4  C4  BNZ d   1       2.136  -1.708   1.183  0.00  0.00     0.000 A 
ATOM      5  C5  BNZ d   1       1.800  -1.090  -0.004  0.00  0.00     0.000 A 
ATOM      6  C6  BNZ d   1       0.704  -0.258  -0.060  0.00  0.00     0.000 A 
ENDROOT
TORSDOF 0
ENDMDL
