MODEL 1
REMARK minimizedAffinity -4.80195999
REMARK minimizedRMSD -1
REMARK  0 active torsions:
REMARK  status: ('A' for Active; 'I' for Inactive)
ROOT
ATOM      1  C1  BNZ d   1       1.148  -0.723   2.538  0.00  0.00     0.000 A 
ATOM      2  C2  BNZ d   1       2.127  -1.665   2.369  0.00  0.00     0.000 A 
ATOM      3  C3  BNZ d   1       2.623  -1.945   1.126  0.00  0.00     0.000 A 
ATOM      4  C4  BNZ d   1       2.112  -1.311   0.051  0.00  0.00     0.000 A 
ATOM      5  C5  BNZ d   1       1.118  -0.365   0.204  0.00  0.00     0.000 A 
ATOM      6  C6  BNZ d   1       0.649  -0.058   1.460  0.00  0.00     0.000 A 
ENDROOT
TORSDOF 0
ENDMDL
