MODEL 1
REMARK minimizedAffinity -4.69107676
REMARK minimizedRMSD -1
REMARK  0 active torsions:
REMARK  status: ('A' for Active; 'I' for Inactive)
ROOT
ATOM      1  C1  BNZ d   1       0.481  -0.041   0.960  0.00  0.00     0.000 A 
ATOM      2  C2  BNZ d   1       0.467   0.062   2.326  0.00  0.00     0.000 A 
ATOM      3  C3  BNZ d   1       1.390  -0.601   3.087  0.00  0.00     0.000 A 
ATOM      4  C4  BNZ d   1       2.298  -1.395   2.485  0.00  0.00     0.000 A 
ATOM      5  C5  BNZ d   1       2.319  -1.516   1.110  0.00  0.00     0.000 A 
ATOM      6  C6  BNZ d   1       1.414  -0.817   0.345  0.00  0.00     0.000 A 
ENDROOT
TORSDOF 0
ENDMDL
