MODEL 1
REMARK minimizedAffinity -4.71166086
REMARK minimizedRMSD -1
REMARK  0 active torsions:
REMARK  status: ('A' for Active; 'I' for Inactive)
ROOT
ATOM      1  C1  BNZ d   1       0.903  -0.602   0.004  0.00  0.00     0.000 A 
ATOM      2  C2  BNZ d   1       2.045  -1.346  -0.137  0.00  0.00     0.000 A 
ATOM      3  C3  BNZ d   1       2.631  -1.939   0.947  0.00  0.00     0.000 A 
ATOM      4  C4  BNZ d   1       2.099  -1.755   2.172  0.00  0.00     0.000 A 
ATOM      5  C5  BNZ d   1       0.954  -0.999   2.331  0.00  0.00     0.000 A 
ATOM      6  C6  BNZ d   1       0.345  -0.436   1.233  0.00  0.00     0.000 A 
ENDROOT
TORSDOF 0
ENDMDL
