MODEL 1
REMARK minimizedAffinity -4.72795343
REMARK minimizedRMSD -1
REMARK  0 active torsions:
REMARK  status: ('A' for Active; 'I' for Inactive)
ROOT
ATOM      1  C1  BNZ d   1      -0.697   0.108   1.741  0.00  0.00     0.000 A 
ATOM      2  C2  BNZ d   1      -0.022  -0.422   2.808  0.00  0.00     0.000 A 
ATOM      3  C3  BNZ d   1       1.234  -0.940   2.655  0.00  0.00     0.000 A 
ATOM      4  C4  BNZ d   1       1.795  -0.965   1.429  0.00  0.00     0.000 A 
ATOM      5  C5  BNZ d   1       1.124  -0.443   0.342  0.00  0.00     0.000 A 
ATOM      6  C6  BNZ d   1      -0.124   0.113   0.507  0.00  0.00     0.000 A 
ENDROOT
TORSDOF 0
ENDMDL
