MODEL 1
REMARK minimizedAffinity -4.42909288
REMARK minimizedRMSD -1
REMARK  0 active torsions:
REMARK  status: ('A' for Active; 'I' for Inactive)
ROOT
ATOM      1  C1  BNZ d   1       2.010  -1.544   1.739  0.00  0.00     0.000 A 
ATOM      2  C2  BNZ d   1       1.763  -0.820   0.603  0.00  0.00     0.000 A 
ATOM      3  C3  BNZ d   1       0.626  -0.070   0.485  0.00  0.00     0.000 A 
ATOM      4  C4  BNZ d   1      -0.279  -0.075   1.485  0.00  0.00     0.000 A 
ATOM      5  C5  BNZ d   1      -0.048  -0.806   2.633  0.00  0.00     0.000 A 
ATOM      6  C6  BNZ d   1       1.115  -1.530   2.764  0.00  0.00     0.000 A 
ENDROOT
TORSDOF 0
ENDMDL
