MODEL 1
REMARK minimizedAffinity -5.07824183
REMARK minimizedRMSD -1
REMARK  0 active torsions:
REMARK  status: ('A' for Active; 'I' for Inactive)
ROOT
ATOM      1  C1  BNZ d   1       0.457  -0.421   0.302  0.00  0.00     0.000 A 
ATOM      2  C2  BNZ d   1       1.616  -1.103   0.047  0.00  0.00     0.000 A 
ATOM      3  C3  BNZ d   1       2.331  -1.673   1.063  0.00  0.00     0.000 A 
ATOM      4  C4  BNZ d   1       1.909  -1.525   2.335  0.00  0.00     0.000 A 
ATOM      5  C5  BNZ d   1       0.747  -0.832   2.610  0.00  0.00     0.000 A 
ATOM      6  C6  BNZ d   1       0.009  -0.293   1.581  0.00  0.00     0.000 A 
ENDROOT
TORSDOF 0
ENDMDL
