MODEL 1
REMARK minimizedAffinity -5.26681709
REMARK minimizedRMSD -1
REMARK  0 active torsions:
REMARK  status: ('A' for Active; 'I' for Inactive)
ROOT
ATOM      1  C1  BNZ d   1       0.756  -0.473   0.641  0.00  0.00     0.000 A 
ATOM      2  C2  BNZ d   1       1.802  -1.356   0.676  0.00  0.00     0.000 A 
ATOM      3  C3  BNZ d   1       2.309  -1.793   1.868  0.00  0.00     0.000 A 
ATOM      4  C4  BNZ d   1       1.799  -1.315   3.021  0.00  0.00     0.000 A 
ATOM      5  C5  BNZ d   1       0.751  -0.416   3.002  0.00  0.00     0.000 A 
ATOM      6  C6  BNZ d   1       0.216  -0.009   1.801  0.00  0.00     0.000 A 
ENDROOT
TORSDOF 0
ENDMDL
