MODEL 1
REMARK minimizedAffinity 0.747844219
REMARK minimizedRMSD -1
REMARK  2 active torsions:
REMARK  status: ('A' for Active; 'I' for Inactive)
REMARK    1  A    between atoms: C2'_3  and  C1'_4 
REMARK    2  A    between atoms: C1'_4  and  C1_5 
ROOT
ATOM      1  C1  I4B d   1       4.234   5.239  -2.816  0.00  0.00    -0.075 A 
ATOM      2  C2  I4B d   1       3.668   4.509  -3.831  0.00  0.00     0.003 A 
ATOM      3  C3  I4B d   1       4.276   4.475  -5.109  0.00  0.00     0.002 A 
ATOM      4  C4  I4B d   1       5.414   5.220  -5.341  0.00  0.00    -0.004 A 
ATOM      5  C5  I4B d   1       5.999   5.941  -4.305  0.00  0.00     0.002 A 
ATOM      6  C6  I4B d   1       5.413   5.941  -3.030  0.00  0.00     0.003 A 
ENDROOT
BRANCH   1   7
ATOM      7  C1' I4B d   1       3.548   5.280  -1.487  0.00  0.00     0.060 C 
BRANCH   7   8
ATOM      8  C2' I4B d   1       2.447   4.239  -1.499  0.00  0.00    -0.013 C 
ATOM      9  C4' I4B d   1       2.568   3.305  -0.323  0.00  0.00     0.013 C 
ATOM     10  C3' I4B d   1       1.131   4.957  -1.486  0.00  0.00     0.013 C 
ENDBRANCH   7   8
ENDBRANCH   1   7
TORSDOF 2
ENDMDL
