MODEL 1
REMARK minimizedAffinity 12.0363655
REMARK minimizedRMSD -1
REMARK  2 active torsions:
REMARK  status: ('A' for Active; 'I' for Inactive)
REMARK    1  A    between atoms: C2'_3  and  C1'_4 
REMARK    2  A    between atoms: C1'_4  and  C1_5 
ROOT
ATOM      1  C1  I4B d   1       4.700   5.071  -3.269  0.00  0.00    -0.075 A 
ATOM      2  C2  I4B d   1       3.933   4.377  -4.172  0.00  0.00     0.003 A 
ATOM      3  C3  I4B d   1       4.203   4.474  -5.559  0.00  0.00     0.002 A 
ATOM      4  C4  I4B d   1       5.209   5.310  -5.999  0.00  0.00    -0.004 A 
ATOM      5  C5  I4B d   1       5.999   5.995  -5.081  0.00  0.00     0.002 A 
ATOM      6  C6  I4B d   1       5.752   5.866  -3.706  0.00  0.00     0.003 A 
ENDROOT
BRANCH   1   7
ATOM      7  C1' I4B d   1       4.367   4.972  -1.814  0.00  0.00     0.060 C 
BRANCH   7   8
ATOM      8  C2' I4B d   1       3.010   4.309  -1.690  0.00  0.00    -0.013 C 
ATOM      9  C4' I4B d   1       3.030   3.214  -0.656  0.00  0.00     0.013 C 
ATOM     10  C3' I4B d   1       2.008   5.367  -1.339  0.00  0.00     0.013 C 
ENDBRANCH   7   8
ENDBRANCH   1   7
TORSDOF 2
ENDMDL
