MODEL 1
REMARK minimizedAffinity 5.50891972
REMARK minimizedRMSD -1
REMARK  2 active torsions:
REMARK  status: ('A' for Active; 'I' for Inactive)
REMARK    1  A    between atoms: C2'_3  and  C1'_4 
REMARK    2  A    between atoms: C1'_4  and  C1_5 
ROOT
ATOM      1  C1  I4B d   1       2.190  -2.640   3.863  0.00  0.00    -0.075 A 
ATOM      2  C2  I4B d   1       2.368  -2.924   5.194  0.00  0.00     0.003 A 
ATOM      3  C3  I4B d   1       2.645  -4.249   5.609  0.00  0.00     0.002 A 
ATOM      4  C4  I4B d   1       2.684  -5.261   4.671  0.00  0.00    -0.004 A 
ATOM      5  C5  I4B d   1       2.526  -4.967   3.320  0.00  0.00     0.002 A 
ATOM      6  C6  I4B d   1       2.290  -3.647   2.911  0.00  0.00     0.003 A 
ENDROOT
BRANCH   1   7
ATOM      7  C1' I4B d   1       1.867  -1.235   3.463  0.00  0.00     0.060 C 
BRANCH   7   8
ATOM      8  C2' I4B d   1       1.968  -1.145   1.954  0.00  0.00    -0.013 C 
ATOM      9  C4' I4B d   1       0.622  -1.333   1.305  0.00  0.00     0.013 C 
ATOM     10  C3' I4B d   1       2.553   0.192   1.608  0.00  0.00     0.013 C 
ENDBRANCH   7   8
ENDBRANCH   1   7
TORSDOF 2
ENDMDL
