MODEL 1
REMARK minimizedAffinity 5.25469112
REMARK minimizedRMSD -1
REMARK  2 active torsions:
REMARK  status: ('A' for Active; 'I' for Inactive)
REMARK    1  A    between atoms: C2'_3  and  C1'_4 
REMARK    2  A    between atoms: C1'_4  and  C1_5 
ROOT
ATOM      1  C1  I4B d   1       2.693  -3.157   3.264  0.00  0.00    -0.075 A 
ATOM      2  C2  I4B d   1       2.359  -2.177   2.363  0.00  0.00     0.003 A 
ATOM      3  C3  I4B d   1       1.202  -1.386   2.565  0.00  0.00     0.002 A 
ATOM      4  C4  I4B d   1       0.385  -1.642   3.647  0.00  0.00    -0.004 A 
ATOM      5  C5  I4B d   1       0.737  -2.621   4.572  0.00  0.00     0.002 A 
ATOM      6  C6  I4B d   1       1.904  -3.375   4.387  0.00  0.00     0.003 A 
ENDROOT
BRANCH   1   7
ATOM      7  C1' I4B d   1       3.904  -3.996   3.002  0.00  0.00     0.060 C 
BRANCH   7   8
ATOM      8  C2' I4B d   1       5.105  -3.075   2.946  0.00  0.00    -0.013 C 
ATOM      9  C4' I4B d   1       5.836  -3.051   4.263  0.00  0.00     0.013 C 
ATOM     10  C3' I4B d   1       6.000  -3.547   1.839  0.00  0.00     0.013 C 
ENDBRANCH   7   8
ENDBRANCH   1   7
TORSDOF 2
ENDMDL
