MODEL 1
REMARK minimizedAffinity 1.04218054
REMARK minimizedRMSD -1
REMARK  2 active torsions:
REMARK  status: ('A' for Active; 'I' for Inactive)
REMARK    1  A    between atoms: C2'_3  and  C1'_4 
REMARK    2  A    between atoms: C1'_4  and  C1_5 
ROOT
ATOM      1  C1  I4B d   1      -3.607   3.137   0.229  0.00  0.00    -0.075 A 
ATOM      2  C2  I4B d   1      -3.863   2.849   1.547  0.00  0.00     0.003 A 
ATOM      3  C3  I4B d   1      -5.087   3.245   2.138  0.00  0.00     0.002 A 
ATOM      4  C4  I4B d   1      -5.998   3.968   1.396  0.00  0.00    -0.004 A 
ATOM      5  C5  I4B d   1      -5.747   4.239   0.054  0.00  0.00     0.002 A 
ATOM      6  C6  I4B d   1      -4.550   3.811  -0.537  0.00  0.00     0.003 A 
ENDROOT
BRANCH   1   7
ATOM      7  C1' I4B d   1      -2.291   2.732  -0.355  0.00  0.00     0.060 C 
BRANCH   7   8
ATOM      8  C2' I4B d   1      -2.341   1.242  -0.628  0.00  0.00    -0.013 C 
ATOM      9  C4' I4B d   1      -2.339   0.960  -2.108  0.00  0.00     0.013 C 
ATOM     10  C3' I4B d   1      -1.160   0.608   0.045  0.00  0.00     0.013 C 
ENDBRANCH   7   8
ENDBRANCH   1   7
TORSDOF 2
ENDMDL
