MODEL 1
REMARK minimizedAffinity 2.23415351
REMARK minimizedRMSD -1
REMARK  2 active torsions:
REMARK  status: ('A' for Active; 'I' for Inactive)
REMARK    1  A    between atoms: C2'_3  and  C1'_4 
REMARK    2  A    between atoms: C1'_4  and  C1_5 
ROOT
ATOM      1  C1  I4B d   1       2.798  -3.246   3.005  0.00  0.00    -0.075 A 
ATOM      2  C2  I4B d   1       2.760  -2.301   2.010  0.00  0.00     0.003 A 
ATOM      3  C3  I4B d   1       1.650  -1.430   1.896  0.00  0.00     0.002 A 
ATOM      4  C4  I4B d   1       0.584  -1.571   2.761  0.00  0.00    -0.004 A 
ATOM      5  C5  I4B d   1       0.633  -2.514   3.783  0.00  0.00     0.002 A 
ATOM      6  C6  I4B d   1       1.752  -3.350   3.914  0.00  0.00     0.003 A 
ENDROOT
BRANCH   1   7
ATOM      7  C1' I4B d   1       3.970  -4.172   3.076  0.00  0.00     0.060 C 
BRANCH   7   8
ATOM      8  C2' I4B d   1       5.188  -3.422   2.576  0.00  0.00    -0.013 C 
ATOM      9  C4' I4B d   1       6.000  -2.875   3.720  0.00  0.00     0.013 C 
ATOM     10  C3' I4B d   1       6.000  -4.364   1.738  0.00  0.00     0.013 C 
ENDBRANCH   7   8
ENDBRANCH   1   7
TORSDOF 2
ENDMDL
