MODEL 1
REMARK minimizedAffinity 3.98618317
REMARK minimizedRMSD -1
REMARK  2 active torsions:
REMARK  status: ('A' for Active; 'I' for Inactive)
REMARK    1  A    between atoms: C2'_3  and  C1'_4 
REMARK    2  A    between atoms: C1'_4  and  C1_5 
ROOT
ATOM      1  C1  I4B d   1       3.164  -1.264   2.257  0.00  0.00    -0.075 A 
ATOM      2  C2  I4B d   1       3.669  -0.594   1.171  0.00  0.00     0.003 A 
ATOM      3  C3  I4B d   1       5.019  -0.777   0.785  0.00  0.00     0.002 A 
ATOM      4  C4  I4B d   1       5.837  -1.595   1.538  0.00  0.00    -0.004 A 
ATOM      5  C5  I4B d   1       5.317  -2.291   2.626  0.00  0.00     0.002 A 
ATOM      6  C6  I4B d   1       3.969  -2.135   2.981  0.00  0.00     0.003 A 
ENDROOT
BRANCH   1   7
ATOM      7  C1' I4B d   1       1.743  -1.023   2.656  0.00  0.00     0.060 C 
BRANCH   7   8
ATOM      8  C2' I4B d   1       1.436  -1.907   3.848  0.00  0.00    -0.013 C 
ATOM      9  C4' I4B d   1       1.405  -1.110   5.125  0.00  0.00     0.013 C 
ATOM     10  C3' I4B d   1       0.120  -2.581   3.597  0.00  0.00     0.013 C 
ENDBRANCH   7   8
ENDBRANCH   1   7
TORSDOF 2
ENDMDL
