MODEL 1
REMARK minimizedAffinity -1.86599851
REMARK minimizedRMSD -1
REMARK  2 active torsions:
REMARK  status: ('A' for Active; 'I' for Inactive)
REMARK    1  A    between atoms: C2'_3  and  C1'_4 
REMARK    2  A    between atoms: C1'_4  and  C1_5 
ROOT
ATOM      1  C1  I4B d   1      -5.367  -5.510  -3.416  0.00  0.00    -0.075 A 
ATOM      2  C2  I4B d   1      -4.135  -6.000  -3.060  0.00  0.00     0.003 A 
ATOM      3  C3  I4B d   1      -3.495  -5.536  -1.886  0.00  0.00     0.002 A 
ATOM      4  C4  I4B d   1      -4.095  -4.551  -1.129  0.00  0.00    -0.004 A 
ATOM      5  C5  I4B d   1      -5.354  -4.071  -1.478  0.00  0.00     0.002 A 
ATOM      6  C6  I4B d   1      -6.000  -4.562  -2.622  0.00  0.00     0.003 A 
ENDROOT
BRANCH   1   7
ATOM      7  C1' I4B d   1      -6.000  -5.998  -4.680  0.00  0.00     0.060 C 
BRANCH   7   8
ATOM      8  C2' I4B d   1      -5.283  -5.344  -5.844  0.00  0.00    -0.013 C 
ATOM      9  C4' I4B d   1      -5.203  -3.851  -5.666  0.00  0.00     0.013 C 
ATOM     10  C3' I4B d   1      -3.915  -5.951  -5.945  0.00  0.00     0.013 C 
ENDBRANCH   7   8
ENDBRANCH   1   7
TORSDOF 2
ENDMDL
