MODEL 1
REMARK minimizedAffinity -1.80457842
REMARK minimizedRMSD -1
REMARK  1 active torsions:
REMARK  status: ('A' for Active; 'I' for Inactive)
REMARK    1  A    between atoms: N_2  and  C1_3 
ROOT
ATOM      1  C1  UNL d   1      -3.627   2.091  -3.389  0.00  0.00     0.143 A 
ATOM      2  C2  UNL d   1      -3.410   3.324  -4.013  0.00  0.00    -0.057 A 
ATOM      3  C3  UNL d   1      -4.250   4.418  -3.770  0.00  0.00     0.033 A 
ATOM      4  C4  UNL d   1      -5.342   4.289  -2.918  0.00  0.00    -0.042 A 
ATOM      5  C5  UNL d   1      -5.591   3.066  -2.306  0.00  0.00     0.033 A 
ATOM      6  C6  UNL d   1      -4.746   1.979  -2.547  0.00  0.00    -0.057 A 
ENDROOT
BRANCH   1   7
ATOM      7  N   UNL d   1      -2.887   0.938  -3.665  0.00  0.00    -0.732 N 
ATOM      8  C   UNL d   1      -1.448   1.001  -3.796  0.00  0.00     0.284 C 
ATOM      9  H3  UNL d   1      -3.223   0.128  -3.148  0.00  0.00     0.395 HD
ENDBRANCH   1   7
TORSDOF 1
ENDMDL
