MODEL 1
REMARK minimizedAffinity 6.55085611
REMARK minimizedRMSD -1
REMARK  1 active torsions:
REMARK  status: ('A' for Active; 'I' for Inactive)
REMARK    1  A    between atoms: N_2  and  C1_3 
ROOT
ATOM      1  C1  UNL d   1      -3.269   1.822  -2.836  0.00  0.00     0.143 A 
ATOM      2  C2  UNL d   1      -3.211   0.495  -3.274  0.00  0.00    -0.057 A 
ATOM      3  C3  UNL d   1      -2.037  -0.259  -3.154  0.00  0.00     0.033 A 
ATOM      4  C4  UNL d   1      -0.888   0.314  -2.619  0.00  0.00    -0.042 A 
ATOM      5  C5  UNL d   1      -0.915   1.639  -2.200  0.00  0.00     0.033 A 
ATOM      6  C6  UNL d   1      -2.093   2.384  -2.316  0.00  0.00    -0.057 A 
ENDROOT
BRANCH   1   7
ATOM      7  N   UNL d   1      -4.378   2.653  -3.017  0.00  0.00    -0.732 N 
ATOM      8  C   UNL d   1      -4.237   3.936  -3.672  0.00  0.00     0.284 C 
ATOM      9  H3  UNL d   1      -5.210   2.136  -3.290  0.00  0.00     0.395 HD
ENDBRANCH   1   7
TORSDOF 1
ENDMDL
