MODEL 1
REMARK minimizedAffinity 6.23273802
REMARK minimizedRMSD -1
REMARK  1 active torsions:
REMARK  status: ('A' for Active; 'I' for Inactive)
REMARK    1  A    between atoms: N_2  and  C1_3 
ROOT
ATOM      1  C1  UNL d   1       4.748  -3.194  -5.395  0.00  0.00     0.143 A 
ATOM      2  C2  UNL d   1       4.156  -2.821  -4.184  0.00  0.00    -0.057 A 
ATOM      3  C3  UNL d   1       4.457  -1.596  -3.576  0.00  0.00     0.033 A 
ATOM      4  C4  UNL d   1       5.380  -0.733  -4.156  0.00  0.00    -0.042 A 
ATOM      5  C5  UNL d   1       5.999  -1.094  -5.348  0.00  0.00     0.033 A 
ATOM      6  C6  UNL d   1       5.690  -2.316  -5.953  0.00  0.00    -0.057 A 
ENDROOT
BRANCH   1   7
ATOM      7  N   UNL d   1       4.564  -4.441  -5.999  0.00  0.00    -0.732 N 
ATOM      8  C   UNL d   1       5.605  -5.445  -5.948  0.00  0.00     0.284 C 
ATOM      9  H3  UNL d   1       3.626  -4.807  -5.856  0.00  0.00     0.395 HD
ENDBRANCH   1   7
TORSDOF 1
ENDMDL
