MODEL 1
REMARK minimizedAffinity 1.40417254
REMARK minimizedRMSD -1
REMARK  1 active torsions:
REMARK  status: ('A' for Active; 'I' for Inactive)
REMARK    1  A    between atoms: N_2  and  C1_3 
ROOT
ATOM      1  C1  UNL d   1       4.704   5.755  -1.740  0.00  0.00     0.143 A 
ATOM      2  C2  UNL d   1       5.884   5.991  -2.454  0.00  0.00    -0.057 A 
ATOM      3  C3  UNL d   1       5.998   5.639  -3.804  0.00  0.00     0.033 A 
ATOM      4  C4  UNL d   1       4.940   5.017  -4.459  0.00  0.00    -0.042 A 
ATOM      5  C5  UNL d   1       3.767   4.750  -3.762  0.00  0.00     0.033 A 
ATOM      6  C6  UNL d   1       3.657   5.110  -2.415  0.00  0.00    -0.057 A 
ENDROOT
BRANCH   1   7
ATOM      7  N   UNL d   1       4.564   5.991  -0.370  0.00  0.00    -0.732 N 
ATOM      8  C   UNL d   1       4.176   4.924   0.527  0.00  0.00     0.284 C 
ATOM      9  H3  UNL d   1       5.294   6.597  -0.003  0.00  0.00     0.395 HD
ENDBRANCH   1   7
TORSDOF 1
ENDMDL
