MODEL 1
REMARK minimizedAffinity 6.39842272
REMARK minimizedRMSD -1
REMARK  1 active torsions:
REMARK  status: ('A' for Active; 'I' for Inactive)
REMARK    1  A    between atoms: N_2  and  C1_3 
ROOT
ATOM      1  C1  UNL d   1       1.189   2.888  -2.774  0.00  0.00     0.143 A 
ATOM      2  C2  UNL d   1       0.760   3.849  -1.852  0.00  0.00    -0.057 A 
ATOM      3  C3  UNL d   1       1.583   4.921  -1.484  0.00  0.00     0.033 A 
ATOM      4  C4  UNL d   1       2.864   5.035  -2.012  0.00  0.00    -0.042 A 
ATOM      5  C5  UNL d   1       3.321   4.078  -2.911  0.00  0.00     0.033 A 
ATOM      6  C6  UNL d   1       2.493   3.014  -3.280  0.00  0.00    -0.057 A 
ENDROOT
BRANCH   1   7
ATOM      7  N   UNL d   1       0.456   1.746  -3.106  0.00  0.00    -0.732 N 
ATOM      8  C   UNL d   1      -0.989   1.789  -3.166  0.00  0.00     0.284 C 
ATOM      9  H3  UNL d   1       0.888   1.212  -3.856  0.00  0.00     0.395 HD
ENDBRANCH   1   7
TORSDOF 1
ENDMDL
