MODEL 1
REMARK minimizedAffinity 1.65188169
REMARK minimizedRMSD -1
REMARK  1 active torsions:
REMARK  status: ('A' for Active; 'I' for Inactive)
REMARK    1  A    between atoms: N_2  and  C1_3 
ROOT
ATOM      1  C1  UNL d   1      -3.999   2.867  -3.196  0.00  0.00     0.143 A 
ATOM      2  C2  UNL d   1      -3.553   2.733  -1.877  0.00  0.00    -0.057 A 
ATOM      3  C3  UNL d   1      -2.739   1.661  -1.490  0.00  0.00     0.033 A 
ATOM      4  C4  UNL d   1      -2.381   0.684  -2.413  0.00  0.00    -0.042 A 
ATOM      5  C5  UNL d   1      -2.834   0.783  -3.724  0.00  0.00     0.033 A 
ATOM      6  C6  UNL d   1      -3.640   1.860  -4.105  0.00  0.00    -0.057 A 
ENDROOT
BRANCH   1   7
ATOM      7  N   UNL d   1      -4.890   3.856  -3.619  0.00  0.00    -0.732 N 
ATOM      8  C   UNL d   1      -5.534   4.728  -2.660  0.00  0.00     0.284 C 
ATOM      9  H3  UNL d   1      -4.574   4.328  -4.463  0.00  0.00     0.395 HD
ENDBRANCH   1   7
TORSDOF 1
ENDMDL
