MODEL 1
REMARK minimizedAffinity 11.5461407
REMARK minimizedRMSD -1
REMARK  1 active torsions:
REMARK  status: ('A' for Active; 'I' for Inactive)
REMARK    1  A    between atoms: N_2  and  C1_3 
ROOT
ATOM      1  C1  UNL d   1      -3.494   2.316  -2.683  0.00  0.00     0.143 A 
ATOM      2  C2  UNL d   1      -3.437   1.068  -3.314  0.00  0.00    -0.057 A 
ATOM      3  C3  UNL d   1      -2.581   0.060  -2.854  0.00  0.00     0.033 A 
ATOM      4  C4  UNL d   1      -1.743   0.292  -1.770  0.00  0.00    -0.042 A 
ATOM      5  C5  UNL d   1      -1.763   1.533  -1.142  0.00  0.00     0.033 A 
ATOM      6  C6  UNL d   1      -2.625   2.534  -1.602  0.00  0.00    -0.057 A 
ENDROOT
BRANCH   1   7
ATOM      7  N   UNL d   1      -4.251   3.391  -3.152  0.00  0.00    -0.732 N 
ATOM      8  C   UNL d   1      -3.809   4.161  -4.295  0.00  0.00     0.284 C 
ATOM      9  H3  UNL d   1      -5.250   3.196  -3.144  0.00  0.00     0.395 HD
ENDBRANCH   1   7
TORSDOF 1
ENDMDL
