MODEL 1
REMARK minimizedAffinity 3.50720334
REMARK minimizedRMSD -1
REMARK  0 active torsions:
REMARK  status: ('A' for Active; 'I' for Inactive)
ROOT
ATOM      1  C1  BNZ d   1       3.771  -0.096  -0.025  0.00  0.00     0.000 A 
ATOM      2  C2  BNZ d   1       4.767   0.622  -0.633  0.00  0.00     0.000 A 
ATOM      3  C3  BNZ d   1       4.995   0.504  -1.975  0.00  0.00     0.000 A 
ATOM      4  C4  BNZ d   1       4.254  -0.358  -2.701  0.00  0.00     0.000 A 
ATOM      5  C5  BNZ d   1       3.253  -1.096  -2.101  0.00  0.00     0.000 A 
ATOM      6  C6  BNZ d   1       3.001  -0.947  -0.757  0.00  0.00     0.000 A 
ENDROOT
TORSDOF 0
ENDMDL
