MODEL 1
REMARK minimizedAffinity 2.5608263
REMARK minimizedRMSD -1
REMARK  0 active torsions:
REMARK  status: ('A' for Active; 'I' for Inactive)
ROOT
ATOM      1  C1  BNZ d   1       1.902  -4.240   6.000  0.00  0.00     0.000 A 
ATOM      2  C2  BNZ d   1       2.104  -3.261   5.064  0.00  0.00     0.000 A 
ATOM      3  C3  BNZ d   1       1.148  -2.981   4.128  0.00  0.00     0.000 A 
ATOM      4  C4  BNZ d   1       0.011  -3.705   4.104  0.00  0.00     0.000 A 
ATOM      5  C5  BNZ d   1      -0.203  -4.702   5.035  0.00  0.00     0.000 A 
ATOM      6  C6  BNZ d   1       0.745  -4.955   6.000  0.00  0.00     0.000 A 
ENDROOT
TORSDOF 0
ENDMDL
