MODEL 1
REMARK minimizedAffinity 4.63535786
REMARK minimizedRMSD -1
REMARK  0 active torsions:
REMARK  status: ('A' for Active; 'I' for Inactive)
ROOT
ATOM      1  C1  BNZ d   1      -5.787   4.978   3.646  0.00  0.00     0.000 A 
ATOM      2  C2  BNZ d   1      -5.803   3.609   3.662  0.00  0.00     0.000 A 
ATOM      3  C3  BNZ d   1      -5.929   2.925   4.839  0.00  0.00     0.000 A 
ATOM      4  C4  BNZ d   1      -5.998   3.608   5.999  0.00  0.00     0.000 A 
ATOM      5  C5  BNZ d   1      -5.974   4.989   6.000  0.00  0.00     0.000 A 
ATOM      6  C6  BNZ d   1      -5.887   5.675   4.810  0.00  0.00     0.000 A 
ENDROOT
TORSDOF 0
ENDMDL
