MODEL 1
REMARK minimizedAffinity 8.65882111
REMARK minimizedRMSD -1
REMARK  0 active torsions:
REMARK  status: ('A' for Active; 'I' for Inactive)
ROOT
ATOM      1  C1  BNZ d   1       1.334   0.117   2.233  0.00  0.00     0.000 A 
ATOM      2  C2  BNZ d   1       1.455   0.744   1.022  0.00  0.00     0.000 A 
ATOM      3  C3  BNZ d   1       0.355   1.227   0.371  0.00  0.00     0.000 A 
ATOM      4  C4  BNZ d   1      -0.868   1.047   0.912  0.00  0.00     0.000 A 
ATOM      5  C5  BNZ d   1      -1.007   0.409   2.128  0.00  0.00     0.000 A 
ATOM      6  C6  BNZ d   1       0.107  -0.042   2.799  0.00  0.00     0.000 A 
ENDROOT
TORSDOF 0
ENDMDL
