MODEL 1
REMARK minimizedAffinity 5.83220148
REMARK minimizedRMSD -1
REMARK  0 active torsions:
REMARK  status: ('A' for Active; 'I' for Inactive)
ROOT
ATOM      1  C1  BNZ d   1      -1.540  -3.924  -2.230  0.00  0.00     0.000 A 
ATOM      2  C2  BNZ d   1      -0.918  -4.938  -1.552  0.00  0.00     0.000 A 
ATOM      3  C3  BNZ d   1       0.387  -4.822  -1.162  0.00  0.00     0.000 A 
ATOM      4  C4  BNZ d   1       1.080  -3.711  -1.485  0.00  0.00     0.000 A 
ATOM      5  C5  BNZ d   1       0.469  -2.683  -2.176  0.00  0.00     0.000 A 
ATOM      6  C6  BNZ d   1      -0.856  -2.787  -2.533  0.00  0.00     0.000 A 
ENDROOT
TORSDOF 0
ENDMDL
