MODEL 1
REMARK minimizedAffinity 2.32875013
REMARK minimizedRMSD -1
REMARK  0 active torsions:
REMARK  status: ('A' for Active; 'I' for Inactive)
ROOT
ATOM      1  C1  BNZ d   1      -5.148   2.075  -0.865  0.00  0.00     0.000 A 
ATOM      2  C2  BNZ d   1      -4.617   0.845  -0.582  0.00  0.00     0.000 A 
ATOM      3  C3  BNZ d   1      -3.330   0.723  -0.138  0.00  0.00     0.000 A 
ATOM      4  C4  BNZ d   1      -2.564   1.825  -0.016  0.00  0.00     0.000 A 
ATOM      5  C5  BNZ d   1      -3.081   3.072  -0.306  0.00  0.00     0.000 A 
ATOM      6  C6  BNZ d   1      -4.389   3.195  -0.716  0.00  0.00     0.000 A 
ENDROOT
TORSDOF 0
ENDMDL
