MODEL 1
REMARK minimizedAffinity 2.21806097
REMARK minimizedRMSD -1
REMARK  0 active torsions:
REMARK  status: ('A' for Active; 'I' for Inactive)
ROOT
ATOM      1  C1  BNZ d   1       0.772  -3.067   4.238  0.00  0.00     0.000 A 
ATOM      2  C2  BNZ d   1      -0.412  -3.755   4.247  0.00  0.00     0.000 A 
ATOM      3  C3  BNZ d   1      -0.628  -4.765   5.143  0.00  0.00     0.000 A 
ATOM      4  C4  BNZ d   1       0.354  -5.112   6.000  0.00  0.00     0.000 A 
ATOM      5  C5  BNZ d   1       1.557  -4.434   5.996  0.00  0.00     0.000 A 
ATOM      6  C6  BNZ d   1       1.756  -3.393   5.120  0.00  0.00     0.000 A 
ENDROOT
TORSDOF 0
ENDMDL
