MODEL 1
REMARK minimizedAffinity 4.30475903
REMARK minimizedRMSD -1
REMARK  0 active torsions:
REMARK  status: ('A' for Active; 'I' for Inactive)
ROOT
ATOM      1  C1  BNZ d   1       3.384  -0.582  -0.762  0.00  0.00     0.000 A 
ATOM      2  C2  BNZ d   1       2.988  -1.483  -1.713  0.00  0.00     0.000 A 
ATOM      3  C3  BNZ d   1       2.220  -2.562  -1.378  0.00  0.00     0.000 A 
ATOM      4  C4  BNZ d   1       1.883  -2.761  -0.088  0.00  0.00     0.000 A 
ATOM      5  C5  BNZ d   1       2.283  -1.867   0.885  0.00  0.00     0.000 A 
ATOM      6  C6  BNZ d   1       3.023  -0.760   0.538  0.00  0.00     0.000 A 
ENDROOT
TORSDOF 0
ENDMDL
