MODEL 1
REMARK minimizedAffinity 5.29715681
REMARK minimizedRMSD -1
REMARK  0 active torsions:
REMARK  status: ('A' for Active; 'I' for Inactive)
ROOT
ATOM      1  C1  BNZ d   1       1.453  -4.346  -4.005  0.00  0.00     0.000 A 
ATOM      2  C2  BNZ d   1       0.636  -5.109  -3.214  0.00  0.00     0.000 A 
ATOM      3  C3  BNZ d   1       0.496  -4.835  -1.882  0.00  0.00     0.000 A 
ATOM      4  C4  BNZ d   1       1.203  -3.825  -1.335  0.00  0.00     0.000 A 
ATOM      5  C5  BNZ d   1       2.038  -3.052  -2.118  0.00  0.00     0.000 A 
ATOM      6  C6  BNZ d   1       2.146  -3.306  -3.465  0.00  0.00     0.000 A 
ENDROOT
TORSDOF 0
ENDMDL
