MODEL 1
REMARK minimizedAffinity 6.67130232
REMARK minimizedRMSD -1
REMARK  0 active torsions:
REMARK  status: ('A' for Active; 'I' for Inactive)
ROOT
ATOM      1  C1  BNZ d   1       5.487  -0.762  -2.323  0.00  0.00     0.000 A 
ATOM      2  C2  BNZ d   1       4.131  -0.581  -2.262  0.00  0.00     0.000 A 
ATOM      3  C3  BNZ d   1       3.276  -1.505  -2.795  0.00  0.00     0.000 A 
ATOM      4  C4  BNZ d   1       3.779  -2.588  -3.423  0.00  0.00     0.000 A 
ATOM      5  C5  BNZ d   1       5.144  -2.780  -3.501  0.00  0.00     0.000 A 
ATOM      6  C6  BNZ d   1       6.000  -1.867  -2.929  0.00  0.00     0.000 A 
ENDROOT
TORSDOF 0
ENDMDL
