MODEL 1
REMARK minimizedAffinity 10.7099686
REMARK minimizedRMSD -1
REMARK  0 active torsions:
REMARK  status: ('A' for Active; 'I' for Inactive)
ROOT
ATOM      1  C   UNL d   1      -1.630  -1.958   1.884  0.00  0.00     0.023 A 
ATOM      2  C1  UNL d   1      -0.662  -2.308   0.943  0.00  0.00     0.003 A 
ATOM      3  C2  UNL d   1      -1.042  -2.670  -0.351  0.00  0.00     0.048 A 
ATOM      4  C3  UNL d   1      -2.393  -2.679  -0.698  0.00  0.00     0.023 A 
ATOM      5  C4  UNL d   1      -3.365  -2.329   0.240  0.00  0.00     0.048 A 
ATOM      6  C5  UNL d   1      -2.980  -1.969   1.533  0.00  0.00     0.003 A 
ATOM      7  I   UNL d   1      -2.961  -3.217  -2.623  0.00  0.00    -0.146 I 
ENDROOT
TORSDOF 0
ENDMDL
