MODEL 1
REMARK minimizedAffinity 13.4682207
REMARK minimizedRMSD -1
REMARK  0 active torsions:
REMARK  status: ('A' for Active; 'I' for Inactive)
ROOT
ATOM      1  C   UNL d   1      -2.788  -5.960   1.664  0.00  0.00     0.023 A 
ATOM      2  C1  UNL d   1      -1.533  -5.998   2.273  0.00  0.00     0.003 A 
ATOM      3  C2  UNL d   1      -0.913  -4.813   2.672  0.00  0.00     0.048 A 
ATOM      4  C3  UNL d   1      -1.553  -3.592   2.459  0.00  0.00     0.023 A 
ATOM      5  C4  UNL d   1      -2.809  -3.549   1.851  0.00  0.00     0.048 A 
ATOM      6  C5  UNL d   1      -3.425  -4.737   1.453  0.00  0.00     0.003 A 
ATOM      7  I   UNL d   1      -0.632  -1.826   3.052  0.00  0.00    -0.146 I 
ENDROOT
TORSDOF 0
ENDMDL
