MODEL 1
REMARK minimizedAffinity 14.9715528
REMARK minimizedRMSD -1
REMARK  0 active torsions:
REMARK  status: ('A' for Active; 'I' for Inactive)
ROOT
ATOM      1  C   UNL d   1       5.080   3.209  -3.376  0.00  0.00     0.023 A 
ATOM      2  C1  UNL d   1       3.884   2.667  -2.907  0.00  0.00     0.003 A 
ATOM      3  C2  UNL d   1       3.569   1.332  -3.172  0.00  0.00     0.048 A 
ATOM      4  C3  UNL d   1       4.456   0.546  -3.906  0.00  0.00     0.023 A 
ATOM      5  C4  UNL d   1       5.655   1.084  -4.377  0.00  0.00     0.048 A 
ATOM      6  C5  UNL d   1       5.965   2.419  -4.110  0.00  0.00     0.003 A 
ATOM      7  I   UNL d   1       3.990  -1.441  -4.301  0.00  0.00    -0.146 I 
ENDROOT
TORSDOF 0
ENDMDL
