MODEL 1
REMARK minimizedAffinity 18.8031158
REMARK minimizedRMSD -1
REMARK  0 active torsions:
REMARK  status: ('A' for Active; 'I' for Inactive)
ROOT
ATOM      1  C   UNL d   1       0.862   1.723   1.994  0.00  0.00     0.023 A 
ATOM      2  C1  UNL d   1      -0.102   1.007   2.704  0.00  0.00     0.003 A 
ATOM      3  C2  UNL d   1      -0.516  -0.247   2.250  0.00  0.00     0.048 A 
ATOM      4  C3  UNL d   1       0.039  -0.780   1.087  0.00  0.00     0.023 A 
ATOM      5  C4  UNL d   1       1.005  -0.067   0.375  0.00  0.00     0.048 A 
ATOM      6  C5  UNL d   1       1.415   1.186   0.831  0.00  0.00     0.003 A 
ATOM      7  I   UNL d   1      -0.576  -2.646   0.411  0.00  0.00    -0.146 I 
ENDROOT
TORSDOF 0
ENDMDL
