MODEL 1
REMARK minimizedAffinity 8.29465389
REMARK minimizedRMSD -1
REMARK  0 active torsions:
REMARK  status: ('A' for Active; 'I' for Inactive)
ROOT
ATOM      1  C   UNL d   1       2.963   1.395  -0.791  0.00  0.00     0.023 A 
ATOM      2  C1  UNL d   1       3.264   0.123  -0.306  0.00  0.00     0.003 A 
ATOM      3  C2  UNL d   1       2.672  -0.335   0.873  0.00  0.00     0.048 A 
ATOM      4  C3  UNL d   1       1.777   0.485   1.561  0.00  0.00     0.023 A 
ATOM      5  C4  UNL d   1       1.472   1.759   1.078  0.00  0.00     0.048 A 
ATOM      6  C5  UNL d   1       2.068   2.212  -0.100  0.00  0.00     0.003 A 
ATOM      7  I   UNL d   1       0.893  -0.194   3.315  0.00  0.00    -0.146 I 
ENDROOT
TORSDOF 0
ENDMDL
