MODEL 1
REMARK minimizedAffinity 18.2720776
REMARK minimizedRMSD -1
REMARK  0 active torsions:
REMARK  status: ('A' for Active; 'I' for Inactive)
ROOT
ATOM      1  C   UNL d   1      -3.246   2.135   2.735  0.00  0.00     0.023 A 
ATOM      2  C1  UNL d   1      -3.024   2.327   4.099  0.00  0.00     0.003 A 
ATOM      3  C2  UNL d   1      -3.814   1.658   5.036  0.00  0.00     0.048 A 
ATOM      4  C3  UNL d   1      -4.823   0.799   4.604  0.00  0.00     0.023 A 
ATOM      5  C4  UNL d   1      -5.048   0.604   3.240  0.00  0.00     0.048 A 
ATOM      6  C5  UNL d   1      -4.257   1.275   2.306  0.00  0.00     0.003 A 
ATOM      7  I   UNL d   1      -5.999  -0.197   5.998  0.00  0.00    -0.146 I 
ENDROOT
TORSDOF 0
ENDMDL
