MODEL 1
REMARK minimizedAffinity 12.1897182
REMARK minimizedRMSD -1
REMARK  0 active torsions:
REMARK  status: ('A' for Active; 'I' for Inactive)
ROOT
ATOM      1  C   UNL d   1       1.915   0.387   1.303  0.00  0.00     0.023 A 
ATOM      2  C1  UNL d   1       1.324   1.360   0.497  0.00  0.00     0.003 A 
ATOM      3  C2  UNL d   1       1.983   1.814  -0.648  0.00  0.00     0.048 A 
ATOM      4  C3  UNL d   1       3.232   1.291  -0.980  0.00  0.00     0.023 A 
ATOM      5  C4  UNL d   1       3.827   0.317  -0.177  0.00  0.00     0.048 A 
ATOM      6  C5  UNL d   1       3.165  -0.133   0.967  0.00  0.00     0.003 A 
ATOM      7  I   UNL d   1       4.214   1.966  -2.683  0.00  0.00    -0.146 I 
ENDROOT
TORSDOF 0
ENDMDL
