MODEL 1
REMARK minimizedAffinity 20.490799
REMARK minimizedRMSD -1
REMARK  0 active torsions:
REMARK  status: ('A' for Active; 'I' for Inactive)
ROOT
ATOM      1  C   UNL d   1      -1.230  -2.526   1.300  0.00  0.00     0.023 A 
ATOM      2  C1  UNL d   1      -1.099  -3.702   0.561  0.00  0.00     0.003 A 
ATOM      3  C2  UNL d   1      -1.886  -3.907  -0.574  0.00  0.00     0.048 A 
ATOM      4  C3  UNL d   1      -2.802  -2.931  -0.966  0.00  0.00     0.023 A 
ATOM      5  C4  UNL d   1      -2.936  -1.752  -0.230  0.00  0.00     0.048 A 
ATOM      6  C5  UNL d   1      -2.148  -1.552   0.904  0.00  0.00     0.003 A 
ATOM      7  I   UNL d   1      -3.974  -3.234  -2.655  0.00  0.00    -0.146 I 
ENDROOT
TORSDOF 0
ENDMDL
