MODEL 1
REMARK minimizedAffinity 11.4011183
REMARK minimizedRMSD -1
REMARK  0 active torsions:
REMARK  status: ('A' for Active; 'I' for Inactive)
ROOT
ATOM      1  C   UNL d   1      -3.088  -6.000   2.234  0.00  0.00     0.023 A 
ATOM      2  C1  UNL d   1      -1.753  -5.943   2.634  0.00  0.00     0.003 A 
ATOM      3  C2  UNL d   1      -1.069  -4.726   2.619  0.00  0.00     0.048 A 
ATOM      4  C3  UNL d   1      -1.727  -3.568   2.205  0.00  0.00     0.023 A 
ATOM      5  C4  UNL d   1      -3.064  -3.620   1.806  0.00  0.00     0.048 A 
ATOM      6  C5  UNL d   1      -3.743  -4.839   1.821  0.00  0.00     0.003 A 
ATOM      7  I   UNL d   1      -0.712  -1.755   2.184  0.00  0.00    -0.146 I 
ENDROOT
TORSDOF 0
ENDMDL
