MODEL 1
REMARK minimizedAffinity 8.0205431
REMARK minimizedRMSD -1
REMARK  0 active torsions:
REMARK  status: ('A' for Active; 'I' for Inactive)
ROOT
ATOM      1  C   UNL d   1       1.910   0.733   1.398  0.00  0.00     0.023 A 
ATOM      2  C1  UNL d   1       2.938  -0.044   0.862  0.00  0.00     0.003 A 
ATOM      3  C2  UNL d   1       3.450   0.249  -0.403  0.00  0.00     0.048 A 
ATOM      4  C3  UNL d   1       2.930   1.322  -1.128  0.00  0.00     0.023 A 
ATOM      5  C4  UNL d   1       1.903   2.102  -0.596  0.00  0.00     0.048 A 
ATOM      6  C5  UNL d   1       1.393   1.804   0.670  0.00  0.00     0.003 A 
ATOM      7  I   UNL d   1       3.691   1.760  -3.011  0.00  0.00    -0.146 I 
ENDROOT
TORSDOF 0
ENDMDL
