MODEL 1
REMARK minimizedAffinity 14.7289991
REMARK minimizedRMSD -1
REMARK  0 active torsions:
REMARK  status: ('A' for Active; 'I' for Inactive)
ROOT
ATOM      1  C   UNL d   1      -3.251  -4.660  -1.891  0.00  0.00     0.023 A 
ATOM      2  C1  UNL d   1      -3.736  -3.367  -2.089  0.00  0.00     0.003 A 
ATOM      3  C2  UNL d   1      -3.437  -2.681  -3.267  0.00  0.00     0.048 A 
ATOM      4  C3  UNL d   1      -2.653  -3.293  -4.244  0.00  0.00     0.023 A 
ATOM      5  C4  UNL d   1      -2.166  -4.587  -4.051  0.00  0.00     0.048 A 
ATOM      6  C5  UNL d   1      -2.467  -5.269  -2.871  0.00  0.00     0.003 A 
ATOM      7  I   UNL d   1      -2.207  -2.273  -5.999  0.00  0.00    -0.146 I 
ENDROOT
TORSDOF 0
ENDMDL
