MODEL 1
REMARK minimizedAffinity 16.5044441
REMARK minimizedRMSD -1
REMARK  0 active torsions:
REMARK  status: ('A' for Active; 'I' for Inactive)
ROOT
ATOM      1  C   UNL d   1      -5.965   5.991   4.922  0.00  0.00     0.023 A 
ATOM      2  C1  UNL d   1      -5.151   5.570   5.973  0.00  0.00     0.003 A 
ATOM      3  C2  UNL d   1      -4.371   4.420   5.836  0.00  0.00     0.048 A 
ATOM      4  C3  UNL d   1      -4.409   3.697   4.644  0.00  0.00     0.023 A 
ATOM      5  C4  UNL d   1      -5.221   4.116   3.589  0.00  0.00     0.048 A 
ATOM      6  C5  UNL d   1      -6.000   5.265   3.731  0.00  0.00     0.003 A 
ATOM      7  I   UNL d   1      -3.248   1.985   4.437  0.00  0.00    -0.146 I 
ENDROOT
TORSDOF 0
ENDMDL
