MODEL 1
REMARK minimizedAffinity 12.8811083
REMARK minimizedRMSD -1
REMARK  0 active torsions:
REMARK  status: ('A' for Active; 'I' for Inactive)
ROOT
ATOM      1  C   UNL d   1       1.677   0.229   1.399  0.00  0.00     0.023 A 
ATOM      2  C1  UNL d   1       1.089   1.180   0.565  0.00  0.00     0.003 A 
ATOM      3  C2  UNL d   1       1.766   1.628  -0.571  0.00  0.00     0.048 A 
ATOM      4  C3  UNL d   1       3.030   1.119  -0.868  0.00  0.00     0.023 A 
ATOM      5  C4  UNL d   1       3.622   0.167  -0.037  0.00  0.00     0.048 A 
ATOM      6  C5  UNL d   1       2.941  -0.277   1.099  0.00  0.00     0.003 A 
ATOM      7  I   UNL d   1       4.040   1.784  -2.559  0.00  0.00    -0.146 I 
ENDROOT
TORSDOF 0
ENDMDL
