MODEL 1
REMARK minimizedAffinity 13.4672365
REMARK minimizedRMSD -1
REMARK  0 active torsions:
REMARK  status: ('A' for Active; 'I' for Inactive)
ROOT
ATOM      1  C   UNL d   1      -6.000   5.968   5.092  0.00  0.00     0.023 A 
ATOM      2  C1  UNL d   1      -5.999   5.384   3.825  0.00  0.00     0.003 A 
ATOM      3  C2  UNL d   1      -4.981   4.500   3.463  0.00  0.00     0.048 A 
ATOM      4  C3  UNL d   1      -3.967   4.203   4.374  0.00  0.00     0.023 A 
ATOM      5  C4  UNL d   1      -3.964   4.784   5.643  0.00  0.00     0.048 A 
ATOM      6  C5  UNL d   1      -4.984   5.668   6.000  0.00  0.00     0.003 A 
ATOM      7  I   UNL d   1      -2.451   2.886   3.837  0.00  0.00    -0.146 I 
ENDROOT
TORSDOF 0
ENDMDL
