MODEL 1
REMARK minimizedAffinity 15.4307623
REMARK minimizedRMSD -1
REMARK  0 active torsions:
REMARK  status: ('A' for Active; 'I' for Inactive)
ROOT
ATOM      1  C   UNL d   1      -1.117  -1.623   0.354  0.00  0.00     0.023 A 
ATOM      2  C1  UNL d   1      -2.018  -2.202  -0.540  0.00  0.00     0.003 A 
ATOM      3  C2  UNL d   1      -2.564  -3.457  -0.267  0.00  0.00     0.048 A 
ATOM      4  C3  UNL d   1      -2.207  -4.128   0.902  0.00  0.00     0.023 A 
ATOM      5  C4  UNL d   1      -1.307  -3.552   1.800  0.00  0.00     0.048 A 
ATOM      6  C5  UNL d   1      -0.762  -2.297   1.523  0.00  0.00     0.003 A 
ATOM      7  I   UNL d   1      -3.019  -5.997   1.311  0.00  0.00    -0.146 I 
ENDROOT
TORSDOF 0
ENDMDL
