MODEL 1
REMARK minimizedAffinity 10.2331505
REMARK minimizedRMSD -1
REMARK  0 active torsions:
REMARK  status: ('A' for Active; 'I' for Inactive)
ROOT
ATOM      1  C   UNL d   1      -3.561   4.014   6.000  0.00  0.00     0.023 A 
ATOM      2  C1  UNL d   1      -4.616   4.926   5.991  0.00  0.00     0.003 A 
ATOM      3  C2  UNL d   1      -5.317   5.173   4.809  0.00  0.00     0.048 A 
ATOM      4  C3  UNL d   1      -4.958   4.504   3.639  0.00  0.00     0.023 A 
ATOM      5  C4  UNL d   1      -3.903   3.590   3.644  0.00  0.00     0.048 A 
ATOM      6  C5  UNL d   1      -3.204   3.347   4.828  0.00  0.00     0.003 A 
ATOM      7  I   UNL d   1      -6.000   4.870   1.879  0.00  0.00    -0.146 I 
ENDROOT
TORSDOF 0
ENDMDL
