MODEL 1
REMARK minimizedAffinity 14.7959251
REMARK minimizedRMSD -1
REMARK  0 active torsions:
REMARK  status: ('A' for Active; 'I' for Inactive)
ROOT
ATOM      1  C   UNL d   1       1.129   0.658   1.658  0.00  0.00     0.023 A 
ATOM      2  C1  UNL d   1       1.965  -0.234   0.986  0.00  0.00     0.003 A 
ATOM      3  C2  UNL d   1       2.558   0.138  -0.223  0.00  0.00     0.048 A 
ATOM      4  C3  UNL d   1       2.311   1.404  -0.753  0.00  0.00     0.023 A 
ATOM      5  C4  UNL d   1       1.476   2.300  -0.083  0.00  0.00     0.048 A 
ATOM      6  C5  UNL d   1       0.885   1.923   1.124  0.00  0.00     0.003 A 
ATOM      7  I   UNL d   1       3.192   1.960  -2.551  0.00  0.00    -0.146 I 
ENDROOT
TORSDOF 0
ENDMDL
