MODEL 1
REMARK minimizedAffinity 6.5643611
REMARK minimizedRMSD -1
REMARK  1 active torsions:
REMARK  status: ('A' for Active; 'I' for Inactive)
REMARK    1  A    between atoms: C1_2  and  C2_3 
ROOT
ATOM      1  C2  UNL d   1       0.654  -2.605  -1.595  0.00  0.00    -0.073 A 
ATOM      2  C3  UNL d   1      -0.016  -3.834  -1.571  0.00  0.00    -0.002 A 
ATOM      3  C4  UNL d   1      -1.180  -3.987  -0.817  0.00  0.00     0.004 A 
ATOM      4  C5  UNL d   1      -1.689  -2.913  -0.086  0.00  0.00    -0.004 A 
ATOM      5  C6  UNL d   1      -1.040  -1.675  -0.107  0.00  0.00    -0.075 A 
ATOM      6  C7  UNL d   1      -1.574  -0.511   0.675  0.00  0.00     0.076 C 
ATOM      7  C8  UNL d   1       0.130  -1.529  -0.865  0.00  0.00     0.001 A 
ENDROOT
BRANCH   1   8
ATOM      8  C1  UNL d   1       1.908  -2.433  -2.413  0.00  0.00     0.053 C 
ATOM      9  C   UNL d   1       2.340  -0.978  -2.496  0.00  0.00     0.018 C 
ENDBRANCH   1   8
TORSDOF 1
ENDMDL
