MODEL 1
REMARK minimizedAffinity 17.4927521
REMARK minimizedRMSD -1
REMARK  1 active torsions:
REMARK  status: ('A' for Active; 'I' for Inactive)
REMARK    1  A    between atoms: C1_2  and  C2_3 
ROOT
ATOM      1  C2  UNL d   1       1.757   0.140   2.131  0.00  0.00    -0.073 A 
ATOM      2  C3  UNL d   1       1.363  -0.575   0.994  0.00  0.00    -0.002 A 
ATOM      3  C4  UNL d   1       1.000  -1.918   1.097  0.00  0.00     0.004 A 
ATOM      4  C5  UNL d   1       1.021  -2.558   2.337  0.00  0.00    -0.004 A 
ATOM      5  C6  UNL d   1       1.401  -1.857   3.486  0.00  0.00    -0.075 A 
ATOM      6  C7  UNL d   1       1.430  -2.532   4.826  0.00  0.00     0.076 C 
ATOM      7  C8  UNL d   1       1.766  -0.509   3.374  0.00  0.00     0.001 A 
ENDROOT
BRANCH   1   8
ATOM      8  C1  UNL d   1       2.144   1.593   2.026  0.00  0.00     0.053 C 
ATOM      9  C   UNL d   1       1.960   2.329   3.343  0.00  0.00     0.018 C 
ENDBRANCH   1   8
TORSDOF 1
ENDMDL
