MODEL 1
REMARK minimizedAffinity 7.83058643
REMARK minimizedRMSD -1
REMARK  1 active torsions:
REMARK  status: ('A' for Active; 'I' for Inactive)
REMARK    1  A    between atoms: C1_2  and  C2_3 
ROOT
ATOM      1  C2  UNL d   1       3.620  -3.179   4.113  0.00  0.00    -0.073 A 
ATOM      2  C3  UNL d   1       2.607  -4.080   4.460  0.00  0.00    -0.002 A 
ATOM      3  C4  UNL d   1       1.293  -3.859   4.045  0.00  0.00     0.004 A 
ATOM      4  C5  UNL d   1       0.980  -2.740   3.274  0.00  0.00    -0.004 A 
ATOM      5  C6  UNL d   1       1.980  -1.834   2.907  0.00  0.00    -0.075 A 
ATOM      6  C7  UNL d   1       1.658  -0.624   2.080  0.00  0.00     0.076 C 
ATOM      7  C8  UNL d   1       3.296  -2.061   3.330  0.00  0.00     0.001 A 
ENDROOT
BRANCH   1   8
ATOM      8  C1  UNL d   1       5.041  -3.416   4.554  0.00  0.00     0.053 C 
ATOM      9  C   UNL d   1       5.999  -3.482   3.375  0.00  0.00     0.018 C 
ENDBRANCH   1   8
TORSDOF 1
ENDMDL
