MODEL 1
REMARK minimizedAffinity 1.62162089
REMARK minimizedRMSD -1
REMARK  1 active torsions:
REMARK  status: ('A' for Active; 'I' for Inactive)
REMARK    1  A    between atoms: C1_2  and  C2_3 
ROOT
ATOM      1  C2  UNL d   1       4.234  -2.889   3.549  0.00  0.00    -0.073 A 
ATOM      2  C3  UNL d   1       3.676  -3.498   4.679  0.00  0.00    -0.002 A 
ATOM      3  C4  UNL d   1       2.313  -3.371   4.947  0.00  0.00     0.004 A 
ATOM      4  C5  UNL d   1       1.493  -2.641   4.087  0.00  0.00    -0.004 A 
ATOM      5  C6  UNL d   1       2.030  -2.034   2.947  0.00  0.00    -0.075 A 
ATOM      6  C7  UNL d   1       1.162  -1.243   2.013  0.00  0.00     0.076 C 
ATOM      7  C8  UNL d   1       3.400  -2.164   2.686  0.00  0.00     0.001 A 
ENDROOT
BRANCH   1   8
ATOM      8  C1  UNL d   1       5.705  -3.028   3.252  0.00  0.00     0.053 C 
ATOM      9  C   UNL d   1       5.995  -4.226   2.362  0.00  0.00     0.018 C 
ENDBRANCH   1   8
TORSDOF 1
ENDMDL
