MODEL 1
REMARK minimizedAffinity -5.98101521
REMARK minimizedRMSD -1
REMARK  0 active torsions:
REMARK  status: ('A' for Active; 'I' for Inactive)
ROOT
ATOM      1  O1  BZF d   1      -1.033   0.342   0.510  0.00  0.00    -0.204 OA
ATOM      2  C2  BZF d   1      -0.280   0.824  -0.544  0.00  0.00     0.174 A 
ATOM      3  C3  BZF d   1       0.882   0.149  -0.649  0.00  0.00    -0.012 A 
ATOM      4  C3A BZF d   1       0.814  -0.876   0.347  0.00  0.00    -0.107 A 
ATOM      5  C4  BZF d   1       1.662  -1.879   0.722  0.00  0.00     0.055 A 
ATOM      6  C5  BZF d   1       1.330  -2.663   1.780  0.00  0.00    -0.016 A 
ATOM      7  C6  BZF d   1       0.162  -2.471   2.488  0.00  0.00     0.022 A 
ATOM      8  C7  BZF d   1      -0.713  -1.492   2.151  0.00  0.00     0.029 A 
ATOM      9  C7A BZF d   1      -0.396  -0.719   1.061  0.00  0.00     0.058 A 
ENDROOT
TORSDOF 0
ENDMDL
