MODEL 1
REMARK minimizedAffinity -5.45389175
REMARK minimizedRMSD -1
REMARK  0 active torsions:
REMARK  status: ('A' for Active; 'I' for Inactive)
ROOT
ATOM      1  O1  BZF d   1      -1.013   0.306   0.624  0.00  0.00    -0.204 OA
ATOM      2  C2  BZF d   1      -0.178   0.731  -0.391  0.00  0.00     0.174 A 
ATOM      3  C3  BZF d   1       0.945  -0.015  -0.431  0.00  0.00    -0.012 A 
ATOM      4  C3A BZF d   1       0.762  -1.025   0.566  0.00  0.00    -0.107 A 
ATOM      5  C4  BZF d   1       1.526  -2.074   0.992  0.00  0.00     0.055 A 
ATOM      6  C5  BZF d   1       1.091  -2.827   2.036  0.00  0.00    -0.016 A 
ATOM      7  C6  BZF d   1      -0.098  -2.556   2.681  0.00  0.00     0.022 A 
ATOM      8  C7  BZF d   1      -0.893  -1.529   2.291  0.00  0.00     0.029 A 
ATOM      9  C7A BZF d   1      -0.472  -0.787   1.215  0.00  0.00     0.058 A 
ENDROOT
TORSDOF 0
ENDMDL
