MODEL 1
REMARK minimizedAffinity -4.91067743
REMARK minimizedRMSD -1
REMARK  0 active torsions:
REMARK  status: ('A' for Active; 'I' for Inactive)
ROOT
ATOM      1  O1  BZF d   1      -1.209   0.492   0.388  0.00  0.00    -0.204 OA
ATOM      2  C2  BZF d   1      -0.350   0.811  -0.645  0.00  0.00     0.174 A 
ATOM      3  C3  BZF d   1       0.751   0.033  -0.610  0.00  0.00    -0.012 A 
ATOM      4  C3A BZF d   1       0.526  -0.889   0.461  0.00  0.00    -0.107 A 
ATOM      5  C4  BZF d   1       1.254  -1.922   0.979  0.00  0.00     0.055 A 
ATOM      6  C5  BZF d   1       0.784  -2.577   2.073  0.00  0.00    -0.016 A 
ATOM      7  C6  BZF d   1      -0.405  -2.223   2.677  0.00  0.00     0.022 A 
ATOM      8  C7  BZF d   1      -1.163  -1.208   2.196  0.00  0.00     0.029 A 
ATOM      9  C7A BZF d   1      -0.708  -0.565   1.071  0.00  0.00     0.058 A 
ENDROOT
TORSDOF 0
ENDMDL
