MODEL 1
REMARK minimizedAffinity -5.46035337
REMARK minimizedRMSD -1
REMARK  0 active torsions:
REMARK  status: ('A' for Active; 'I' for Inactive)
ROOT
ATOM      1  O1  BZF d   1      -1.268   0.546   0.996  0.00  0.00    -0.204 OA
ATOM      2  C2  BZF d   1      -0.723   1.225  -0.077  0.00  0.00     0.174 A 
ATOM      3  C3  BZF d   1       0.403   0.618  -0.505  0.00  0.00    -0.012 A 
ATOM      4  C3A BZF d   1       0.521  -0.563   0.294  0.00  0.00    -0.107 A 
ATOM      5  C4  BZF d   1       1.427  -1.584   0.331  0.00  0.00     0.055 A 
ATOM      6  C5  BZF d   1       1.296  -2.548   1.280  0.00  0.00    -0.016 A 
ATOM      7  C6  BZF d   1       0.277  -2.519   2.210  0.00  0.00     0.022 A 
ATOM      8  C7  BZF d   1      -0.648  -1.528   2.210  0.00  0.00     0.029 A 
ATOM      9  C7A BZF d   1      -0.538  -0.571   1.231  0.00  0.00     0.058 A 
ENDROOT
TORSDOF 0
ENDMDL
