MODEL 1
REMARK minimizedAffinity -3.26448488
REMARK minimizedRMSD -1
REMARK  0 active torsions:
REMARK  status: ('A' for Active; 'I' for Inactive)
ROOT
ATOM      1  O1  BZF d   1      -1.411   0.585   0.810  0.00  0.00    -0.204 OA
ATOM      2  C2  BZF d   1      -0.573   0.965  -0.220  0.00  0.00     0.174 A 
ATOM      3  C3  BZF d   1       0.488   0.136  -0.304  0.00  0.00    -0.012 A 
ATOM      4  C3A BZF d   1       0.254  -0.876   0.680  0.00  0.00    -0.107 A 
ATOM      5  C4  BZF d   1       0.945  -1.988   1.066  0.00  0.00     0.055 A 
ATOM      6  C5  BZF d   1       0.481  -2.725   2.109  0.00  0.00    -0.016 A 
ATOM      7  C6  BZF d   1      -0.666  -2.377   2.791  0.00  0.00     0.022 A 
ATOM      8  C7  BZF d   1      -1.389  -1.285   2.441  0.00  0.00     0.029 A 
ATOM      9  C7A BZF d   1      -0.941  -0.557   1.367  0.00  0.00     0.058 A 
ENDROOT
TORSDOF 0
ENDMDL
