MODEL 1
REMARK minimizedAffinity -6.3148551
REMARK minimizedRMSD -1
REMARK  0 active torsions:
REMARK  status: ('A' for Active; 'I' for Inactive)
ROOT
ATOM      1  O1  BZF d   1      -0.890   0.521   0.632  0.00  0.00    -0.204 OA
ATOM      2  C2  BZF d   1      -0.178   0.859  -0.503  0.00  0.00     0.174 A 
ATOM      3  C3  BZF d   1       0.797  -0.040  -0.742  0.00  0.00    -0.012 A 
ATOM      4  C3A BZF d   1       0.630  -1.051   0.257  0.00  0.00    -0.107 A 
ATOM      5  C4  BZF d   1       1.286  -2.217   0.532  0.00  0.00     0.055 A 
ATOM      6  C5  BZF d   1       0.919  -2.940   1.623  0.00  0.00    -0.016 A 
ATOM      7  C6  BZF d   1      -0.094  -2.524   2.462  0.00  0.00     0.022 A 
ATOM      8  C7  BZF d   1      -0.777  -1.378   2.227  0.00  0.00     0.029 A 
ATOM      9  C7A BZF d   1      -0.431  -0.662   1.107  0.00  0.00     0.058 A 
ENDROOT
TORSDOF 0
ENDMDL
