MODEL 1
REMARK minimizedAffinity -4.4711442
REMARK minimizedRMSD -1
REMARK  0 active torsions:
REMARK  status: ('A' for Active; 'I' for Inactive)
ROOT
ATOM      1  O1  BZF d   1      -1.273   0.293   1.050  0.00  0.00    -0.204 OA
ATOM      2  C2  BZF d   1      -1.005   1.478   0.393  0.00  0.00     0.174 A 
ATOM      3  C3  BZF d   1       0.198   1.427  -0.214  0.00  0.00    -0.012 A 
ATOM      4  C3A BZF d   1       0.674   0.096   0.005  0.00  0.00    -0.107 A 
ATOM      5  C4  BZF d   1       1.807  -0.570  -0.368  0.00  0.00     0.055 A 
ATOM      6  C5  BZF d   1       2.001  -1.841   0.071  0.00  0.00    -0.016 A 
ATOM      7  C6  BZF d   1       1.086  -2.475   0.887  0.00  0.00     0.022 A 
ATOM      8  C7  BZF d   1      -0.055  -1.858   1.279  0.00  0.00     0.029 A 
ATOM      9  C7A BZF d   1      -0.269  -0.584   0.810  0.00  0.00     0.058 A 
ENDROOT
TORSDOF 0
ENDMDL
