MODEL 1
REMARK minimizedAffinity -4.91028881
REMARK minimizedRMSD -1
REMARK  0 active torsions:
REMARK  status: ('A' for Active; 'I' for Inactive)
ROOT
ATOM      1  O1  BZF d   1      -0.852   0.184   0.049  0.00  0.00    -0.204 OA
ATOM      2  C2  BZF d   1       0.084   1.022  -0.524  0.00  0.00     0.174 A 
ATOM      3  C3  BZF d   1       1.335   0.592  -0.262  0.00  0.00    -0.012 A 
ATOM      4  C3A BZF d   1       1.169  -0.641   0.446  0.00  0.00    -0.107 A 
ATOM      5  C4  BZF d   1       2.044  -1.552   0.964  0.00  0.00     0.055 A 
ATOM      6  C5  BZF d   1       1.559  -2.612   1.661  0.00  0.00    -0.016 A 
ATOM      7  C6  BZF d   1       0.206  -2.790   1.864  0.00  0.00     0.022 A 
ATOM      8  C7  BZF d   1      -0.702  -1.915   1.365  0.00  0.00     0.029 A 
ATOM      9  C7A BZF d   1      -0.216  -0.860   0.632  0.00  0.00     0.058 A 
ENDROOT
TORSDOF 0
ENDMDL
