MODEL 1
REMARK minimizedAffinity -5.18074942
REMARK minimizedRMSD -1
REMARK  0 active torsions:
REMARK  status: ('A' for Active; 'I' for Inactive)
ROOT
ATOM      1  O1  BZF d   1      -1.159   0.494   0.646  0.00  0.00    -0.204 OA
ATOM      2  C2  BZF d   1      -0.433   0.847  -0.475  0.00  0.00     0.174 A 
ATOM      3  C3  BZF d   1       0.678   0.091  -0.583  0.00  0.00    -0.012 A 
ATOM      4  C3A BZF d   1       0.597  -0.852   0.491  0.00  0.00    -0.107 A 
ATOM      5  C4  BZF d   1       1.399  -1.878   0.901  0.00  0.00     0.055 A 
ATOM      6  C5  BZF d   1       1.073  -2.560   2.031  0.00  0.00    -0.016 A 
ATOM      7  C6  BZF d   1      -0.042  -2.239   2.776  0.00  0.00     0.022 A 
ATOM      8  C7  BZF d   1      -0.871  -1.232   2.406  0.00  0.00     0.029 A 
ATOM      9  C7A BZF d   1      -0.562  -0.563   1.247  0.00  0.00     0.058 A 
ENDROOT
TORSDOF 0
ENDMDL
