MODEL 1
REMARK minimizedAffinity -5.26564026
REMARK minimizedRMSD -1
REMARK  0 active torsions:
REMARK  status: ('A' for Active; 'I' for Inactive)
ROOT
ATOM      1  O1  BZF d   1      -0.579   0.493   0.309  0.00  0.00    -0.204 OA
ATOM      2  C2  BZF d   1       0.262   0.952  -0.687  0.00  0.00     0.174 A 
ATOM      3  C3  BZF d   1       1.366   0.182  -0.773  0.00  0.00    -0.012 A 
ATOM      4  C3A BZF d   1       1.162  -0.875   0.169  0.00  0.00    -0.107 A 
ATOM      5  C4  BZF d   1       1.902  -1.964   0.532  0.00  0.00     0.055 A 
ATOM      6  C5  BZF d   1       1.453  -2.762   1.537  0.00  0.00    -0.016 A 
ATOM      7  C6  BZF d   1       0.273  -2.498   2.202  0.00  0.00     0.022 A 
ATOM      8  C7  BZF d   1      -0.497  -1.432   1.873  0.00  0.00     0.029 A 
ATOM      9  C7A BZF d   1      -0.063  -0.643   0.836  0.00  0.00     0.058 A 
ENDROOT
TORSDOF 0
ENDMDL
