MODEL 1
REMARK minimizedAffinity -6.15711355
REMARK minimizedRMSD -1
REMARK  0 active torsions:
REMARK  status: ('A' for Active; 'I' for Inactive)
ROOT
ATOM      1  O1  BZF d   1      -0.750   0.333   0.479  0.00  0.00    -0.204 OA
ATOM      2  C2  BZF d   1       0.090   0.967  -0.417  0.00  0.00     0.174 A 
ATOM      3  C3  BZF d   1       1.299   0.370  -0.443  0.00  0.00    -0.012 A 
ATOM      4  C3A BZF d   1       1.180  -0.760   0.427  0.00  0.00    -0.107 A 
ATOM      5  C4  BZF d   1       2.042  -1.750   0.802  0.00  0.00     0.055 A 
ATOM      6  C5  BZF d   1       1.638  -2.663   1.725  0.00  0.00    -0.016 A 
ATOM      7  C6  BZF d   1       0.384  -2.611   2.296  0.00  0.00     0.022 A 
ATOM      8  C7  BZF d   1      -0.508  -1.650   1.952  0.00  0.00     0.029 A 
ATOM      9  C7A BZF d   1      -0.114  -0.746   0.995  0.00  0.00     0.058 A 
ENDROOT
TORSDOF 0
ENDMDL
