MODEL 1
REMARK minimizedAffinity -6.10848665
REMARK minimizedRMSD -1
REMARK  0 active torsions:
REMARK  status: ('A' for Active; 'I' for Inactive)
ROOT
ATOM      1  O1  BZF d   1      -0.685   0.576   0.913  0.00  0.00    -0.204 OA
ATOM      2  C2  BZF d   1       0.038   1.091  -0.145  0.00  0.00     0.174 A 
ATOM      3  C3  BZF d   1       1.069   0.280  -0.459  0.00  0.00    -0.012 A 
ATOM      4  C3A BZF d   1       0.931  -0.855   0.400  0.00  0.00    -0.107 A 
ATOM      5  C4  BZF d   1       1.644  -2.010   0.553  0.00  0.00     0.055 A 
ATOM      6  C5  BZF d   1       1.288  -2.882   1.533  0.00  0.00    -0.016 A 
ATOM      7  C6  BZF d   1       0.229  -2.628   2.381  0.00  0.00     0.022 A 
ATOM      8  C7  BZF d   1      -0.510  -1.498   2.265  0.00  0.00     0.029 A 
ATOM      9  C7A BZF d   1      -0.174  -0.631   1.254  0.00  0.00     0.058 A 
ENDROOT
TORSDOF 0
ENDMDL
