MODEL 1
REMARK minimizedAffinity -5.77375269
REMARK minimizedRMSD -1
REMARK  0 active torsions:
REMARK  status: ('A' for Active; 'I' for Inactive)
ROOT
ATOM      1  O1  BZF d   1      -0.857   0.262   0.205  0.00  0.00    -0.204 OA
ATOM      2  C2  BZF d   1      -0.107   0.865  -0.786  0.00  0.00     0.174 A 
ATOM      3  C3  BZF d   1       1.098   0.270  -0.902  0.00  0.00    -0.012 A 
ATOM      4  C3A BZF d   1       1.066  -0.828   0.014  0.00  0.00    -0.107 A 
ATOM      5  C4  BZF d   1       1.963  -1.803   0.343  0.00  0.00     0.055 A 
ATOM      6  C5  BZF d   1       1.651  -2.682   1.331  0.00  0.00    -0.016 A 
ATOM      7  C6  BZF d   1       0.454  -2.613   2.013  0.00  0.00     0.022 A 
ATOM      8  C7  BZF d   1      -0.470  -1.667   1.719  0.00  0.00     0.029 A 
ATOM      9  C7A BZF d   1      -0.171  -0.797   0.699  0.00  0.00     0.058 A 
ENDROOT
TORSDOF 0
ENDMDL
