MODEL 1
REMARK minimizedAffinity -5.48187542
REMARK minimizedRMSD -1
REMARK  0 active torsions:
REMARK  status: ('A' for Active; 'I' for Inactive)
ROOT
ATOM      1  O1  BZF d   1      -0.584   0.159   0.540  0.00  0.00    -0.204 OA
ATOM      2  C2  BZF d   1       0.239   0.579  -0.487  0.00  0.00     0.174 A 
ATOM      3  C3  BZF d   1       1.361  -0.168  -0.537  0.00  0.00    -0.012 A 
ATOM      4  C3A BZF d   1       1.189  -1.173   0.466  0.00  0.00    -0.107 A 
ATOM      5  C4  BZF d   1       1.958  -2.221   0.887  0.00  0.00     0.055 A 
ATOM      6  C5  BZF d   1       1.535  -2.969   1.939  0.00  0.00    -0.016 A 
ATOM      7  C6  BZF d   1       0.353  -2.695   2.597  0.00  0.00     0.022 A 
ATOM      8  C7  BZF d   1      -0.445  -1.669   2.213  0.00  0.00     0.029 A 
ATOM      9  C7A BZF d   1      -0.036  -0.932   1.129  0.00  0.00     0.058 A 
ENDROOT
TORSDOF 0
ENDMDL
