MODEL 1
REMARK minimizedAffinity 11.5403662
REMARK minimizedRMSD -1
REMARK  0 active torsions:
REMARK  status: ('A' for Active; 'I' for Inactive)
ROOT
ATOM      1  C   UNL d   1       3.210   2.634  -5.778  0.00  0.00     0.020 A 
ATOM      2  C1  UNL d   1       2.477   1.455  -5.900  0.00  0.00     0.020 A 
ATOM      3  C2  UNL d   1       1.857   0.898  -4.779  0.00  0.00     0.034 A 
ATOM      4  C3  UNL d   1       1.969   1.522  -3.531  0.00  0.00     0.017 A 
ATOM      5  C4  UNL d   1       2.705   2.706  -3.409  0.00  0.00     0.017 A 
ATOM      6  C5  UNL d   1       3.324   3.259  -4.535  0.00  0.00     0.034 A 
ATOM      7 Cl   UNL d   1       2.889   3.533  -1.902  0.00  0.00    -0.070 Cl
ATOM      8 Cl1  UNL d   1       1.177   0.778  -2.187  0.00  0.00    -0.070 Cl
ENDROOT
TORSDOF 0
ENDMDL
