MODEL 1
REMARK minimizedAffinity 9.75487041
REMARK minimizedRMSD -1
REMARK  0 active torsions:
REMARK  status: ('A' for Active; 'I' for Inactive)
ROOT
ATOM      1  C   UNL d   1       3.099   1.363  -4.885  0.00  0.00     0.020 A 
ATOM      2  C1  UNL d   1       1.750   1.682  -5.037  0.00  0.00     0.020 A 
ATOM      3  C2  UNL d   1       0.845   1.396  -4.012  0.00  0.00     0.034 A 
ATOM      4  C3  UNL d   1       1.288   0.788  -2.832  0.00  0.00     0.017 A 
ATOM      5  C4  UNL d   1       2.642   0.468  -2.680  0.00  0.00     0.017 A 
ATOM      6  C5  UNL d   1       3.544   0.757  -3.709  0.00  0.00     0.034 A 
ATOM      7 Cl   UNL d   1       3.263  -0.282  -1.252  0.00  0.00    -0.070 Cl
ATOM      8 Cl1  UNL d   1       0.114   0.463  -1.606  0.00  0.00    -0.070 Cl
ENDROOT
TORSDOF 0
ENDMDL
