MODEL 1
REMARK minimizedAffinity 11.5121565
REMARK minimizedRMSD -1
REMARK  0 active torsions:
REMARK  status: ('A' for Active; 'I' for Inactive)
ROOT
ATOM      1  C   UNL d   1       4.844   1.826   2.608  0.00  0.00     0.020 A 
ATOM      2  C1  UNL d   1       3.766   1.336   3.343  0.00  0.00     0.020 A 
ATOM      3  C2  UNL d   1       2.460   1.658   2.967  0.00  0.00     0.034 A 
ATOM      4  C3  UNL d   1       2.229   2.473   1.853  0.00  0.00     0.017 A 
ATOM      5  C4  UNL d   1       3.312   2.964   1.115  0.00  0.00     0.017 A 
ATOM      6  C5  UNL d   1       4.617   2.638   1.496  0.00  0.00     0.034 A 
ATOM      7 Cl   UNL d   1       3.106   3.974  -0.273  0.00  0.00    -0.070 Cl
ATOM      8 Cl1  UNL d   1       0.588   2.830   1.445  0.00  0.00    -0.070 Cl
ENDROOT
TORSDOF 0
ENDMDL
