MODEL 1
REMARK minimizedAffinity 6.21861839
REMARK minimizedRMSD -1
REMARK  0 active torsions:
REMARK  status: ('A' for Active; 'I' for Inactive)
ROOT
ATOM      1  C   UNL d   1       3.706   1.367   2.445  0.00  0.00     0.020 A 
ATOM      2  C1  UNL d   1       4.436   2.552   2.367  0.00  0.00     0.020 A 
ATOM      3  C2  UNL d   1       3.917   3.647   1.674  0.00  0.00     0.034 A 
ATOM      4  C3  UNL d   1       2.663   3.560   1.057  0.00  0.00     0.017 A 
ATOM      5  C4  UNL d   1       1.931   2.370   1.137  0.00  0.00     0.017 A 
ATOM      6  C5  UNL d   1       2.456   1.276   1.832  0.00  0.00     0.034 A 
ATOM      7 Cl   UNL d   1       0.377   2.187   0.402  0.00  0.00    -0.070 Cl
ATOM      8 Cl1  UNL d   1       2.082   4.954   0.218  0.00  0.00    -0.070 Cl
ENDROOT
TORSDOF 0
ENDMDL
