MODEL 1
REMARK minimizedAffinity 2.94313407
REMARK minimizedRMSD -1
REMARK  0 active torsions:
REMARK  status: ('A' for Active; 'I' for Inactive)
ROOT
ATOM      1  C   UNL d   1       5.763  -0.193   5.999  0.00  0.00     0.020 A 
ATOM      2  C1  UNL d   1       5.084  -1.043   5.126  0.00  0.00     0.020 A 
ATOM      3  C2  UNL d   1       4.643  -0.567   3.890  0.00  0.00     0.034 A 
ATOM      4  C3  UNL d   1       4.878   0.763   3.523  0.00  0.00     0.017 A 
ATOM      5  C4  UNL d   1       5.559   1.615   4.400  0.00  0.00     0.017 A 
ATOM      6  C5  UNL d   1       5.999   1.133   5.636  0.00  0.00     0.034 A 
ATOM      7 Cl   UNL d   1       5.888   3.269   4.017  0.00  0.00    -0.070 Cl
ATOM      8 Cl1  UNL d   1       4.304   1.284   1.979  0.00  0.00    -0.070 Cl
ENDROOT
TORSDOF 0
ENDMDL
