MODEL 1
REMARK minimizedAffinity -0.421888381
REMARK minimizedRMSD -1
REMARK  0 active torsions:
REMARK  status: ('A' for Active; 'I' for Inactive)
ROOT
ATOM      1  C   UNL d   1       2.824   2.952  -3.740  0.00  0.00     0.020 A 
ATOM      2  C1  UNL d   1       2.971   3.978  -2.807  0.00  0.00     0.020 A 
ATOM      3  C2  UNL d   1       2.362   3.875  -1.555  0.00  0.00     0.034 A 
ATOM      4  C3  UNL d   1       1.603   2.744  -1.232  0.00  0.00     0.017 A 
ATOM      5  C4  UNL d   1       1.456   1.715  -2.169  0.00  0.00     0.017 A 
ATOM      6  C5  UNL d   1       2.069   1.823  -3.422  0.00  0.00     0.034 A 
ATOM      7 Cl   UNL d   1       0.536   0.289  -1.844  0.00  0.00    -0.070 Cl
ATOM      8 Cl1  UNL d   1       0.879   2.683   0.335  0.00  0.00    -0.070 Cl
ENDROOT
TORSDOF 0
ENDMDL
