MODEL 1
REMARK minimizedAffinity 9.65306664
REMARK minimizedRMSD -1
REMARK  0 active torsions:
REMARK  status: ('A' for Active; 'I' for Inactive)
ROOT
ATOM      1  C   UNL d   1      -5.120  -2.124   4.631  0.00  0.00     0.020 A 
ATOM      2  C1  UNL d   1      -4.294  -3.071   4.026  0.00  0.00     0.020 A 
ATOM      3  C2  UNL d   1      -3.193  -2.658   3.273  0.00  0.00     0.034 A 
ATOM      4  C3  UNL d   1      -2.915  -1.294   3.123  0.00  0.00     0.017 A 
ATOM      5  C4  UNL d   1      -3.744  -0.344   3.730  0.00  0.00     0.017 A 
ATOM      6  C5  UNL d   1      -4.845  -0.763   4.484  0.00  0.00     0.034 A 
ATOM      7 Cl   UNL d   1      -3.464   1.355   3.590  0.00  0.00    -0.070 Cl
ATOM      8 Cl1  UNL d   1      -1.537  -0.855   2.177  0.00  0.00    -0.070 Cl
ENDROOT
TORSDOF 0
ENDMDL
