MODEL 1
REMARK minimizedAffinity 1.60837626
REMARK minimizedRMSD -1
REMARK  0 active torsions:
REMARK  status: ('A' for Active; 'I' for Inactive)
ROOT
ATOM      1  C   UNL d   1       5.798   2.597   5.944  0.00  0.00     0.020 A 
ATOM      2  C1  UNL d   1       5.275   3.178   4.790  0.00  0.00     0.020 A 
ATOM      3  C2  UNL d   1       4.953   2.380   3.691  0.00  0.00     0.034 A 
ATOM      4  C3  UNL d   1       5.153   0.996   3.743  0.00  0.00     0.017 A 
ATOM      5  C4  UNL d   1       5.679   0.413   4.902  0.00  0.00     0.017 A 
ATOM      6  C5  UNL d   1       5.999   1.217   6.000  0.00  0.00     0.034 A 
ATOM      7 Cl   UNL d   1       5.954  -1.288   5.041  0.00  0.00    -0.070 Cl
ATOM      8 Cl1  UNL d   1       4.732   0.070   2.346  0.00  0.00    -0.070 Cl
ENDROOT
TORSDOF 0
ENDMDL
