MODEL 1
REMARK minimizedAffinity 11.7302208
REMARK minimizedRMSD -1
REMARK  0 active torsions:
REMARK  status: ('A' for Active; 'I' for Inactive)
ROOT
ATOM      1  C   UNL d   1       1.611  -2.976  -0.816  0.00  0.00     0.020 A 
ATOM      2  C1  UNL d   1       0.715  -3.693  -0.024  0.00  0.00     0.020 A 
ATOM      3  C2  UNL d   1      -0.302  -3.024   0.659  0.00  0.00     0.034 A 
ATOM      4  C3  UNL d   1      -0.426  -1.634   0.552  0.00  0.00     0.017 A 
ATOM      5  C4  UNL d   1       0.473  -0.915  -0.244  0.00  0.00     0.017 A 
ATOM      6  C5  UNL d   1       1.490  -1.590  -0.926  0.00  0.00     0.034 A 
ATOM      7 Cl   UNL d   1       0.383   0.801  -0.426  0.00  0.00    -0.070 Cl
ATOM      8 Cl1  UNL d   1      -1.709  -0.872   1.424  0.00  0.00    -0.070 Cl
ENDROOT
TORSDOF 0
ENDMDL
