MODEL 1
REMARK minimizedAffinity 6.90190029
REMARK minimizedRMSD -1
REMARK  0 active torsions:
REMARK  status: ('A' for Active; 'I' for Inactive)
ROOT
ATOM      1  C   UNL d   1      -0.943  -2.324   0.439  0.00  0.00     0.020 A 
ATOM      2  C1  UNL d   1      -0.066  -3.362   0.131  0.00  0.00     0.020 A 
ATOM      3  C2  UNL d   1       1.034  -3.126  -0.697  0.00  0.00     0.034 A 
ATOM      4  C3  UNL d   1       1.258  -1.847  -1.220  0.00  0.00     0.017 A 
ATOM      5  C4  UNL d   1       0.377  -0.805  -0.910  0.00  0.00     0.017 A 
ATOM      6  C5  UNL d   1      -0.722  -1.048  -0.081  0.00  0.00     0.034 A 
ATOM      7 Cl   UNL d   1       0.589   0.800  -1.517  0.00  0.00    -0.070 Cl
ATOM      8 Cl1  UNL d   1       2.638  -1.626  -2.236  0.00  0.00    -0.070 Cl
ENDROOT
TORSDOF 0
ENDMDL
