MODEL 1
REMARK minimizedAffinity 2.55421686
REMARK minimizedRMSD -1
REMARK  0 active torsions:
REMARK  status: ('A' for Active; 'I' for Inactive)
ROOT
ATOM      1  C   UNL d   1      -1.359   0.193   0.037  0.00  0.00     0.020 A 
ATOM      2  C1  UNL d   1      -0.245   0.693  -0.637  0.00  0.00     0.020 A 
ATOM      3  C2  UNL d   1       0.744  -0.181  -1.095  0.00  0.00     0.034 A 
ATOM      4  C3  UNL d   1       0.621  -1.558  -0.879  0.00  0.00     0.017 A 
ATOM      5  C4  UNL d   1      -0.497  -2.059  -0.202  0.00  0.00     0.017 A 
ATOM      6  C5  UNL d   1      -1.484  -1.180   0.254  0.00  0.00     0.034 A 
ATOM      7 Cl   UNL d   1      -0.718  -3.746   0.102  0.00  0.00    -0.070 Cl
ATOM      8 Cl1  UNL d   1       1.882  -2.580  -1.473  0.00  0.00    -0.070 Cl
ENDROOT
TORSDOF 0
ENDMDL
