MODEL 1
REMARK minimizedAffinity 5.28829479
REMARK minimizedRMSD -1
REMARK  0 active torsions:
REMARK  status: ('A' for Active; 'I' for Inactive)
ROOT
ATOM      1  C   UNL d   1       1.550   0.196  -4.379  0.00  0.00     0.020 A 
ATOM      2  C1  UNL d   1       1.194  -0.612  -5.458  0.00  0.00     0.020 A 
ATOM      3  C2  UNL d   1       1.110  -1.996  -5.296  0.00  0.00     0.034 A 
ATOM      4  C3  UNL d   1       1.383  -2.578  -4.053  0.00  0.00     0.017 A 
ATOM      5  C4  UNL d   1       1.741  -1.766  -2.970  0.00  0.00     0.017 A 
ATOM      6  C5  UNL d   1       1.823  -0.380  -3.137  0.00  0.00     0.034 A 
ATOM      7 Cl   UNL d   1       2.093  -2.411  -1.405  0.00  0.00    -0.070 Cl
ATOM      8 Cl1  UNL d   1       1.259  -4.296  -3.925  0.00  0.00    -0.070 Cl
ENDROOT
TORSDOF 0
ENDMDL
