MODEL 1
REMARK minimizedAffinity 1.90795255
REMARK minimizedRMSD -1
REMARK  0 active torsions:
REMARK  status: ('A' for Active; 'I' for Inactive)
ROOT
ATOM      1  C   UNL d   1       1.057  -2.995  -0.134  0.00  0.00     0.020 A 
ATOM      2  C1  UNL d   1       0.124  -2.271   0.607  0.00  0.00     0.020 A 
ATOM      3  C2  UNL d   1      -0.228  -0.978   0.215  0.00  0.00     0.034 A 
ATOM      4  C3  UNL d   1       0.354  -0.404  -0.921  0.00  0.00     0.017 A 
ATOM      5  C4  UNL d   1       1.290  -1.132  -1.665  0.00  0.00     0.017 A 
ATOM      6  C5  UNL d   1       1.639  -2.426  -1.268  0.00  0.00     0.034 A 
ATOM      7 Cl   UNL d   1       2.050  -0.491  -3.079  0.00  0.00    -0.070 Cl
ATOM      8 Cl1  UNL d   1      -0.128   1.199  -1.348  0.00  0.00    -0.070 Cl
ENDROOT
TORSDOF 0
ENDMDL
