MODEL 1
REMARK minimizedAffinity 3.08834195
REMARK minimizedRMSD -1
REMARK  0 active torsions:
REMARK  status: ('A' for Active; 'I' for Inactive)
ROOT
ATOM      1  C   UNL d   1      -0.888  -2.483   0.393  0.00  0.00     0.020 A 
ATOM      2  C1  UNL d   1      -0.031  -3.409  -0.201  0.00  0.00     0.020 A 
ATOM      3  C2  UNL d   1       0.963  -2.975  -1.081  0.00  0.00     0.034 A 
ATOM      4  C3  UNL d   1       1.103  -1.613  -1.369  0.00  0.00     0.017 A 
ATOM      5  C4  UNL d   1       0.242  -0.685  -0.772  0.00  0.00     0.017 A 
ATOM      6  C5  UNL d   1      -0.751  -1.124   0.108  0.00  0.00     0.034 A 
ATOM      7 Cl   UNL d   1       0.353   1.013  -1.078  0.00  0.00    -0.070 Cl
ATOM      8 Cl1  UNL d   1       2.354  -1.147  -2.466  0.00  0.00    -0.070 Cl
ENDROOT
TORSDOF 0
ENDMDL
