MODEL 1
REMARK minimizedAffinity 0.832717419
REMARK minimizedRMSD -1
REMARK  0 active torsions:
REMARK  status: ('A' for Active; 'I' for Inactive)
ROOT
ATOM      1  C   UNL d   1       0.639  -1.766  -0.490  0.00  0.00     0.020 A 
ATOM      2  C1  UNL d   1       1.505  -2.048  -1.546  0.00  0.00     0.020 A 
ATOM      3  C2  UNL d   1       1.758  -1.079  -2.520  0.00  0.00     0.034 A 
ATOM      4  C3  UNL d   1       1.143   0.176  -2.440  0.00  0.00     0.017 A 
ATOM      5  C4  UNL d   1       0.273   0.457  -1.380  0.00  0.00     0.017 A 
ATOM      6  C5  UNL d   1       0.024  -0.516  -0.408  0.00  0.00     0.034 A 
ATOM      7 Cl   UNL d   1      -0.522   1.983  -1.215  0.00  0.00    -0.070 Cl
ATOM      8 Cl1  UNL d   1       1.501   1.326  -3.679  0.00  0.00    -0.070 Cl
ENDROOT
TORSDOF 0
ENDMDL
