MODEL 1
REMARK minimizedAffinity 10.8259439
REMARK minimizedRMSD -1
REMARK  0 active torsions:
REMARK  status: ('A' for Active; 'I' for Inactive)
ROOT
ATOM      1  C   UNL d   1       0.387  -2.492   0.282  0.00  0.00     0.020 A 
ATOM      2  C1  UNL d   1       0.718  -1.137   0.260  0.00  0.00     0.020 A 
ATOM      3  C2  UNL d   1       1.222  -0.560  -0.907  0.00  0.00     0.034 A 
ATOM      4  C3  UNL d   1       1.397  -1.338  -2.058  0.00  0.00     0.017 A 
ATOM      5  C4  UNL d   1       1.065  -2.697  -2.035  0.00  0.00     0.017 A 
ATOM      6  C5  UNL d   1       0.560  -3.270  -0.864  0.00  0.00     0.034 A 
ATOM      7 Cl   UNL d   1       1.253  -3.720  -3.415  0.00  0.00    -0.070 Cl
ATOM      8 Cl1  UNL d   1       2.025  -0.558  -3.467  0.00  0.00    -0.070 Cl
ENDROOT
TORSDOF 0
ENDMDL
