MODEL 1
REMARK minimizedAffinity -3.96092653
REMARK minimizedRMSD -1
REMARK  0 active torsions:
REMARK  status: ('A' for Active; 'I' for Inactive)
ROOT
ATOM      1  C   UNL d   1      -1.284  -0.765   1.626  0.00  0.00     0.023 A 
ATOM      2  C1  UNL d   1      -0.701   0.183   0.785  0.00  0.00     0.003 A 
ATOM      3  C2  UNL d   1      -0.274  -0.185  -0.493  0.00  0.00     0.048 A 
ATOM      4  C3  UNL d   1      -0.434  -1.501  -0.923  0.00  0.00     0.023 A 
ATOM      5  C4  UNL d   1      -1.018  -2.453  -0.085  0.00  0.00     0.048 A 
ATOM      6  C5  UNL d   1      -1.442  -2.081   1.192  0.00  0.00     0.003 A 
ATOM      7  I   UNL d   1       0.200  -2.051  -2.825  0.00  0.00    -0.146 I 
ENDROOT
TORSDOF 0
ENDMDL
