MODEL 1
REMARK minimizedAffinity -4.0989151
REMARK minimizedRMSD -1
REMARK  0 active torsions:
REMARK  status: ('A' for Active; 'I' for Inactive)
ROOT
ATOM      1  C   UNL d   1       1.933   3.431   0.403  0.00  0.00     0.023 A 
ATOM      2  C1  UNL d   1       0.549   3.573   0.299  0.00  0.00     0.003 A 
ATOM      3  C2  UNL d   1      -0.275   2.447   0.342  0.00  0.00     0.048 A 
ATOM      4  C3  UNL d   1       0.292   1.181   0.490  0.00  0.00     0.023 A 
ATOM      5  C4  UNL d   1       1.676   1.034   0.595  0.00  0.00     0.048 A 
ATOM      6  C5  UNL d   1       2.496   2.164   0.551  0.00  0.00     0.003 A 
ATOM      7  I   UNL d   1      -0.932  -0.497   0.555  0.00  0.00    -0.146 I 
ENDROOT
TORSDOF 0
ENDMDL
