MODEL 1
REMARK minimizedAffinity -1.52683222
REMARK minimizedRMSD -1
REMARK  0 active torsions:
REMARK  status: ('A' for Active; 'I' for Inactive)
ROOT
ATOM      1  C   UNL d   1      -1.010  -1.902  -0.060  0.00  0.00     0.023 A 
ATOM      2  C1  UNL d   1      -0.269  -1.307  -1.081  0.00  0.00     0.003 A 
ATOM      3  C2  UNL d   1       0.286  -0.039  -0.895  0.00  0.00     0.048 A 
ATOM      4  C3  UNL d   1       0.097   0.628   0.315  0.00  0.00     0.023 A 
ATOM      5  C4  UNL d   1      -0.643   0.036   1.340  0.00  0.00     0.048 A 
ATOM      6  C5  UNL d   1      -1.197  -1.232   1.149  0.00  0.00     0.003 A 
ATOM      7  I   UNL d   1       0.922   2.515   0.595  0.00  0.00    -0.146 I 
ENDROOT
TORSDOF 0
ENDMDL
