MODEL 1
REMARK minimizedAffinity -4.51815319
REMARK minimizedRMSD -1
REMARK  0 active torsions:
REMARK  status: ('A' for Active; 'I' for Inactive)
ROOT
ATOM      1  C   UNL d   1      -0.796  -2.709   0.655  0.00  0.00     0.023 A 
ATOM      2  C1  UNL d   1       0.432  -2.316   0.124  0.00  0.00     0.003 A 
ATOM      3  C2  UNL d   1       0.747  -0.960   0.017  0.00  0.00     0.048 A 
ATOM      4  C3  UNL d   1      -0.172  -0.001   0.444  0.00  0.00     0.023 A 
ATOM      5  C4  UNL d   1      -1.402  -0.390   0.977  0.00  0.00     0.048 A 
ATOM      6  C5  UNL d   1      -1.712  -1.747   1.081  0.00  0.00     0.003 A 
ATOM      7  I   UNL d   1       0.294   2.018   0.287  0.00  0.00    -0.146 I 
ENDROOT
TORSDOF 0
ENDMDL
