MODEL 1
REMARK minimizedAffinity -4.27708626
REMARK minimizedRMSD -1
REMARK  0 active torsions:
REMARK  status: ('A' for Active; 'I' for Inactive)
ROOT
ATOM      1  C   UNL d   1      -0.403  -3.259   0.452  0.00  0.00     0.023 A 
ATOM      2  C1  UNL d   1      -1.489  -2.440   0.763  0.00  0.00     0.003 A 
ATOM      3  C2  UNL d   1      -1.355  -1.051   0.713  0.00  0.00     0.048 A 
ATOM      4  C3  UNL d   1      -0.133  -0.487   0.349  0.00  0.00     0.023 A 
ATOM      5  C4  UNL d   1       0.956  -1.302   0.035  0.00  0.00     0.048 A 
ATOM      6  C5  UNL d   1       0.818  -2.691   0.088  0.00  0.00     0.003 A 
ATOM      7  I   UNL d   1       0.069   1.580   0.272  0.00  0.00    -0.146 I 
ENDROOT
TORSDOF 0
ENDMDL
