MODEL 1
REMARK minimizedAffinity -4.93392897
REMARK minimizedRMSD -1
REMARK  0 active torsions:
REMARK  status: ('A' for Active; 'I' for Inactive)
ROOT
ATOM      1  C   UNL d   1      -0.580  -3.426  -0.299  0.00  0.00     0.023 A 
ATOM      2  C1  UNL d   1      -1.138  -2.669   0.731  0.00  0.00     0.003 A 
ATOM      3  C2  UNL d   1      -1.018  -1.278   0.720  0.00  0.00     0.048 A 
ATOM      4  C3  UNL d   1      -0.339  -0.650  -0.324  0.00  0.00     0.023 A 
ATOM      5  C4  UNL d   1       0.220  -1.404  -1.357  0.00  0.00     0.048 A 
ATOM      6  C5  UNL d   1       0.098  -2.795  -1.342  0.00  0.00     0.003 A 
ATOM      7  I   UNL d   1      -0.159   1.420  -0.342  0.00  0.00    -0.146 I 
ENDROOT
TORSDOF 0
ENDMDL
