MODEL 1
REMARK minimizedAffinity -3.23849607
REMARK minimizedRMSD -1
REMARK  0 active torsions:
REMARK  status: ('A' for Active; 'I' for Inactive)
ROOT
ATOM      1  C   UNL d   1      -1.106   1.466   0.009  0.00  0.00     0.023 A 
ATOM      2  C1  UNL d   1      -0.265   0.943  -0.973  0.00  0.00     0.003 A 
ATOM      3  C2  UNL d   1       0.202  -0.369  -0.868  0.00  0.00     0.048 A 
ATOM      4  C3  UNL d   1      -0.178  -1.153   0.222  0.00  0.00     0.023 A 
ATOM      5  C4  UNL d   1      -1.020  -0.633   1.206  0.00  0.00     0.048 A 
ATOM      6  C5  UNL d   1      -1.484   0.679   1.097  0.00  0.00     0.003 A 
ATOM      7  I   UNL d   1       0.515  -3.106   0.381  0.00  0.00    -0.146 I 
ENDROOT
TORSDOF 0
ENDMDL
