MODEL 1
REMARK minimizedAffinity -4.22299337
REMARK minimizedRMSD -1
REMARK  0 active torsions:
REMARK  status: ('A' for Active; 'I' for Inactive)
ROOT
ATOM      1  C   UNL d   1      -0.347  -3.080   0.193  0.00  0.00     0.023 A 
ATOM      2  C1  UNL d   1       0.531  -2.501  -0.723  0.00  0.00     0.003 A 
ATOM      3  C2  UNL d   1       0.778  -1.127  -0.682  0.00  0.00     0.048 A 
ATOM      4  C3  UNL d   1       0.145  -0.339   0.279  0.00  0.00     0.023 A 
ATOM      5  C4  UNL d   1      -0.733  -0.914   1.198  0.00  0.00     0.048 A 
ATOM      6  C5  UNL d   1      -0.978  -2.288   1.152  0.00  0.00     0.003 A 
ATOM      7  I   UNL d   1       0.512   1.706   0.342  0.00  0.00    -0.146 I 
ENDROOT
TORSDOF 0
ENDMDL
