MODEL 1
REMARK minimizedAffinity -3.32749963
REMARK minimizedRMSD -1
REMARK  0 active torsions:
REMARK  status: ('A' for Active; 'I' for Inactive)
ROOT
ATOM      1  C   UNL d   1      -0.132  -3.597   0.593  0.00  0.00     0.023 A 
ATOM      2  C1  UNL d   1      -1.253  -2.794   0.805  0.00  0.00     0.003 A 
ATOM      3  C2  UNL d   1      -1.192  -1.424   0.542  0.00  0.00     0.048 A 
ATOM      4  C3  UNL d   1      -0.007  -0.863   0.067  0.00  0.00     0.023 A 
ATOM      5  C4  UNL d   1       1.117  -1.663  -0.147  0.00  0.00     0.048 A 
ATOM      6  C5  UNL d   1       1.051  -3.032   0.118  0.00  0.00     0.003 A 
ATOM      7  I   UNL d   1       0.087   1.176  -0.325  0.00  0.00    -0.146 I 
ENDROOT
TORSDOF 0
ENDMDL
