MODEL 1
REMARK minimizedAffinity -2.37406301
REMARK minimizedRMSD -1
REMARK  0 active torsions:
REMARK  status: ('A' for Active; 'I' for Inactive)
ROOT
ATOM      1  C   UNL d   1      -0.539  -3.054   0.756  0.00  0.00     0.023 A 
ATOM      2  C1  UNL d   1      -1.386  -2.045   1.215  0.00  0.00     0.003 A 
ATOM      3  C2  UNL d   1      -0.992  -0.708   1.127  0.00  0.00     0.048 A 
ATOM      4  C3  UNL d   1       0.249  -0.387   0.578  0.00  0.00     0.023 A 
ATOM      5  C4  UNL d   1       1.099  -1.394   0.118  0.00  0.00     0.048 A 
ATOM      6  C5  UNL d   1       0.702  -2.729   0.208  0.00  0.00     0.003 A 
ATOM      7  I   UNL d   1       0.837   1.602   0.446  0.00  0.00    -0.146 I 
ENDROOT
TORSDOF 0
ENDMDL
