MODEL 1
REMARK minimizedAffinity 1.64987695
REMARK minimizedRMSD -1
REMARK  0 active torsions:
REMARK  status: ('A' for Active; 'I' for Inactive)
ROOT
ATOM      1  C   UNL d   1      -0.883  -3.755   1.180  0.00  0.00     0.023 A 
ATOM      2  C1  UNL d   1       0.338  -3.095   1.037  0.00  0.00     0.003 A 
ATOM      3  C2  UNL d   1       0.366  -1.712   0.843  0.00  0.00     0.048 A 
ATOM      4  C3  UNL d   1      -0.829  -0.996   0.794  0.00  0.00     0.023 A 
ATOM      5  C4  UNL d   1      -2.053  -1.652   0.939  0.00  0.00     0.048 A 
ATOM      6  C5  UNL d   1      -2.076  -3.035   1.131  0.00  0.00     0.003 A 
ATOM      7  I   UNL d   1      -0.789   1.062   0.506  0.00  0.00    -0.146 I 
ENDROOT
TORSDOF 0
ENDMDL
