MODEL 1
REMARK minimizedAffinity -4.57996845
REMARK minimizedRMSD -1
REMARK  0 active torsions:
REMARK  status: ('A' for Active; 'I' for Inactive)
ROOT
ATOM      1  C   UNL d   1      -0.538  -3.280   0.444  0.00  0.00     0.023 A 
ATOM      2  C1  UNL d   1       0.646  -2.724  -0.041  0.00  0.00     0.003 A 
ATOM      3  C2  UNL d   1       0.806  -1.337  -0.074  0.00  0.00     0.048 A 
ATOM      4  C3  UNL d   1      -0.222  -0.512   0.380  0.00  0.00     0.023 A 
ATOM      5  C4  UNL d   1      -1.408  -1.063   0.868  0.00  0.00     0.048 A 
ATOM      6  C5  UNL d   1      -1.564  -2.450   0.898  0.00  0.00     0.003 A 
ATOM      7  I   UNL d   1       0.014   1.553   0.332  0.00  0.00    -0.146 I 
ENDROOT
TORSDOF 0
ENDMDL
