MODEL 1
REMARK minimizedAffinity -4.27403545
REMARK minimizedRMSD -1
REMARK  0 active torsions:
REMARK  status: ('A' for Active; 'I' for Inactive)
ROOT
ATOM      1  C   UNL d   1      -0.399   0.998  -0.831  0.00  0.00     0.023 A 
ATOM      2  C1  UNL d   1      -0.973   0.512   0.343  0.00  0.00     0.003 A 
ATOM      3  C2  UNL d   1      -1.048  -0.864   0.569  0.00  0.00     0.048 A 
ATOM      4  C3  UNL d   1      -0.544  -1.749  -0.384  0.00  0.00     0.023 A 
ATOM      5  C4  UNL d   1       0.032  -1.267  -1.561  0.00  0.00     0.048 A 
ATOM      6  C5  UNL d   1       0.104   0.109  -1.782  0.00  0.00     0.003 A 
ATOM      7  I   UNL d   1      -0.654  -3.797  -0.051  0.00  0.00    -0.146 I 
ENDROOT
TORSDOF 0
ENDMDL
