MODEL 1
REMARK minimizedAffinity -4.86889601
REMARK minimizedRMSD -1
REMARK  0 active torsions:
REMARK  status: ('A' for Active; 'I' for Inactive)
ROOT
ATOM      1  C   UNL d   1       0.247  -3.699  -1.350  0.00  0.00     0.023 A 
ATOM      2  C1  UNL d   1      -0.057  -3.326  -0.040  0.00  0.00     0.003 A 
ATOM      3  C2  UNL d   1      -0.124  -1.974   0.304  0.00  0.00     0.048 A 
ATOM      4  C3  UNL d   1       0.112  -1.001  -0.666  0.00  0.00     0.023 A 
ATOM      5  C4  UNL d   1       0.415  -1.369  -1.977  0.00  0.00     0.048 A 
ATOM      6  C5  UNL d   1       0.483  -2.722  -2.317  0.00  0.00     0.003 A 
ATOM      7  I   UNL d   1       0.012   1.011  -0.155  0.00  0.00    -0.146 I 
ENDROOT
TORSDOF 0
ENDMDL
