MODEL 1
REMARK minimizedAffinity -5.43997335
REMARK minimizedRMSD -1
REMARK  0 active torsions:
REMARK  status: ('A' for Active; 'I' for Inactive)
ROOT
ATOM      1  N1  IND d   1       0.829  -0.005   0.118  0.00  0.00    -0.196 N 
ATOM      2  C2  IND d   1      -0.363   0.222  -0.510  0.00  0.00     0.054 A 
ATOM      3  C3  IND d   1      -1.298   0.618   0.382  0.00  0.00    -0.031 A 
ATOM      4  C4  IND d   1      -1.065   1.058   2.908  0.00  0.00     0.051 A 
ATOM      5  C5  IND d   1      -0.177   0.955   3.942  0.00  0.00    -0.031 A 
ATOM      6  C6  IND d   1       1.119   0.520   3.750  0.00  0.00     0.015 A 
ATOM      7  C7  IND d   1       1.580   0.181   2.509  0.00  0.00    -0.016 A 
ATOM      8  C8  IND d   1       0.679   0.278   1.458  0.00  0.00    -0.047 A 
ATOM      9  C9  IND d   1      -0.649   0.679   1.654  0.00  0.00    -0.096 A 
ATOM     10  HN1 IND d   1       1.551  -0.280  -0.259  0.00  0.00     0.298 HD
ENDROOT
TORSDOF 0
ENDMDL
