MODEL 1
REMARK minimizedAffinity -5.94385386
REMARK minimizedRMSD -1
REMARK  0 active torsions:
REMARK  status: ('A' for Active; 'I' for Inactive)
ROOT
ATOM      1  N1  IND d   1       0.922  -0.735   0.093  0.00  0.00    -0.196 N 
ATOM      2  C2  IND d   1      -0.257  -0.718  -0.599  0.00  0.00     0.054 A 
ATOM      3  C3  IND d   1      -1.234  -0.158   0.149  0.00  0.00    -0.031 A 
ATOM      4  C4  IND d   1      -1.097   0.890   2.497  0.00  0.00     0.051 A 
ATOM      5  C5  IND d   1      -0.240   1.078   3.545  0.00  0.00    -0.031 A 
ATOM      6  C6  IND d   1       1.076   0.664   3.493  0.00  0.00     0.015 A 
ATOM      7  C7  IND d   1       1.588   0.056   2.383  0.00  0.00    -0.016 A 
ATOM      8  C8  IND d   1       0.719  -0.142   1.320  0.00  0.00    -0.047 A 
ATOM      9  C9  IND d   1      -0.628   0.236   1.382  0.00  0.00    -0.096 A 
ATOM     10  HN1 IND d   1       1.665  -1.062  -0.191  0.00  0.00     0.298 HD
ENDROOT
TORSDOF 0
ENDMDL
