MODEL 1
REMARK minimizedAffinity -3.95153236
REMARK minimizedRMSD -1
REMARK  0 active torsions:
REMARK  status: ('A' for Active; 'I' for Inactive)
ROOT
ATOM      1  N1  IND d   1       1.110  -1.349  -1.323  0.00  0.00    -0.196 N 
ATOM      2  C2  IND d   1      -0.098  -0.999  -1.858  0.00  0.00     0.054 A 
ATOM      3  C3  IND d   1      -0.789  -0.222  -0.993  0.00  0.00    -0.031 A 
ATOM      4  C4  IND d   1      -0.087   0.680   1.313  0.00  0.00     0.051 A 
ATOM      5  C5  IND d   1       0.912   0.601   2.242  0.00  0.00    -0.031 A 
ATOM      6  C6  IND d   1       2.053  -0.144   2.025  0.00  0.00     0.015 A 
ATOM      7  C7  IND d   1       2.242  -0.833   0.861  0.00  0.00    -0.016 A 
ATOM      8  C8  IND d   1       1.226  -0.761  -0.082  0.00  0.00    -0.047 A 
ATOM      9  C9  IND d   1       0.048  -0.041   0.150  0.00  0.00    -0.096 A 
ATOM     10  HN1 IND d   1       1.698  -1.853  -1.697  0.00  0.00     0.298 HD
ENDROOT
TORSDOF 0
ENDMDL
