MODEL 1
REMARK minimizedAffinity -4.65945148
REMARK minimizedRMSD -1
REMARK  0 active torsions:
REMARK  status: ('A' for Active; 'I' for Inactive)
ROOT
ATOM      1  N1  IND d   1       1.558  -1.241  -0.271  0.00  0.00    -0.196 N 
ATOM      2  C2  IND d   1       0.678  -1.120  -1.310  0.00  0.00     0.054 A 
ATOM      3  C3  IND d   1      -0.382  -0.364  -0.942  0.00  0.00    -0.031 A 
ATOM      4  C4  IND d   1      -0.826   0.858   1.280  0.00  0.00     0.051 A 
ATOM      5  C5  IND d   1      -0.325   1.015   2.541  0.00  0.00    -0.031 A 
ATOM      6  C6  IND d   1       0.854   0.419   2.937  0.00  0.00     0.015 A 
ATOM      7  C7  IND d   1       1.586  -0.352   2.079  0.00  0.00    -0.016 A 
ATOM      8  C8  IND d   1       1.077  -0.519   0.799  0.00  0.00    -0.047 A 
ATOM      9  C9  IND d   1      -0.141   0.049   0.404  0.00  0.00    -0.096 A 
ATOM     10  HN1 IND d   1       2.290  -1.692  -0.284  0.00  0.00     0.298 HD
ENDROOT
TORSDOF 0
ENDMDL
