MODEL 1
REMARK minimizedAffinity -5.75179815
REMARK minimizedRMSD -1
REMARK  0 active torsions:
REMARK  status: ('A' for Active; 'I' for Inactive)
ROOT
ATOM      1  N1  IND d   1      -1.431  -0.671  -0.486  0.00  0.00    -0.196 N 
ATOM      2  C2  IND d   1      -0.237  -1.070  -1.019  0.00  0.00     0.054 A 
ATOM      3  C3  IND d   1       0.791  -0.557  -0.307  0.00  0.00    -0.031 A 
ATOM      4  C4  IND d   1       0.745   0.879   1.830  0.00  0.00     0.051 A 
ATOM      5  C5  IND d   1      -0.113   1.528   2.672  0.00  0.00    -0.031 A 
ATOM      6  C6  IND d   1      -1.481   1.475   2.504  0.00  0.00     0.015 A 
ATOM      7  C7  IND d   1      -2.046   0.757   1.488  0.00  0.00    -0.016 A 
ATOM      8  C8  IND d   1      -1.178   0.102   0.626  0.00  0.00    -0.047 A 
ATOM      9  C9  IND d   1       0.213   0.187   0.767  0.00  0.00    -0.096 A 
ATOM     10  HN1 IND d   1      -2.209  -0.870  -0.793  0.00  0.00     0.298 HD
ENDROOT
TORSDOF 0
ENDMDL
