MODEL 1
REMARK minimizedAffinity -5.301373
REMARK minimizedRMSD -1
REMARK  0 active torsions:
REMARK  status: ('A' for Active; 'I' for Inactive)
ROOT
ATOM      1  N1  IND d   1       1.242  -0.923  -0.395  0.00  0.00    -0.196 N 
ATOM      2  C2  IND d   1       0.231  -1.289  -1.240  0.00  0.00     0.054 A 
ATOM      3  C3  IND d   1      -0.951  -0.805  -0.796  0.00  0.00    -0.031 A 
ATOM      4  C4  IND d   1      -1.444   0.696   1.237  0.00  0.00     0.051 A 
ATOM      5  C5  IND d   1      -0.847   1.262   2.328  0.00  0.00    -0.031 A 
ATOM      6  C6  IND d   1       0.505   1.129   2.570  0.00  0.00     0.015 A 
ATOM      7  C7  IND d   1       1.315   0.430   1.721  0.00  0.00    -0.016 A 
ATOM      8  C8  IND d   1       0.711  -0.152   0.616  0.00  0.00    -0.047 A 
ATOM      9  C9  IND d   1      -0.668  -0.056   0.387  0.00  0.00    -0.096 A 
ATOM     10  HN1 IND d   1       2.070  -1.138  -0.481  0.00  0.00     0.298 HD
ENDROOT
TORSDOF 0
ENDMDL
