MODEL 1
REMARK minimizedAffinity -1.3075645
REMARK minimizedRMSD -1
REMARK  0 active torsions:
REMARK  status: ('A' for Active; 'I' for Inactive)
ROOT
ATOM      1  N1  IND d   1       0.494   1.528   2.039  0.00  0.00    -0.196 N 
ATOM      2  C2  IND d   1      -0.713   1.574   2.680  0.00  0.00     0.054 A 
ATOM      3  C3  IND d   1      -1.645   0.891   1.978  0.00  0.00    -0.031 A 
ATOM      4  C4  IND d   1      -1.388  -0.463  -0.196  0.00  0.00     0.051 A 
ATOM      5  C5  IND d   1      -0.484  -0.769  -1.174  0.00  0.00    -0.031 A 
ATOM      6  C6  IND d   1       0.819  -0.319  -1.129  0.00  0.00     0.015 A 
ATOM      7  C7  IND d   1       1.272   0.449  -0.093  0.00  0.00    -0.016 A 
ATOM      8  C8  IND d   1       0.355   0.768   0.898  0.00  0.00    -0.047 A 
ATOM      9  C9  IND d   1      -0.980   0.349   0.836  0.00  0.00    -0.096 A 
ATOM     10  HN1 IND d   1       1.218   1.909   2.303  0.00  0.00     0.298 HD
ENDROOT
TORSDOF 0
ENDMDL
