MODEL 1
REMARK minimizedAffinity -4.73250771
REMARK minimizedRMSD -1
REMARK  0 active torsions:
REMARK  status: ('A' for Active; 'I' for Inactive)
ROOT
ATOM      1  N1  IND d   1       0.890  -0.757  -0.271  0.00  0.00    -0.196 N 
ATOM      2  C2  IND d   1      -0.159  -1.112  -1.073  0.00  0.00     0.054 A 
ATOM      3  C3  IND d   1      -1.328  -0.719  -0.520  0.00  0.00    -0.031 A 
ATOM      4  C4  IND d   1      -1.749   0.610   1.645  0.00  0.00     0.051 A 
ATOM      5  C5  IND d   1      -1.104   1.127   2.733  0.00  0.00    -0.031 A 
ATOM      6  C6  IND d   1       0.266   1.043   2.878  0.00  0.00     0.015 A 
ATOM      7  C7  IND d   1       1.047   0.447   1.929  0.00  0.00    -0.016 A 
ATOM      8  C8  IND d   1       0.395  -0.086   0.826  0.00  0.00    -0.047 A 
ATOM      9  C9  IND d   1      -0.999  -0.042   0.694  0.00  0.00    -0.096 A 
ATOM     10  HN1 IND d   1       1.719  -0.925  -0.425  0.00  0.00     0.298 HD
ENDROOT
TORSDOF 0
ENDMDL
