MODEL 1
REMARK minimizedAffinity -0.148815542
REMARK minimizedRMSD -1
REMARK  0 active torsions:
REMARK  status: ('A' for Active; 'I' for Inactive)
ROOT
ATOM      1  O1  BZF d   1       0.132  -0.663  -1.720  0.00  0.00    -0.204 OA
ATOM      2  C2  BZF d   1       0.650  -1.512  -0.761  0.00  0.00     0.174 A 
ATOM      3  C3  BZF d   1       0.435  -1.023   0.477  0.00  0.00    -0.012 A 
ATOM      4  C3A BZF d   1      -0.343   0.162   0.283  0.00  0.00    -0.107 A 
ATOM      5  C4  BZF d   1      -0.883   1.081   1.138  0.00  0.00     0.055 A 
ATOM      6  C5  BZF d   1      -1.525   2.163   0.624  0.00  0.00    -0.016 A 
ATOM      7  C6  BZF d   1      -1.641   2.361  -0.736  0.00  0.00     0.022 A 
ATOM      8  C7  BZF d   1      -1.126   1.474  -1.623  0.00  0.00     0.029 A 
ATOM      9  C7A BZF d   1      -0.505   0.363  -1.107  0.00  0.00     0.058 A 
ENDROOT
TORSDOF 0
ENDMDL
