MODEL 1
REMARK minimizedAffinity -1.8734802
REMARK minimizedRMSD -1
REMARK  0 active torsions:
REMARK  status: ('A' for Active; 'I' for Inactive)
ROOT
ATOM      1  O1  BZF d   1      -0.489   1.601   2.579  0.00  0.00    -0.204 OA
ATOM      2  C2  BZF d   1      -1.134   2.731   2.113  0.00  0.00     0.174 A 
ATOM      3  C3  BZF d   1      -1.152   2.750   0.764  0.00  0.00    -0.012 A 
ATOM      4  C3A BZF d   1      -0.557   1.512   0.363  0.00  0.00    -0.107 A 
ATOM      5  C4  BZF d   1      -0.306   0.942  -0.852  0.00  0.00     0.055 A 
ATOM      6  C5  BZF d   1       0.355  -0.245  -0.901  0.00  0.00    -0.016 A 
ATOM      7  C6  BZF d   1       0.783  -0.885   0.243  0.00  0.00     0.022 A 
ATOM      8  C7  BZF d   1       0.552  -0.361   1.472  0.00  0.00     0.029 A 
ATOM      9  C7A BZF d   1      -0.144   0.822   1.526  0.00  0.00     0.058 A 
ENDROOT
TORSDOF 0
ENDMDL
