MODEL 1
REMARK minimizedAffinity -4.61330223
REMARK minimizedRMSD -1
REMARK  0 active torsions:
REMARK  status: ('A' for Active; 'I' for Inactive)
ROOT
ATOM      1  O1  BZF d   1      -1.366   0.392  -0.750  0.00  0.00    -0.204 OA
ATOM      2  C2  BZF d   1      -0.657  -0.761  -1.026  0.00  0.00     0.174 A 
ATOM      3  C3  BZF d   1       0.183  -1.061  -0.014  0.00  0.00    -0.012 A 
ATOM      4  C3A BZF d   1      -0.081  -0.082   0.996  0.00  0.00    -0.107 A 
ATOM      5  C4  BZF d   1       0.425   0.138   2.245  0.00  0.00     0.055 A 
ATOM      6  C5  BZF d   1       0.006   1.225   2.945  0.00  0.00    -0.016 A 
ATOM      7  C6  BZF d   1      -0.913   2.113   2.426  0.00  0.00     0.022 A 
ATOM      8  C7  BZF d   1      -1.447   1.934   1.194  0.00  0.00     0.029 A 
ATOM      9  C7A BZF d   1      -1.050   0.819   0.496  0.00  0.00     0.058 A 
ENDROOT
TORSDOF 0
ENDMDL
