MODEL 1
REMARK minimizedAffinity -3.70687509
REMARK minimizedRMSD -1
REMARK  0 active torsions:
REMARK  status: ('A' for Active; 'I' for Inactive)
ROOT
ATOM      1  O1  BZF d   1       0.106   1.033  -1.712  0.00  0.00    -0.204 OA
ATOM      2  C2  BZF d   1       1.053   0.034  -1.828  0.00  0.00     0.174 A 
ATOM      3  C3  BZF d   1       1.323  -0.511  -0.625  0.00  0.00    -0.012 A 
ATOM      4  C3A BZF d   1       0.425   0.128   0.288  0.00  0.00    -0.107 A 
ATOM      5  C4  BZF d   1       0.202   0.001   1.629  0.00  0.00     0.055 A 
ATOM      6  C5  BZF d   1      -0.696   0.825   2.230  0.00  0.00    -0.016 A 
ATOM      7  C6  BZF d   1      -1.382   1.790   1.523  0.00  0.00     0.022 A 
ATOM      8  C7  BZF d   1      -1.198   1.951   0.190  0.00  0.00     0.029 A 
ATOM      9  C7A BZF d   1      -0.316   1.098  -0.427  0.00  0.00     0.058 A 
ENDROOT
TORSDOF 0
ENDMDL
