MODEL 1
REMARK minimizedAffinity -0.808135092
REMARK minimizedRMSD -1
REMARK  0 active torsions:
REMARK  status: ('A' for Active; 'I' for Inactive)
ROOT
ATOM      1  O1  BZF d   1       0.284   1.817   2.521  0.00  0.00    -0.204 OA
ATOM      2  C2  BZF d   1      -0.316   2.896   1.902  0.00  0.00     0.174 A 
ATOM      3  C3  BZF d   1      -0.567   2.624   0.605  0.00  0.00    -0.012 A 
ATOM      4  C3A BZF d   1      -0.178   1.259   0.424  0.00  0.00    -0.107 A 
ATOM      5  C4  BZF d   1      -0.201   0.410  -0.645  0.00  0.00     0.055 A 
ATOM      6  C5  BZF d   1       0.320  -0.837  -0.509  0.00  0.00    -0.016 A 
ATOM      7  C6  BZF d   1       0.875  -1.267   0.678  0.00  0.00     0.022 A 
ATOM      8  C7  BZF d   1       0.916  -0.462   1.768  0.00  0.00     0.029 A 
ATOM      9  C7A BZF d   1       0.361   0.788   1.643  0.00  0.00     0.058 A 
ENDROOT
TORSDOF 0
ENDMDL
