MODEL 1
REMARK minimizedAffinity -1.92963791
REMARK minimizedRMSD -1
REMARK  0 active torsions:
REMARK  status: ('A' for Active; 'I' for Inactive)
ROOT
ATOM      1  O1  BZF d   1       0.499  -3.621  -1.442  0.00  0.00    -0.204 OA
ATOM      2  C2  BZF d   1      -0.709  -4.289  -1.393  0.00  0.00     0.174 A 
ATOM      3  C3  BZF d   1      -1.647  -3.539  -0.779  0.00  0.00    -0.012 A 
ATOM      4  C3A BZF d   1      -1.008  -2.289  -0.504  0.00  0.00    -0.107 A 
ATOM      5  C4  BZF d   1      -1.428  -1.128   0.080  0.00  0.00     0.055 A 
ATOM      6  C5  BZF d   1      -0.535  -0.120   0.263  0.00  0.00    -0.016 A 
ATOM      7  C6  BZF d   1       0.784  -0.240  -0.120  0.00  0.00     0.022 A 
ATOM      8  C7  BZF d   1       1.247  -1.371  -0.707  0.00  0.00     0.029 A 
ATOM      9  C7A BZF d   1       0.340  -2.379  -0.924  0.00  0.00     0.058 A 
ENDROOT
TORSDOF 0
ENDMDL
