MODEL 1
REMARK minimizedAffinity -5.41605902
REMARK minimizedRMSD -1
REMARK  0 active torsions:
REMARK  status: ('A' for Active; 'I' for Inactive)
ROOT
ATOM      1  O1  BZF d   1      -0.729   1.920   2.099  0.00  0.00    -0.204 OA
ATOM      2  C2  BZF d   1      -1.473   2.660   1.201  0.00  0.00     0.174 A 
ATOM      3  C3  BZF d   1      -1.239   2.253  -0.064  0.00  0.00    -0.012 A 
ATOM      4  C3A BZF d   1      -0.359   1.131   0.059  0.00  0.00    -0.107 A 
ATOM      5  C4  BZF d   1       0.219   0.288  -0.847  0.00  0.00     0.055 A 
ATOM      6  C5  BZF d   1       1.086  -0.661  -0.406  0.00  0.00    -0.016 A 
ATOM      7  C6  BZF d   1       1.402  -0.791   0.931  0.00  0.00     0.022 A 
ATOM      8  C7  BZF d   1       0.849   0.019   1.867  0.00  0.00     0.029 A 
ATOM      9  C7A BZF d   1      -0.052   0.957   1.428  0.00  0.00     0.058 A 
ENDROOT
TORSDOF 0
ENDMDL
