MODEL 1
REMARK minimizedAffinity -2.89078045
REMARK minimizedRMSD -1
REMARK  0 active torsions:
REMARK  status: ('A' for Active; 'I' for Inactive)
ROOT
ATOM      1  O1  BZF d   1      -1.482   1.033   1.760  0.00  0.00    -0.204 OA
ATOM      2  C2  BZF d   1      -0.424   1.542   2.489  0.00  0.00     0.174 A 
ATOM      3  C3  BZF d   1       0.752   1.111   1.989  0.00  0.00    -0.012 A 
ATOM      4  C3A BZF d   1       0.412   0.357   0.822  0.00  0.00    -0.107 A 
ATOM      5  C4  BZF d   1       1.150  -0.312  -0.112  0.00  0.00     0.055 A 
ATOM      6  C5  BZF d   1       0.508  -1.009  -1.086  0.00  0.00    -0.016 A 
ATOM      7  C6  BZF d   1      -0.869  -1.063  -1.153  0.00  0.00     0.022 A 
ATOM      8  C7  BZF d   1      -1.644  -0.412  -0.251  0.00  0.00     0.029 A 
ATOM      9  C7A BZF d   1      -0.998   0.320   0.715  0.00  0.00     0.058 A 
ENDROOT
TORSDOF 0
ENDMDL
