MODEL 1
REMARK minimizedAffinity -2.44917822
REMARK minimizedRMSD -1
REMARK  0 active torsions:
REMARK  status: ('A' for Active; 'I' for Inactive)
ROOT
ATOM      1  O1  BZF d   1       1.982   0.520   2.072  0.00  0.00    -0.204 OA
ATOM      2  C2  BZF d   1       1.085   1.502   2.444  0.00  0.00     0.174 A 
ATOM      3  C3  BZF d   1       0.169   1.705   1.474  0.00  0.00    -0.012 A 
ATOM      4  C3A BZF d   1       0.461   0.727   0.471  0.00  0.00    -0.107 A 
ATOM      5  C4  BZF d   1      -0.110   0.416  -0.730  0.00  0.00     0.055 A 
ATOM      6  C5  BZF d   1       0.461  -0.545  -1.503  0.00  0.00    -0.016 A 
ATOM      7  C6  BZF d   1       1.604  -1.210  -1.109  0.00  0.00     0.022 A 
ATOM      8  C7  BZF d   1       2.203  -0.939   0.076  0.00  0.00     0.029 A 
ATOM      9  C7A BZF d   1       1.610   0.009   0.874  0.00  0.00     0.058 A 
ENDROOT
TORSDOF 0
ENDMDL
