MODEL 1
REMARK minimizedAffinity -1.18474364
REMARK minimizedRMSD -1
REMARK  0 active torsions:
REMARK  status: ('A' for Active; 'I' for Inactive)
ROOT
ATOM      1  O1  BZF d   1       0.529   1.270   2.134  0.00  0.00    -0.204 OA
ATOM      2  C2  BZF d   1      -0.717   1.668   2.579  0.00  0.00     0.174 A 
ATOM      3  C3  BZF d   1      -1.679   1.285   1.715  0.00  0.00    -0.012 A 
ATOM      4  C3A BZF d   1      -1.001   0.524   0.711  0.00  0.00    -0.107 A 
ATOM      5  C4  BZF d   1      -1.419  -0.136  -0.409  0.00  0.00     0.055 A 
ATOM      6  C5  BZF d   1      -0.494  -0.719  -1.216  0.00  0.00    -0.016 A 
ATOM      7  C6  BZF d   1       0.855  -0.657  -0.937  0.00  0.00     0.022 A 
ATOM      8  C7  BZF d   1       1.318  -0.018   0.165  0.00  0.00     0.029 A 
ATOM      9  C7A BZF d   1       0.383   0.544   1.000  0.00  0.00     0.058 A 
ENDROOT
TORSDOF 0
ENDMDL
