MODEL 1
REMARK minimizedAffinity -3.88275194
REMARK minimizedRMSD -1
REMARK  0 active torsions:
REMARK  status: ('A' for Active; 'I' for Inactive)
ROOT
ATOM      1  O1  BZF d   1       0.049   1.408  -1.482  0.00  0.00    -0.204 OA
ATOM      2  C2  BZF d   1       0.392   0.087  -1.695  0.00  0.00     0.174 A 
ATOM      3  C3  BZF d   1       0.120  -0.660  -0.605  0.00  0.00    -0.012 A 
ATOM      4  C3A BZF d   1      -0.514   0.234   0.315  0.00  0.00    -0.107 A 
ATOM      5  C4  BZF d   1      -1.031   0.079   1.569  0.00  0.00     0.055 A 
ATOM      6  C5  BZF d   1      -1.512   1.168   2.225  0.00  0.00    -0.016 A 
ATOM      7  C6  BZF d   1      -1.488   2.425   1.658  0.00  0.00     0.022 A 
ATOM      8  C7  BZF d   1      -0.990   2.628   0.414  0.00  0.00     0.029 A 
ATOM      9  C7A BZF d   1      -0.533   1.524  -0.263  0.00  0.00     0.058 A 
ENDROOT
TORSDOF 0
ENDMDL
