MODEL 1
REMARK minimizedAffinity -2.41726613
REMARK minimizedRMSD -1
REMARK  0 active torsions:
REMARK  status: ('A' for Active; 'I' for Inactive)
ROOT
ATOM      1  O1  BZF d   1       1.043   0.940  -0.278  0.00  0.00    -0.204 OA
ATOM      2  C2  BZF d   1       0.541  -0.253   0.206  0.00  0.00     0.174 A 
ATOM      3  C3  BZF d   1       0.289  -1.110  -0.804  0.00  0.00    -0.012 A 
ATOM      4  C3A BZF d   1       0.742  -0.444  -1.986  0.00  0.00    -0.107 A 
ATOM      5  C4  BZF d   1       0.774  -0.792  -3.306  0.00  0.00     0.055 A 
ATOM      6  C5  BZF d   1       1.212   0.116  -4.218  0.00  0.00    -0.016 A 
ATOM      7  C6  BZF d   1       1.619   1.380  -3.846  0.00  0.00     0.022 A 
ATOM      8  C7  BZF d   1       1.610   1.770  -2.548  0.00  0.00     0.029 A 
ATOM      9  C7A BZF d   1       1.199   0.844  -1.620  0.00  0.00     0.058 A 
ENDROOT
TORSDOF 0
ENDMDL
