MODEL 1
REMARK minimizedAffinity -4.680861
REMARK minimizedRMSD -1
REMARK  0 active torsions:
REMARK  status: ('A' for Active; 'I' for Inactive)
ROOT
ATOM      1  O1  BZF d   1      -1.897   0.749   0.725  0.00  0.00    -0.204 OA
ATOM      2  C2  BZF d   1      -1.595   1.495   1.848  0.00  0.00     0.174 A 
ATOM      3  C3  BZF d   1      -0.317   1.292   2.228  0.00  0.00    -0.012 A 
ATOM      4  C3A BZF d   1       0.240   0.432   1.229  0.00  0.00    -0.107 A 
ATOM      5  C4  BZF d   1       1.479  -0.113   1.044  0.00  0.00     0.055 A 
ATOM      6  C5  BZF d   1       1.676  -0.969   0.007  0.00  0.00    -0.016 A 
ATOM      7  C6  BZF d   1       0.657  -1.306  -0.860  0.00  0.00     0.022 A 
ATOM      8  C7  BZF d   1      -0.588  -0.788  -0.719  0.00  0.00     0.029 A 
ATOM      9  C7A BZF d   1      -0.781   0.104   0.308  0.00  0.00     0.058 A 
ENDROOT
TORSDOF 0
ENDMDL
