MODEL 1
REMARK minimizedAffinity -3.9929409
REMARK minimizedRMSD -1
REMARK  0 active torsions:
REMARK  status: ('A' for Active; 'I' for Inactive)
ROOT
ATOM      1  O1  BZF d   1       0.790   0.008  -0.355  0.00  0.00    -0.204 OA
ATOM      2  C2  BZF d   1      -0.194  -0.616  -1.097  0.00  0.00     0.174 A 
ATOM      3  C3  BZF d   1      -1.357  -0.654  -0.414  0.00  0.00    -0.012 A 
ATOM      4  C3A BZF d   1      -1.106   0.067   0.795  0.00  0.00    -0.107 A 
ATOM      5  C4  BZF d   1      -1.880   0.388   1.874  0.00  0.00     0.055 A 
ATOM      6  C5  BZF d   1      -1.312   1.040   2.923  0.00  0.00    -0.016 A 
ATOM      7  C6  BZF d   1       0.024   1.381   2.929  0.00  0.00     0.022 A 
ATOM      8  C7  BZF d   1       0.830   1.089   1.879  0.00  0.00     0.029 A 
ATOM      9  C7A BZF d   1       0.252   0.459   0.804  0.00  0.00     0.058 A 
ENDROOT
TORSDOF 0
ENDMDL
