MODEL 1
REMARK minimizedAffinity 0.935272634
REMARK minimizedRMSD -1
REMARK  0 active torsions:
REMARK  status: ('A' for Active; 'I' for Inactive)
ROOT
ATOM      1  O1  BZF d   1       1.652  -0.371   1.591  0.00  0.00    -0.204 OA
ATOM      2  C2  BZF d   1       2.113  -0.968   0.434  0.00  0.00     0.174 A 
ATOM      3  C3  BZF d   1       1.143  -1.007  -0.503  0.00  0.00    -0.012 A 
ATOM      4  C3A BZF d   1       0.034  -0.312   0.075  0.00  0.00    -0.107 A 
ATOM      5  C4  BZF d   1      -1.218  -0.004  -0.375  0.00  0.00     0.055 A 
ATOM      6  C5  BZF d   1      -2.086   0.620   0.464  0.00  0.00    -0.016 A 
ATOM      7  C6  BZF d   1      -1.738   0.945   1.758  0.00  0.00     0.022 A 
ATOM      8  C7  BZF d   1      -0.506   0.665   2.248  0.00  0.00     0.029 A 
ATOM      9  C7A BZF d   1       0.385   0.064   1.392  0.00  0.00     0.058 A 
ENDROOT
TORSDOF 0
ENDMDL
