MODEL 1
REMARK minimizedAffinity -2.27627611
REMARK minimizedRMSD -1
REMARK  0 active torsions:
REMARK  status: ('A' for Active; 'I' for Inactive)
ROOT
ATOM      1  O1  BZF d   1      -1.952   1.038   2.840  0.00  0.00    -0.204 OA
ATOM      2  C2  BZF d   1      -1.153   1.913   3.550  0.00  0.00     0.174 A 
ATOM      3  C3  BZF d   1      -0.077   2.276   2.823  0.00  0.00    -0.012 A 
ATOM      4  C3A BZF d   1      -0.260   1.657   1.546  0.00  0.00    -0.107 A 
ATOM      5  C4  BZF d   1       0.468   1.656   0.390  0.00  0.00     0.055 A 
ATOM      6  C5  BZF d   1       0.051   0.890  -0.652  0.00  0.00    -0.016 A 
ATOM      7  C6  BZF d   1      -1.083   0.110  -0.571  0.00  0.00     0.022 A 
ATOM      8  C7  BZF d   1      -1.840   0.081   0.553  0.00  0.00     0.029 A 
ATOM      9  C7A BZF d   1      -1.440   0.880   1.596  0.00  0.00     0.058 A 
ENDROOT
TORSDOF 0
ENDMDL
