MODEL 1
REMARK minimizedAffinity -2.88003659
REMARK minimizedRMSD -1
REMARK  1 active torsions:
REMARK  status: ('A' for Active; 'I' for Inactive)
REMARK    1  A    between atoms: C3_4  and  O_7 
ROOT
ATOM      1  C   UNL d   1      -5.544  -3.638  -5.249  0.00  0.00    -0.033 A 
ATOM      2  C1  UNL d   1      -5.398  -4.807  -5.998  0.00  0.00     0.039 A 
ATOM      3  C2  UNL d   1      -4.181  -5.493  -5.996  0.00  0.00    -0.080 A 
ATOM      4  C3  UNL d   1      -3.121  -5.000  -5.240  0.00  0.00     0.150 A 
ATOM      5  C4  UNL d   1      -3.261  -3.839  -4.488  0.00  0.00    -0.007 A 
ATOM      6  C5  UNL d   1      -4.476  -3.155  -4.492  0.00  0.00     0.039 A 
ENDROOT
BRANCH   4   7
ATOM      7  O   UNL d   1      -1.914  -5.632  -5.210  0.00  0.00    -0.526 OA
ATOM      8  H5  UNL d   1      -1.955  -6.404  -5.800  0.00  0.00     0.418 HD
ENDBRANCH   4   7
TORSDOF 1
ENDMDL
