MODEL 1
REMARK minimizedAffinity -2.33302808
REMARK minimizedRMSD -1
REMARK  1 active torsions:
REMARK  status: ('A' for Active; 'I' for Inactive)
REMARK    1  A    between atoms: C3_4  and  O_7 
ROOT
ATOM      1  C   UNL d   1      -4.123  -4.320  -5.345  0.00  0.00    -0.033 A 
ATOM      2  C1  UNL d   1      -3.981  -5.418  -4.495  0.00  0.00     0.039 A 
ATOM      3  C2  UNL d   1      -2.725  -5.996  -4.300  0.00  0.00    -0.080 A 
ATOM      4  C3  UNL d   1      -1.620  -5.466  -4.961  0.00  0.00     0.150 A 
ATOM      5  C4  UNL d   1      -1.753  -4.370  -5.806  0.00  0.00    -0.007 A 
ATOM      6  C5  UNL d   1      -3.008  -3.795  -5.999  0.00  0.00     0.039 A 
ENDROOT
BRANCH   4   7
ATOM      7  O   UNL d   1      -0.375  -5.999  -4.806  0.00  0.00    -0.526 OA
ATOM      8  H5  UNL d   1      -0.440  -6.769  -4.216  0.00  0.00     0.418 HD
ENDBRANCH   4   7
TORSDOF 1
ENDMDL
