MODEL 1
REMARK minimizedAffinity -2.72442484
REMARK minimizedRMSD -1
REMARK  1 active torsions:
REMARK  status: ('A' for Active; 'I' for Inactive)
REMARK    1  A    between atoms: C3_4  and  O_7 
ROOT
ATOM      1  C   UNL d   1      -5.585  -4.537  -6.000  0.00  0.00    -0.033 A 
ATOM      2  C1  UNL d   1      -4.794  -3.386  -5.982  0.00  0.00     0.039 A 
ATOM      3  C2  UNL d   1      -3.403  -3.494  -5.928  0.00  0.00    -0.080 A 
ATOM      4  C3  UNL d   1      -2.817  -4.756  -5.893  0.00  0.00     0.150 A 
ATOM      5  C4  UNL d   1      -3.598  -5.906  -5.915  0.00  0.00    -0.007 A 
ATOM      6  C5  UNL d   1      -4.987  -5.797  -5.968  0.00  0.00     0.039 A 
ENDROOT
BRANCH   4   7
ATOM      7  O   UNL d   1      -1.463  -4.911  -5.835  0.00  0.00    -0.526 OA
ATOM      8  H5  UNL d   1      -1.054  -4.031  -5.798  0.00  0.00     0.418 HD
ENDBRANCH   4   7
TORSDOF 1
ENDMDL
