MODEL 1
REMARK minimizedAffinity -2.99059272
REMARK minimizedRMSD -1
REMARK  1 active torsions:
REMARK  status: ('A' for Active; 'I' for Inactive)
REMARK    1  A    between atoms: C3_4  and  O_7 
ROOT
ATOM      1  C   UNL d   1      -4.951  -4.133  -4.804  0.00  0.00    -0.033 A 
ATOM      2  C1  UNL d   1      -4.338  -4.528  -5.995  0.00  0.00     0.039 A 
ATOM      3  C2  UNL d   1      -2.992  -4.897  -6.000  0.00  0.00    -0.080 A 
ATOM      4  C3  UNL d   1      -2.270  -4.867  -4.810  0.00  0.00     0.150 A 
ATOM      5  C4  UNL d   1      -2.875  -4.477  -3.619  0.00  0.00    -0.007 A 
ATOM      6  C5  UNL d   1      -4.220  -4.108  -3.616  0.00  0.00     0.039 A 
ENDROOT
BRANCH   4   7
ATOM      7  O   UNL d   1      -0.953  -5.213  -4.766  0.00  0.00    -0.526 OA
ATOM      8  H5  UNL d   1      -0.662  -5.432  -5.667  0.00  0.00     0.418 HD
ENDBRANCH   4   7
TORSDOF 1
ENDMDL
