MODEL 1
REMARK minimizedAffinity -0.302848905
REMARK minimizedRMSD -1
REMARK  1 active torsions:
REMARK  status: ('A' for Active; 'I' for Inactive)
REMARK    1  A    between atoms: C3_4  and  O_7 
ROOT
ATOM      1  C   UNL d   1      -1.374  -5.999  -4.993  0.00  0.00    -0.033 A 
ATOM      2  C1  UNL d   1      -1.635  -5.068  -6.000  0.00  0.00     0.039 A 
ATOM      3  C2  UNL d   1      -2.665  -4.139  -5.843  0.00  0.00    -0.080 A 
ATOM      4  C3  UNL d   1      -3.424  -4.150  -4.676  0.00  0.00     0.150 A 
ATOM      5  C4  UNL d   1      -3.166  -5.072  -3.667  0.00  0.00    -0.007 A 
ATOM      6  C5  UNL d   1      -2.138  -6.000  -3.826  0.00  0.00     0.039 A 
ENDROOT
BRANCH   4   7
ATOM      7  O   UNL d   1      -4.442  -3.265  -4.480  0.00  0.00    -0.526 OA
ATOM      8  H5  UNL d   1      -4.523  -2.708  -5.273  0.00  0.00     0.418 HD
ENDBRANCH   4   7
TORSDOF 1
ENDMDL
