MODEL 1
REMARK minimizedAffinity -1.73743808
REMARK minimizedRMSD -1
REMARK  1 active torsions:
REMARK  status: ('A' for Active; 'I' for Inactive)
REMARK    1  A    between atoms: C3_4  and  O_7 
ROOT
ATOM      1  C   UNL d   1      -5.942  -4.370  -5.463  0.00  0.00    -0.033 A 
ATOM      2  C1  UNL d   1      -5.569  -5.604  -6.000  0.00  0.00     0.039 A 
ATOM      3  C2  UNL d   1      -4.230  -6.000  -5.979  0.00  0.00    -0.080 A 
ATOM      4  C3  UNL d   1      -3.276  -5.155  -5.419  0.00  0.00     0.150 A 
ATOM      5  C4  UNL d   1      -3.642  -3.926  -4.879  0.00  0.00    -0.007 A 
ATOM      6  C5  UNL d   1      -4.979  -3.532  -4.902  0.00  0.00     0.039 A 
ENDROOT
BRANCH   4   7
ATOM      7  O   UNL d   1      -1.957  -5.496  -5.380  0.00  0.00    -0.526 OA
ATOM      8  H5  UNL d   1      -1.849  -6.358  -5.814  0.00  0.00     0.418 HD
ENDBRANCH   4   7
TORSDOF 1
ENDMDL
