MODEL 1
REMARK minimizedAffinity 3.12271333
REMARK minimizedRMSD -1
REMARK  1 active torsions:
REMARK  status: ('A' for Active; 'I' for Inactive)
REMARK    1  A    between atoms: C3_4  and  O_7 
ROOT
ATOM      1  C   UNL d   1      -5.998  -3.725  -4.358  0.00  0.00    -0.033 A 
ATOM      2  C1  UNL d   1      -5.576  -3.872  -5.681  0.00  0.00     0.039 A 
ATOM      3  C2  UNL d   1      -4.221  -3.760  -5.999  0.00  0.00    -0.080 A 
ATOM      4  C3  UNL d   1      -3.300  -3.501  -4.987  0.00  0.00     0.150 A 
ATOM      5  C4  UNL d   1      -3.714  -3.357  -3.667  0.00  0.00    -0.007 A 
ATOM      6  C5  UNL d   1      -5.068  -3.469  -3.351  0.00  0.00     0.039 A 
ENDROOT
BRANCH   4   7
ATOM      7  O   UNL d   1      -1.968  -3.378  -5.250  0.00  0.00    -0.526 OA
ATOM      8  H5  UNL d   1      -1.833  -3.473  -6.207  0.00  0.00     0.418 HD
ENDBRANCH   4   7
TORSDOF 1
ENDMDL
