MODEL 1
REMARK minimizedAffinity -2.85587692
REMARK minimizedRMSD -1
REMARK  1 active torsions:
REMARK  status: ('A' for Active; 'I' for Inactive)
REMARK    1  A    between atoms: C3_4  and  O_7 
ROOT
ATOM      1  C   UNL d   1      -5.984  -4.534  -5.331  0.00  0.00    -0.033 A 
ATOM      2  C1  UNL d   1      -5.464  -5.648  -5.994  0.00  0.00     0.039 A 
ATOM      3  C2  UNL d   1      -4.111  -5.968  -5.867  0.00  0.00    -0.080 A 
ATOM      4  C3  UNL d   1      -3.290  -5.170  -5.075  0.00  0.00     0.150 A 
ATOM      5  C4  UNL d   1      -3.803  -4.061  -4.409  0.00  0.00    -0.007 A 
ATOM      6  C5  UNL d   1      -5.154  -3.742  -4.537  0.00  0.00     0.039 A 
ENDROOT
BRANCH   4   7
ATOM      7  O   UNL d   1      -1.963  -5.440  -4.925  0.00  0.00    -0.526 OA
ATOM      8  H5  UNL d   1      -1.744  -6.217  -5.466  0.00  0.00     0.418 HD
ENDBRANCH   4   7
TORSDOF 1
ENDMDL
