MODEL 1
REMARK minimizedAffinity -0.611925185
REMARK minimizedRMSD -1
REMARK  1 active torsions:
REMARK  status: ('A' for Active; 'I' for Inactive)
REMARK    1  A    between atoms: C3_4  and  O_7 
ROOT
ATOM      1  C   UNL d   1      -2.678  -5.871  -5.137  0.00  0.00    -0.033 A 
ATOM      2  C1  UNL d   1      -3.769  -5.998  -6.000  0.00  0.00     0.039 A 
ATOM      3  C2  UNL d   1      -4.835  -5.100  -5.917  0.00  0.00    -0.080 A 
ATOM      4  C3  UNL d   1      -4.797  -4.080  -4.970  0.00  0.00     0.150 A 
ATOM      5  C4  UNL d   1      -3.712  -3.946  -4.110  0.00  0.00    -0.007 A 
ATOM      6  C5  UNL d   1      -2.649  -4.844  -4.193  0.00  0.00     0.039 A 
ENDROOT
BRANCH   4   7
ATOM      7  O   UNL d   1      -5.816  -3.183  -4.849  0.00  0.00    -0.526 OA
ATOM      8  H5  UNL d   1      -6.510  -3.416  -5.488  0.00  0.00     0.418 HD
ENDBRANCH   4   7
TORSDOF 1
ENDMDL
