MODEL 1
REMARK minimizedAffinity -3.27592945
REMARK minimizedRMSD -1
REMARK  1 active torsions:
REMARK  status: ('A' for Active; 'I' for Inactive)
REMARK    1  A    between atoms: C3_4  and  O_7 
ROOT
ATOM      1  C   UNL d   1      -4.872  -4.894  -5.230  0.00  0.00    -0.033 A 
ATOM      2  C1  UNL d   1      -4.315  -4.258  -4.119  0.00  0.00     0.039 A 
ATOM      3  C2  UNL d   1      -2.983  -4.492  -3.773  0.00  0.00    -0.080 A 
ATOM      4  C3  UNL d   1      -2.219  -5.362  -4.546  0.00  0.00     0.150 A 
ATOM      5  C4  UNL d   1      -2.767  -5.996  -5.656  0.00  0.00    -0.007 A 
ATOM      6  C5  UNL d   1      -4.097  -5.762  -6.000  0.00  0.00     0.039 A 
ENDROOT
BRANCH   4   7
ATOM      7  O   UNL d   1      -0.916  -5.626  -4.245  0.00  0.00    -0.526 OA
ATOM      8  H5  UNL d   1      -0.683  -5.140  -3.436  0.00  0.00     0.418 HD
ENDBRANCH   4   7
TORSDOF 1
ENDMDL
