MODEL 1
REMARK minimizedAffinity -4.7916007
REMARK minimizedRMSD -1
REMARK  0 active torsions:
REMARK  status: ('A' for Active; 'I' for Inactive)
ROOT
ATOM      1  C1  BNZ d   1      -1.151  -0.471   1.169  0.00  0.00     0.000 A 
ATOM      2  C2  BNZ d   1      -0.589  -0.980   2.310  0.00  0.00     0.000 A 
ATOM      3  C3  BNZ d   1       0.741  -0.809   2.571  0.00  0.00     0.000 A 
ATOM      4  C4  BNZ d   1       1.516  -0.165   1.674  0.00  0.00     0.000 A 
ATOM      5  C5  BNZ d   1       0.966   0.346   0.515  0.00  0.00     0.000 A 
ATOM      6  C6  BNZ d   1      -0.382   0.206   0.274  0.00  0.00     0.000 A 
ENDROOT
TORSDOF 0
ENDMDL
