MODEL 1
REMARK minimizedAffinity -3.64992309
REMARK minimizedRMSD -1
REMARK  0 active torsions:
REMARK  status: ('A' for Active; 'I' for Inactive)
ROOT
ATOM      1  C1  BNZ d   1       0.670  -0.358   2.405  0.00  0.00     0.000 A 
ATOM      2  C2  BNZ d   1       1.356  -0.202   1.230  0.00  0.00     0.000 A 
ATOM      3  C3  BNZ d   1       0.702  -0.227   0.030  0.00  0.00     0.000 A 
ATOM      4  C4  BNZ d   1      -0.628  -0.448   0.004  0.00  0.00     0.000 A 
ATOM      5  C5  BNZ d   1      -1.332  -0.617   1.179  0.00  0.00     0.000 A 
ATOM      6  C6  BNZ d   1      -0.677  -0.551   2.388  0.00  0.00     0.000 A 
ENDROOT
TORSDOF 0
ENDMDL
