MODEL 1
REMARK minimizedAffinity -4.33300066
REMARK minimizedRMSD -1
REMARK  0 active torsions:
REMARK  status: ('A' for Active; 'I' for Inactive)
ROOT
ATOM      1  C1  BNZ d   1       0.364   0.469  -0.056  0.00  0.00     0.000 A 
ATOM      2  C2  BNZ d   1       1.237   0.422   0.998  0.00  0.00     0.000 A 
ATOM      3  C3  BNZ d   1       0.982  -0.368   2.084  0.00  0.00     0.000 A 
ATOM      4  C4  BNZ d   1      -0.163  -1.078   2.133  0.00  0.00     0.000 A 
ATOM      5  C5  BNZ d   1      -1.058  -1.035   1.082  0.00  0.00     0.000 A 
ATOM      6  C6  BNZ d   1      -0.779  -0.269  -0.026  0.00  0.00     0.000 A 
ENDROOT
TORSDOF 0
ENDMDL
