MODEL 1
REMARK minimizedAffinity -3.99995065
REMARK minimizedRMSD -1
REMARK  0 active torsions:
REMARK  status: ('A' for Active; 'I' for Inactive)
ROOT
ATOM      1  C1  BNZ d   1       1.586  -0.652   1.428  0.00  0.00     0.000 A 
ATOM      2  C2  BNZ d   1       1.071  -0.408   0.183  0.00  0.00     0.000 A 
ATOM      3  C3  BNZ d   1      -0.278  -0.296  -0.007  0.00  0.00     0.000 A 
ATOM      4  C4  BNZ d   1      -1.111  -0.466   1.040  0.00  0.00     0.000 A 
ATOM      5  C5  BNZ d   1      -0.607  -0.721   2.300  0.00  0.00     0.000 A 
ATOM      6  C6  BNZ d   1       0.753  -0.796   2.494  0.00  0.00     0.000 A 
ENDROOT
TORSDOF 0
ENDMDL
