MODEL 1
REMARK minimizedAffinity -5.01625586
REMARK minimizedRMSD -1
REMARK  0 active torsions:
REMARK  status: ('A' for Active; 'I' for Inactive)
ROOT
ATOM      1  C1  BNZ d   1       2.124  -2.047   1.055  0.00  0.00     0.000 A 
ATOM      2  C2  BNZ d   1       1.600  -1.473  -0.073  0.00  0.00     0.000 A 
ATOM      3  C3  BNZ d   1       0.478  -0.697  -0.006  0.00  0.00     0.000 A 
ATOM      4  C4  BNZ d   1      -0.142  -0.527   1.180  0.00  0.00     0.000 A 
ATOM      5  C5  BNZ d   1       0.369  -1.106   2.324  0.00  0.00     0.000 A 
ATOM      6  C6  BNZ d   1       1.521  -1.856   2.260  0.00  0.00     0.000 A 
ENDROOT
TORSDOF 0
ENDMDL
