MODEL 1
REMARK minimizedAffinity -3.26033592
REMARK minimizedRMSD -1
REMARK  0 active torsions:
REMARK  status: ('A' for Active; 'I' for Inactive)
ROOT
ATOM      1  C1  BNZ d   1       1.508  -2.262   2.195  0.00  0.00     0.000 A 
ATOM      2  C2  BNZ d   1       0.432  -1.424   2.321  0.00  0.00     0.000 A 
ATOM      3  C3  BNZ d   1      -0.078  -0.771   1.234  0.00  0.00     0.000 A 
ATOM      4  C4  BNZ d   1       0.512  -0.924   0.031  0.00  0.00     0.000 A 
ATOM      5  C5  BNZ d   1       1.604  -1.758  -0.111  0.00  0.00     0.000 A 
ATOM      6  C6  BNZ d   1       2.090  -2.444   0.978  0.00  0.00     0.000 A 
ENDROOT
TORSDOF 0
ENDMDL
