MODEL 1
REMARK minimizedAffinity -3.07757235
REMARK minimizedRMSD -1
REMARK  0 active torsions:
REMARK  status: ('A' for Active; 'I' for Inactive)
ROOT
ATOM      1  C1  BNZ d   1       0.325  -0.107  -0.629  0.00  0.00     0.000 A 
ATOM      2  C2  BNZ d   1      -0.980  -0.505  -0.508  0.00  0.00     0.000 A 
ATOM      3  C3  BNZ d   1      -1.466  -0.953   0.689  0.00  0.00     0.000 A 
ATOM      4  C4  BNZ d   1      -0.639  -1.039   1.750  0.00  0.00     0.000 A 
ATOM      5  C5  BNZ d   1       0.682  -0.650   1.641  0.00  0.00     0.000 A 
ATOM      6  C6  BNZ d   1       1.158  -0.163   0.445  0.00  0.00     0.000 A 
ENDROOT
TORSDOF 0
ENDMDL
