MODEL 1
REMARK minimizedAffinity 15.3559246
REMARK minimizedRMSD -1
REMARK  0 active torsions:
REMARK  status: ('A' for Active; 'I' for Inactive)
ROOT
ATOM      1  C   UNL d   1       1.807  -5.589   2.203  0.00  0.00     0.078 C 
ATOM      2  C1  UNL d   1       0.912  -4.418   1.928  0.00  0.00    -0.077 A 
ATOM      3  C2  UNL d   1       1.425  -3.117   1.870  0.00  0.00    -0.001 A 
ATOM      4  C3  UNL d   1       0.578  -2.034   1.623  0.00  0.00     0.003 A 
ATOM      5  C4  UNL d   1      -0.786  -2.243   1.434  0.00  0.00    -0.005 A 
ATOM      6  C5  UNL d   1      -1.307  -3.534   1.493  0.00  0.00     0.003 A 
ATOM      7  C6  UNL d   1      -0.462  -4.617   1.739  0.00  0.00    -0.001 A 
ENDROOT
TORSDOF 0
ENDMDL
