MODEL 1
REMARK minimizedAffinity 8.68760872
REMARK minimizedRMSD -1
REMARK  0 active torsions:
REMARK  status: ('A' for Active; 'I' for Inactive)
ROOT
ATOM      1  C   UNL d   1       0.297  -4.486   2.220  0.00  0.00     0.078 C 
ATOM      2  C1  UNL d   1       0.989  -3.266   1.689  0.00  0.00    -0.077 A 
ATOM      3  C2  UNL d   1       1.847  -3.347   0.585  0.00  0.00    -0.001 A 
ATOM      4  C3  UNL d   1       2.492  -2.205   0.108  0.00  0.00     0.003 A 
ATOM      5  C4  UNL d   1       2.286  -0.974   0.728  0.00  0.00    -0.005 A 
ATOM      6  C5  UNL d   1       1.435  -0.884   1.827  0.00  0.00     0.003 A 
ATOM      7  C6  UNL d   1       0.789  -2.025   2.306  0.00  0.00    -0.001 A 
ENDROOT
TORSDOF 0
ENDMDL
