MODEL 1
REMARK minimizedAffinity 7.72839785
REMARK minimizedRMSD -1
REMARK  0 active torsions:
REMARK  status: ('A' for Active; 'I' for Inactive)
ROOT
ATOM      1  C   UNL d   1       1.827  -1.536   1.332  0.00  0.00     0.078 C 
ATOM      2  C1  UNL d   1       1.127  -2.859   1.416  0.00  0.00    -0.077 A 
ATOM      3  C2  UNL d   1      -0.261  -2.952   1.256  0.00  0.00    -0.001 A 
ATOM      4  C3  UNL d   1      -0.900  -4.190   1.347  0.00  0.00     0.003 A 
ATOM      5  C4  UNL d   1      -0.160  -5.343   1.599  0.00  0.00    -0.005 A 
ATOM      6  C5  UNL d   1       1.221  -5.260   1.762  0.00  0.00     0.003 A 
ATOM      7  C6  UNL d   1       1.863  -4.023   1.672  0.00  0.00    -0.001 A 
ENDROOT
TORSDOF 0
ENDMDL
