MODEL 1
REMARK minimizedAffinity 1.88898206
REMARK minimizedRMSD -1
REMARK  0 active torsions:
REMARK  status: ('A' for Active; 'I' for Inactive)
ROOT
ATOM      1  C   UNL d   1      -5.786  -3.250   6.000  0.00  0.00     0.078 C 
ATOM      2  C1  UNL d   1      -5.365  -4.052   4.805  0.00  0.00    -0.077 A 
ATOM      3  C2  UNL d   1      -6.000  -5.259   4.486  0.00  0.00    -0.001 A 
ATOM      4  C3  UNL d   1      -5.591  -5.999   3.376  0.00  0.00     0.003 A 
ATOM      5  C4  UNL d   1      -4.544  -5.543   2.577  0.00  0.00    -0.005 A 
ATOM      6  C5  UNL d   1      -3.905  -4.344   2.888  0.00  0.00     0.003 A 
ATOM      7  C6  UNL d   1      -4.313  -3.602   3.997  0.00  0.00    -0.001 A 
ENDROOT
TORSDOF 0
ENDMDL
