MODEL 1
REMARK minimizedAffinity 11.4389868
REMARK minimizedRMSD -1
REMARK  0 active torsions:
REMARK  status: ('A' for Active; 'I' for Inactive)
ROOT
ATOM      1  C   UNL d   1       1.160  -4.336  -0.038  0.00  0.00     0.078 C 
ATOM      2  C1  UNL d   1       1.510  -2.951   0.418  0.00  0.00    -0.077 A 
ATOM      3  C2  UNL d   1       2.755  -2.386   0.118  0.00  0.00    -0.001 A 
ATOM      4  C3  UNL d   1       3.071  -1.100   0.557  0.00  0.00     0.003 A 
ATOM      5  C4  UNL d   1       2.147  -0.367   1.299  0.00  0.00    -0.005 A 
ATOM      6  C5  UNL d   1       0.905  -0.922   1.604  0.00  0.00     0.003 A 
ATOM      7  C6  UNL d   1       0.588  -2.208   1.166  0.00  0.00    -0.001 A 
ENDROOT
TORSDOF 0
ENDMDL
