MODEL 1
REMARK minimizedAffinity 6.56579876
REMARK minimizedRMSD -1
REMARK  0 active torsions:
REMARK  status: ('A' for Active; 'I' for Inactive)
ROOT
ATOM      1  C   UNL d   1      -1.483   6.000  -5.999  0.00  0.00     0.078 C 
ATOM      2  C1  UNL d   1      -1.909   5.053  -4.917  0.00  0.00    -0.077 A 
ATOM      3  C2  UNL d   1      -1.922   5.451  -3.575  0.00  0.00    -0.001 A 
ATOM      4  C3  UNL d   1      -2.312   4.556  -2.577  0.00  0.00     0.003 A 
ATOM      5  C4  UNL d   1      -2.690   3.257  -2.911  0.00  0.00    -0.005 A 
ATOM      6  C5  UNL d   1      -2.678   2.851  -4.244  0.00  0.00     0.003 A 
ATOM      7  C6  UNL d   1      -2.289   3.745  -5.243  0.00  0.00    -0.001 A 
ENDROOT
TORSDOF 0
ENDMDL
