MODEL 1
REMARK minimizedAffinity 6.34422731
REMARK minimizedRMSD -1
REMARK  0 active torsions:
REMARK  status: ('A' for Active; 'I' for Inactive)
ROOT
ATOM      1  C   UNL d   1      -5.445  -2.663   1.845  0.00  0.00     0.078 C 
ATOM      2  C1  UNL d   1      -4.835  -3.825   1.118  0.00  0.00    -0.077 A 
ATOM      3  C2  UNL d   1      -3.475  -3.833   0.784  0.00  0.00    -0.001 A 
ATOM      4  C3  UNL d   1      -2.923  -4.917   0.099  0.00  0.00     0.003 A 
ATOM      5  C4  UNL d   1      -3.724  -6.000  -0.258  0.00  0.00    -0.005 A 
ATOM      6  C5  UNL d   1      -5.078  -6.000   0.068  0.00  0.00     0.003 A 
ATOM      7  C6  UNL d   1      -5.632  -4.917   0.753  0.00  0.00    -0.001 A 
ENDROOT
TORSDOF 0
ENDMDL
