MODEL 1
REMARK minimizedAffinity 12.5551844
REMARK minimizedRMSD -1
REMARK  0 active torsions:
REMARK  status: ('A' for Active; 'I' for Inactive)
ROOT
ATOM      1  C   UNL d   1      -3.109  -3.319   3.115  0.00  0.00     0.078 C 
ATOM      2  C1  UNL d   1      -1.860  -2.490   3.074  0.00  0.00    -0.077 A 
ATOM      3  C2  UNL d   1      -1.708  -1.375   3.908  0.00  0.00    -0.001 A 
ATOM      4  C3  UNL d   1      -0.544  -0.606   3.852  0.00  0.00     0.003 A 
ATOM      5  C4  UNL d   1       0.475  -0.943   2.964  0.00  0.00    -0.005 A 
ATOM      6  C5  UNL d   1       0.331  -2.049   2.129  0.00  0.00     0.003 A 
ATOM      7  C6  UNL d   1      -0.832  -2.819   2.183  0.00  0.00    -0.001 A 
ENDROOT
TORSDOF 0
ENDMDL
