MODEL 1
REMARK minimizedAffinity 1.73731375
REMARK minimizedRMSD -1
REMARK  0 active torsions:
REMARK  status: ('A' for Active; 'I' for Inactive)
ROOT
ATOM      1  C   UNL d   1      -3.344  -2.755   2.793  0.00  0.00     0.078 C 
ATOM      2  C1  UNL d   1      -3.762  -3.886   1.901  0.00  0.00    -0.077 A 
ATOM      3  C2  UNL d   1      -4.529  -4.949   2.396  0.00  0.00    -0.001 A 
ATOM      4  C3  UNL d   1      -4.902  -6.000   1.557  0.00  0.00     0.003 A 
ATOM      5  C4  UNL d   1      -4.513  -5.999   0.219  0.00  0.00    -0.005 A 
ATOM      6  C5  UNL d   1      -3.749  -4.947  -0.282  0.00  0.00     0.003 A 
ATOM      7  C6  UNL d   1      -3.374  -3.895   0.556  0.00  0.00    -0.001 A 
ENDROOT
TORSDOF 0
ENDMDL
