MODEL 1
REMARK minimizedAffinity 7.66818142
REMARK minimizedRMSD -1
REMARK  0 active torsions:
REMARK  status: ('A' for Active; 'I' for Inactive)
ROOT
ATOM      1  C   UNL d   1      -4.943   3.627  -0.861  0.00  0.00     0.078 C 
ATOM      2  C1  UNL d   1      -3.847   3.872  -1.855  0.00  0.00    -0.077 A 
ATOM      3  C2  UNL d   1      -3.384   2.845  -2.686  0.00  0.00    -0.001 A 
ATOM      4  C3  UNL d   1      -2.357   3.085  -3.601  0.00  0.00     0.003 A 
ATOM      5  C4  UNL d   1      -1.784   4.351  -3.692  0.00  0.00    -0.005 A 
ATOM      6  C5  UNL d   1      -2.236   5.380  -2.867  0.00  0.00     0.003 A 
ATOM      7  C6  UNL d   1      -3.263   5.141  -1.952  0.00  0.00    -0.001 A 
ENDROOT
TORSDOF 0
ENDMDL
