MODEL 1
REMARK minimizedAffinity 6.40358925
REMARK minimizedRMSD -1
REMARK  0 active torsions:
REMARK  status: ('A' for Active; 'I' for Inactive)
ROOT
ATOM      1  C   UNL d   1      -3.256  -3.282   2.006  0.00  0.00     0.078 C 
ATOM      2  C1  UNL d   1      -4.206  -3.966   2.944  0.00  0.00    -0.077 A 
ATOM      3  C2  UNL d   1      -4.718  -5.236   2.652  0.00  0.00    -0.001 A 
ATOM      4  C3  UNL d   1      -5.609  -5.856   3.529  0.00  0.00     0.003 A 
ATOM      5  C4  UNL d   1      -5.996  -5.214   4.703  0.00  0.00    -0.005 A 
ATOM      6  C5  UNL d   1      -5.494  -3.949   5.001  0.00  0.00     0.003 A 
ATOM      7  C6  UNL d   1      -4.603  -3.327   4.125  0.00  0.00    -0.001 A 
ENDROOT
TORSDOF 0
ENDMDL
