MODEL 1
REMARK minimizedAffinity 12.9920263
REMARK minimizedRMSD -1
REMARK  0 active torsions:
REMARK  status: ('A' for Active; 'I' for Inactive)
ROOT
ATOM      1  C   UNL d   1       4.007  -2.240  -5.679  0.00  0.00     0.078 C 
ATOM      2  C1  UNL d   1       3.283  -3.552  -5.730  0.00  0.00    -0.077 A 
ATOM      3  C2  UNL d   1       3.976  -4.751  -5.944  0.00  0.00    -0.001 A 
ATOM      4  C3  UNL d   1       3.287  -5.964  -5.999  0.00  0.00     0.003 A 
ATOM      5  C4  UNL d   1       1.903  -5.990  -5.843  0.00  0.00    -0.005 A 
ATOM      6  C5  UNL d   1       1.205  -4.803  -5.632  0.00  0.00     0.003 A 
ATOM      7  C6  UNL d   1       1.891  -3.589  -5.577  0.00  0.00    -0.001 A 
ENDROOT
TORSDOF 0
ENDMDL
