MODEL 1
REMARK minimizedAffinity -0.953165531
REMARK minimizedRMSD -1
REMARK  0 active torsions:
REMARK  status: ('A' for Active; 'I' for Inactive)
ROOT
ATOM      1  C   UNL d   1       4.321  -3.421  -5.979  0.00  0.00     0.078 C 
ATOM      2  C1  UNL d   1       3.073  -4.097  -5.496  0.00  0.00    -0.077 A 
ATOM      3  C2  UNL d   1       2.252  -3.495  -4.534  0.00  0.00    -0.001 A 
ATOM      4  C3  UNL d   1       1.098  -4.141  -4.087  0.00  0.00     0.003 A 
ATOM      5  C4  UNL d   1       0.755  -5.392  -4.595  0.00  0.00    -0.005 A 
ATOM      6  C5  UNL d   1       1.566  -6.000  -5.551  0.00  0.00     0.003 A 
ATOM      7  C6  UNL d   1       2.720  -5.356  -6.000  0.00  0.00    -0.001 A 
ENDROOT
TORSDOF 0
ENDMDL
