MODEL 1
REMARK minimizedAffinity -0.492877871
REMARK minimizedRMSD -1
REMARK  0 active torsions:
REMARK  status: ('A' for Active; 'I' for Inactive)
ROOT
ATOM      1  C   UNL d   1      -4.483  -5.782  -1.468  0.00  0.00     0.078 C 
ATOM      2  C1  UNL d   1      -4.486  -5.305  -0.046  0.00  0.00    -0.077 A 
ATOM      3  C2  UNL d   1      -3.751  -4.178   0.338  0.00  0.00    -0.001 A 
ATOM      4  C3  UNL d   1      -3.756  -3.751   1.667  0.00  0.00     0.003 A 
ATOM      5  C4  UNL d   1      -4.493  -4.447   2.623  0.00  0.00    -0.005 A 
ATOM      6  C5  UNL d   1      -5.226  -5.572   2.250  0.00  0.00     0.003 A 
ATOM      7  C6  UNL d   1      -5.223  -6.000   0.921  0.00  0.00    -0.001 A 
ENDROOT
TORSDOF 0
ENDMDL
