MODEL 1
REMARK minimizedAffinity -4.74216652
REMARK minimizedRMSD -1
REMARK  1 active torsions:
REMARK  status: ('A' for Active; 'I' for Inactive)
REMARK    1  A    between atoms: C3_4  and  O_7 
ROOT
ATOM      1  C   UNL d   1       1.455  -1.859   0.866  0.00  0.00    -0.033 A 
ATOM      2  C1  UNL d   1       2.229  -0.941   0.155  0.00  0.00     0.039 A 
ATOM      3  C2  UNL d   1       1.626   0.163  -0.452  0.00  0.00    -0.080 A 
ATOM      4  C3  UNL d   1       0.250   0.337  -0.339  0.00  0.00     0.150 A 
ATOM      5  C4  UNL d   1      -0.528  -0.572   0.372  0.00  0.00    -0.007 A 
ATOM      6  C5  UNL d   1       0.076  -1.673   0.976  0.00  0.00     0.039 A 
ENDROOT
BRANCH   4   7
ATOM      7  O   UNL d   1      -0.385   1.396  -0.918  0.00  0.00    -0.526 OA
ATOM      8  H5  UNL d   1       0.274   1.923  -1.399  0.00  0.00     0.418 HD
ENDBRANCH   4   7
TORSDOF 1
ENDMDL
