MODEL 1
REMARK minimizedAffinity -4.04308844
REMARK minimizedRMSD -1
REMARK  1 active torsions:
REMARK  status: ('A' for Active; 'I' for Inactive)
REMARK    1  A    between atoms: C3_4  and  O_7 
ROOT
ATOM      1  C   UNL d   1       0.124   0.482  -0.308  0.00  0.00    -0.033 A 
ATOM      2  C1  UNL d   1       1.467   0.131  -0.459  0.00  0.00     0.039 A 
ATOM      3  C2  UNL d   1       1.921  -1.112  -0.014  0.00  0.00    -0.080 A 
ATOM      4  C3  UNL d   1       1.022  -1.994   0.580  0.00  0.00     0.150 A 
ATOM      5  C4  UNL d   1      -0.318  -1.653   0.730  0.00  0.00    -0.007 A 
ATOM      6  C5  UNL d   1      -0.769  -0.411   0.285  0.00  0.00     0.039 A 
ENDROOT
BRANCH   4   7
ATOM      7  O   UNL d   1       1.419  -3.216   1.035  0.00  0.00    -0.526 OA
ATOM      8  H5  UNL d   1       2.376  -3.303   0.890  0.00  0.00     0.418 HD
ENDBRANCH   4   7
TORSDOF 1
ENDMDL
