MODEL 1
REMARK minimizedAffinity -4.02573967
REMARK minimizedRMSD -1
REMARK  1 active torsions:
REMARK  status: ('A' for Active; 'I' for Inactive)
REMARK    1  A    between atoms: C3_4  and  O_7 
ROOT
ATOM      1  C   UNL d   1       1.436  -2.586   0.743  0.00  0.00    -0.033 A 
ATOM      2  C1  UNL d   1       2.091  -1.383   0.469  0.00  0.00     0.039 A 
ATOM      3  C2  UNL d   1       1.358  -0.259   0.086  0.00  0.00    -0.080 A 
ATOM      4  C3  UNL d   1      -0.028  -0.349  -0.017  0.00  0.00     0.150 A 
ATOM      5  C4  UNL d   1      -0.687  -1.543   0.258  0.00  0.00    -0.007 A 
ATOM      6  C5  UNL d   1       0.047  -2.665   0.639  0.00  0.00     0.039 A 
ENDROOT
BRANCH   4   7
ATOM      7  O   UNL d   1      -0.785   0.721  -0.392  0.00  0.00    -0.526 OA
ATOM      8  H5  UNL d   1      -0.193   1.468  -0.577  0.00  0.00     0.418 HD
ENDBRANCH   4   7
TORSDOF 1
ENDMDL
