MODEL 1
REMARK minimizedAffinity -5.57042027
REMARK minimizedRMSD -1
REMARK  1 active torsions:
REMARK  status: ('A' for Active; 'I' for Inactive)
REMARK    1  A    between atoms: C3_4  and  O_7 
ROOT
ATOM      1  C   UNL d   1       0.539   0.796  -0.454  0.00  0.00    -0.033 A 
ATOM      2  C1  UNL d   1      -0.441  -0.071   0.034  0.00  0.00     0.039 A 
ATOM      3  C2  UNL d   1      -0.103  -1.377   0.394  0.00  0.00    -0.080 A 
ATOM      4  C3  UNL d   1       1.216  -1.803   0.261  0.00  0.00     0.150 A 
ATOM      5  C4  UNL d   1       2.197  -0.944  -0.221  0.00  0.00    -0.007 A 
ATOM      6  C5  UNL d   1       1.858   0.360  -0.580  0.00  0.00     0.039 A 
ENDROOT
BRANCH   4   7
ATOM      7  O   UNL d   1       1.592  -3.070   0.595  0.00  0.00    -0.526 OA
ATOM      8  H5  UNL d   1       0.804  -3.559   0.885  0.00  0.00     0.418 HD
ENDBRANCH   4   7
TORSDOF 1
ENDMDL
