MODEL 1
REMARK minimizedAffinity -3.04214191
REMARK minimizedRMSD -1
REMARK  1 active torsions:
REMARK  status: ('A' for Active; 'I' for Inactive)
REMARK    1  A    between atoms: C3_4  and  O_7 
ROOT
ATOM      1  C   UNL d   1       0.417   0.422  -0.051  0.00  0.00    -0.033 A 
ATOM      2  C1  UNL d   1      -0.494  -0.501   0.466  0.00  0.00     0.039 A 
ATOM      3  C2  UNL d   1      -0.092  -1.814   0.721  0.00  0.00    -0.080 A 
ATOM      4  C3  UNL d   1       1.222  -2.189   0.455  0.00  0.00     0.150 A 
ATOM      5  C4  UNL d   1       2.136  -1.274  -0.056  0.00  0.00    -0.007 A 
ATOM      6  C5  UNL d   1       1.732   0.036  -0.310  0.00  0.00     0.039 A 
ENDROOT
BRANCH   4   7
ATOM      7  O   UNL d   1       1.660  -3.460   0.683  0.00  0.00    -0.526 OA
ATOM      8  H5  UNL d   1       0.913  -3.989   1.009  0.00  0.00     0.418 HD
ENDBRANCH   4   7
TORSDOF 1
ENDMDL
