MODEL 1
REMARK minimizedAffinity -4.92068624
REMARK minimizedRMSD -1
REMARK  1 active torsions:
REMARK  status: ('A' for Active; 'I' for Inactive)
REMARK    1  A    between atoms: C3_4  and  O_7 
ROOT
ATOM      1  C   UNL d   1       0.124  -0.972   0.811  0.00  0.00    -0.033 A 
ATOM      2  C1  UNL d   1       0.197   0.179   0.023  0.00  0.00     0.039 A 
ATOM      3  C2  UNL d   1       1.307   0.396  -0.796  0.00  0.00    -0.080 A 
ATOM      4  C3  UNL d   1       2.334  -0.543  -0.818  0.00  0.00     0.150 A 
ATOM      5  C4  UNL d   1       2.266  -1.693  -0.038  0.00  0.00    -0.007 A 
ATOM      6  C5  UNL d   1       1.157  -1.908   0.779  0.00  0.00     0.039 A 
ENDROOT
BRANCH   4   7
ATOM      7  O   UNL d   1       3.439  -0.372  -1.598  0.00  0.00    -0.526 OA
ATOM      8  H5  UNL d   1       3.362   0.480  -2.059  0.00  0.00     0.418 HD
ENDBRANCH   4   7
TORSDOF 1
ENDMDL
