MODEL 1
REMARK minimizedAffinity -4.46261311
REMARK minimizedRMSD -1
REMARK  1 active torsions:
REMARK  status: ('A' for Active; 'I' for Inactive)
REMARK    1  A    between atoms: C3_4  and  O_7 
ROOT
ATOM      1  C   UNL d   1       0.301   0.729  -0.285  0.00  0.00    -0.033 A 
ATOM      2  C1  UNL d   1      -0.520  -0.194   0.367  0.00  0.00     0.039 A 
ATOM      3  C2  UNL d   1      -0.027  -1.457   0.699  0.00  0.00    -0.080 A 
ATOM      4  C3  UNL d   1       1.287  -1.785   0.375  0.00  0.00     0.150 A 
ATOM      5  C4  UNL d   1       2.111  -0.870  -0.272  0.00  0.00    -0.007 A 
ATOM      6  C5  UNL d   1       1.617   0.391  -0.603  0.00  0.00     0.039 A 
ENDROOT
BRANCH   4   7
ATOM      7  O   UNL d   1       1.811  -3.008   0.674  0.00  0.00    -0.526 OA
ATOM      8  H5  UNL d   1       1.118  -3.545   1.093  0.00  0.00     0.418 HD
ENDBRANCH   4   7
TORSDOF 1
ENDMDL
