MODEL 1
REMARK minimizedAffinity -4.72018528
REMARK minimizedRMSD -1
REMARK  1 active torsions:
REMARK  status: ('A' for Active; 'I' for Inactive)
REMARK    1  A    between atoms: C3_4  and  O_7 
ROOT
ATOM      1  C   UNL d   1       1.502  -2.317   1.198  0.00  0.00    -0.033 A 
ATOM      2  C1  UNL d   1       2.064  -1.509   0.208  0.00  0.00     0.039 A 
ATOM      3  C2  UNL d   1       1.310  -0.488  -0.374  0.00  0.00    -0.080 A 
ATOM      4  C3  UNL d   1      -0.003  -0.285   0.045  0.00  0.00     0.150 A 
ATOM      5  C4  UNL d   1      -0.567  -1.083   1.034  0.00  0.00    -0.007 A 
ATOM      6  C5  UNL d   1       0.187  -2.103   1.612  0.00  0.00     0.039 A 
ENDROOT
BRANCH   4   7
ATOM      7  O   UNL d   1      -0.779   0.696  -0.497  0.00  0.00    -0.526 OA
ATOM      8  H5  UNL d   1      -0.267   1.149  -1.187  0.00  0.00     0.418 HD
ENDBRANCH   4   7
TORSDOF 1
ENDMDL
