MODEL 1
REMARK minimizedAffinity -3.29983306
REMARK minimizedRMSD -1
REMARK  1 active torsions:
REMARK  status: ('A' for Active; 'I' for Inactive)
REMARK    1  A    between atoms: C3_4  and  O_7 
ROOT
ATOM      1  C   UNL d   1       1.414  -2.171   0.822  0.00  0.00    -0.033 A 
ATOM      2  C1  UNL d   1       2.031  -1.239  -0.015  0.00  0.00     0.039 A 
ATOM      3  C2  UNL d   1       1.314  -0.136  -0.483  0.00  0.00    -0.080 A 
ATOM      4  C3  UNL d   1      -0.017   0.023  -0.107  0.00  0.00     0.150 A 
ATOM      5  C4  UNL d   1      -0.637  -0.899   0.730  0.00  0.00    -0.007 A 
ATOM      6  C5  UNL d   1       0.081  -2.000   1.196  0.00  0.00     0.039 A 
ENDROOT
BRANCH   4   7
ATOM      7  O   UNL d   1      -0.759   1.081  -0.543  0.00  0.00    -0.526 OA
ATOM      8  H5  UNL d   1      -0.209   1.619  -1.136  0.00  0.00     0.418 HD
ENDBRANCH   4   7
TORSDOF 1
ENDMDL
