MODEL 1
REMARK minimizedAffinity -4.50268412
REMARK minimizedRMSD -1
REMARK  1 active torsions:
REMARK  status: ('A' for Active; 'I' for Inactive)
REMARK    1  A    between atoms: C3_4  and  O_7 
ROOT
ATOM      1  C   UNL d   1       0.177   0.805  -0.192  0.00  0.00    -0.033 A 
ATOM      2  C1  UNL d   1      -0.684  -0.106   0.422  0.00  0.00     0.039 A 
ATOM      3  C2  UNL d   1      -0.220  -1.372   0.787  0.00  0.00    -0.080 A 
ATOM      4  C3  UNL d   1       1.106  -1.712   0.533  0.00  0.00     0.150 A 
ATOM      5  C4  UNL d   1       1.971  -0.808  -0.075  0.00  0.00    -0.007 A 
ATOM      6  C5  UNL d   1       1.505   0.455  -0.439  0.00  0.00     0.039 A 
ENDROOT
BRANCH   4   7
ATOM      7  O   UNL d   1       1.603  -2.937   0.867  0.00  0.00    -0.526 OA
ATOM      8  H5  UNL d   1       0.885  -3.466   1.252  0.00  0.00     0.418 HD
ENDBRANCH   4   7
TORSDOF 1
ENDMDL
