MODEL 1
REMARK minimizedAffinity -4.06332493
REMARK minimizedRMSD -1
REMARK  1 active torsions:
REMARK  status: ('A' for Active; 'I' for Inactive)
REMARK    1  A    between atoms: C3_4  and  O_7 
ROOT
ATOM      1  C   UNL d   1       1.587  -2.062   1.207  0.00  0.00    -0.033 A 
ATOM      2  C1  UNL d   1       2.405  -1.037   0.729  0.00  0.00     0.039 A 
ATOM      3  C2  UNL d   1       1.874  -0.044  -0.097  0.00  0.00    -0.080 A 
ATOM      4  C3  UNL d   1       0.524  -0.087  -0.435  0.00  0.00     0.150 A 
ATOM      5  C4  UNL d   1      -0.298  -1.103   0.041  0.00  0.00    -0.007 A 
ATOM      6  C5  UNL d   1       0.235  -2.094   0.865  0.00  0.00     0.039 A 
ENDROOT
BRANCH   4   7
ATOM      7  O   UNL d   1      -0.039   0.857  -1.241  0.00  0.00    -0.526 OA
ATOM      8  H5  UNL d   1       0.654   1.479  -1.517  0.00  0.00     0.418 HD
ENDBRANCH   4   7
TORSDOF 1
ENDMDL
