MODEL 1
REMARK minimizedAffinity -5.06109953
REMARK minimizedRMSD -1
REMARK  1 active torsions:
REMARK  status: ('A' for Active; 'I' for Inactive)
REMARK    1  A    between atoms: C3_4  and  O_7 
ROOT
ATOM      1  C   UNL d   1      -0.152   0.503  -0.388  0.00  0.00    -0.033 A 
ATOM      2  C1  UNL d   1      -0.893  -0.434   0.334  0.00  0.00     0.039 A 
ATOM      3  C2  UNL d   1      -0.307  -1.639   0.725  0.00  0.00    -0.080 A 
ATOM      4  C3  UNL d   1       1.020  -1.894   0.390  0.00  0.00     0.150 A 
ATOM      5  C4  UNL d   1       1.766  -0.964  -0.326  0.00  0.00    -0.007 A 
ATOM      6  C5  UNL d   1       1.178   0.239  -0.717  0.00  0.00     0.039 A 
ENDROOT
BRANCH   4   7
ATOM      7  O   UNL d   1       1.634  -3.058   0.746  0.00  0.00    -0.526 OA
ATOM      8  H5  UNL d   1       0.988  -3.617   1.210  0.00  0.00     0.418 HD
ENDBRANCH   4   7
TORSDOF 1
ENDMDL
