MODEL 1
REMARK minimizedAffinity -4.55661392
REMARK minimizedRMSD -1
REMARK  1 active torsions:
REMARK  status: ('A' for Active; 'I' for Inactive)
REMARK    1  A    between atoms: C3_4  and  O_7 
ROOT
ATOM      1  C   UNL d   1      -0.027   0.545   0.255  0.00  0.00    -0.033 A 
ATOM      2  C1  UNL d   1       1.223   0.261  -0.297  0.00  0.00     0.039 A 
ATOM      3  C2  UNL d   1       1.773  -1.016  -0.167  0.00  0.00    -0.080 A 
ATOM      4  C3  UNL d   1       1.062  -1.999   0.517  0.00  0.00     0.150 A 
ATOM      5  C4  UNL d   1      -0.186  -1.724   1.067  0.00  0.00    -0.007 A 
ATOM      6  C5  UNL d   1      -0.732  -0.448   0.937  0.00  0.00     0.039 A 
ENDROOT
BRANCH   4   7
ATOM      7  O   UNL d   1       1.560  -3.258   0.675  0.00  0.00    -0.526 OA
ATOM      8  H5  UNL d   1       2.441  -3.294   0.269  0.00  0.00     0.418 HD
ENDBRANCH   4   7
TORSDOF 1
ENDMDL
