MODEL 1
REMARK minimizedAffinity -4.19816303
REMARK minimizedRMSD -1
REMARK  1 active torsions:
REMARK  status: ('A' for Active; 'I' for Inactive)
REMARK    1  A    between atoms: C3_4  and  O_7 
ROOT
ATOM      1  C   UNL d   1       0.258   0.683  -0.248  0.00  0.00    -0.033 A 
ATOM      2  C1  UNL d   1      -0.640  -0.173   0.393  0.00  0.00     0.039 A 
ATOM      3  C2  UNL d   1      -0.247  -1.465   0.744  0.00  0.00    -0.080 A 
ATOM      4  C3  UNL d   1       1.046  -1.890   0.450  0.00  0.00     0.150 A 
ATOM      5  C4  UNL d   1       1.948  -1.041  -0.185  0.00  0.00    -0.007 A 
ATOM      6  C5  UNL d   1       1.553   0.249  -0.535  0.00  0.00     0.039 A 
ENDROOT
BRANCH   4   7
ATOM      7  O   UNL d   1       1.475  -3.144   0.769  0.00  0.00    -0.526 OA
ATOM      8  H5  UNL d   1       0.737  -3.627   1.177  0.00  0.00     0.418 HD
ENDBRANCH   4   7
TORSDOF 1
ENDMDL
