MODEL 1
REMARK minimizedAffinity -5.81052256
REMARK minimizedRMSD -1
REMARK  1 active torsions:
REMARK  status: ('A' for Active; 'I' for Inactive)
REMARK    1  A    between atoms: C3_4  and  O_7 
ROOT
ATOM      1  C   UNL d   1      -0.878  -2.144   3.164  0.00  0.00    -0.033 A 
ATOM      2  C1  UNL d   1      -0.814  -1.316   2.042  0.00  0.00     0.039 A 
ATOM      3  C2  UNL d   1       0.082  -1.604   1.010  0.00  0.00    -0.080 A 
ATOM      4  C3  UNL d   1       0.906  -2.721   1.112  0.00  0.00     0.150 A 
ATOM      5  C4  UNL d   1       0.845  -3.553   2.226  0.00  0.00    -0.007 A 
ATOM      6  C5  UNL d   1      -0.050  -3.264   3.255  0.00  0.00     0.039 A 
ENDROOT
BRANCH   4   7
ATOM      7  O   UNL d   1       1.799  -3.039   0.133  0.00  0.00    -0.526 OA
ATOM      8  H5  UNL d   1       1.751  -2.360  -0.561  0.00  0.00     0.418 HD
ENDBRANCH   4   7
TORSDOF 1
ENDMDL
