MODEL 1
REMARK minimizedAffinity -4.61116171
REMARK minimizedRMSD -1
REMARK  1 active torsions:
REMARK  status: ('A' for Active; 'I' for Inactive)
REMARK    1  A    between atoms: C3_4  and  O_7 
ROOT
ATOM      1  C   UNL d   1       0.045   0.362  -0.200  0.00  0.00    -0.033 A 
ATOM      2  C1  UNL d   1      -0.774  -0.655   0.295  0.00  0.00     0.039 A 
ATOM      3  C2  UNL d   1      -0.216  -1.875   0.685  0.00  0.00    -0.080 A 
ATOM      4  C3  UNL d   1       1.158  -2.064   0.576  0.00  0.00     0.150 A 
ATOM      5  C4  UNL d   1       1.980  -1.054   0.087  0.00  0.00    -0.007 A 
ATOM      6  C5  UNL d   1       1.422   0.163  -0.303  0.00  0.00     0.039 A 
ENDROOT
BRANCH   4   7
ATOM      7  O   UNL d   1       1.747  -3.238   0.939  0.00  0.00    -0.526 OA
ATOM      8  H5  UNL d   1       1.054  -3.853   1.231  0.00  0.00     0.418 HD
ENDBRANCH   4   7
TORSDOF 1
ENDMDL
