MODEL 1
REMARK minimizedAffinity -4.81554508
REMARK minimizedRMSD -1
REMARK  1 active torsions:
REMARK  status: ('A' for Active; 'I' for Inactive)
REMARK    1  A    between atoms: N_2  and  C1_3 
ROOT
ATOM      1  C1  UNL d   1       0.173  -0.075  -0.087  0.00  0.00     0.143 A 
ATOM      2  C2  UNL d   1       0.202  -1.444  -0.374  0.00  0.00    -0.057 A 
ATOM      3  C3  UNL d   1       1.356  -2.207  -0.159  0.00  0.00     0.033 A 
ATOM      4  C4  UNL d   1       2.515  -1.606   0.321  0.00  0.00    -0.042 A 
ATOM      5  C5  UNL d   1       2.517  -0.242   0.590  0.00  0.00     0.033 A 
ATOM      6  C6  UNL d   1       1.359   0.513   0.380  0.00  0.00    -0.057 A 
ENDROOT
BRANCH   1   7
ATOM      7  N   UNL d   1      -0.912   0.756  -0.372  0.00  0.00    -0.732 N 
ATOM      8  C   UNL d   1      -2.158   0.615   0.350  0.00  0.00     0.284 C 
ATOM      9  H3  UNL d   1      -0.631   1.721  -0.531  0.00  0.00     0.395 HD
ENDBRANCH   1   7
TORSDOF 1
ENDMDL
