MODEL 1
REMARK minimizedAffinity -2.89685273
REMARK minimizedRMSD -1
REMARK  1 active torsions:
REMARK  status: ('A' for Active; 'I' for Inactive)
REMARK    1  A    between atoms: N_2  and  C1_3 
ROOT
ATOM      1  C1  UNL d   1      -1.440   0.760   0.160  0.00  0.00     0.143 A 
ATOM      2  C2  UNL d   1      -2.560   0.523  -0.645  0.00  0.00    -0.057 A 
ATOM      3  C3  UNL d   1      -3.858   0.726  -0.161  0.00  0.00     0.033 A 
ATOM      4  C4  UNL d   1      -4.060   1.143   1.150  0.00  0.00    -0.042 A 
ATOM      5  C5  UNL d   1      -2.963   1.361   1.976  0.00  0.00     0.033 A 
ATOM      6  C6  UNL d   1      -1.669   1.163   1.485  0.00  0.00    -0.057 A 
ENDROOT
BRANCH   1   7
ATOM      7  N   UNL d   1      -0.128   0.482  -0.232  0.00  0.00    -0.732 N 
ATOM      8  C   UNL d   1       0.314  -0.884  -0.411  0.00  0.00     0.284 C 
ATOM      9  H3  UNL d   1       0.209   1.125  -0.945  0.00  0.00     0.395 HD
ENDBRANCH   1   7
TORSDOF 1
ENDMDL
