MODEL 1
REMARK minimizedAffinity -3.73610425
REMARK minimizedRMSD -1
REMARK  1 active torsions:
REMARK  status: ('A' for Active; 'I' for Inactive)
REMARK    1  A    between atoms: N_2  and  C1_3 
ROOT
ATOM      1  C1  UNL d   1       1.108   0.893   0.098  0.00  0.00     0.143 A 
ATOM      2  C2  UNL d   1       0.107   0.034  -0.368  0.00  0.00    -0.057 A 
ATOM      3  C3  UNL d   1       0.208  -1.353  -0.207  0.00  0.00     0.033 A 
ATOM      4  C4  UNL d   1       1.330  -1.909   0.399  0.00  0.00    -0.042 A 
ATOM      5  C5  UNL d   1       2.349  -1.076   0.847  0.00  0.00     0.033 A 
ATOM      6  C6  UNL d   1       2.239   0.309   0.690  0.00  0.00    -0.057 A 
ENDROOT
BRANCH   1   7
ATOM      7  N   UNL d   1       1.111   2.273  -0.120  0.00  0.00    -0.732 N 
ATOM      8  C   UNL d   1       1.865   3.154   0.746  0.00  0.00     0.284 C 
ATOM      9  H3  UNL d   1       1.171   2.511  -1.107  0.00  0.00     0.395 HD
ENDBRANCH   1   7
TORSDOF 1
ENDMDL
