MODEL 1
REMARK minimizedAffinity -0.572087407
REMARK minimizedRMSD -1
REMARK  1 active torsions:
REMARK  status: ('A' for Active; 'I' for Inactive)
REMARK    1  A    between atoms: N_2  and  C1_3 
ROOT
ATOM      1  C1  UNL d   1       1.179  -0.392  -0.151  0.00  0.00     0.143 A 
ATOM      2  C2  UNL d   1       2.161   0.604  -0.198  0.00  0.00    -0.057 A 
ATOM      3  C3  UNL d   1       3.500   0.291  -0.460  0.00  0.00     0.033 A 
ATOM      4  C4  UNL d   1       3.888  -1.031  -0.651  0.00  0.00    -0.042 A 
ATOM      5  C5  UNL d   1       2.934  -2.040  -0.584  0.00  0.00     0.033 A 
ATOM      6  C6  UNL d   1       1.596  -1.721  -0.329  0.00  0.00    -0.057 A 
ENDROOT
BRANCH   1   7
ATOM      7  N   UNL d   1      -0.152  -0.157   0.202  0.00  0.00    -0.732 N 
ATOM      8  C   UNL d   1      -0.956   0.789  -0.542  0.00  0.00     0.284 C 
ATOM      9  H3  UNL d   1      -0.643  -1.011   0.456  0.00  0.00     0.395 HD
ENDBRANCH   1   7
TORSDOF 1
ENDMDL
