MODEL 1
REMARK minimizedAffinity -3.27963352
REMARK minimizedRMSD -1
REMARK  1 active torsions:
REMARK  status: ('A' for Active; 'I' for Inactive)
REMARK    1  A    between atoms: N_2  and  C1_3 
ROOT
ATOM      1  C1  UNL d   1       0.440   0.346  -0.636  0.00  0.00     0.143 A 
ATOM      2  C2  UNL d   1       0.196  -1.030  -0.578  0.00  0.00    -0.057 A 
ATOM      3  C3  UNL d   1       1.238  -1.945  -0.389  0.00  0.00     0.033 A 
ATOM      4  C4  UNL d   1       2.552  -1.500  -0.283  0.00  0.00    -0.042 A 
ATOM      5  C5  UNL d   1       2.821  -0.138  -0.362  0.00  0.00     0.033 A 
ATOM      6  C6  UNL d   1       1.774   0.771  -0.544  0.00  0.00    -0.057 A 
ENDROOT
BRANCH   1   7
ATOM      7  N   UNL d   1      -0.542   1.299  -0.920  0.00  0.00    -0.732 N 
ATOM      8  C   UNL d   1      -1.875   1.170  -0.373  0.00  0.00     0.284 C 
ATOM      9  H3  UNL d   1      -0.177   2.248  -0.906  0.00  0.00     0.395 HD
ENDBRANCH   1   7
TORSDOF 1
ENDMDL
