MODEL 1
REMARK minimizedAffinity -3.67579794
REMARK minimizedRMSD -1
REMARK  1 active torsions:
REMARK  status: ('A' for Active; 'I' for Inactive)
REMARK    1  A    between atoms: N_2  and  C1_3 
ROOT
ATOM      1  C1  UNL d   1      -1.452   0.479   0.703  0.00  0.00     0.143 A 
ATOM      2  C2  UNL d   1      -0.818   0.617  -0.536  0.00  0.00    -0.057 A 
ATOM      3  C3  UNL d   1       0.086  -0.345  -1.001  0.00  0.00     0.033 A 
ATOM      4  C4  UNL d   1       0.395  -1.453  -0.218  0.00  0.00    -0.042 A 
ATOM      5  C5  UNL d   1      -0.204  -1.599   1.028  0.00  0.00     0.033 A 
ATOM      6  C6  UNL d   1      -1.111  -0.637   1.483  0.00  0.00    -0.057 A 
ENDROOT
BRANCH   1   7
ATOM      7  N   UNL d   1      -2.285   1.450   1.264  0.00  0.00    -0.732 N 
ATOM      8  C   UNL d   1      -3.647   1.129   1.634  0.00  0.00     0.284 C 
ATOM      9  H3  UNL d   1      -1.798   2.038   1.937  0.00  0.00     0.395 HD
ENDBRANCH   1   7
TORSDOF 1
ENDMDL
