MODEL 1
REMARK minimizedAffinity 2.65138078
REMARK minimizedRMSD -1
REMARK  1 active torsions:
REMARK  status: ('A' for Active; 'I' for Inactive)
REMARK    1  A    between atoms: N_2  and  C1_3 
ROOT
ATOM      1  C1  UNL d   1       1.953  -1.850  -1.820  0.00  0.00     0.143 A 
ATOM      2  C2  UNL d   1       0.713  -1.306  -2.173  0.00  0.00    -0.057 A 
ATOM      3  C3  UNL d   1      -0.336  -1.232  -1.249  0.00  0.00     0.033 A 
ATOM      4  C4  UNL d   1      -0.172  -1.728   0.040  0.00  0.00    -0.042 A 
ATOM      5  C5  UNL d   1       1.044  -2.296   0.405  0.00  0.00     0.033 A 
ATOM      6  C6  UNL d   1       2.090  -2.361  -0.520  0.00  0.00    -0.057 A 
ENDROOT
BRANCH   1   7
ATOM      7  N   UNL d   1       3.003  -2.042  -2.722  0.00  0.00    -0.732 N 
ATOM      8  C   UNL d   1       3.350  -3.371  -3.178  0.00  0.00     0.284 C 
ATOM      9  H3  UNL d   1       3.022  -1.334  -3.452  0.00  0.00     0.395 HD
ENDBRANCH   1   7
TORSDOF 1
ENDMDL
