MODEL 1
REMARK minimizedAffinity 1.76120734
REMARK minimizedRMSD -1
REMARK  1 active torsions:
REMARK  status: ('A' for Active; 'I' for Inactive)
REMARK    1  A    between atoms: N_2  and  C1_3 
ROOT
ATOM      1  C1  UNL d   1       1.551  -2.371  -0.688  0.00  0.00     0.143 A 
ATOM      2  C2  UNL d   1       0.689  -1.827  -1.646  0.00  0.00    -0.057 A 
ATOM      3  C3  UNL d   1      -0.488  -2.486  -2.021  0.00  0.00     0.033 A 
ATOM      4  C4  UNL d   1      -0.809  -3.720  -1.464  0.00  0.00    -0.042 A 
ATOM      5  C5  UNL d   1       0.045  -4.291  -0.528  0.00  0.00     0.033 A 
ATOM      6  C6  UNL d   1       1.216  -3.625  -0.152  0.00  0.00    -0.057 A 
ENDROOT
BRANCH   1   7
ATOM      7  N   UNL d   1       2.785  -1.812  -0.345  0.00  0.00    -0.732 N 
ATOM      8  C   UNL d   1       3.078  -1.459   1.028  0.00  0.00     0.284 C 
ATOM      9  H3  UNL d   1       3.560  -2.252  -0.835  0.00  0.00     0.395 HD
ENDBRANCH   1   7
TORSDOF 1
ENDMDL
