MODEL 1
REMARK minimizedAffinity -2.08103466
REMARK minimizedRMSD -1
REMARK  0 active torsions:
REMARK  status: ('A' for Active; 'I' for Inactive)
ROOT
ATOM      1  C   UNL d   1      -0.948   1.541   0.238  0.00  0.00    -0.002 A 
ATOM      2  C1  UNL d   1      -1.287   0.467   1.049  0.00  0.00     0.010 A 
ATOM      3  C2  UNL d   1      -0.354  -0.533   1.330  0.00  0.00     0.041 A 
ATOM      4  C3  UNL d   1       0.939  -0.432   0.780  0.00  0.00    -0.075 A 
ATOM      5  S   UNL d   1       2.246  -1.537   0.988  0.00  0.00     0.015 SA
ATOM      6  C4  UNL d   1       3.286  -0.608   0.007  0.00  0.00     0.022 A 
ATOM      7  C5  UNL d   1       2.667   0.520  -0.476  0.00  0.00     0.026 A 
ATOM      8  C6  UNL d   1       1.304   0.640  -0.039  0.00  0.00    -0.082 A 
ATOM      9  C7  UNL d   1       0.335   1.637  -0.306  0.00  0.00     0.045 A 
ENDROOT
TORSDOF 0
ENDMDL
