MODEL 1
REMARK minimizedAffinity -4.01987886
REMARK minimizedRMSD -1
REMARK  0 active torsions:
REMARK  status: ('A' for Active; 'I' for Inactive)
ROOT
ATOM      1  C   UNL d   1      -1.028   1.990   0.798  0.00  0.00    -0.002 A 
ATOM      2  C1  UNL d   1      -1.567   0.947   1.537  0.00  0.00     0.010 A 
ATOM      3  C2  UNL d   1      -0.863  -0.249   1.697  0.00  0.00     0.041 A 
ATOM      4  C3  UNL d   1       0.405  -0.378   1.096  0.00  0.00    -0.075 A 
ATOM      5  S   UNL d   1       1.449  -1.749   1.158  0.00  0.00     0.015 SA
ATOM      6  C4  UNL d   1       2.635  -0.981   0.205  0.00  0.00     0.022 A 
ATOM      7  C5  UNL d   1       2.260   0.290  -0.161  0.00  0.00     0.026 A 
ATOM      8  C6  UNL d   1       0.969   0.659   0.348  0.00  0.00    -0.082 A 
ATOM      9  C7  UNL d   1       0.230   1.858   0.204  0.00  0.00     0.045 A 
ENDROOT
TORSDOF 0
ENDMDL
