MODEL 1
REMARK minimizedAffinity -3.98699951
REMARK minimizedRMSD -1
REMARK  0 active torsions:
REMARK  status: ('A' for Active; 'I' for Inactive)
ROOT
ATOM      1  C   UNL d   1       1.260  -2.446   0.792  0.00  0.00    -0.002 A 
ATOM      2  C1  UNL d   1       0.082  -2.624   1.503  0.00  0.00     0.010 A 
ATOM      3  C2  UNL d   1      -0.868  -1.602   1.572  0.00  0.00     0.041 A 
ATOM      4  C3  UNL d   1      -0.611  -0.387   0.906  0.00  0.00    -0.075 A 
ATOM      5  S   UNL d   1      -1.629   1.003   0.851  0.00  0.00     0.015 SA
ATOM      6  C4  UNL d   1      -0.525   1.866  -0.119  0.00  0.00     0.022 A 
ATOM      7  C5  UNL d   1       0.599   1.126  -0.403  0.00  0.00     0.026 A 
ATOM      8  C6  UNL d   1       0.567  -0.185   0.182  0.00  0.00    -0.082 A 
ATOM      9  C7  UNL d   1       1.510  -1.239   0.132  0.00  0.00     0.045 A 
ENDROOT
TORSDOF 0
ENDMDL
