MODEL 1
REMARK minimizedAffinity -3.30519223
REMARK minimizedRMSD -1
REMARK  0 active torsions:
REMARK  status: ('A' for Active; 'I' for Inactive)
ROOT
ATOM      1  C   UNL d   1       1.857  -2.764   1.671  0.00  0.00    -0.002 A 
ATOM      2  C1  UNL d   1       0.522  -2.951   1.997  0.00  0.00     0.010 A 
ATOM      3  C2  UNL d   1      -0.459  -2.094   1.494  0.00  0.00     0.041 A 
ATOM      4  C3  UNL d   1      -0.071  -1.037   0.647  0.00  0.00    -0.075 A 
ATOM      5  S   UNL d   1      -1.098   0.137  -0.088  0.00  0.00     0.015 SA
ATOM      6  C4  UNL d   1       0.212   0.913  -0.853  0.00  0.00     0.022 A 
ATOM      7  C5  UNL d   1       1.411   0.306  -0.565  0.00  0.00     0.026 A 
ATOM      8  C6  UNL d   1       1.268  -0.829   0.304  0.00  0.00    -0.082 A 
ATOM      9  C7  UNL d   1       2.238  -1.714   0.831  0.00  0.00     0.045 A 
ENDROOT
TORSDOF 0
ENDMDL
