MODEL 1
REMARK minimizedAffinity 3.70664382
REMARK minimizedRMSD -1
REMARK  0 active torsions:
REMARK  status: ('A' for Active; 'I' for Inactive)
ROOT
ATOM      1  C   UNL d   1      -0.859  -2.286   1.929  0.00  0.00    -0.002 A 
ATOM      2  C1  UNL d   1      -1.884  -1.386   2.184  0.00  0.00     0.010 A 
ATOM      3  C2  UNL d   1      -1.889  -0.126   1.582  0.00  0.00     0.041 A 
ATOM      4  C3  UNL d   1      -0.836   0.217   0.711  0.00  0.00    -0.075 A 
ATOM      5  S   UNL d   1      -0.634   1.703  -0.140  0.00  0.00     0.015 SA
ATOM      6  C4  UNL d   1       0.818   1.178  -0.862  0.00  0.00     0.022 A 
ATOM      7  C5  UNL d   1       1.155  -0.097  -0.474  0.00  0.00     0.026 A 
ATOM      8  C6  UNL d   1       0.207  -0.672   0.438  0.00  0.00    -0.082 A 
ATOM      9  C7  UNL d   1       0.184  -1.942   1.064  0.00  0.00     0.045 A 
ENDROOT
TORSDOF 0
ENDMDL
