MODEL 1
REMARK minimizedAffinity -5.17949247
REMARK minimizedRMSD -1
REMARK  0 active torsions:
REMARK  status: ('A' for Active; 'I' for Inactive)
ROOT
ATOM      1  C   UNL d   1      -0.685  -1.827   2.717  0.00  0.00    -0.002 A 
ATOM      2  C1  UNL d   1       0.521  -2.348   2.272  0.00  0.00     0.010 A 
ATOM      3  C2  UNL d   1       1.172  -1.791   1.169  0.00  0.00     0.041 A 
ATOM      4  C3  UNL d   1       0.585  -0.690   0.516  0.00  0.00    -0.075 A 
ATOM      5  S   UNL d   1       1.201   0.155  -0.854  0.00  0.00     0.015 SA
ATOM      6  C4  UNL d   1      -0.122   1.229  -0.881  0.00  0.00     0.022 A 
ATOM      7  C5  UNL d   1      -1.022   0.963   0.124  0.00  0.00     0.026 A 
ATOM      8  C6  UNL d   1      -0.629  -0.147   0.946  0.00  0.00    -0.082 A 
ATOM      9  C7  UNL d   1      -1.265  -0.734   2.066  0.00  0.00     0.045 A 
ENDROOT
TORSDOF 0
ENDMDL
