MODEL 1
REMARK minimizedAffinity 4.44609737
REMARK minimizedRMSD -1
REMARK  0 active torsions:
REMARK  status: ('A' for Active; 'I' for Inactive)
ROOT
ATOM      1  C   UNL d   1      -2.966   2.042  -3.354  0.00  0.00    -0.002 A 
ATOM      2  C1  UNL d   1      -1.897   2.926  -3.359  0.00  0.00     0.010 A 
ATOM      3  C2  UNL d   1      -0.856   2.787  -2.439  0.00  0.00     0.041 A 
ATOM      4  C3  UNL d   1      -0.907   1.732  -1.507  0.00  0.00    -0.075 A 
ATOM      5  S   UNL d   1       0.256   1.366  -0.287  0.00  0.00     0.015 SA
ATOM      6  C4  UNL d   1      -0.639   0.026   0.268  0.00  0.00     0.022 A 
ATOM      7  C5  UNL d   1      -1.799  -0.152  -0.448  0.00  0.00     0.026 A 
ATOM      8  C6  UNL d   1      -1.972   0.828  -1.483  0.00  0.00    -0.082 A 
ATOM      9  C7  UNL d   1      -3.013   0.996  -2.428  0.00  0.00     0.045 A 
ENDROOT
TORSDOF 0
ENDMDL
