MODEL 1
REMARK minimizedAffinity -0.525778532
REMARK minimizedRMSD -1
REMARK  0 active torsions:
REMARK  status: ('A' for Active; 'I' for Inactive)
ROOT
ATOM      1  C   UNL d   1      -1.397   1.843   0.089  0.00  0.00    -0.002 A 
ATOM      2  C1  UNL d   1      -0.368   1.460  -0.760  0.00  0.00     0.010 A 
ATOM      3  C2  UNL d   1       0.226   0.203  -0.634  0.00  0.00     0.041 A 
ATOM      4  C3  UNL d   1      -0.236  -0.672   0.368  0.00  0.00    -0.075 A 
ATOM      5  S   UNL d   1       0.340  -2.261   0.709  0.00  0.00     0.015 SA
ATOM      6  C4  UNL d   1      -0.766  -2.469   1.988  0.00  0.00     0.022 A 
ATOM      7  C5  UNL d   1      -1.563  -1.363   2.166  0.00  0.00     0.026 A 
ATOM      8  C6  UNL d   1      -1.272  -0.310   1.235  0.00  0.00    -0.082 A 
ATOM      9  C7  UNL d   1      -1.853   0.972   1.082  0.00  0.00     0.045 A 
ENDROOT
TORSDOF 0
ENDMDL
