MODEL 1
REMARK minimizedAffinity 0.0756318569
REMARK minimizedRMSD -1
REMARK  0 active torsions:
REMARK  status: ('A' for Active; 'I' for Inactive)
ROOT
ATOM      1  C   UNL d   1      -1.932   2.191  -3.595  0.00  0.00    -0.002 A 
ATOM      2  C1  UNL d   1      -3.110   1.912  -2.916  0.00  0.00     0.010 A 
ATOM      3  C2  UNL d   1      -3.079   1.275  -1.674  0.00  0.00     0.041 A 
ATOM      4  C3  UNL d   1      -1.833   0.923  -1.119  0.00  0.00    -0.075 A 
ATOM      5  S   UNL d   1      -1.552   0.138   0.390  0.00  0.00     0.015 SA
ATOM      6  C4  UNL d   1       0.138   0.156   0.169  0.00  0.00     0.022 A 
ATOM      7  C5  UNL d   1       0.496   0.742  -1.021  0.00  0.00     0.026 A 
ATOM      8  C6  UNL d   1      -0.634   1.195  -1.783  0.00  0.00    -0.082 A 
ATOM      9  C7  UNL d   1      -0.698   1.840  -3.042  0.00  0.00     0.045 A 
ENDROOT
TORSDOF 0
ENDMDL
