MODEL 1
REMARK minimizedAffinity -3.31803536
REMARK minimizedRMSD -1
REMARK  0 active torsions:
REMARK  status: ('A' for Active; 'I' for Inactive)
ROOT
ATOM      1  C   UNL d   1       1.626  -0.319  -0.233  0.00  0.00    -0.002 A 
ATOM      2  C1  UNL d   1       0.635  -0.929   0.523  0.00  0.00     0.010 A 
ATOM      3  C2  UNL d   1      -0.691  -0.501   0.433  0.00  0.00     0.041 A 
ATOM      4  C3  UNL d   1      -1.008   0.559  -0.439  0.00  0.00    -0.075 A 
ATOM      5  S   UNL d   1      -2.563   1.250  -0.714  0.00  0.00     0.015 SA
ATOM      6  C4  UNL d   1      -1.949   2.370  -1.842  0.00  0.00     0.022 A 
ATOM      7  C5  UNL d   1      -0.592   2.235  -2.016  0.00  0.00     0.026 A 
ATOM      8  C6  UNL d   1      -0.027   1.188  -1.211  0.00  0.00    -0.082 A 
ATOM      9  C7  UNL d   1       1.308   0.732  -1.097  0.00  0.00     0.045 A 
ENDROOT
TORSDOF 0
ENDMDL
