MODEL 1
REMARK minimizedAffinity -1.56847167
REMARK minimizedRMSD -1
REMARK  0 active torsions:
REMARK  status: ('A' for Active; 'I' for Inactive)
ROOT
ATOM      1  C   UNL d   1       2.723  -1.112   0.343  0.00  0.00    -0.002 A 
ATOM      2  C1  UNL d   1       1.874  -1.914   1.092  0.00  0.00     0.010 A 
ATOM      3  C2  UNL d   1       0.496  -1.685   1.091  0.00  0.00     0.041 A 
ATOM      4  C3  UNL d   1      -0.018  -0.628   0.315  0.00  0.00    -0.075 A 
ATOM      5  S   UNL d   1      -1.671  -0.161   0.159  0.00  0.00     0.015 SA
ATOM      6  C4  UNL d   1      -1.288   1.113  -0.906  0.00  0.00     0.022 A 
ATOM      7  C5  UNL d   1       0.063   1.195  -1.148  0.00  0.00     0.026 A 
ATOM      8  C6  UNL d   1       0.817   0.193  -0.449  0.00  0.00    -0.082 A 
ATOM      9  C7  UNL d   1       2.209  -0.064  -0.426  0.00  0.00     0.045 A 
ENDROOT
TORSDOF 0
ENDMDL
