MODEL 1
REMARK minimizedAffinity -3.62804174
REMARK minimizedRMSD -1
REMARK  1 active torsions:
REMARK  status: ('A' for Active; 'I' for Inactive)
REMARK    1  A    between atoms: C1_2  and  C2_3 
ROOT
ATOM      1  C2  UNL d   1       1.443  -0.998  -1.031  0.00  0.00    -0.081 A 
ATOM      2  C3  UNL d   1       1.372   0.367  -0.730  0.00  0.00     0.006 A 
ATOM      3  C4  UNL d   1       0.391   0.851   0.140  0.00  0.00     0.002 A 
ATOM      4  C5  UNL d   1      -0.529  -0.024   0.728  0.00  0.00    -0.080 A 
ATOM      5  C6  UNL d   1      -1.568   0.478   1.686  0.00  0.00     0.076 C 
ATOM      6  C7  UNL d   1      -0.469  -1.385   0.413  0.00  0.00     0.002 A 
ATOM      7  C8  UNL d   1       0.511  -1.869  -0.456  0.00  0.00     0.006 A 
ENDROOT
BRANCH   1   8
ATOM      8  C1  UNL d   1       2.540  -1.531  -1.917  0.00  0.00     0.054 C 
ATOM      9  C   UNL d   1       2.775  -3.015  -1.674  0.00  0.00     0.018 C 
ENDBRANCH   1   8
TORSDOF 1
ENDMDL
