MODEL 1
REMARK minimizedAffinity -4.89101648
REMARK minimizedRMSD -1
REMARK  1 active torsions:
REMARK  status: ('A' for Active; 'I' for Inactive)
REMARK    1  A    between atoms: C1_2  and  C2_3 
ROOT
ATOM      1  C2  UNL d   1       1.125  -1.339  -0.882  0.00  0.00    -0.081 A 
ATOM      2  C3  UNL d   1       0.159  -2.146  -0.268  0.00  0.00     0.006 A 
ATOM      3  C4  UNL d   1      -0.824  -1.579   0.546  0.00  0.00     0.002 A 
ATOM      4  C5  UNL d   1      -0.863  -0.196   0.752  0.00  0.00    -0.080 A 
ATOM      5  C6  UNL d   1      -1.931   0.430   1.599  0.00  0.00     0.076 C 
ATOM      6  C7  UNL d   1       0.112   0.609   0.153  0.00  0.00     0.002 A 
ATOM      7  C8  UNL d   1       1.096   0.042  -0.660  0.00  0.00     0.006 A 
ENDROOT
BRANCH   1   8
ATOM      8  C1  UNL d   1       2.148  -1.941  -1.812  0.00  0.00     0.054 C 
ATOM      9  C   UNL d   1       2.742  -0.888  -2.737  0.00  0.00     0.018 C 
ENDBRANCH   1   8
TORSDOF 1
ENDMDL
