MODEL 1
REMARK minimizedAffinity -4.77144051
REMARK minimizedRMSD -1
REMARK  1 active torsions:
REMARK  status: ('A' for Active; 'I' for Inactive)
REMARK    1  A    between atoms: C1_2  and  C2_3 
ROOT
ATOM      1  C2  UNL d   1       0.895  -1.296  -0.861  0.00  0.00    -0.081 A 
ATOM      2  C3  UNL d   1       1.651  -0.465  -1.697  0.00  0.00     0.006 A 
ATOM      3  C4  UNL d   1       1.568   0.924  -1.578  0.00  0.00     0.002 A 
ATOM      4  C5  UNL d   1       0.735   1.506  -0.617  0.00  0.00    -0.080 A 
ATOM      5  C6  UNL d   1       0.660   2.995  -0.458  0.00  0.00     0.076 C 
ATOM      6  C7  UNL d   1      -0.034   0.677   0.207  0.00  0.00     0.002 A 
ATOM      7  C8  UNL d   1       0.048  -0.713   0.088  0.00  0.00     0.006 A 
ENDROOT
BRANCH   1   8
ATOM      8  C1  UNL d   1       1.031  -2.795  -0.943  0.00  0.00     0.054 C 
ATOM      9  C   UNL d   1       2.370  -3.197  -1.545  0.00  0.00     0.018 C 
ENDBRANCH   1   8
TORSDOF 1
ENDMDL
