MODEL 1
REMARK minimizedAffinity -3.38383222
REMARK minimizedRMSD -1
REMARK  1 active torsions:
REMARK  status: ('A' for Active; 'I' for Inactive)
REMARK    1  A    between atoms: C1_2  and  C2_3 
ROOT
ATOM      1  C2  UNL d   1      -0.469  -0.277   0.782  0.00  0.00    -0.081 A 
ATOM      2  C3  UNL d   1      -0.499  -1.675   0.870  0.00  0.00     0.006 A 
ATOM      3  C4  UNL d   1       0.401  -2.450   0.135  0.00  0.00     0.002 A 
ATOM      4  C5  UNL d   1       1.351  -1.842  -0.693  0.00  0.00    -0.080 A 
ATOM      5  C6  UNL d   1       2.342  -2.661  -1.464  0.00  0.00     0.076 C 
ATOM      6  C7  UNL d   1       1.369  -0.446  -0.795  0.00  0.00     0.002 A 
ATOM      7  C8  UNL d   1       0.469   0.329  -0.061  0.00  0.00     0.006 A 
ENDROOT
BRANCH   1   8
ATOM      8  C1  UNL d   1      -1.395   0.563   1.622  0.00  0.00     0.054 C 
ATOM      9  C   UNL d   1      -2.853   0.294   1.277  0.00  0.00     0.018 C 
ENDBRANCH   1   8
TORSDOF 1
ENDMDL
