MODEL 1
REMARK minimizedAffinity 0.826654732
REMARK minimizedRMSD -1
REMARK  1 active torsions:
REMARK  status: ('A' for Active; 'I' for Inactive)
REMARK    1  A    between atoms: C1_2  and  C2_3 
ROOT
ATOM      1  C2  UNL d   1       0.849  -0.535  -0.094  0.00  0.00    -0.081 A 
ATOM      2  C3  UNL d   1       1.786   0.094  -0.923  0.00  0.00     0.006 A 
ATOM      3  C4  UNL d   1       1.811   1.486  -1.036  0.00  0.00     0.002 A 
ATOM      4  C5  UNL d   1       0.904   2.272  -0.318  0.00  0.00    -0.080 A 
ATOM      5  C6  UNL d   1       0.939   3.769  -0.408  0.00  0.00     0.076 C 
ATOM      6  C7  UNL d   1      -0.044   1.644   0.497  0.00  0.00     0.002 A 
ATOM      7  C8  UNL d   1      -0.069   0.252   0.611  0.00  0.00     0.006 A 
ENDROOT
BRANCH   1   8
ATOM      8  C1  UNL d   1       0.862  -2.032   0.081  0.00  0.00     0.054 C 
ATOM      9  C   UNL d   1      -0.356  -2.675  -0.566  0.00  0.00     0.018 C 
ENDBRANCH   1   8
TORSDOF 1
ENDMDL
