MODEL 1
REMARK minimizedAffinity -0.98439312
REMARK minimizedRMSD -1
REMARK  1 active torsions:
REMARK  status: ('A' for Active; 'I' for Inactive)
REMARK    1  A    between atoms: C1_2  and  C2_3 
ROOT
ATOM      1  C2  UNL d   1      -3.583   4.471  -5.787  0.00  0.00    -0.081 A 
ATOM      2  C3  UNL d   1      -4.026   3.157  -5.983  0.00  0.00     0.006 A 
ATOM      3  C4  UNL d   1      -3.178   2.078  -5.727  0.00  0.00     0.002 A 
ATOM      4  C5  UNL d   1      -1.875   2.293  -5.264  0.00  0.00    -0.080 A 
ATOM      5  C6  UNL d   1      -0.964   1.142  -4.956  0.00  0.00     0.076 C 
ATOM      6  C7  UNL d   1      -1.426   3.606  -5.084  0.00  0.00     0.002 A 
ATOM      7  C8  UNL d   1      -2.274   4.686  -5.341  0.00  0.00     0.006 A 
ENDROOT
BRANCH   1   8
ATOM      8  C1  UNL d   1      -4.517   5.635  -6.000  0.00  0.00     0.054 C 
ATOM      9  C   UNL d   1      -5.972   5.191  -5.959  0.00  0.00     0.018 C 
ENDBRANCH   1   8
TORSDOF 1
ENDMDL
