MODEL 1
REMARK minimizedAffinity 3.48026919
REMARK minimizedRMSD -1
REMARK  1 active torsions:
REMARK  status: ('A' for Active; 'I' for Inactive)
REMARK    1  A    between atoms: C1_2  and  C2_3 
ROOT
ATOM      1  C2  UNL d   1       1.704   0.768  -1.834  0.00  0.00    -0.081 A 
ATOM      2  C3  UNL d   1       2.030   0.831  -0.473  0.00  0.00     0.006 A 
ATOM      3  C4  UNL d   1       1.906   2.032   0.230  0.00  0.00     0.002 A 
ATOM      4  C5  UNL d   1       1.447   3.186  -0.413  0.00  0.00    -0.080 A 
ATOM      5  C6  UNL d   1       1.280   4.474   0.337  0.00  0.00     0.076 C 
ATOM      6  C7  UNL d   1       1.138   3.128  -1.776  0.00  0.00     0.002 A 
ATOM      7  C8  UNL d   1       1.262   1.928  -2.480  0.00  0.00     0.006 A 
ENDROOT
BRANCH   1   8
ATOM      8  C1  UNL d   1       1.776  -0.540  -2.579  0.00  0.00     0.054 C 
ATOM      9  C   UNL d   1       0.777  -1.547  -2.026  0.00  0.00     0.018 C 
ENDBRANCH   1   8
TORSDOF 1
ENDMDL
