MODEL 1
REMARK minimizedAffinity 4.65874386
REMARK minimizedRMSD -1
REMARK  1 active torsions:
REMARK  status: ('A' for Active; 'I' for Inactive)
REMARK    1  A    between atoms: C1_2  and  C2_3 
ROOT
ATOM      1  C2  UNL d   1       1.296  -0.125  -0.624  0.00  0.00    -0.081 A 
ATOM      2  C3  UNL d   1       0.930  -0.086   0.727  0.00  0.00     0.006 A 
ATOM      3  C4  UNL d   1       0.255  -1.162   1.308  0.00  0.00     0.002 A 
ATOM      4  C5  UNL d   1      -0.057  -2.297   0.552  0.00  0.00    -0.080 A 
ATOM      5  C6  UNL d   1      -0.754  -3.471   1.172  0.00  0.00     0.076 C 
ATOM      6  C7  UNL d   1       0.294  -2.328  -0.802  0.00  0.00     0.002 A 
ATOM      7  C8  UNL d   1       0.968  -1.252  -1.384  0.00  0.00     0.006 A 
ENDROOT
BRANCH   1   8
ATOM      8  C1  UNL d   1       2.081   1.007  -1.238  0.00  0.00     0.054 C 
ATOM      9  C   UNL d   1       1.177   2.178  -1.593  0.00  0.00     0.018 C 
ENDBRANCH   1   8
TORSDOF 1
ENDMDL
