MODEL 1
REMARK minimizedAffinity 4.7859354
REMARK minimizedRMSD -1
REMARK  1 active torsions:
REMARK  status: ('A' for Active; 'I' for Inactive)
REMARK    1  A    between atoms: C1_2  and  C2_3 
ROOT
ATOM      1  C2  UNL d   1       1.641   0.304  -1.720  0.00  0.00    -0.081 A 
ATOM      2  C3  UNL d   1       2.238   0.923  -0.615  0.00  0.00     0.006 A 
ATOM      3  C4  UNL d   1       2.154   2.307  -0.448  0.00  0.00     0.002 A 
ATOM      4  C5  UNL d   1       1.466   3.094  -1.378  0.00  0.00    -0.080 A 
ATOM      5  C6  UNL d   1       1.343   4.577  -1.194  0.00  0.00     0.076 C 
ATOM      6  C7  UNL d   1       0.885   2.478  -2.491  0.00  0.00     0.002 A 
ATOM      7  C8  UNL d   1       0.969   1.094  -2.659  0.00  0.00     0.006 A 
ENDROOT
BRANCH   1   8
ATOM      8  C1  UNL d   1       1.675  -1.196  -1.869  0.00  0.00     0.054 C 
ATOM      9  C   UNL d   1       0.597  -1.860  -1.025  0.00  0.00     0.018 C 
ENDBRANCH   1   8
TORSDOF 1
ENDMDL
