MODEL 1
REMARK minimizedAffinity -4.59889746
REMARK minimizedRMSD -1
REMARK  1 active torsions:
REMARK  status: ('A' for Active; 'I' for Inactive)
REMARK    1  A    between atoms: C1_2  and  C2_3 
ROOT
ATOM      1  C2  UNL d   1      -0.669  -1.172   0.483  0.00  0.00    -0.081 A 
ATOM      2  C3  UNL d   1      -1.947  -0.897  -0.019  0.00  0.00     0.006 A 
ATOM      3  C4  UNL d   1      -2.222   0.332  -0.622  0.00  0.00     0.002 A 
ATOM      4  C5  UNL d   1      -1.223   1.304  -0.740  0.00  0.00    -0.080 A 
ATOM      5  C6  UNL d   1      -1.496   2.616  -1.413  0.00  0.00     0.076 C 
ATOM      6  C7  UNL d   1       0.050   1.036  -0.224  0.00  0.00     0.002 A 
ATOM      7  C8  UNL d   1       0.325  -0.193   0.380  0.00  0.00     0.006 A 
ENDROOT
BRANCH   1   8
ATOM      8  C1  UNL d   1      -0.352  -2.521   1.075  0.00  0.00     0.054 C 
ATOM      9  C   UNL d   1       0.336  -3.424   0.061  0.00  0.00     0.018 C 
ENDBRANCH   1   8
TORSDOF 1
ENDMDL
