MODEL 1
REMARK minimizedAffinity 2.82793641
REMARK minimizedRMSD -1
REMARK  1 active torsions:
REMARK  status: ('A' for Active; 'I' for Inactive)
REMARK    1  A    between atoms: C1_2  and  C2_3 
ROOT
ATOM      1  C2  UNL d   1       0.028  -0.920  -0.301  0.00  0.00    -0.081 A 
ATOM      2  C3  UNL d   1      -0.121  -0.540   1.038  0.00  0.00     0.006 A 
ATOM      3  C4  UNL d   1       0.481   0.627   1.514  0.00  0.00     0.002 A 
ATOM      4  C5  UNL d   1       1.234   1.438   0.658  0.00  0.00    -0.080 A 
ATOM      5  C6  UNL d   1       1.860   2.709   1.149  0.00  0.00     0.076 C 
ATOM      6  C7  UNL d   1       1.397   1.050  -0.676  0.00  0.00     0.002 A 
ATOM      7  C8  UNL d   1       0.797  -0.118  -1.152  0.00  0.00     0.006 A 
ENDROOT
BRANCH   1   8
ATOM      8  C1  UNL d   1      -0.672  -2.144  -0.834  0.00  0.00     0.054 C 
ATOM      9  C   UNL d   1      -0.820  -2.083  -2.347  0.00  0.00     0.018 C 
ENDBRANCH   1   8
TORSDOF 1
ENDMDL
