MODEL 1
REMARK minimizedAffinity 0.781176031
REMARK minimizedRMSD -1
REMARK  1 active torsions:
REMARK  status: ('A' for Active; 'I' for Inactive)
REMARK    1  A    between atoms: C1_2  and  C2_3 
ROOT
ATOM      1  C2  UNL d   1      -4.062   0.917  -5.866  0.00  0.00    -0.081 A 
ATOM      2  C3  UNL d   1      -4.460   2.243  -5.656  0.00  0.00     0.006 A 
ATOM      3  C4  UNL d   1      -3.511   3.266  -5.592  0.00  0.00     0.002 A 
ATOM      4  C5  UNL d   1      -2.150   2.981  -5.744  0.00  0.00    -0.080 A 
ATOM      5  C6  UNL d   1      -1.123   4.074  -5.708  0.00  0.00     0.076 C 
ATOM      6  C7  UNL d   1      -1.750   1.654  -5.936  0.00  0.00     0.002 A 
ATOM      7  C8  UNL d   1      -2.699   0.631  -6.000  0.00  0.00     0.006 A 
ENDROOT
BRANCH   1   8
ATOM      8  C1  UNL d   1      -5.088  -0.179  -6.000  0.00  0.00     0.054 C 
ATOM      9  C   UNL d   1      -4.509  -1.530  -5.602  0.00  0.00     0.018 C 
ENDBRANCH   1   8
TORSDOF 1
ENDMDL
