MODEL 1
REMARK minimizedAffinity 2.80658746
REMARK minimizedRMSD -1
REMARK  1 active torsions:
REMARK  status: ('A' for Active; 'I' for Inactive)
REMARK    1  A    between atoms: C1_2  and  C2_3 
ROOT
ATOM      1  C2  UNL d   1       0.619  -1.606   0.085  0.00  0.00    -0.081 A 
ATOM      2  C3  UNL d   1       0.303  -0.265   0.336  0.00  0.00     0.006 A 
ATOM      3  C4  UNL d   1       1.127   0.758  -0.139  0.00  0.00     0.002 A 
ATOM      4  C5  UNL d   1       2.276   0.458  -0.878  0.00  0.00    -0.080 A 
ATOM      5  C6  UNL d   1       3.153   1.548  -1.419  0.00  0.00     0.076 C 
ATOM      6  C7  UNL d   1       2.602  -0.881  -1.114  0.00  0.00     0.002 A 
ATOM      7  C8  UNL d   1       1.779  -1.905  -0.639  0.00  0.00     0.006 A 
ENDROOT
BRANCH   1   8
ATOM      8  C1  UNL d   1      -0.301  -2.709   0.540  0.00  0.00     0.054 C 
ATOM      9  C   UNL d   1      -1.163  -3.218  -0.606  0.00  0.00     0.018 C 
ENDBRANCH   1   8
TORSDOF 1
ENDMDL
