MODEL 1
REMARK minimizedAffinity -4.37606573
REMARK minimizedRMSD -1
REMARK  1 active torsions:
REMARK  status: ('A' for Active; 'I' for Inactive)
REMARK    1  A    between atoms: C1_2  and  C2_3 
ROOT
ATOM      1  C2  UNL d   1      -2.882   0.318   1.717  0.00  0.00    -0.081 A 
ATOM      2  C3  UNL d   1      -1.522   0.611   1.875  0.00  0.00     0.006 A 
ATOM      3  C4  UNL d   1      -0.548  -0.253   1.368  0.00  0.00     0.002 A 
ATOM      4  C5  UNL d   1      -0.918  -1.418   0.687  0.00  0.00    -0.080 A 
ATOM      5  C6  UNL d   1       0.117  -2.338   0.111  0.00  0.00     0.076 C 
ATOM      6  C7  UNL d   1      -2.276  -1.719   0.544  0.00  0.00     0.002 A 
ATOM      7  C8  UNL d   1      -3.250  -0.856   1.052  0.00  0.00     0.006 A 
ENDROOT
BRANCH   1   8
ATOM      8  C1  UNL d   1      -3.934   1.280   2.206  0.00  0.00     0.054 C 
ATOM      9  C   UNL d   1      -3.330   2.634   2.549  0.00  0.00     0.018 C 
ENDBRANCH   1   8
TORSDOF 1
ENDMDL
