MODEL 1
REMARK minimizedAffinity -2.05172729
REMARK minimizedRMSD -1
REMARK  0 active torsions:
REMARK  status: ('A' for Active; 'I' for Inactive)
ROOT
ATOM      1  C1  BNZ d   1       0.245   3.854  -3.478  0.00  0.00     0.000 A 
ATOM      2  C2  BNZ d   1       0.203   3.718  -2.116  0.00  0.00     0.000 A 
ATOM      3  C3  BNZ d   1      -0.644   2.821  -1.527  0.00  0.00     0.000 A 
ATOM      4  C4  BNZ d   1      -1.476   2.092  -2.298  0.00  0.00     0.000 A 
ATOM      5  C5  BNZ d   1      -1.453   2.225  -3.672  0.00  0.00     0.000 A 
ATOM      6  C6  BNZ d   1      -0.572   3.100  -4.263  0.00  0.00     0.000 A 
ENDROOT
TORSDOF 0
ENDMDL
