MODEL 1
REMARK minimizedAffinity -3.72845507
REMARK minimizedRMSD -1
REMARK  0 active torsions:
REMARK  status: ('A' for Active; 'I' for Inactive)
ROOT
ATOM      1  C1  BNZ d   1      -0.512   2.108  -1.563  0.00  0.00     0.000 A 
ATOM      2  C2  BNZ d   1      -1.663   1.370  -1.480  0.00  0.00     0.000 A 
ATOM      3  C3  BNZ d   1      -2.646   1.499  -2.422  0.00  0.00     0.000 A 
ATOM      4  C4  BNZ d   1      -2.495   2.393  -3.420  0.00  0.00     0.000 A 
ATOM      5  C5  BNZ d   1      -1.344   3.151  -3.511  0.00  0.00     0.000 A 
ATOM      6  C6  BNZ d   1      -0.340   2.990  -2.584  0.00  0.00     0.000 A 
ENDROOT
TORSDOF 0
ENDMDL
