MODEL 1
REMARK minimizedAffinity -2.05497217
REMARK minimizedRMSD -1
REMARK  0 active torsions:
REMARK  status: ('A' for Active; 'I' for Inactive)
ROOT
ATOM      1  C1  BNZ d   1       0.185   3.723   0.114  0.00  0.00     0.000 A 
ATOM      2  C2  BNZ d   1       0.850   2.729  -0.553  0.00  0.00     0.000 A 
ATOM      3  C3  BNZ d   1       2.204   2.589  -0.431  0.00  0.00     0.000 A 
ATOM      4  C4  BNZ d   1       2.896   3.466   0.325  0.00  0.00     0.000 A 
ATOM      5  C5  BNZ d   1       2.241   4.479   0.997  0.00  0.00     0.000 A 
ATOM      6  C6  BNZ d   1       0.873   4.593   0.903  0.00  0.00     0.000 A 
ENDROOT
TORSDOF 0
ENDMDL
