MODEL 1
REMARK minimizedAffinity -1.93364322
REMARK minimizedRMSD -1
REMARK  0 active torsions:
REMARK  status: ('A' for Active; 'I' for Inactive)
ROOT
ATOM      1  C1  BNZ d   1      -0.366  -1.314   1.219  0.00  0.00     0.000 A 
ATOM      2  C2  BNZ d   1       0.164  -0.787   0.072  0.00  0.00     0.000 A 
ATOM      3  C3  BNZ d   1      -0.250   0.429  -0.396  0.00  0.00     0.000 A 
ATOM      4  C4  BNZ d   1      -1.220   1.097   0.261  0.00  0.00     0.000 A 
ATOM      5  C5  BNZ d   1      -1.771   0.574   1.415  0.00  0.00     0.000 A 
ATOM      6  C6  BNZ d   1      -1.324  -0.632   1.904  0.00  0.00     0.000 A 
ENDROOT
TORSDOF 0
ENDMDL
