MODEL 1
REMARK minimizedAffinity -2.41486764
REMARK minimizedRMSD -1
REMARK  0 active torsions:
REMARK  status: ('A' for Active; 'I' for Inactive)
ROOT
ATOM      1  C1  BNZ d   1       3.117   0.071   0.347  0.00  0.00     0.000 A 
ATOM      2  C2  BNZ d   1       1.971   0.345  -0.349  0.00  0.00     0.000 A 
ATOM      3  C3  BNZ d   1       0.855  -0.430  -0.194  0.00  0.00     0.000 A 
ATOM      4  C4  BNZ d   1       0.900  -1.500   0.625  0.00  0.00     0.000 A 
ATOM      5  C5  BNZ d   1       2.052  -1.795   1.327  0.00  0.00     0.000 A 
ATOM      6  C6  BNZ d   1       3.160  -0.990   1.199  0.00  0.00     0.000 A 
ENDROOT
TORSDOF 0
ENDMDL
