MODEL 1
REMARK minimizedAffinity -0.88075155
REMARK minimizedRMSD -1
REMARK  0 active torsions:
REMARK  status: ('A' for Active; 'I' for Inactive)
ROOT
ATOM      1  C1  BNZ d   1      -0.734  -1.796   1.071  0.00  0.00     0.000 A 
ATOM      2  C2  BNZ d   1      -0.284  -0.933   0.108  0.00  0.00     0.000 A 
ATOM      3  C3  BNZ d   1      -0.631   0.389   0.136  0.00  0.00     0.000 A 
ATOM      4  C4  BNZ d   1      -1.459   0.837   1.101  0.00  0.00     0.000 A 
ATOM      5  C5  BNZ d   1      -1.929  -0.023   2.073  0.00  0.00     0.000 A 
ATOM      6  C6  BNZ d   1      -1.547  -1.345   2.065  0.00  0.00     0.000 A 
ENDROOT
TORSDOF 0
ENDMDL
