MODEL 1
REMARK minimizedAffinity -3.66040134
REMARK minimizedRMSD -1
REMARK  0 active torsions:
REMARK  status: ('A' for Active; 'I' for Inactive)
ROOT
ATOM      1  C1  BNZ d   1       0.580  -1.313   0.783  0.00  0.00     0.000 A 
ATOM      2  C2  BNZ d   1       1.895  -1.694   0.755  0.00  0.00     0.000 A 
ATOM      3  C3  BNZ d   1       2.852  -0.869   0.234  0.00  0.00     0.000 A 
ATOM      4  C4  BNZ d   1       2.488   0.317  -0.296  0.00  0.00     0.000 A 
ATOM      5  C5  BNZ d   1       1.165   0.711  -0.284  0.00  0.00     0.000 A 
ATOM      6  C6  BNZ d   1       0.210  -0.105   0.277  0.00  0.00     0.000 A 
ENDROOT
TORSDOF 0
ENDMDL
