MODEL 1
REMARK minimizedAffinity -2.77647877
REMARK minimizedRMSD -1
REMARK  0 active torsions:
REMARK  status: ('A' for Active; 'I' for Inactive)
ROOT
ATOM      1  C1  BNZ d   1       0.386  -2.134   1.095  0.00  0.00     0.000 A 
ATOM      2  C2  BNZ d   1      -0.806  -1.462   1.146  0.00  0.00     0.000 A 
ATOM      3  C3  BNZ d   1      -0.957  -0.255   0.523  0.00  0.00     0.000 A 
ATOM      4  C4  BNZ d   1       0.095   0.297  -0.116  0.00  0.00     0.000 A 
ATOM      5  C5  BNZ d   1       1.306  -0.364  -0.169  0.00  0.00     0.000 A 
ATOM      6  C6  BNZ d   1       1.443  -1.597   0.427  0.00  0.00     0.000 A 
ENDROOT
TORSDOF 0
ENDMDL
