MODEL 1
REMARK minimizedAffinity -4.16609335
REMARK minimizedRMSD -1
REMARK  0 active torsions:
REMARK  status: ('A' for Active; 'I' for Inactive)
ROOT
ATOM      1  C1  BNZ d   1       1.692  -0.495   0.000  0.00  0.00     0.000 A 
ATOM      2  C2  BNZ d   1       1.677  -1.711   0.629  0.00  0.00     0.000 A 
ATOM      3  C3  BNZ d   1       0.544  -2.167   1.243  0.00  0.00     0.000 A 
ATOM      4  C4  BNZ d   1      -0.559  -1.391   1.261  0.00  0.00     0.000 A 
ATOM      5  C5  BNZ d   1      -0.557  -0.158   0.639  0.00  0.00     0.000 A 
ATOM      6  C6  BNZ d   1       0.574   0.281  -0.011  0.00  0.00     0.000 A 
ENDROOT
TORSDOF 0
ENDMDL
