MODEL 1
REMARK minimizedAffinity -4.15466499
REMARK minimizedRMSD -1
REMARK  0 active torsions:
REMARK  status: ('A' for Active; 'I' for Inactive)
ROOT
ATOM      1  C1  BNZ d   1      -0.538  -0.336   0.654  0.00  0.00     0.000 A 
ATOM      2  C2  BNZ d   1      -0.336  -1.488   1.368  0.00  0.00     0.000 A 
ATOM      3  C3  BNZ d   1       0.806  -2.221   1.204  0.00  0.00     0.000 A 
ATOM      4  C4  BNZ d   1       1.724  -1.825   0.300  0.00  0.00     0.000 A 
ATOM      5  C5  BNZ d   1       1.531  -0.671  -0.434  0.00  0.00     0.000 A 
ATOM      6  C6  BNZ d   1       0.398   0.085  -0.239  0.00  0.00     0.000 A 
ENDROOT
TORSDOF 0
ENDMDL
