MODEL 1
REMARK minimizedAffinity -1.78406715
REMARK minimizedRMSD -1
REMARK  0 active torsions:
REMARK  status: ('A' for Active; 'I' for Inactive)
ROOT
ATOM      1  C1  BNZ d   1      -0.078   1.612  -0.070  0.00  0.00     0.000 A 
ATOM      2  C2  BNZ d   1      -1.118   0.949  -0.665  0.00  0.00     0.000 A 
ATOM      3  C3  BNZ d   1      -1.793   1.504  -1.716  0.00  0.00     0.000 A 
ATOM      4  C4  BNZ d   1      -1.454   2.737  -2.144  0.00  0.00     0.000 A 
ATOM      5  C5  BNZ d   1      -0.415   3.423  -1.549  0.00  0.00     0.000 A 
ATOM      6  C6  BNZ d   1       0.288   2.845  -0.516  0.00  0.00     0.000 A 
ENDROOT
TORSDOF 0
ENDMDL
