MODEL 1
REMARK minimizedAffinity -2.72871709
REMARK minimizedRMSD -1
REMARK  0 active torsions:
REMARK  status: ('A' for Active; 'I' for Inactive)
ROOT
ATOM      1  C1  BNZ d   1       1.332   3.367  -0.113  0.00  0.00     0.000 A 
ATOM      2  C2  BNZ d   1       0.035   2.930  -0.071  0.00  0.00     0.000 A 
ATOM      3  C3  BNZ d   1      -0.258   1.599  -0.169  0.00  0.00     0.000 A 
ATOM      4  C4  BNZ d   1       0.741   0.711  -0.349  0.00  0.00     0.000 A 
ATOM      5  C5  BNZ d   1       2.053   1.137  -0.402  0.00  0.00     0.000 A 
ATOM      6  C6  BNZ d   1       2.348   2.474  -0.264  0.00  0.00     0.000 A 
ENDROOT
TORSDOF 0
ENDMDL
