MODEL 1
REMARK minimizedAffinity 1.35701954
REMARK minimizedRMSD -1
REMARK  0 active torsions:
REMARK  status: ('A' for Active; 'I' for Inactive)
ROOT
ATOM      1  C1  BNZ d   1      -1.483   1.051  -1.767  0.00  0.00     0.000 A 
ATOM      2  C2  BNZ d   1      -1.337   2.183  -2.524  0.00  0.00     0.000 A 
ATOM      3  C3  BNZ d   1      -2.045   2.347  -3.681  0.00  0.00     0.000 A 
ATOM      4  C4  BNZ d   1      -2.867   1.364  -4.101  0.00  0.00     0.000 A 
ATOM      5  C5  BNZ d   1      -3.018   0.212  -3.354  0.00  0.00     0.000 A 
ATOM      6  C6  BNZ d   1      -2.333   0.067  -2.170  0.00  0.00     0.000 A 
ENDROOT
TORSDOF 0
ENDMDL
