MODEL 1
REMARK minimizedAffinity -3.03331375
REMARK minimizedRMSD -1
REMARK  0 active torsions:
REMARK  status: ('A' for Active; 'I' for Inactive)
ROOT
ATOM      1  C1  BNZ d   1       1.462  -0.399  -0.166  0.00  0.00     0.000 A 
ATOM      2  C2  BNZ d   1       1.479  -1.643   0.405  0.00  0.00     0.000 A 
ATOM      3  C3  BNZ d   1       0.352  -2.168   0.973  0.00  0.00     0.000 A 
ATOM      4  C4  BNZ d   1      -0.778  -1.432   1.006  0.00  0.00     0.000 A 
ATOM      5  C5  BNZ d   1      -0.809  -0.172   0.443  0.00  0.00     0.000 A 
ATOM      6  C6  BNZ d   1       0.317   0.337  -0.163  0.00  0.00     0.000 A 
ENDROOT
TORSDOF 0
ENDMDL
