MODEL 1
REMARK minimizedAffinity -4.16504145
REMARK minimizedRMSD -1
REMARK  0 active torsions:
REMARK  status: ('A' for Active; 'I' for Inactive)
ROOT
ATOM      1  C1  BNZ d   1      -1.377   3.017  -3.100  0.00  0.00     0.000 A 
ATOM      2  C2  BNZ d   1      -0.924   3.435  -1.878  0.00  0.00     0.000 A 
ATOM      3  C3  BNZ d   1      -1.288   2.779  -0.735  0.00  0.00     0.000 A 
ATOM      4  C4  BNZ d   1      -2.134   1.732  -0.812  0.00  0.00     0.000 A 
ATOM      5  C5  BNZ d   1      -2.607   1.304  -2.037  0.00  0.00     0.000 A 
ATOM      6  C6  BNZ d   1      -2.208   1.943  -3.188  0.00  0.00     0.000 A 
ENDROOT
TORSDOF 0
ENDMDL
