MODEL 1
REMARK minimizedAffinity -1.79790473
REMARK minimizedRMSD -1
REMARK  0 active torsions:
REMARK  status: ('A' for Active; 'I' for Inactive)
ROOT
ATOM      1  C1  BNZ d   1      -0.487   0.586   0.085  0.00  0.00     0.000 A 
ATOM      2  C2  BNZ d   1       0.387   1.351   0.811  0.00  0.00     0.000 A 
ATOM      3  C3  BNZ d   1       0.308   1.399   2.175  0.00  0.00     0.000 A 
ATOM      4  C4  BNZ d   1      -0.667   0.716   2.808  0.00  0.00     0.000 A 
ATOM      5  C5  BNZ d   1      -1.562  -0.052   2.089  0.00  0.00     0.000 A 
ATOM      6  C6  BNZ d   1      -1.455  -0.129   0.719  0.00  0.00     0.000 A 
ENDROOT
TORSDOF 0
ENDMDL
