MODEL 1
REMARK minimizedAffinity 0.396470219
REMARK minimizedRMSD -1
REMARK  0 active torsions:
REMARK  status: ('A' for Active; 'I' for Inactive)
ROOT
ATOM      1  C1  BNZ d   1       0.731   2.305   0.888  0.00  0.00     0.000 A 
ATOM      2  C2  BNZ d   1      -0.191   1.309   0.706  0.00  0.00     0.000 A 
ATOM      3  C3  BNZ d   1       0.065   0.033   1.123  0.00  0.00     0.000 A 
ATOM      4  C4  BNZ d   1       1.257  -0.255   1.683  0.00  0.00     0.000 A 
ATOM      5  C5  BNZ d   1       2.202   0.736   1.865  0.00  0.00     0.000 A 
ATOM      6  C6  BNZ d   1       1.925   2.027   1.480  0.00  0.00     0.000 A 
ENDROOT
TORSDOF 0
ENDMDL
