MODEL 1
REMARK minimizedAffinity 0.122644328
REMARK minimizedRMSD -1
REMARK  0 active torsions:
REMARK  status: ('A' for Active; 'I' for Inactive)
ROOT
ATOM      1  C1  BNZ d   1      -1.457   0.137   1.254  0.00  0.00     0.000 A 
ATOM      2  C2  BNZ d   1      -1.482   0.343   2.607  0.00  0.00     0.000 A 
ATOM      3  C3  BNZ d   1      -0.591   1.193   3.202  0.00  0.00     0.000 A 
ATOM      4  C4  BNZ d   1       0.347   1.803   2.449  0.00  0.00     0.000 A 
ATOM      5  C5  BNZ d   1       0.390   1.598   1.085  0.00  0.00     0.000 A 
ATOM      6  C6  BNZ d   1      -0.532   0.772   0.484  0.00  0.00     0.000 A 
ENDROOT
TORSDOF 0
ENDMDL
