MODEL 1
REMARK minimizedAffinity -3.03217125
REMARK minimizedRMSD -1
REMARK  0 active torsions:
REMARK  status: ('A' for Active; 'I' for Inactive)
ROOT
ATOM      1  C1  BNZ d   1      -0.973   0.488   2.812  0.00  0.00     0.000 A 
ATOM      2  C2  BNZ d   1      -0.421   1.634   3.320  0.00  0.00     0.000 A 
ATOM      3  C3  BNZ d   1       0.723   2.157   2.785  0.00  0.00     0.000 A 
ATOM      4  C4  BNZ d   1       1.334   1.513   1.770  0.00  0.00     0.000 A 
ATOM      5  C5  BNZ d   1       0.795   0.352   1.252  0.00  0.00     0.000 A 
ATOM      6  C6  BNZ d   1      -0.378  -0.150   1.768  0.00  0.00     0.000 A 
ENDROOT
TORSDOF 0
ENDMDL
