MODEL 1
REMARK minimizedAffinity 2.51253724
REMARK minimizedRMSD -1
REMARK  2 active torsions:
REMARK  status: ('A' for Active; 'I' for Inactive)
REMARK    1  A    between atoms: C1_2  and  C2_3 
REMARK    2  A    between atoms: C2_3  and  C3_4 
ROOT
ATOM      1  C3  UNL d   1       1.857  -0.683  -0.253  0.00  0.00    -0.075 A 
ATOM      2  C4  UNL d   1       1.332   0.031   0.834  0.00  0.00     0.002 A 
ATOM      3  C5  UNL d   1       0.200  -0.432   1.506  0.00  0.00     0.002 A 
ATOM      4  C6  UNL d   1      -0.426  -1.607   1.094  0.00  0.00    -0.004 A 
ATOM      5  C7  UNL d   1       0.077  -2.315   0.005  0.00  0.00     0.002 A 
ATOM      6  C8  UNL d   1       1.212  -1.856  -0.666  0.00  0.00     0.002 A 
ENDROOT
BRANCH   1   7
ATOM      7  C2  UNL d   1       3.098  -0.202  -0.965  0.00  0.00     0.056 C 
BRANCH   7   8
ATOM      8  C1  UNL d   1       2.817   0.551  -2.270  0.00  0.00     0.007 C 
ATOM      9  C   UNL d   1       3.830   1.650  -2.559  0.00  0.00     0.009 C 
ENDBRANCH   7   8
ENDBRANCH   1   7
TORSDOF 2
ENDMDL
