MODEL 1
REMARK minimizedAffinity -2.09087944
REMARK minimizedRMSD -1
REMARK  2 active torsions:
REMARK  status: ('A' for Active; 'I' for Inactive)
REMARK    1  A    between atoms: C1_2  and  C2_3 
REMARK    2  A    between atoms: C2_3  and  C3_4 
ROOT
ATOM      1  C3  UNL d   1      -5.209  -3.880   4.585  0.00  0.00    -0.075 A 
ATOM      2  C4  UNL d   1      -5.247  -5.267   4.376  0.00  0.00     0.002 A 
ATOM      3  C5  UNL d   1      -5.085  -5.795   3.095  0.00  0.00     0.002 A 
ATOM      4  C6  UNL d   1      -4.893  -4.947   2.007  0.00  0.00    -0.004 A 
ATOM      5  C7  UNL d   1      -4.870  -3.567   2.200  0.00  0.00     0.002 A 
ATOM      6  C8  UNL d   1      -5.027  -3.036   3.481  0.00  0.00     0.002 A 
ENDROOT
BRANCH   1   7
ATOM      7  C2  UNL d   1      -5.354  -3.303   5.972  0.00  0.00     0.056 C 
BRANCH   7   8
ATOM      8  C1  UNL d   1      -5.616  -1.794   5.996  0.00  0.00     0.007 C 
ATOM      9  C   UNL d   1      -4.339  -0.963   6.000  0.00  0.00     0.009 C 
ENDBRANCH   7   8
ENDBRANCH   1   7
TORSDOF 2
ENDMDL
