MODEL 1
REMARK minimizedAffinity 0.943576276
REMARK minimizedRMSD -1
REMARK  2 active torsions:
REMARK  status: ('A' for Active; 'I' for Inactive)
REMARK    1  A    between atoms: C1_2  and  C2_3 
REMARK    2  A    between atoms: C2_3  and  C3_4 
ROOT
ATOM      1  C3  UNL d   1       0.610  -2.587   0.210  0.00  0.00    -0.075 A 
ATOM      2  C4  UNL d   1       1.972  -2.295   0.051  0.00  0.00     0.002 A 
ATOM      3  C5  UNL d   1       2.581  -1.310   0.828  0.00  0.00     0.002 A 
ATOM      4  C6  UNL d   1       1.836  -0.597   1.765  0.00  0.00    -0.004 A 
ATOM      5  C7  UNL d   1       0.478  -0.867   1.920  0.00  0.00     0.002 A 
ATOM      6  C8  UNL d   1      -0.133  -1.856   1.147  0.00  0.00     0.002 A 
ENDROOT
BRANCH   1   7
ATOM      7  C2  UNL d   1      -0.049  -3.673  -0.607  0.00  0.00     0.056 C 
BRANCH   7   8
ATOM      8  C1  UNL d   1       0.868  -4.304  -1.660  0.00  0.00     0.007 C 
ATOM      9  C   UNL d   1       0.331  -4.173  -3.079  0.00  0.00     0.009 C 
ENDBRANCH   7   8
ENDBRANCH   1   7
TORSDOF 2
ENDMDL
