MODEL 1
REMARK minimizedAffinity 2.20962524
REMARK minimizedRMSD -1
REMARK  2 active torsions:
REMARK  status: ('A' for Active; 'I' for Inactive)
REMARK    1  A    between atoms: C1_2  and  C2_3 
REMARK    2  A    between atoms: C2_3  and  C3_4 
ROOT
ATOM      1  C3  UNL d   1       1.672  -0.195   1.061  0.00  0.00    -0.075 A 
ATOM      2  C4  UNL d   1       0.529   0.245   1.743  0.00  0.00     0.002 A 
ATOM      3  C5  UNL d   1      -0.729  -0.263   1.419  0.00  0.00     0.002 A 
ATOM      4  C6  UNL d   1      -0.862  -1.206   0.403  0.00  0.00    -0.004 A 
ATOM      5  C7  UNL d   1       0.265  -1.639  -0.293  0.00  0.00     0.002 A 
ATOM      6  C8  UNL d   1       1.526  -1.136   0.032  0.00  0.00     0.002 A 
ENDROOT
BRANCH   1   7
ATOM      7  C2  UNL d   1       3.041   0.328   1.427  0.00  0.00     0.056 C 
BRANCH   7   8
ATOM      8  C1  UNL d   1       3.660  -0.351   2.654  0.00  0.00     0.007 C 
ATOM      9  C   UNL d   1       4.844  -1.245   2.311  0.00  0.00     0.009 C 
ENDBRANCH   7   8
ENDBRANCH   1   7
TORSDOF 2
ENDMDL
