MODEL 1
REMARK minimizedAffinity 0.773088694
REMARK minimizedRMSD -1
REMARK  2 active torsions:
REMARK  status: ('A' for Active; 'I' for Inactive)
REMARK    1  A    between atoms: C1_2  and  C2_3 
REMARK    2  A    between atoms: C2_3  and  C3_4 
ROOT
ATOM      1  C3  UNL d   1       1.759  -2.954  -0.483  0.00  0.00    -0.075 A 
ATOM      2  C4  UNL d   1       2.359  -1.701  -0.291  0.00  0.00     0.002 A 
ATOM      3  C5  UNL d   1       1.634  -0.644   0.258  0.00  0.00     0.002 A 
ATOM      4  C6  UNL d   1       0.298  -0.821   0.612  0.00  0.00    -0.004 A 
ATOM      5  C7  UNL d   1      -0.314  -2.057   0.411  0.00  0.00     0.002 A 
ATOM      6  C8  UNL d   1       0.411  -3.118  -0.134  0.00  0.00     0.002 A 
ENDROOT
BRANCH   1   7
ATOM      7  C2  UNL d   1       2.547  -4.110  -1.049  0.00  0.00     0.056 C 
BRANCH   7   8
ATOM      8  C1  UNL d   1       4.038  -4.081  -0.696  0.00  0.00     0.007 C 
ATOM      9  C   UNL d   1       4.626  -5.466  -0.460  0.00  0.00     0.009 C 
ENDBRANCH   7   8
ENDBRANCH   1   7
TORSDOF 2
ENDMDL
