MODEL 1
REMARK minimizedAffinity 10.6158142
REMARK minimizedRMSD -1
REMARK  2 active torsions:
REMARK  status: ('A' for Active; 'I' for Inactive)
REMARK    1  A    between atoms: C1_2  and  C2_3 
REMARK    2  A    between atoms: C2_3  and  C3_4 
ROOT
ATOM      1  C3  UNL d   1       2.923   2.934  -2.928  0.00  0.00    -0.075 A 
ATOM      2  C4  UNL d   1       2.539   4.238  -2.585  0.00  0.00     0.002 A 
ATOM      3  C5  UNL d   1       3.268   4.968  -1.646  0.00  0.00     0.002 A 
ATOM      4  C6  UNL d   1       4.383   4.401  -1.032  0.00  0.00    -0.004 A 
ATOM      5  C7  UNL d   1       4.764   3.100  -1.352  0.00  0.00     0.002 A 
ATOM      6  C8  UNL d   1       4.038   2.369  -2.295  0.00  0.00     0.002 A 
ENDROOT
BRANCH   1   7
ATOM      7  C2  UNL d   1       2.155   2.149  -3.964  0.00  0.00     0.056 C 
BRANCH   7   8
ATOM      8  C1  UNL d   1       2.687   0.730  -4.193  0.00  0.00     0.007 C 
ATOM      9  C   UNL d   1       1.672  -0.353  -3.853  0.00  0.00     0.009 C 
ENDBRANCH   7   8
ENDBRANCH   1   7
TORSDOF 2
ENDMDL
