MODEL 1
REMARK minimizedAffinity -2.95265055
REMARK minimizedRMSD -1
REMARK  2 active torsions:
REMARK  status: ('A' for Active; 'I' for Inactive)
REMARK    1  A    between atoms: C1_2  and  C2_3 
REMARK    2  A    between atoms: C2_3  and  C3_4 
ROOT
ATOM      1  C3  UNL d   1       1.272  -2.457   0.004  0.00  0.00    -0.075 A 
ATOM      2  C4  UNL d   1       0.081  -2.693   0.705  0.00  0.00     0.002 A 
ATOM      3  C5  UNL d   1      -0.616  -1.638   1.294  0.00  0.00     0.002 A 
ATOM      4  C6  UNL d   1      -0.126  -0.337   1.199  0.00  0.00    -0.004 A 
ATOM      5  C7  UNL d   1       1.065  -0.093   0.519  0.00  0.00     0.002 A 
ATOM      6  C8  UNL d   1       1.762  -1.146  -0.075  0.00  0.00     0.002 A 
ENDROOT
BRANCH   1   7
ATOM      7  C2  UNL d   1       2.015  -3.591  -0.661  0.00  0.00     0.056 C 
BRANCH   7   8
ATOM      8  C1  UNL d   1       3.540  -3.436  -0.639  0.00  0.00     0.007 C 
ATOM      9  C   UNL d   1       4.277  -4.765  -0.554  0.00  0.00     0.009 C 
ENDBRANCH   7   8
ENDBRANCH   1   7
TORSDOF 2
ENDMDL
