MODEL 1
REMARK minimizedAffinity -3.54434609
REMARK minimizedRMSD -1
REMARK  2 active torsions:
REMARK  status: ('A' for Active; 'I' for Inactive)
REMARK    1  A    between atoms: C1_2  and  C2_3 
REMARK    2  A    between atoms: C2_3  and  C3_4 
ROOT
ATOM      1  C3  UNL d   1       1.317  -2.554  -0.092  0.00  0.00    -0.075 A 
ATOM      2  C4  UNL d   1       1.908  -1.291   0.053  0.00  0.00     0.002 A 
ATOM      3  C5  UNL d   1       1.196  -0.236   0.626  0.00  0.00     0.002 A 
ATOM      4  C6  UNL d   1      -0.117  -0.428   1.051  0.00  0.00    -0.004 A 
ATOM      5  C7  UNL d   1      -0.720  -1.674   0.897  0.00  0.00     0.002 A 
ATOM      6  C8  UNL d   1      -0.008  -2.732   0.328  0.00  0.00     0.002 A 
ENDROOT
BRANCH   1   7
ATOM      7  C2  UNL d   1       2.092  -3.707  -0.684  0.00  0.00     0.056 C 
BRANCH   7   8
ATOM      8  C1  UNL d   1       3.603  -3.632  -0.441  0.00  0.00     0.007 C 
ATOM      9  C   UNL d   1       4.279  -4.997  -0.445  0.00  0.00     0.009 C 
ENDBRANCH   7   8
ENDBRANCH   1   7
TORSDOF 2
ENDMDL
