MODEL 1
REMARK minimizedAffinity 2.04583859
REMARK minimizedRMSD -1
REMARK  2 active torsions:
REMARK  status: ('A' for Active; 'I' for Inactive)
REMARK    1  A    between atoms: C1_2  and  C2_3 
REMARK    2  A    between atoms: C2_3  and  C3_4 
ROOT
ATOM      1  C3  UNL d   1       2.010  -1.346   0.139  0.00  0.00    -0.075 A 
ATOM      2  C4  UNL d   1       1.862  -0.596   1.315  0.00  0.00     0.002 A 
ATOM      3  C5  UNL d   1       0.608  -0.119   1.697  0.00  0.00     0.002 A 
ATOM      4  C6  UNL d   1      -0.509  -0.375   0.905  0.00  0.00    -0.004 A 
ATOM      5  C7  UNL d   1      -0.371  -1.105  -0.274  0.00  0.00     0.002 A 
ATOM      6  C8  UNL d   1       0.882  -1.588  -0.656  0.00  0.00     0.002 A 
ENDROOT
BRANCH   1   7
ATOM      7  C2  UNL d   1       3.360  -1.891  -0.265  0.00  0.00     0.056 C 
BRANCH   7   8
ATOM      8  C1  UNL d   1       3.385  -3.410  -0.464  0.00  0.00     0.007 C 
ATOM      9  C   UNL d   1       4.782  -4.007  -0.352  0.00  0.00     0.009 C 
ENDBRANCH   7   8
ENDBRANCH   1   7
TORSDOF 2
ENDMDL
