MODEL 1
REMARK minimizedAffinity -1.47808385
REMARK minimizedRMSD -1
REMARK  1 active torsions:
REMARK  status: ('A' for Active; 'I' for Inactive)
REMARK    1  A    between atoms: C1_2  and  C2_3 
ROOT
ATOM      1  C2  UNL d   1       1.836   1.031   0.511  0.00  0.00    -0.077 A 
ATOM      2  C3  UNL d   1       2.161   1.000   1.874  0.00  0.00     0.002 A 
ATOM      3  C4  UNL d   1       2.799   2.088   2.473  0.00  0.00     0.002 A 
ATOM      4  C5  UNL d   1       3.114   3.216   1.718  0.00  0.00    -0.004 A 
ATOM      5  C6  UNL d   1       2.797   3.255   0.360  0.00  0.00     0.002 A 
ATOM      6  C7  UNL d   1       2.160   2.168  -0.240  0.00  0.00     0.002 A 
ENDROOT
BRANCH   1   7
ATOM      7  C1  UNL d   1       1.103  -0.121  -0.126  0.00  0.00     0.055 C 
ATOM      8  C   UNL d   1      -0.294   0.288  -0.569  0.00  0.00     0.019 C 
ENDBRANCH   1   7
TORSDOF 1
ENDMDL
