MODEL 1
REMARK minimizedAffinity -4.30029106
REMARK minimizedRMSD -1
REMARK  1 active torsions:
REMARK  status: ('A' for Active; 'I' for Inactive)
REMARK    1  A    between atoms: C1_2  and  C2_3 
ROOT
ATOM      1  C2  UNL d   1       0.384   0.811  -0.018  0.00  0.00    -0.077 A 
ATOM      2  C3  UNL d   1      -0.492  -0.274   0.132  0.00  0.00     0.002 A 
ATOM      3  C4  UNL d   1      -1.557  -0.450  -0.754  0.00  0.00     0.002 A 
ATOM      4  C5  UNL d   1      -1.752   0.452  -1.798  0.00  0.00    -0.004 A 
ATOM      5  C6  UNL d   1      -0.888   1.535  -1.955  0.00  0.00     0.002 A 
ATOM      6  C7  UNL d   1       0.176   1.713  -1.069  0.00  0.00     0.002 A 
ENDROOT
BRANCH   1   7
ATOM      7  C1  UNL d   1       1.561   0.975   0.907  0.00  0.00     0.055 C 
ATOM      8  C   UNL d   1       2.449   2.132   0.473  0.00  0.00     0.019 C 
ENDBRANCH   1   7
TORSDOF 1
ENDMDL
