MODEL 1
REMARK minimizedAffinity -3.82424784
REMARK minimizedRMSD -1
REMARK  1 active torsions:
REMARK  status: ('A' for Active; 'I' for Inactive)
REMARK    1  A    between atoms: C1_2  and  C2_3 
ROOT
ATOM      1  C2  UNL d   1       1.544   1.351   0.272  0.00  0.00    -0.077 A 
ATOM      2  C3  UNL d   1       1.922   1.929   1.492  0.00  0.00     0.002 A 
ATOM      3  C4  UNL d   1       2.590   3.156   1.515  0.00  0.00     0.002 A 
ATOM      4  C5  UNL d   1       2.880   3.815   0.322  0.00  0.00    -0.004 A 
ATOM      5  C6  UNL d   1       2.509   3.247  -0.896  0.00  0.00     0.002 A 
ATOM      6  C7  UNL d   1       1.843   2.020  -0.921  0.00  0.00     0.002 A 
ENDROOT
BRANCH   1   7
ATOM      7  C1  UNL d   1       0.780   0.052   0.248  0.00  0.00     0.055 C 
ATOM      8  C   UNL d   1      -0.227   0.024  -0.892  0.00  0.00     0.019 C 
ENDBRANCH   1   7
TORSDOF 1
ENDMDL
