MODEL 1
REMARK minimizedAffinity -3.154356
REMARK minimizedRMSD -1
REMARK  1 active torsions:
REMARK  status: ('A' for Active; 'I' for Inactive)
REMARK    1  A    between atoms: C1_2  and  C2_3 
ROOT
ATOM      1  C2  UNL d   1       2.014   1.284   0.515  0.00  0.00    -0.077 A 
ATOM      2  C3  UNL d   1       1.403   1.884   1.626  0.00  0.00     0.002 A 
ATOM      3  C4  UNL d   1       1.756   3.178   2.012  0.00  0.00     0.002 A 
ATOM      4  C5  UNL d   1       2.717   3.885   1.293  0.00  0.00    -0.004 A 
ATOM      5  C6  UNL d   1       3.332   3.296   0.188  0.00  0.00     0.002 A 
ATOM      6  C7  UNL d   1       2.981   2.002  -0.199  0.00  0.00     0.002 A 
ENDROOT
BRANCH   1   7
ATOM      7  C1  UNL d   1       1.599  -0.093   0.067  0.00  0.00     0.055 C 
ATOM      8  C   UNL d   1       0.099  -0.167  -0.177  0.00  0.00     0.019 C 
ENDBRANCH   1   7
TORSDOF 1
ENDMDL
