MODEL 1
REMARK minimizedAffinity -5.04765606
REMARK minimizedRMSD -1
REMARK  1 active torsions:
REMARK  status: ('A' for Active; 'I' for Inactive)
REMARK    1  A    between atoms: C1_2  and  C2_3 
ROOT
ATOM      1  C2  UNL d   1       0.322   0.203  -0.119  0.00  0.00    -0.077 A 
ATOM      2  C3  UNL d   1      -0.785  -0.495   0.385  0.00  0.00     0.002 A 
ATOM      3  C4  UNL d   1      -1.910  -0.706  -0.414  0.00  0.00     0.002 A 
ATOM      4  C5  UNL d   1      -1.938  -0.228  -1.722  0.00  0.00    -0.004 A 
ATOM      5  C6  UNL d   1      -0.843   0.469  -2.232  0.00  0.00     0.002 A 
ATOM      6  C7  UNL d   1       0.282   0.683  -1.435  0.00  0.00     0.002 A 
ENDROOT
BRANCH   1   7
ATOM      7  C1  UNL d   1       1.556   0.390   0.724  0.00  0.00     0.055 C 
ATOM      8  C   UNL d   1       2.267   1.692   0.385  0.00  0.00     0.019 C 
ENDBRANCH   1   7
TORSDOF 1
ENDMDL
