MODEL 1
REMARK minimizedAffinity -2.68115354
REMARK minimizedRMSD -1
REMARK  1 active torsions:
REMARK  status: ('A' for Active; 'I' for Inactive)
REMARK    1  A    between atoms: C1_2  and  C2_3 
ROOT
ATOM      1  C2  UNL d   1      -0.386   0.165  -0.365  0.00  0.00    -0.077 A 
ATOM      2  C3  UNL d   1      -1.085  -0.954   0.109  0.00  0.00     0.002 A 
ATOM      3  C4  UNL d   1      -2.284  -1.344  -0.492  0.00  0.00     0.002 A 
ATOM      4  C5  UNL d   1      -2.791  -0.623  -1.570  0.00  0.00    -0.004 A 
ATOM      5  C6  UNL d   1      -2.104   0.493  -2.047  0.00  0.00     0.002 A 
ATOM      6  C7  UNL d   1      -0.906   0.884  -1.448  0.00  0.00     0.002 A 
ENDROOT
BRANCH   1   7
ATOM      7  C1  UNL d   1       0.933   0.558   0.250  0.00  0.00     0.055 C 
ATOM      8  C   UNL d   1       1.797  -0.662   0.531  0.00  0.00     0.019 C 
ENDBRANCH   1   7
TORSDOF 1
ENDMDL
