MODEL 1
REMARK minimizedAffinity -4.34077311
REMARK minimizedRMSD -1
REMARK  1 active torsions:
REMARK  status: ('A' for Active; 'I' for Inactive)
REMARK    1  A    between atoms: C1_2  and  C2_3 
ROOT
ATOM      1  C2  UNL d   1      -0.796  -0.306  -0.066  0.00  0.00    -0.077 A 
ATOM      2  C3  UNL d   1       0.353   0.376  -0.490  0.00  0.00     0.002 A 
ATOM      3  C4  UNL d   1       1.597   0.079   0.070  0.00  0.00     0.002 A 
ATOM      4  C5  UNL d   1       1.704  -0.902   1.053  0.00  0.00    -0.004 A 
ATOM      5  C6  UNL d   1       0.567  -1.585   1.482  0.00  0.00     0.002 A 
ATOM      6  C7  UNL d   1      -0.678  -1.289   0.925  0.00  0.00     0.002 A 
ENDROOT
BRANCH   1   7
ATOM      7  C1  UNL d   1      -2.131  -0.022  -0.704  0.00  0.00     0.055 C 
ATOM      8  C   UNL d   1      -2.291  -0.779  -2.015  0.00  0.00     0.019 C 
ENDBRANCH   1   7
TORSDOF 1
ENDMDL
