MODEL 1
REMARK minimizedAffinity -4.94105244
REMARK minimizedRMSD -1
REMARK  1 active torsions:
REMARK  status: ('A' for Active; 'I' for Inactive)
REMARK    1  A    between atoms: C1_2  and  C2_3 
ROOT
ATOM      1  C2  UNL d   1      -0.384  -0.870  -0.038  0.00  0.00    -0.077 A 
ATOM      2  C3  UNL d   1      -0.525  -1.897   0.907  0.00  0.00     0.002 A 
ATOM      3  C4  UNL d   1      -1.636  -2.742   0.872  0.00  0.00     0.002 A 
ATOM      4  C5  UNL d   1      -2.612  -2.571  -0.107  0.00  0.00    -0.004 A 
ATOM      5  C6  UNL d   1      -2.483  -1.552  -1.049  0.00  0.00     0.002 A 
ATOM      6  C7  UNL d   1      -1.374  -0.706  -1.016  0.00  0.00     0.002 A 
ENDROOT
BRANCH   1   7
ATOM      7  C1  UNL d   1       0.838   0.010  -0.032  0.00  0.00     0.055 C 
ATOM      8  C   UNL d   1       0.585   1.303   0.730  0.00  0.00     0.019 C 
ENDBRANCH   1   7
TORSDOF 1
ENDMDL
