MODEL 1
REMARK minimizedAffinity -3.86846447
REMARK minimizedRMSD -1
REMARK  1 active torsions:
REMARK  status: ('A' for Active; 'I' for Inactive)
REMARK    1  A    between atoms: C1_2  and  C2_3 
ROOT
ATOM      1  C2  UNL d   1       1.312   0.946   0.129  0.00  0.00    -0.077 A 
ATOM      2  C3  UNL d   1       1.555   0.761   1.498  0.00  0.00     0.002 A 
ATOM      3  C4  UNL d   1       1.977   1.830   2.291  0.00  0.00     0.002 A 
ATOM      4  C5  UNL d   1       2.157   3.091   1.726  0.00  0.00    -0.004 A 
ATOM      5  C6  UNL d   1       1.921   3.284   0.366  0.00  0.00     0.002 A 
ATOM      6  C7  UNL d   1       1.499   2.217  -0.429  0.00  0.00     0.002 A 
ENDROOT
BRANCH   1   7
ATOM      7  C1  UNL d   1       0.809  -0.193  -0.718  0.00  0.00     0.055 C 
ATOM      8  C   UNL d   1      -0.605   0.070  -1.216  0.00  0.00     0.019 C 
ENDBRANCH   1   7
TORSDOF 1
ENDMDL
