MODEL 1
REMARK minimizedAffinity -3.65922952
REMARK minimizedRMSD -1
REMARK  1 active torsions:
REMARK  status: ('A' for Active; 'I' for Inactive)
REMARK    1  A    between atoms: C1_2  and  C2_3 
ROOT
ATOM      1  C2  UNL d   1       0.482  -0.065  -0.278  0.00  0.00    -0.077 A 
ATOM      2  C3  UNL d   1      -0.267  -1.034   0.404  0.00  0.00     0.002 A 
ATOM      3  C4  UNL d   1      -1.630  -1.185   0.144  0.00  0.00     0.002 A 
ATOM      4  C5  UNL d   1      -2.255  -0.374  -0.801  0.00  0.00    -0.004 A 
ATOM      5  C6  UNL d   1      -1.519   0.594  -1.483  0.00  0.00     0.002 A 
ATOM      6  C7  UNL d   1      -0.156   0.747  -1.224  0.00  0.00     0.002 A 
ENDROOT
BRANCH   1   7
ATOM      7  C1  UNL d   1       1.963   0.066  -0.035  0.00  0.00     0.055 C 
ATOM      8  C   UNL d   1       2.334   1.484   0.372  0.00  0.00     0.019 C 
ENDBRANCH   1   7
TORSDOF 1
ENDMDL
