MODEL 1
REMARK minimizedAffinity -4.22354603
REMARK minimizedRMSD -1
REMARK  1 active torsions:
REMARK  status: ('A' for Active; 'I' for Inactive)
REMARK    1  A    between atoms: C1_2  and  C2_3 
ROOT
ATOM      1  C2  UNL d   1       1.133   0.729   0.293  0.00  0.00    -0.077 A 
ATOM      2  C3  UNL d   1       0.575   0.248   1.485  0.00  0.00     0.002 A 
ATOM      3  C4  UNL d   1       0.796   0.918   2.690  0.00  0.00     0.002 A 
ATOM      4  C5  UNL d   1       1.571   2.076   2.713  0.00  0.00    -0.004 A 
ATOM      5  C6  UNL d   1       2.132   2.562   1.532  0.00  0.00     0.002 A 
ATOM      6  C7  UNL d   1       1.913   1.892   0.328  0.00  0.00     0.002 A 
ENDROOT
BRANCH   1   7
ATOM      7  C1  UNL d   1       0.855   0.035  -1.015  0.00  0.00     0.055 C 
ATOM      8  C   UNL d   1      -0.499   0.441  -1.580  0.00  0.00     0.019 C 
ENDBRANCH   1   7
TORSDOF 1
ENDMDL
