MODEL 1
REMARK minimizedAffinity -2.39198661
REMARK minimizedRMSD -1
REMARK  1 active torsions:
REMARK  status: ('A' for Active; 'I' for Inactive)
REMARK    1  A    between atoms: C1_2  and  C2_3 
ROOT
ATOM      1  C2  UNL d   1       4.834   4.017  -0.813  0.00  0.00    -0.077 A 
ATOM      2  C3  UNL d   1       5.469   5.221  -0.478  0.00  0.00     0.002 A 
ATOM      3  C4  UNL d   1       5.228   5.827   0.757  0.00  0.00     0.002 A 
ATOM      4  C5  UNL d   1       4.356   5.233   1.668  0.00  0.00    -0.004 A 
ATOM      5  C6  UNL d   1       3.719   4.036   1.343  0.00  0.00     0.002 A 
ATOM      6  C7  UNL d   1       3.957   3.430   0.109  0.00  0.00     0.002 A 
ENDROOT
BRANCH   1   7
ATOM      7  C1  UNL d   1       5.131   3.337  -2.124  0.00  0.00     0.055 C 
ATOM      8  C   UNL d   1       4.154   2.201  -2.392  0.00  0.00     0.019 C 
ENDBRANCH   1   7
TORSDOF 1
ENDMDL
