MODEL 1
REMARK minimizedAffinity -2.12568712
REMARK minimizedRMSD -1
REMARK  1 active torsions:
REMARK  status: ('A' for Active; 'I' for Inactive)
REMARK    1  A    between atoms: C1_2  and  C2_3 
ROOT
ATOM      1  C2  UNL d   1       0.056  -1.314   0.538  0.00  0.00    -0.077 A 
ATOM      2  C3  UNL d   1      -0.150  -2.667   0.233  0.00  0.00     0.002 A 
ATOM      3  C4  UNL d   1       0.919  -3.471  -0.171  0.00  0.00     0.002 A 
ATOM      4  C5  UNL d   1       2.200  -2.932  -0.269  0.00  0.00    -0.004 A 
ATOM      5  C6  UNL d   1       2.414  -1.587   0.031  0.00  0.00     0.002 A 
ATOM      6  C7  UNL d   1       1.347  -0.782   0.433  0.00  0.00     0.002 A 
ENDROOT
BRANCH   1   7
ATOM      7  C1  UNL d   1      -1.086  -0.459   1.021  0.00  0.00     0.055 C 
ATOM      8  C   UNL d   1      -0.619   0.552   2.059  0.00  0.00     0.019 C 
ENDBRANCH   1   7
TORSDOF 1
ENDMDL
