MODEL 1
REMARK minimizedAffinity -0.762973905
REMARK minimizedRMSD -1
REMARK  1 active torsions:
REMARK  status: ('A' for Active; 'I' for Inactive)
REMARK    1  A    between atoms: C1_2  and  C2_3 
ROOT
ATOM      1  C2  UNL d   1       1.685  -1.634   0.261  0.00  0.00    -0.077 A 
ATOM      2  C3  UNL d   1       1.408  -0.544   1.098  0.00  0.00     0.002 A 
ATOM      3  C4  UNL d   1       0.095  -0.266   1.485  0.00  0.00     0.002 A 
ATOM      4  C5  UNL d   1      -0.949  -1.076   1.044  0.00  0.00    -0.004 A 
ATOM      5  C6  UNL d   1      -0.684  -2.162   0.210  0.00  0.00     0.002 A 
ATOM      6  C7  UNL d   1       0.627  -2.440  -0.179  0.00  0.00     0.002 A 
ENDROOT
BRANCH   1   7
ATOM      7  C1  UNL d   1       3.105  -1.964  -0.117  0.00  0.00     0.055 C 
ATOM      8  C   UNL d   1       3.277  -3.454  -0.376  0.00  0.00     0.019 C 
ENDBRANCH   1   7
TORSDOF 1
ENDMDL
