MODEL 1
REMARK minimizedAffinity 0.789830565
REMARK minimizedRMSD -1
REMARK  1 active torsions:
REMARK  status: ('A' for Active; 'I' for Inactive)
REMARK    1  A    between atoms: C1_2  and  C2_3 
ROOT
ATOM      1  C2  UNL d   1       0.525  -0.944   1.575  0.00  0.00    -0.077 A 
ATOM      2  C3  UNL d   1       0.018  -2.244   1.436  0.00  0.00     0.002 A 
ATOM      3  C4  UNL d   1       0.146  -2.926   0.225  0.00  0.00     0.002 A 
ATOM      4  C5  UNL d   1       0.783  -2.318  -0.855  0.00  0.00    -0.004 A 
ATOM      5  C6  UNL d   1       1.289  -1.025  -0.727  0.00  0.00     0.002 A 
ATOM      6  C7  UNL d   1       1.162  -0.342   0.483  0.00  0.00     0.002 A 
ENDROOT
BRANCH   1   7
ATOM      7  C1  UNL d   1       0.433  -0.226   2.896  0.00  0.00     0.055 C 
ATOM      8  C   UNL d   1       1.266  -0.919   3.964  0.00  0.00     0.019 C 
ENDBRANCH   1   7
TORSDOF 1
ENDMDL
