MODEL 1
REMARK minimizedAffinity 2.09464431
REMARK minimizedRMSD -1
REMARK  1 active torsions:
REMARK  status: ('A' for Active; 'I' for Inactive)
REMARK    1  A    between atoms: C1_2  and  C2_3 
ROOT
ATOM      1  C2  UNL d   1      -0.198  -1.550   0.692  0.00  0.00    -0.077 A 
ATOM      2  C3  UNL d   1       0.766  -1.119   1.613  0.00  0.00     0.002 A 
ATOM      3  C4  UNL d   1       0.468  -0.105   2.526  0.00  0.00     0.002 A 
ATOM      4  C5  UNL d   1      -0.796   0.482   2.528  0.00  0.00    -0.004 A 
ATOM      5  C6  UNL d   1      -1.761   0.061   1.615  0.00  0.00     0.002 A 
ATOM      6  C7  UNL d   1      -1.464  -0.951   0.702  0.00  0.00     0.002 A 
ENDROOT
BRANCH   1   7
ATOM      7  C1  UNL d   1       0.106  -2.678  -0.260  0.00  0.00     0.055 C 
ATOM      8  C   UNL d   1       1.583  -3.040  -0.235  0.00  0.00     0.019 C 
ENDBRANCH   1   7
TORSDOF 1
ENDMDL
