MODEL 1
REMARK minimizedAffinity -2.20223904
REMARK minimizedRMSD -1
REMARK  1 active torsions:
REMARK  status: ('A' for Active; 'I' for Inactive)
REMARK    1  A    between atoms: C1_2  and  C2_3 
ROOT
ATOM      1  C2  UNL d   1       0.657  -2.597  -0.133  0.00  0.00    -0.077 A 
ATOM      2  C3  UNL d   1       1.254  -1.329  -0.113  0.00  0.00     0.002 A 
ATOM      3  C4  UNL d   1       0.641  -0.271   0.560  0.00  0.00     0.002 A 
ATOM      4  C5  UNL d   1      -0.569  -0.470   1.220  0.00  0.00    -0.004 A 
ATOM      5  C6  UNL d   1      -1.172  -1.727   1.204  0.00  0.00     0.002 A 
ATOM      6  C7  UNL d   1      -0.562  -2.786   0.531  0.00  0.00     0.002 A 
ENDROOT
BRANCH   1   7
ATOM      7  C1  UNL d   1       1.340  -3.753  -0.817  0.00  0.00     0.055 C 
ATOM      8  C   UNL d   1       2.847  -3.709  -0.604  0.00  0.00     0.019 C 
ENDBRANCH   1   7
TORSDOF 1
ENDMDL
