MODEL 1
REMARK minimizedAffinity -2.01137304
REMARK minimizedRMSD -1
REMARK  1 active torsions:
REMARK  status: ('A' for Active; 'I' for Inactive)
REMARK    1  A    between atoms: C1_2  and  C2_3 
ROOT
ATOM      1  C2  UNL d   1       0.631  -1.895   0.392  0.00  0.00    -0.077 A 
ATOM      2  C3  UNL d   1       0.669  -3.174  -0.181  0.00  0.00     0.002 A 
ATOM      3  C4  UNL d   1       1.882  -3.722  -0.603  0.00  0.00     0.002 A 
ATOM      4  C5  UNL d   1       3.064  -3.002  -0.453  0.00  0.00    -0.004 A 
ATOM      5  C6  UNL d   1       3.037  -1.728   0.113  0.00  0.00     0.002 A 
ATOM      6  C7  UNL d   1       1.826  -1.177   0.535  0.00  0.00     0.002 A 
ENDROOT
BRANCH   1   7
ATOM      7  C1  UNL d   1      -0.669  -1.321   0.893  0.00  0.00     0.055 C 
ATOM      8  C   UNL d   1      -0.433  -0.293   1.990  0.00  0.00     0.019 C 
ENDBRANCH   1   7
TORSDOF 1
ENDMDL
