MODEL 1
REMARK minimizedAffinity 3.24172473
REMARK minimizedRMSD -1
REMARK  1 active torsions:
REMARK  status: ('A' for Active; 'I' for Inactive)
REMARK    1  A    between atoms: C1_2  and  C2_3 
ROOT
ATOM      1  C2  UNL d   1      -0.342  -0.822   0.868  0.00  0.00    -0.077 A 
ATOM      2  C3  UNL d   1       0.305  -0.197   1.943  0.00  0.00     0.002 A 
ATOM      3  C4  UNL d   1       1.689  -0.012   1.923  0.00  0.00     0.002 A 
ATOM      4  C5  UNL d   1       2.435  -0.444   0.829  0.00  0.00    -0.004 A 
ATOM      5  C6  UNL d   1       1.801  -1.068  -0.244  0.00  0.00     0.002 A 
ATOM      6  C7  UNL d   1       0.418  -1.256  -0.225  0.00  0.00     0.002 A 
ENDROOT
BRANCH   1   7
ATOM      7  C1  UNL d   1      -1.841  -0.979   0.866  0.00  0.00     0.055 C 
ATOM      8  C   UNL d   1      -2.520   0.203   0.190  0.00  0.00     0.019 C 
ENDBRANCH   1   7
TORSDOF 1
ENDMDL
