MODEL 1
REMARK minimizedAffinity -2.14274907
REMARK minimizedRMSD -1
REMARK  1 active torsions:
REMARK  status: ('A' for Active; 'I' for Inactive)
REMARK    1  A    between atoms: C1_2  and  C2_3 
ROOT
ATOM      1  C2  UNL d   1       1.213  -2.670  -0.013  0.00  0.00    -0.077 A 
ATOM      2  C3  UNL d   1       2.017  -1.522   0.021  0.00  0.00     0.002 A 
ATOM      3  C4  UNL d   1       1.479  -0.293   0.406  0.00  0.00     0.002 A 
ATOM      4  C5  UNL d   1       0.136  -0.201   0.765  0.00  0.00    -0.004 A 
ATOM      5  C6  UNL d   1      -0.673  -1.336   0.733  0.00  0.00     0.002 A 
ATOM      6  C7  UNL d   1      -0.137  -2.565   0.347  0.00  0.00     0.002 A 
ENDROOT
BRANCH   1   7
ATOM      7  C1  UNL d   1       1.803  -4.006  -0.381  0.00  0.00     0.055 C 
ATOM      8  C   UNL d   1       3.316  -3.922  -0.525  0.00  0.00     0.019 C 
ENDBRANCH   1   7
TORSDOF 1
ENDMDL
