MODEL 1
REMARK minimizedAffinity 0.18681547
REMARK minimizedRMSD -1
REMARK  1 active torsions:
REMARK  status: ('A' for Active; 'I' for Inactive)
REMARK    1  A    between atoms: C1_2  and  C2_3 
ROOT
ATOM      1  C2  UNL d   1      -1.788  -0.064   0.416  0.00  0.00    -0.077 A 
ATOM      2  C3  UNL d   1      -2.798   0.143  -0.534  0.00  0.00     0.002 A 
ATOM      3  C4  UNL d   1      -3.605   1.280  -0.470  0.00  0.00     0.002 A 
ATOM      4  C5  UNL d   1      -3.408   2.221   0.539  0.00  0.00    -0.004 A 
ATOM      5  C6  UNL d   1      -2.408   2.023   1.489  0.00  0.00     0.002 A 
ATOM      6  C7  UNL d   1      -1.600   0.886   1.428  0.00  0.00     0.002 A 
ENDROOT
BRANCH   1   7
ATOM      7  C1  UNL d   1      -0.884  -1.265   0.320  0.00  0.00     0.055 C 
ATOM      8  C   UNL d   1       0.566  -0.890   0.593  0.00  0.00     0.019 C 
ENDBRANCH   1   7
TORSDOF 1
ENDMDL
