MODEL 1
REMARK minimizedAffinity -3.71909046
REMARK minimizedRMSD -1
REMARK  1 active torsions:
REMARK  status: ('A' for Active; 'I' for Inactive)
REMARK    1  A    between atoms: C1_2  and  C2_3 
ROOT
ATOM      1  C2  UNL d   1      -0.271  -0.642   1.957  0.00  0.00    -0.077 A 
ATOM      2  C3  UNL d   1      -0.912  -1.714   1.321  0.00  0.00     0.002 A 
ATOM      3  C4  UNL d   1      -0.335  -2.319   0.203  0.00  0.00     0.002 A 
ATOM      4  C5  UNL d   1       0.886  -1.861  -0.287  0.00  0.00    -0.004 A 
ATOM      5  C6  UNL d   1       1.531  -0.794   0.338  0.00  0.00     0.002 A 
ATOM      6  C7  UNL d   1       0.955  -0.187   1.455  0.00  0.00     0.002 A 
ENDROOT
BRANCH   1   7
ATOM      7  C1  UNL d   1      -0.868  -0.020   3.193  0.00  0.00     0.055 C 
ATOM      8  C   UNL d   1      -0.035  -0.334   4.427  0.00  0.00     0.019 C 
ENDBRANCH   1   7
TORSDOF 1
ENDMDL
