MODEL 1
REMARK minimizedAffinity -1.14994895
REMARK minimizedRMSD -1
REMARK  1 active torsions:
REMARK  status: ('A' for Active; 'I' for Inactive)
REMARK    1  A    between atoms: C1_2  and  C2_3 
ROOT
ATOM      1  C2  UNL d   1       1.408  -2.512  -0.017  0.00  0.00    -0.077 A 
ATOM      2  C3  UNL d   1       2.012  -1.393   0.573  0.00  0.00     0.002 A 
ATOM      3  C4  UNL d   1       1.231  -0.345   1.063  0.00  0.00     0.002 A 
ATOM      4  C5  UNL d   1      -0.157  -0.407   0.972  0.00  0.00    -0.004 A 
ATOM      5  C6  UNL d   1      -0.768  -1.514   0.385  0.00  0.00     0.002 A 
ATOM      6  C7  UNL d   1       0.011  -2.563  -0.107  0.00  0.00     0.002 A 
ENDROOT
BRANCH   1   7
ATOM      7  C1  UNL d   1       2.246  -3.666  -0.502  0.00  0.00     0.055 C 
ATOM      8  C   UNL d   1       3.729  -3.406  -0.278  0.00  0.00     0.019 C 
ENDBRANCH   1   7
TORSDOF 1
ENDMDL
