MODEL 1
REMARK minimizedAffinity 3.69522738
REMARK minimizedRMSD -1
REMARK  1 active torsions:
REMARK  status: ('A' for Active; 'I' for Inactive)
REMARK    1  A    between atoms: C1_2  and  C2_3 
ROOT
ATOM      1  C2  UNL d   1       5.126   5.760   0.360  0.00  0.00    -0.077 A 
ATOM      2  C3  UNL d   1       5.771   5.813   1.603  0.00  0.00     0.002 A 
ATOM      3  C4  UNL d   1       5.029   5.934   2.780  0.00  0.00     0.002 A 
ATOM      4  C5  UNL d   1       3.638   5.998   2.724  0.00  0.00    -0.004 A 
ATOM      5  C6  UNL d   1       2.987   5.948   1.492  0.00  0.00     0.002 A 
ATOM      6  C7  UNL d   1       3.728   5.829   0.315  0.00  0.00     0.002 A 
ENDROOT
BRANCH   1   7
ATOM      7  C1  UNL d   1       5.922   5.580  -0.906  0.00  0.00     0.055 C 
ATOM      8  C   UNL d   1       5.703   4.199  -1.507  0.00  0.00     0.019 C 
ENDBRANCH   1   7
TORSDOF 1
ENDMDL
