MODEL 1
REMARK minimizedAffinity -1.53601074
REMARK minimizedRMSD -1
REMARK  1 active torsions:
REMARK  status: ('A' for Active; 'I' for Inactive)
REMARK    1  A    between atoms: C1_2  and  C2_3 
ROOT
ATOM      1  C2  UNL d   1       2.142   4.287  -4.500  0.00  0.00    -0.077 A 
ATOM      2  C3  UNL d   1       1.402   4.211  -3.312  0.00  0.00     0.002 A 
ATOM      3  C4  UNL d   1       0.281   5.022  -3.126  0.00  0.00     0.002 A 
ATOM      4  C5  UNL d   1      -0.112   5.911  -4.124  0.00  0.00    -0.004 A 
ATOM      5  C6  UNL d   1       0.619   5.995  -5.309  0.00  0.00     0.002 A 
ATOM      6  C7  UNL d   1       1.740   5.186  -5.496  0.00  0.00     0.002 A 
ENDROOT
BRANCH   1   7
ATOM      7  C1  UNL d   1       3.322   3.378  -4.724  0.00  0.00     0.055 C 
ATOM      8  C   UNL d   1       3.746   2.693  -3.433  0.00  0.00     0.019 C 
ENDBRANCH   1   7
TORSDOF 1
ENDMDL
