MODEL 1
REMARK minimizedAffinity 16.2074738
REMARK minimizedRMSD -1
REMARK  0 active torsions:
REMARK  status: ('A' for Active; 'I' for Inactive)
ROOT
ATOM      1  O1  BZF d   1      -2.602  -2.607  -2.686  0.00  0.00    -0.204 OA
ATOM      2  C2  BZF d   1      -1.372  -2.714  -3.306  0.00  0.00     0.174 A 
ATOM      3  C3  BZF d   1      -0.372  -2.525  -2.422  0.00  0.00    -0.012 A 
ATOM      4  C3A BZF d   1      -1.016  -2.377  -1.152  0.00  0.00    -0.107 A 
ATOM      5  C4  BZF d   1      -0.553  -2.178   0.117  0.00  0.00     0.055 A 
ATOM      6  C5  BZF d   1      -1.447  -2.002   1.125  0.00  0.00    -0.016 A 
ATOM      7  C6  BZF d   1      -2.808  -2.013   0.900  0.00  0.00     0.022 A 
ATOM      8  C7  BZF d   1      -3.314  -2.212  -0.341  0.00  0.00     0.029 A 
ATOM      9  C7A BZF d   1      -2.414  -2.423  -1.357  0.00  0.00     0.058 A 
ENDROOT
TORSDOF 0
ENDMDL
