MODEL 1
REMARK minimizedAffinity 14.6142368
REMARK minimizedRMSD -1
REMARK  0 active torsions:
REMARK  status: ('A' for Active; 'I' for Inactive)
ROOT
ATOM      1  O1  BZF d   1      -1.928  -2.164  -2.781  0.00  0.00    -0.204 OA
ATOM      2  C2  BZF d   1      -0.940  -2.494  -3.689  0.00  0.00     0.174 A 
ATOM      3  C3  BZF d   1       0.181  -2.890  -3.053  0.00  0.00    -0.012 A 
ATOM      4  C3A BZF d   1      -0.155  -2.889  -1.662  0.00  0.00    -0.107 A 
ATOM      5  C4  BZF d   1       0.539  -3.204  -0.528  0.00  0.00     0.055 A 
ATOM      6  C5  BZF d   1      -0.056  -3.026   0.680  0.00  0.00    -0.016 A 
ATOM      7  C6  BZF d   1      -1.339  -2.530   0.793  0.00  0.00     0.022 A 
ATOM      8  C7  BZF d   1      -2.068  -2.209  -0.303  0.00  0.00     0.029 A 
ATOM      9  C7A BZF d   1      -1.482  -2.419  -1.528  0.00  0.00     0.058 A 
ENDROOT
TORSDOF 0
ENDMDL
