MODEL 1
REMARK minimizedAffinity 16.52565
REMARK minimizedRMSD -1
REMARK  0 active torsions:
REMARK  status: ('A' for Active; 'I' for Inactive)
ROOT
ATOM      1  O1  BZF d   1      -2.630  -2.304  -2.993  0.00  0.00    -0.204 OA
ATOM      2  C2  BZF d   1      -1.532  -1.783  -2.337  0.00  0.00     0.174 A 
ATOM      3  C3  BZF d   1      -0.388  -2.186  -2.925  0.00  0.00    -0.012 A 
ATOM      4  C3A BZF d   1      -0.798  -2.935  -4.073  0.00  0.00    -0.107 A 
ATOM      5  C4  BZF d   1      -0.118  -3.579  -5.066  0.00  0.00     0.055 A 
ATOM      6  C5  BZF d   1      -0.816  -4.278  -5.999  0.00  0.00    -0.016 A 
ATOM      7  C6  BZF d   1      -2.193  -4.358  -5.967  0.00  0.00     0.022 A 
ATOM      8  C7  BZF d   1      -2.912  -3.731  -5.004  0.00  0.00     0.029 A 
ATOM      9  C7A BZF d   1      -2.211  -2.997  -4.079  0.00  0.00     0.058 A 
ENDROOT
TORSDOF 0
ENDMDL
