MODEL 1
REMARK minimizedAffinity 13.5224352
REMARK minimizedRMSD -1
REMARK  0 active torsions:
REMARK  status: ('A' for Active; 'I' for Inactive)
ROOT
ATOM      1  O1  BZF d   1       4.571   5.428  -0.434  0.00  0.00    -0.204 OA
ATOM      2  C2  BZF d   1       5.640   5.643  -1.283  0.00  0.00     0.174 A 
ATOM      3  C3  BZF d   1       5.215   5.836  -2.548  0.00  0.00    -0.012 A 
ATOM      4  C3A BZF d   1       3.786   5.827  -2.471  0.00  0.00    -0.107 A 
ATOM      5  C4  BZF d   1       2.795   5.984  -3.397  0.00  0.00     0.055 A 
ATOM      6  C5  BZF d   1       1.500   5.847  -3.008  0.00  0.00    -0.016 A 
ATOM      7  C6  BZF d   1       1.161   5.548  -1.704  0.00  0.00     0.022 A 
ATOM      8  C7  BZF d   1       2.110   5.388  -0.749  0.00  0.00     0.029 A 
ATOM      9  C7A BZF d   1       3.418   5.559  -1.132  0.00  0.00     0.058 A 
ENDROOT
TORSDOF 0
ENDMDL
