MODEL 1
REMARK minimizedAffinity 11.146637
REMARK minimizedRMSD -1
REMARK  0 active torsions:
REMARK  status: ('A' for Active; 'I' for Inactive)
ROOT
ATOM      1  O1  BZF d   1      -3.206  -5.604  -6.000  0.00  0.00    -0.204 OA
ATOM      2  C2  BZF d   1      -4.189  -6.000  -5.114  0.00  0.00     0.174 A 
ATOM      3  C3  BZF d   1      -4.182  -5.221  -4.013  0.00  0.00    -0.012 A 
ATOM      4  C3A BZF d   1      -3.190  -4.222  -4.265  0.00  0.00    -0.107 A 
ATOM      5  C4  BZF d   1      -2.731  -3.153  -3.549  0.00  0.00     0.055 A 
ATOM      6  C5  BZF d   1      -1.702  -2.418  -4.047  0.00  0.00    -0.016 A 
ATOM      7  C6  BZF d   1      -1.105  -2.727  -5.252  0.00  0.00     0.022 A 
ATOM      8  C7  BZF d   1      -1.529  -3.774  -6.000  0.00  0.00     0.029 A 
ATOM      9  C7A BZF d   1      -2.591  -4.499  -5.515  0.00  0.00     0.058 A 
ENDROOT
TORSDOF 0
ENDMDL
