MODEL 1
REMARK minimizedAffinity 8.92940044
REMARK minimizedRMSD -1
REMARK  0 active torsions:
REMARK  status: ('A' for Active; 'I' for Inactive)
ROOT
ATOM      1  O1  BZF d   1      -2.997  -1.861  -2.672  0.00  0.00    -0.204 OA
ATOM      2  C2  BZF d   1      -1.981  -1.331  -1.902  0.00  0.00     0.174 A 
ATOM      3  C3  BZF d   1      -0.796  -1.429  -2.539  0.00  0.00    -0.012 A 
ATOM      4  C3A BZF d   1      -1.105  -1.977  -3.824  0.00  0.00    -0.107 A 
ATOM      5  C4  BZF d   1      -0.348  -2.294  -4.916  0.00  0.00     0.055 A 
ATOM      6  C5  BZF d   1      -0.946  -2.880  -5.986  0.00  0.00    -0.016 A 
ATOM      7  C6  BZF d   1      -2.295  -3.168  -5.997  0.00  0.00     0.022 A 
ATOM      8  C7  BZF d   1      -3.088  -2.867  -4.940  0.00  0.00     0.029 A 
ATOM      9  C7A BZF d   1      -2.493  -2.244  -3.870  0.00  0.00     0.058 A 
ENDROOT
TORSDOF 0
ENDMDL
