MODEL 1
REMARK minimizedAffinity 17.9493961
REMARK minimizedRMSD -1
REMARK  0 active torsions:
REMARK  status: ('A' for Active; 'I' for Inactive)
ROOT
ATOM      1  O1  BZF d   1       4.705  -5.994  -2.234  0.00  0.00    -0.204 OA
ATOM      2  C2  BZF d   1       5.998  -5.703  -2.626  0.00  0.00     0.174 A 
ATOM      3  C3  BZF d   1       6.000  -4.906  -3.714  0.00  0.00    -0.012 A 
ATOM      4  C3A BZF d   1       4.623  -4.610  -3.966  0.00  0.00    -0.107 A 
ATOM      5  C4  BZF d   1       3.983  -3.853  -4.905  0.00  0.00     0.055 A 
ATOM      6  C5  BZF d   1       2.624  -3.831  -4.921  0.00  0.00    -0.016 A 
ATOM      7  C6  BZF d   1       1.875  -4.557  -4.018  0.00  0.00     0.022 A 
ATOM      8  C7  BZF d   1       2.466  -5.319  -3.065  0.00  0.00     0.029 A 
ATOM      9  C7A BZF d   1       3.839  -5.317  -3.026  0.00  0.00     0.058 A 
ENDROOT
TORSDOF 0
ENDMDL
