MODEL 1
REMARK minimizedAffinity 21.103363
REMARK minimizedRMSD -1
REMARK  0 active torsions:
REMARK  status: ('A' for Active; 'I' for Inactive)
ROOT
ATOM      1  O1  BZF d   1       0.787  -1.800  -3.217  0.00  0.00    -0.204 OA
ATOM      2  C2  BZF d   1      -0.455  -1.637  -2.636  0.00  0.00     0.174 A 
ATOM      3  C3  BZF d   1      -0.914  -2.810  -2.152  0.00  0.00    -0.012 A 
ATOM      4  C3A BZF d   1       0.146  -3.746  -2.367  0.00  0.00    -0.107 A 
ATOM      5  C4  BZF d   1       0.297  -5.074  -2.086  0.00  0.00     0.055 A 
ATOM      6  C5  BZF d   1       1.426  -5.711  -2.493  0.00  0.00    -0.016 A 
ATOM      7  C6  BZF d   1       2.421  -5.053  -3.188  0.00  0.00     0.022 A 
ATOM      8  C7  BZF d   1       2.318  -3.735  -3.485  0.00  0.00     0.029 A 
ATOM      9  C7A BZF d   1       1.193  -3.081  -3.046  0.00  0.00     0.058 A 
ENDROOT
TORSDOF 0
ENDMDL
