MODEL 1
REMARK minimizedAffinity 21.4583836
REMARK minimizedRMSD -1
REMARK  0 active torsions:
REMARK  status: ('A' for Active; 'I' for Inactive)
ROOT
ATOM      1  O1  BZF d   1       1.508  -3.703  -3.873  0.00  0.00    -0.204 OA
ATOM      2  C2  BZF d   1       2.835  -3.672  -3.491  0.00  0.00     0.174 A 
ATOM      3  C3  BZF d   1       2.994  -2.936  -2.372  0.00  0.00    -0.012 A 
ATOM      4  C3A BZF d   1       1.672  -2.554  -1.981  0.00  0.00    -0.107 A 
ATOM      5  C4  BZF d   1       1.174  -1.827  -0.938  0.00  0.00     0.055 A 
ATOM      6  C5  BZF d   1      -0.160  -1.575  -0.886  0.00  0.00    -0.016 A 
ATOM      7  C6  BZF d   1      -1.024  -2.030  -1.861  0.00  0.00     0.022 A 
ATOM      8  C7  BZF d   1      -0.578  -2.760  -2.912  0.00  0.00     0.029 A 
ATOM      9  C7A BZF d   1       0.766  -3.044  -2.950  0.00  0.00     0.058 A 
ENDROOT
TORSDOF 0
ENDMDL
