MODEL 1
REMARK minimizedAffinity 7.74672031
REMARK minimizedRMSD -1
REMARK  0 active torsions:
REMARK  status: ('A' for Active; 'I' for Inactive)
ROOT
ATOM      1  O1  BZF d   1       5.895   5.998  -2.625  0.00  0.00    -0.204 OA
ATOM      2  C2  BZF d   1       5.842   5.248  -1.466  0.00  0.00     0.174 A 
ATOM      3  C3  BZF d   1       5.778   3.932  -1.751  0.00  0.00    -0.012 A 
ATOM      4  C3A BZF d   1       5.885   3.849  -3.175  0.00  0.00    -0.107 A 
ATOM      5  C4  BZF d   1       5.901   2.806  -4.057  0.00  0.00     0.055 A 
ATOM      6  C5  BZF d   1       5.943   3.069  -5.390  0.00  0.00    -0.016 A 
ATOM      7  C6  BZF d   1       5.965   4.360  -5.875  0.00  0.00     0.022 A 
ATOM      8  C7  BZF d   1       5.955   5.427  -5.040  0.00  0.00     0.029 A 
ATOM      9  C7A BZF d   1       5.946   5.164  -3.691  0.00  0.00     0.058 A 
ENDROOT
TORSDOF 0
ENDMDL
