MODEL 1
REMARK minimizedAffinity 1.4582417
REMARK minimizedRMSD -1
REMARK  0 active torsions:
REMARK  status: ('A' for Active; 'I' for Inactive)
ROOT
ATOM      1  O1  BZF d   1       5.945   2.582  -4.631  0.00  0.00    -0.204 OA
ATOM      2  C2  BZF d   1       5.983   3.089  -5.916  0.00  0.00     0.174 A 
ATOM      3  C3  BZF d   1       5.956   4.437  -5.900  0.00  0.00    -0.012 A 
ATOM      4  C3A BZF d   1       5.990   4.797  -4.516  0.00  0.00    -0.107 A 
ATOM      5  C4  BZF d   1       6.000   5.994  -3.857  0.00  0.00     0.055 A 
ATOM      6  C5  BZF d   1       5.961   6.000  -2.499  0.00  0.00    -0.016 A 
ATOM      7  C6  BZF d   1       5.906   4.831  -1.768  0.00  0.00     0.022 A 
ATOM      8  C7  BZF d   1       5.900   3.620  -2.377  0.00  0.00     0.029 A 
ATOM      9  C7A BZF d   1       5.972   3.610  -3.748  0.00  0.00     0.058 A 
ENDROOT
TORSDOF 0
ENDMDL
