MODEL 1
REMARK minimizedAffinity 13.2342291
REMARK minimizedRMSD -1
REMARK  0 active torsions:
REMARK  status: ('A' for Active; 'I' for Inactive)
ROOT
ATOM      1  O1  BZF d   1      -2.002  -2.064  -2.986  0.00  0.00    -0.204 OA
ATOM      2  C2  BZF d   1      -1.215  -2.756  -3.887  0.00  0.00     0.174 A 
ATOM      3  C3  BZF d   1      -0.185  -3.358  -3.259  0.00  0.00    -0.012 A 
ATOM      4  C3A BZF d   1      -0.389  -3.099  -1.867  0.00  0.00    -0.107 A 
ATOM      5  C4  BZF d   1       0.292  -3.449  -0.736  0.00  0.00     0.055 A 
ATOM      6  C5  BZF d   1      -0.131  -2.973   0.464  0.00  0.00    -0.016 A 
ATOM      7  C6  BZF d   1      -1.226  -2.141   0.570  0.00  0.00     0.022 A 
ATOM      8  C7  BZF d   1      -1.937  -1.770  -0.522  0.00  0.00     0.029 A 
ATOM      9  C7A BZF d   1      -1.532  -2.277  -1.733  0.00  0.00     0.058 A 
ENDROOT
TORSDOF 0
ENDMDL
