MODEL 1
REMARK minimizedAffinity 6.39476299
REMARK minimizedRMSD -1
REMARK  0 active torsions:
REMARK  status: ('A' for Active; 'I' for Inactive)
ROOT
ATOM      1  O1  BZF d   1       5.911   3.841  -1.984  0.00  0.00    -0.204 OA
ATOM      2  C2  BZF d   1       5.919   5.156  -1.560  0.00  0.00     0.174 A 
ATOM      3  C3  BZF d   1       5.999   5.997  -2.611  0.00  0.00    -0.012 A 
ATOM      4  C3A BZF d   1       5.951   5.159  -3.769  0.00  0.00    -0.107 A 
ATOM      5  C4  BZF d   1       5.975   5.409  -5.111  0.00  0.00     0.055 A 
ATOM      6  C5  BZF d   1       5.986   4.363  -5.978  0.00  0.00    -0.016 A 
ATOM      7  C6  BZF d   1       5.980   3.055  -5.538  0.00  0.00     0.022 A 
ATOM      8  C7  BZF d   1       5.952   2.757  -4.216  0.00  0.00     0.029 A 
ATOM      9  C7A BZF d   1       5.907   3.812  -3.338  0.00  0.00     0.058 A 
ENDROOT
TORSDOF 0
ENDMDL
