MODEL 1
REMARK minimizedAffinity 8.50739288
REMARK minimizedRMSD -1
REMARK  0 active torsions:
REMARK  status: ('A' for Active; 'I' for Inactive)
ROOT
ATOM      1  O1  BZF d   1       5.929   3.805  -1.980  0.00  0.00    -0.204 OA
ATOM      2  C2  BZF d   1       5.927   5.144  -1.637  0.00  0.00     0.174 A 
ATOM      3  C3  BZF d   1       5.971   5.920  -2.739  0.00  0.00    -0.012 A 
ATOM      4  C3A BZF d   1       5.909   5.010  -3.842  0.00  0.00    -0.107 A 
ATOM      5  C4  BZF d   1       5.899   5.178  -5.198  0.00  0.00     0.055 A 
ATOM      6  C5  BZF d   1       5.906   4.080  -5.999  0.00  0.00    -0.016 A 
ATOM      7  C6  BZF d   1       5.929   2.802  -5.479  0.00  0.00     0.022 A 
ATOM      8  C7  BZF d   1       5.935   2.586  -4.141  0.00  0.00     0.029 A 
ATOM      9  C7A BZF d   1       5.894   3.693  -3.329  0.00  0.00     0.058 A 
ENDROOT
TORSDOF 0
ENDMDL
