MODEL 1
REMARK minimizedAffinity 17.6308823
REMARK minimizedRMSD -1
REMARK  0 active torsions:
REMARK  status: ('A' for Active; 'I' for Inactive)
ROOT
ATOM      1  O1  BZF d   1      -2.579  -2.005   0.487  0.00  0.00    -0.204 OA
ATOM      2  C2  BZF d   1      -1.448  -2.413  -0.194  0.00  0.00     0.174 A 
ATOM      3  C3  BZF d   1      -0.794  -1.353  -0.712  0.00  0.00    -0.012 A 
ATOM      4  C3A BZF d   1      -1.513  -0.205  -0.252  0.00  0.00    -0.107 A 
ATOM      5  C4  BZF d   1      -1.341   1.139  -0.419  0.00  0.00     0.055 A 
ATOM      6  C5  BZF d   1      -2.262   1.992   0.101  0.00  0.00    -0.016 A 
ATOM      7  C6  BZF d   1      -3.367   1.536   0.789  0.00  0.00     0.022 A 
ATOM      8  C7  BZF d   1      -3.578   0.212   0.985  0.00  0.00     0.029 A 
ATOM      9  C7A BZF d   1      -2.632  -0.651   0.489  0.00  0.00     0.058 A 
ENDROOT
TORSDOF 0
ENDMDL
