MODEL 1
REMARK minimizedAffinity 16.5075912
REMARK minimizedRMSD -1
REMARK  0 active torsions:
REMARK  status: ('A' for Active; 'I' for Inactive)
ROOT
ATOM      1  O1  BZF d   1       5.231   4.508  -1.110  0.00  0.00    -0.204 OA
ATOM      2  C2  BZF d   1       5.998   5.362  -1.879  0.00  0.00     0.174 A 
ATOM      3  C3  BZF d   1       5.237   5.998  -2.792  0.00  0.00    -0.012 A 
ATOM      4  C3A BZF d   1       3.895   5.580  -2.521  0.00  0.00    -0.107 A 
ATOM      5  C4  BZF d   1       2.687   5.881  -3.082  0.00  0.00     0.055 A 
ATOM      6  C5  BZF d   1       1.573   5.245  -2.630  0.00  0.00    -0.016 A 
ATOM      7  C6  BZF d   1       1.633   4.302  -1.626  0.00  0.00     0.022 A 
ATOM      8  C7  BZF d   1       2.808   3.974  -1.036  0.00  0.00     0.029 A 
ATOM      9  C7A BZF d   1       3.930   4.638  -1.467  0.00  0.00     0.058 A 
ENDROOT
TORSDOF 0
ENDMDL
