MODEL 1
REMARK minimizedAffinity 14.0921984
REMARK minimizedRMSD -1
REMARK  0 active torsions:
REMARK  status: ('A' for Active; 'I' for Inactive)
ROOT
ATOM      1  O1  BZF d   1       2.997  -4.746   3.341  0.00  0.00    -0.204 OA
ATOM      2  C2  BZF d   1       2.910  -3.456   2.854  0.00  0.00     0.174 A 
ATOM      3  C3  BZF d   1       3.785  -2.646   3.484  0.00  0.00    -0.012 A 
ATOM      4  C3A BZF d   1       4.526  -3.502   4.360  0.00  0.00    -0.107 A 
ATOM      5  C4  BZF d   1       5.549  -3.287   5.239  0.00  0.00     0.055 A 
ATOM      6  C5  BZF d   1       5.999  -4.322   5.995  0.00  0.00    -0.016 A 
ATOM      7  C6  BZF d   1       5.446  -5.583   5.902  0.00  0.00     0.022 A 
ATOM      8  C7  BZF d   1       4.433  -5.846   5.041  0.00  0.00     0.029 A 
ATOM      9  C7A BZF d   1       3.999  -4.809   4.252  0.00  0.00     0.058 A 
ENDROOT
TORSDOF 0
ENDMDL
