MODEL 1
REMARK minimizedAffinity 7.97711325
REMARK minimizedRMSD -1
REMARK  0 active torsions:
REMARK  status: ('A' for Active; 'I' for Inactive)
ROOT
ATOM      1  O1  BZF d   1       3.157   5.985  -4.823  0.00  0.00    -0.204 OA
ATOM      2  C2  BZF d   1       1.866   5.984  -4.329  0.00  0.00     0.174 A 
ATOM      3  C3  BZF d   1       1.870   5.919  -2.982  0.00  0.00    -0.012 A 
ATOM      4  C3A BZF d   1       3.249   5.969  -2.606  0.00  0.00    -0.107 A 
ATOM      5  C4  BZF d   1       3.896   5.957  -1.403  0.00  0.00     0.055 A 
ATOM      6  C5  BZF d   1       5.254   5.944  -1.384  0.00  0.00    -0.016 A 
ATOM      7  C6  BZF d   1       5.997   5.936  -2.546  0.00  0.00     0.022 A 
ATOM      8  C7  BZF d   1       5.401   5.953  -3.763  0.00  0.00     0.029 A 
ATOM      9  C7A BZF d   1       4.028   6.000  -3.786  0.00  0.00     0.058 A 
ENDROOT
TORSDOF 0
ENDMDL
