MODEL 1
REMARK minimizedAffinity 19.2152443
REMARK minimizedRMSD -1
REMARK  1 active torsions:
REMARK  status: ('A' for Active; 'I' for Inactive)
REMARK    1  A    between atoms: C1_2  and  C2_3 
ROOT
ATOM      1  C2  UNL d   1       4.275   3.673   1.924  0.00  0.00    -0.076 A 
ATOM      2  C3  UNL d   1       4.434   4.995   1.474  0.00  0.00     0.004 A 
ATOM      3  C4  UNL d   1       4.871   5.999   2.337  0.00  0.00    -0.003 A 
ATOM      4  C5  UNL d   1       5.157   5.697   3.664  0.00  0.00     0.000 A 
ATOM      5  C6  UNL d   1       5.022   4.387   4.123  0.00  0.00     0.000 A 
ATOM      6  C7  UNL d   1       4.598   3.360   3.262  0.00  0.00    -0.073 A 
ATOM      7  C8  UNL d   1       4.464   1.966   3.812  0.00  0.00     0.078 C 
ENDROOT
BRANCH   1   8
ATOM      8  C1  UNL d   1       3.772   2.632   0.950  0.00  0.00     0.053 C 
ATOM      9  C   UNL d   1       2.253   2.567   0.900  0.00  0.00     0.018 C 
ENDBRANCH   1   8
TORSDOF 1
ENDMDL
