MODEL 1
REMARK minimizedAffinity 6.80157852
REMARK minimizedRMSD -1
REMARK  1 active torsions:
REMARK  status: ('A' for Active; 'I' for Inactive)
REMARK    1  A    between atoms: C1_2  and  C2_3 
ROOT
ATOM      1  C2  UNL d   1      -0.867  -0.228   3.069  0.00  0.00    -0.076 A 
ATOM      2  C3  UNL d   1      -2.000   0.392   2.515  0.00  0.00     0.004 A 
ATOM      3  C4  UNL d   1      -3.218  -0.281   2.432  0.00  0.00    -0.003 A 
ATOM      4  C5  UNL d   1      -3.323  -1.585   2.903  0.00  0.00     0.000 A 
ATOM      5  C6  UNL d   1      -2.214  -2.210   3.472  0.00  0.00     0.000 A 
ATOM      6  C7  UNL d   1      -0.983  -1.540   3.578  0.00  0.00    -0.073 A 
ATOM      7  C8  UNL d   1       0.182  -2.263   4.196  0.00  0.00     0.078 C 
ENDROOT
BRANCH   1   8
ATOM      8  C1  UNL d   1       0.434   0.541   3.108  0.00  0.00     0.053 C 
ATOM      9  C   UNL d   1       1.321   0.246   1.908  0.00  0.00     0.018 C 
ENDBRANCH   1   8
TORSDOF 1
ENDMDL
