MODEL 1
REMARK minimizedAffinity 11.2801409
REMARK minimizedRMSD -1
REMARK  1 active torsions:
REMARK  status: ('A' for Active; 'I' for Inactive)
REMARK    1  A    between atoms: C1_2  and  C2_3 
ROOT
ATOM      1  C2  UNL d   1       4.255   2.863   3.097  0.00  0.00    -0.076 A 
ATOM      2  C3  UNL d   1       3.914   4.180   3.450  0.00  0.00     0.004 A 
ATOM      3  C4  UNL d   1       3.489   5.093   2.486  0.00  0.00    -0.003 A 
ATOM      4  C5  UNL d   1       3.398   4.704   1.155  0.00  0.00     0.000 A 
ATOM      5  C6  UNL d   1       3.716   3.396   0.790  0.00  0.00     0.000 A 
ATOM      6  C7  UNL d   1       4.130   2.458   1.751  0.00  0.00    -0.073 A 
ATOM      7  C8  UNL d   1       4.466   1.063   1.300  0.00  0.00     0.078 C 
ENDROOT
BRANCH   1   8
ATOM      8  C1  UNL d   1       4.735   1.924   4.181  0.00  0.00     0.053 C 
ATOM      9  C   UNL d   1       3.645   1.589   5.187  0.00  0.00     0.018 C 
ENDBRANCH   1   8
TORSDOF 1
ENDMDL
