MODEL 1
REMARK minimizedAffinity 10.5204782
REMARK minimizedRMSD -1
REMARK  1 active torsions:
REMARK  status: ('A' for Active; 'I' for Inactive)
REMARK    1  A    between atoms: C1_2  and  C2_3 
ROOT
ATOM      1  C2  UNL d   1      -0.119  -4.007  -5.829  0.00  0.00    -0.076 A 
ATOM      2  C3  UNL d   1      -0.294  -2.619  -5.967  0.00  0.00     0.004 A 
ATOM      3  C4  UNL d   1       0.799  -1.754  -5.954  0.00  0.00    -0.003 A 
ATOM      4  C5  UNL d   1       2.084  -2.262  -5.804  0.00  0.00     0.000 A 
ATOM      5  C6  UNL d   1       2.277  -3.638  -5.684  0.00  0.00     0.000 A 
ATOM      6  C7  UNL d   1       1.188  -4.526  -5.712  0.00  0.00    -0.073 A 
ATOM      7  C8  UNL d   1       1.454  -6.000  -5.572  0.00  0.00     0.078 C 
ENDROOT
BRANCH   1   8
ATOM      8  C1  UNL d   1      -1.344  -4.894  -5.824  0.00  0.00     0.053 C 
ATOM      9  C   UNL d   1      -2.634  -4.108  -6.000  0.00  0.00     0.018 C 
ENDBRANCH   1   8
TORSDOF 1
ENDMDL
