MODEL 1
REMARK minimizedAffinity 9.71960926
REMARK minimizedRMSD -1
REMARK  1 active torsions:
REMARK  status: ('A' for Active; 'I' for Inactive)
REMARK    1  A    between atoms: C1_2  and  C2_3 
ROOT
ATOM      1  C2  UNL d   1       3.568   3.060   5.473  0.00  0.00    -0.076 A 
ATOM      2  C3  UNL d   1       4.680   3.878   5.211  0.00  0.00     0.004 A 
ATOM      3  C4  UNL d   1       5.879   3.334   4.753  0.00  0.00    -0.003 A 
ATOM      4  C5  UNL d   1       5.984   1.962   4.549  0.00  0.00     0.000 A 
ATOM      5  C6  UNL d   1       4.885   1.138   4.788  0.00  0.00     0.000 A 
ATOM      6  C7  UNL d   1       3.665   1.673   5.234  0.00  0.00    -0.073 A 
ATOM      7  C8  UNL d   1       2.514   0.736   5.481  0.00  0.00     0.078 C 
ENDROOT
BRANCH   1   8
ATOM      8  C1  UNL d   1       2.302   3.704   5.994  0.00  0.00     0.053 C 
ATOM      9  C   UNL d   1       1.121   2.746   5.999  0.00  0.00     0.018 C 
ENDBRANCH   1   8
TORSDOF 1
ENDMDL
