MODEL 1
REMARK minimizedAffinity 10.0401669
REMARK minimizedRMSD -1
REMARK  1 active torsions:
REMARK  status: ('A' for Active; 'I' for Inactive)
REMARK    1  A    between atoms: C1_2  and  C2_3 
ROOT
ATOM      1  C2  UNL d   1      -1.099  -2.540  -4.894  0.00  0.00    -0.076 A 
ATOM      2  C3  UNL d   1      -0.391  -2.038  -6.000  0.00  0.00     0.004 A 
ATOM      3  C4  UNL d   1       0.231  -0.792  -5.949  0.00  0.00    -0.003 A 
ATOM      4  C5  UNL d   1       0.155  -0.027  -4.790  0.00  0.00     0.000 A 
ATOM      5  C6  UNL d   1      -0.528  -0.517  -3.677  0.00  0.00     0.000 A 
ATOM      6  C7  UNL d   1      -1.147  -1.778  -3.707  0.00  0.00    -0.073 A 
ATOM      7  C8  UNL d   1      -1.875  -2.254  -2.480  0.00  0.00     0.078 C 
ENDROOT
BRANCH   1   8
ATOM      8  C1  UNL d   1      -1.776  -3.886  -5.017  0.00  0.00     0.053 C 
ATOM      9  C   UNL d   1      -1.069  -4.807  -6.000  0.00  0.00     0.018 C 
ENDBRANCH   1   8
TORSDOF 1
ENDMDL
