MODEL 1
REMARK minimizedAffinity 16.418745
REMARK minimizedRMSD -1
REMARK  1 active torsions:
REMARK  status: ('A' for Active; 'I' for Inactive)
REMARK    1  A    between atoms: C1_2  and  C2_3 
ROOT
ATOM      1  C2  UNL d   1      -1.094  -2.560  -4.328  0.00  0.00    -0.076 A 
ATOM      2  C3  UNL d   1      -0.502  -1.955  -5.450  0.00  0.00     0.004 A 
ATOM      3  C4  UNL d   1       0.306  -0.827  -5.314  0.00  0.00    -0.003 A 
ATOM      4  C5  UNL d   1       0.534  -0.286  -4.053  0.00  0.00     0.000 A 
ATOM      5  C6  UNL d   1      -0.031  -0.884  -2.927  0.00  0.00     0.000 A 
ATOM      6  C7  UNL d   1      -0.834  -2.031  -3.045  0.00  0.00    -0.073 A 
ATOM      7  C8  UNL d   1      -1.423  -2.632  -1.798  0.00  0.00     0.078 C 
ENDROOT
BRANCH   1   8
ATOM      8  C1  UNL d   1      -1.982  -3.766  -4.540  0.00  0.00     0.053 C 
ATOM      9  C   UNL d   1      -2.021  -4.212  -5.993  0.00  0.00     0.018 C 
ENDBRANCH   1   8
TORSDOF 1
ENDMDL
