MODEL 1
REMARK minimizedAffinity 6.74716711
REMARK minimizedRMSD -1
REMARK  1 active torsions:
REMARK  status: ('A' for Active; 'I' for Inactive)
REMARK    1  A    between atoms: C1_2  and  C2_3 
ROOT
ATOM      1  C2  UNL d   1       0.622   0.275   3.468  0.00  0.00    -0.076 A 
ATOM      2  C3  UNL d   1       1.673   0.143   4.392  0.00  0.00     0.004 A 
ATOM      3  C4  UNL d   1       2.127  -1.115   4.787  0.00  0.00    -0.003 A 
ATOM      4  C5  UNL d   1       1.536  -2.260   4.265  0.00  0.00     0.000 A 
ATOM      5  C6  UNL d   1       0.504  -2.147   3.334  0.00  0.00     0.000 A 
ATOM      6  C7  UNL d   1       0.046  -0.887   2.913  0.00  0.00    -0.073 A 
ATOM      7  C8  UNL d   1      -1.075  -0.825   1.911  0.00  0.00     0.078 C 
ENDROOT
BRANCH   1   8
ATOM      8  C1  UNL d   1       0.154   1.664   3.097  0.00  0.00     0.053 C 
ATOM      9  C   UNL d   1      -0.432   2.417   4.282  0.00  0.00     0.018 C 
ENDBRANCH   1   8
TORSDOF 1
ENDMDL
