MODEL 1
REMARK minimizedAffinity -5.1157794
REMARK minimizedRMSD -1
REMARK  1 active torsions:
REMARK  status: ('A' for Active; 'I' for Inactive)
REMARK    1  A    between atoms: C1_2  and  C2_3 
ROOT
ATOM      1  C2  UNL d   1       0.379   0.086   0.085  0.00  0.00    -0.076 A 
ATOM      2  C3  UNL d   1       1.648   0.558  -0.290  0.00  0.00     0.004 A 
ATOM      3  C4  UNL d   1       2.210   1.675   0.326  0.00  0.00    -0.003 A 
ATOM      4  C5  UNL d   1       1.511   2.337   1.329  0.00  0.00     0.000 A 
ATOM      5  C6  UNL d   1       0.258   1.873   1.727  0.00  0.00     0.000 A 
ATOM      6  C7  UNL d   1      -0.315   0.738   1.127  0.00  0.00    -0.073 A 
ATOM      7  C8  UNL d   1      -1.672   0.284   1.591  0.00  0.00     0.078 C 
ENDROOT
BRANCH   1   8
ATOM      8  C1  UNL d   1      -0.191  -1.114  -0.637  0.00  0.00     0.053 C 
ATOM      9  C   UNL d   1      -0.387  -0.859  -2.124  0.00  0.00     0.018 C 
ENDBRANCH   1   8
TORSDOF 1
ENDMDL
