MODEL 1
REMARK minimizedAffinity -4.01188231
REMARK minimizedRMSD -1
REMARK  1 active torsions:
REMARK  status: ('A' for Active; 'I' for Inactive)
REMARK    1  A    between atoms: C1_2  and  C2_3 
ROOT
ATOM      1  C2  UNL d   1       0.624   0.923   0.379  0.00  0.00    -0.076 A 
ATOM      2  C3  UNL d   1      -0.253   1.770   1.080  0.00  0.00     0.004 A 
ATOM      3  C4  UNL d   1       0.233   2.776   1.913  0.00  0.00    -0.003 A 
ATOM      4  C5  UNL d   1       1.605   2.953   2.058  0.00  0.00     0.000 A 
ATOM      5  C6  UNL d   1       2.489   2.134   1.356  0.00  0.00     0.000 A 
ATOM      6  C7  UNL d   1       2.015   1.125   0.500  0.00  0.00    -0.073 A 
ATOM      7  C8  UNL d   1       3.014   0.267  -0.227  0.00  0.00     0.078 C 
ENDROOT
BRANCH   1   8
ATOM      8  C1  UNL d   1       0.038  -0.168  -0.488  0.00  0.00     0.053 C 
ATOM      9  C   UNL d   1      -1.003  -0.999   0.245  0.00  0.00     0.018 C 
ENDBRANCH   1   8
TORSDOF 1
ENDMDL
