MODEL 1
REMARK minimizedAffinity -5.11299467
REMARK minimizedRMSD -1
REMARK  1 active torsions:
REMARK  status: ('A' for Active; 'I' for Inactive)
REMARK    1  A    between atoms: C1_2  and  C2_3 
ROOT
ATOM      1  C2  UNL d   1       1.007   0.270   0.341  0.00  0.00    -0.076 A 
ATOM      2  C3  UNL d   1       2.203   0.544  -0.345  0.00  0.00     0.004 A 
ATOM      3  C4  UNL d   1       2.860   1.763  -0.184  0.00  0.00    -0.003 A 
ATOM      4  C5  UNL d   1       2.331   2.728   0.666  0.00  0.00     0.000 A 
ATOM      5  C6  UNL d   1       1.154   2.466   1.368  0.00  0.00     0.000 A 
ATOM      6  C7  UNL d   1       0.489   1.236   1.229  0.00  0.00    -0.073 A 
ATOM      7  C8  UNL d   1      -0.779   1.010   2.006  0.00  0.00     0.078 C 
ENDROOT
BRANCH   1   8
ATOM      8  C1  UNL d   1       0.325  -1.059   0.105  0.00  0.00     0.053 C 
ATOM      9  C   UNL d   1      -0.745  -0.982  -0.972  0.00  0.00     0.018 C 
ENDBRANCH   1   8
TORSDOF 1
ENDMDL
