MODEL 1
REMARK minimizedAffinity -0.716563523
REMARK minimizedRMSD -1
REMARK  1 active torsions:
REMARK  status: ('A' for Active; 'I' for Inactive)
REMARK    1  A    between atoms: C1_2  and  C2_3 
ROOT
ATOM      1  C2  UNL d   1      -0.348  -0.032   0.051  0.00  0.00    -0.076 A 
ATOM      2  C3  UNL d   1       0.812   0.519  -0.520  0.00  0.00     0.004 A 
ATOM      3  C4  UNL d   1       1.446   1.617   0.060  0.00  0.00    -0.003 A 
ATOM      4  C5  UNL d   1       0.930   2.181   1.221  0.00  0.00     0.000 A 
ATOM      5  C6  UNL d   1      -0.210   1.637   1.811  0.00  0.00     0.000 A 
ATOM      6  C7  UNL d   1      -0.852   0.520   1.248  0.00  0.00    -0.073 A 
ATOM      7  C8  UNL d   1      -2.082  -0.022   1.924  0.00  0.00     0.078 C 
ENDROOT
BRANCH   1   8
ATOM      8  C1  UNL d   1      -1.007  -1.206  -0.637  0.00  0.00     0.053 C 
ATOM      9  C   UNL d   1      -1.504  -0.859  -2.032  0.00  0.00     0.018 C 
ENDBRANCH   1   8
TORSDOF 1
ENDMDL
