MODEL 1
REMARK minimizedAffinity -2.36723351
REMARK minimizedRMSD -1
REMARK  1 active torsions:
REMARK  status: ('A' for Active; 'I' for Inactive)
REMARK    1  A    between atoms: C1_2  and  C2_3 
ROOT
ATOM      1  C2  UNL d   1      -0.647  -1.096  -1.279  0.00  0.00    -0.076 A 
ATOM      2  C3  UNL d   1      -0.760  -1.442  -2.637  0.00  0.00     0.004 A 
ATOM      3  C4  UNL d   1      -1.974  -1.875  -3.168  0.00  0.00    -0.003 A 
ATOM      4  C5  UNL d   1      -3.095  -1.968  -2.350  0.00  0.00     0.000 A 
ATOM      5  C6  UNL d   1      -3.005  -1.611  -1.005  0.00  0.00     0.000 A 
ATOM      6  C7  UNL d   1      -1.793  -1.157  -0.458  0.00  0.00    -0.073 A 
ATOM      7  C8  UNL d   1      -1.751  -0.792   1.001  0.00  0.00     0.078 C 
ENDROOT
BRANCH   1   8
ATOM      8  C1  UNL d   1       0.702  -0.659  -0.754  0.00  0.00     0.053 C 
ATOM      9  C   UNL d   1       0.815   0.852  -0.622  0.00  0.00     0.018 C 
ENDBRANCH   1   8
TORSDOF 1
ENDMDL
