MODEL 1
REMARK minimizedAffinity -3.3183465
REMARK minimizedRMSD -1
REMARK  1 active torsions:
REMARK  status: ('A' for Active; 'I' for Inactive)
REMARK    1  A    between atoms: C1_2  and  C2_3 
ROOT
ATOM      1  C2  UNL d   1       1.309   0.887   0.225  0.00  0.00    -0.076 A 
ATOM      2  C3  UNL d   1       0.466   1.593   1.100  0.00  0.00     0.004 A 
ATOM      3  C4  UNL d   1       0.968   2.601   1.922  0.00  0.00    -0.003 A 
ATOM      4  C5  UNL d   1       2.320   2.920   1.881  0.00  0.00     0.000 A 
ATOM      5  C6  UNL d   1       3.168   2.242   1.006  0.00  0.00     0.000 A 
ATOM      6  C7  UNL d   1       2.676   1.234   0.159  0.00  0.00    -0.073 A 
ATOM      7  C8  UNL d   1       3.636   0.531  -0.761  0.00  0.00     0.078 C 
ENDROOT
BRANCH   1   8
ATOM      8  C1  UNL d   1       0.714  -0.215  -0.623  0.00  0.00     0.053 C 
ATOM      9  C   UNL d   1      -0.521  -0.835   0.012  0.00  0.00     0.018 C 
ENDBRANCH   1   8
TORSDOF 1
ENDMDL
