MODEL 1
REMARK minimizedAffinity -4.41337585
REMARK minimizedRMSD -1
REMARK  1 active torsions:
REMARK  status: ('A' for Active; 'I' for Inactive)
REMARK    1  A    between atoms: C1_2  and  C2_3 
ROOT
ATOM      1  C2  UNL d   1       1.056   0.558   0.152  0.00  0.00    -0.076 A 
ATOM      2  C3  UNL d   1       0.022   1.227   0.830  0.00  0.00     0.004 A 
ATOM      3  C4  UNL d   1       0.286   2.357   1.603  0.00  0.00    -0.003 A 
ATOM      4  C5  UNL d   1       1.587   2.836   1.709  0.00  0.00     0.000 A 
ATOM      5  C6  UNL d   1       2.621   2.195   1.028  0.00  0.00     0.000 A 
ATOM      6  C7  UNL d   1       2.370   1.064   0.232  0.00  0.00    -0.073 A 
ATOM      7  C8  UNL d   1       3.525   0.409  -0.475  0.00  0.00     0.078 C 
ENDROOT
BRANCH   1   8
ATOM      8  C1  UNL d   1       0.714  -0.678  -0.649  0.00  0.00     0.053 C 
ATOM      9  C   UNL d   1      -0.612  -1.295  -0.232  0.00  0.00     0.018 C 
ENDBRANCH   1   8
TORSDOF 1
ENDMDL
