MODEL 1
REMARK minimizedAffinity -4.86730862
REMARK minimizedRMSD -1
REMARK  1 active torsions:
REMARK  status: ('A' for Active; 'I' for Inactive)
REMARK    1  A    between atoms: C1_2  and  C2_3 
ROOT
ATOM      1  C2  UNL d   1       0.584   0.127   0.173  0.00  0.00    -0.076 A 
ATOM      2  C3  UNL d   1       1.755   0.661  -0.391  0.00  0.00     0.004 A 
ATOM      3  C4  UNL d   1       2.299   1.854   0.083  0.00  0.00    -0.003 A 
ATOM      4  C5  UNL d   1       1.681   2.532   1.127  0.00  0.00     0.000 A 
ATOM      5  C6  UNL d   1       0.527   2.007   1.710  0.00  0.00     0.000 A 
ATOM      6  C7  UNL d   1      -0.025   0.797   1.255  0.00  0.00    -0.073 A 
ATOM      7  C8  UNL d   1      -1.273   0.280   1.916  0.00  0.00     0.078 C 
ENDROOT
BRANCH   1   8
ATOM      8  C1  UNL d   1       0.025  -1.156  -0.400  0.00  0.00     0.053 C 
ATOM      9  C   UNL d   1      -1.043  -0.908  -1.453  0.00  0.00     0.018 C 
ENDBRANCH   1   8
TORSDOF 1
ENDMDL
