MODEL 1
REMARK minimizedAffinity -6.05435801
REMARK minimizedRMSD -1
REMARK  1 active torsions:
REMARK  status: ('A' for Active; 'I' for Inactive)
REMARK    1  A    between atoms: C1_2  and  C2_3 
ROOT
ATOM      1  C2  UNL d   1       0.851   0.415   0.297  0.00  0.00    -0.076 A 
ATOM      2  C3  UNL d   1       2.195   0.396  -0.117  0.00  0.00     0.004 A 
ATOM      3  C4  UNL d   1       3.059   1.441   0.205  0.00  0.00    -0.003 A 
ATOM      4  C5  UNL d   1       2.595   2.522   0.946  0.00  0.00     0.000 A 
ATOM      5  C6  UNL d   1       1.270   2.549   1.380  0.00  0.00     0.000 A 
ATOM      6  C7  UNL d   1       0.389   1.496   1.078  0.00  0.00    -0.073 A 
ATOM      7  C8  UNL d   1      -1.031   1.580   1.566  0.00  0.00     0.078 C 
ENDROOT
BRANCH   1   8
ATOM      8  C1  UNL d   1      -0.047  -0.733  -0.105  0.00  0.00     0.053 C 
ATOM      9  C   UNL d   1      -0.831  -0.442  -1.375  0.00  0.00     0.018 C 
ENDBRANCH   1   8
TORSDOF 1
ENDMDL
