MODEL 1
REMARK minimizedAffinity -5.35754824
REMARK minimizedRMSD -1
REMARK  1 active torsions:
REMARK  status: ('A' for Active; 'I' for Inactive)
REMARK    1  A    between atoms: C1_2  and  C2_3 
ROOT
ATOM      1  C2  UNL d   1       0.939   0.534   0.461  0.00  0.00    -0.076 A 
ATOM      2  C3  UNL d   1       0.553   1.604   1.286  0.00  0.00     0.004 A 
ATOM      3  C4  UNL d   1      -0.680   1.602   1.935  0.00  0.00    -0.003 A 
ATOM      4  C5  UNL d   1      -1.548   0.528   1.769  0.00  0.00     0.000 A 
ATOM      5  C6  UNL d   1      -1.175  -0.550   0.968  0.00  0.00     0.000 A 
ATOM      6  C7  UNL d   1       0.072  -0.571   0.320  0.00  0.00    -0.073 A 
ATOM      7  C8  UNL d   1       0.421  -1.757  -0.536  0.00  0.00     0.078 C 
ENDROOT
BRANCH   1   8
ATOM      8  C1  UNL d   1       2.278   0.604  -0.238  0.00  0.00     0.053 C 
ATOM      9  C   UNL d   1       3.298   1.422   0.538  0.00  0.00     0.018 C 
ENDBRANCH   1   8
TORSDOF 1
ENDMDL
