MODEL 1
REMARK minimizedAffinity -0.29466781
REMARK minimizedRMSD -1
REMARK  1 active torsions:
REMARK  status: ('A' for Active; 'I' for Inactive)
REMARK    1  A    between atoms: C1_2  and  C2_3 
ROOT
ATOM      1  C2  UNL d   1       1.097   1.219   2.798  0.00  0.00    -0.076 A 
ATOM      2  C3  UNL d   1       0.179   0.156   2.758  0.00  0.00     0.004 A 
ATOM      3  C4  UNL d   1      -0.629  -0.053   1.642  0.00  0.00    -0.003 A 
ATOM      4  C5  UNL d   1      -0.532   0.798   0.547  0.00  0.00     0.000 A 
ATOM      5  C6  UNL d   1       0.387   1.847   0.561  0.00  0.00     0.000 A 
ATOM      6  C7  UNL d   1       1.220   2.062   1.672  0.00  0.00    -0.073 A 
ATOM      7  C8  UNL d   1       2.189   3.213   1.637  0.00  0.00     0.078 C 
ENDROOT
BRANCH   1   8
ATOM      8  C1  UNL d   1       1.928   1.413   4.046  0.00  0.00     0.053 C 
ATOM      9  C   UNL d   1       3.252   0.667   3.987  0.00  0.00     0.018 C 
ENDBRANCH   1   8
TORSDOF 1
ENDMDL
