MODEL 1
REMARK minimizedAffinity -6.25707769
REMARK minimizedRMSD -1
REMARK  1 active torsions:
REMARK  status: ('A' for Active; 'I' for Inactive)
REMARK    1  A    between atoms: C1_2  and  C2_3 
ROOT
ATOM      1  C2  UNL d   1       1.007   0.281   0.509  0.00  0.00    -0.076 A 
ATOM      2  C3  UNL d   1      -0.048   0.886   1.213  0.00  0.00     0.004 A 
ATOM      3  C4  UNL d   1       0.102   2.148   1.786  0.00  0.00    -0.003 A 
ATOM      4  C5  UNL d   1       1.310   2.826   1.663  0.00  0.00     0.000 A 
ATOM      5  C6  UNL d   1       2.362   2.248   0.952  0.00  0.00     0.000 A 
ATOM      6  C7  UNL d   1       2.221   0.984   0.355  0.00  0.00    -0.073 A 
ATOM      7  C8  UNL d   1       3.390   0.405  -0.395  0.00  0.00     0.078 C 
ENDROOT
BRANCH   1   8
ATOM      8  C1  UNL d   1       0.794  -1.101  -0.068  0.00  0.00     0.053 C 
ATOM      9  C   UNL d   1      -0.552  -1.242  -0.761  0.00  0.00     0.018 C 
ENDBRANCH   1   8
TORSDOF 1
ENDMDL
