MODEL 1
REMARK minimizedAffinity -1.66160905
REMARK minimizedRMSD -1
REMARK  1 active torsions:
REMARK  status: ('A' for Active; 'I' for Inactive)
REMARK    1  A    between atoms: C1_2  and  C2_3 
ROOT
ATOM      1  C2  UNL d   1      -0.973  -0.491  -0.162  0.00  0.00    -0.076 A 
ATOM      2  C3  UNL d   1      -0.328   0.335  -1.098  0.00  0.00     0.004 A 
ATOM      3  C4  UNL d   1       1.016   0.676  -0.949  0.00  0.00    -0.003 A 
ATOM      4  C5  UNL d   1       1.736   0.196   0.140  0.00  0.00     0.000 A 
ATOM      5  C6  UNL d   1       1.117  -0.639   1.069  0.00  0.00     0.000 A 
ATOM      6  C7  UNL d   1      -0.232  -1.006   0.924  0.00  0.00    -0.073 A 
ATOM      7  C8  UNL d   1      -0.851  -1.905   1.960  0.00  0.00     0.078 C 
ENDROOT
BRANCH   1   8
ATOM      8  C1  UNL d   1      -2.438  -0.806  -0.361  0.00  0.00     0.053 C 
ATOM      9  C   UNL d   1      -2.742  -1.300  -1.767  0.00  0.00     0.018 C 
ENDBRANCH   1   8
TORSDOF 1
ENDMDL
