MODEL 1
REMARK minimizedAffinity -2.67592692
REMARK minimizedRMSD -1
REMARK  1 active torsions:
REMARK  status: ('A' for Active; 'I' for Inactive)
REMARK    1  A    between atoms: C1_2  and  C2_3 
ROOT
ATOM      1  C2  UNL d   1       0.209   0.092  -0.333  0.00  0.00    -0.076 A 
ATOM      2  C3  UNL d   1      -0.735   0.810  -1.088  0.00  0.00     0.004 A 
ATOM      3  C4  UNL d   1      -2.037   0.338  -1.246  0.00  0.00    -0.003 A 
ATOM      4  C5  UNL d   1      -2.417  -0.859  -0.650  0.00  0.00     0.000 A 
ATOM      5  C6  UNL d   1      -1.499  -1.576   0.117  0.00  0.00     0.000 A 
ATOM      6  C7  UNL d   1      -0.187  -1.106   0.299  0.00  0.00    -0.073 A 
ATOM      7  C8  UNL d   1       0.763  -1.922   1.132  0.00  0.00     0.078 C 
ENDROOT
BRANCH   1   8
ATOM      8  C1  UNL d   1       1.614   0.640  -0.220  0.00  0.00     0.053 C 
ATOM      9  C   UNL d   1       1.740   1.700   0.864  0.00  0.00     0.018 C 
ENDBRANCH   1   8
TORSDOF 1
ENDMDL
