MODEL 1
REMARK minimizedAffinity -3.5353446
REMARK minimizedRMSD -1
REMARK  1 active torsions:
REMARK  status: ('A' for Active; 'I' for Inactive)
REMARK    1  A    between atoms: C1_2  and  C2_3 
ROOT
ATOM      1  C2  UNL d   1      -0.504   0.002  -0.024  0.00  0.00    -0.076 A 
ATOM      2  C3  UNL d   1      -1.389  -0.139   1.059  0.00  0.00     0.004 A 
ATOM      3  C4  UNL d   1      -2.748  -0.368   0.850  0.00  0.00    -0.003 A 
ATOM      4  C5  UNL d   1      -3.244  -0.460  -0.446  0.00  0.00     0.000 A 
ATOM      5  C6  UNL d   1      -2.378  -0.340  -1.532  0.00  0.00     0.000 A 
ATOM      6  C7  UNL d   1      -1.002  -0.126  -1.339  0.00  0.00    -0.073 A 
ATOM      7  C8  UNL d   1      -0.115   0.002  -2.546  0.00  0.00     0.078 C 
ENDROOT
BRANCH   1   8
ATOM      8  C1  UNL d   1       0.955   0.276   0.263  0.00  0.00     0.053 C 
ATOM      9  C   UNL d   1       1.150   1.423   1.243  0.00  0.00     0.018 C 
ENDBRANCH   1   8
TORSDOF 1
ENDMDL
