MODEL 1
REMARK minimizedAffinity -4.86022139
REMARK minimizedRMSD -1
REMARK  1 active torsions:
REMARK  status: ('A' for Active; 'I' for Inactive)
REMARK    1  A    between atoms: C1_2  and  C2_3 
ROOT
ATOM      1  C2  UNL d   1      -1.056  -0.719   0.256  0.00  0.00    -0.076 A 
ATOM      2  C3  UNL d   1      -2.388  -0.374  -0.030  0.00  0.00     0.004 A 
ATOM      3  C4  UNL d   1      -3.448  -1.127   0.473  0.00  0.00    -0.003 A 
ATOM      4  C5  UNL d   1      -3.192  -2.236   1.272  0.00  0.00     0.000 A 
ATOM      5  C6  UNL d   1      -1.877  -2.582   1.581  0.00  0.00     0.000 A 
ATOM      6  C7  UNL d   1      -0.798  -1.824   1.095  0.00  0.00    -0.073 A 
ATOM      7  C8  UNL d   1       0.600  -2.246   1.455  0.00  0.00     0.078 C 
ENDROOT
BRANCH   1   8
ATOM      8  C1  UNL d   1       0.053   0.119  -0.340  0.00  0.00     0.053 C 
ATOM      9  C   UNL d   1       0.064   0.075  -1.860  0.00  0.00     0.018 C 
ENDBRANCH   1   8
TORSDOF 1
ENDMDL
