MODEL 1
REMARK minimizedAffinity -5.44129038
REMARK minimizedRMSD -1
REMARK  1 active torsions:
REMARK  status: ('A' for Active; 'I' for Inactive)
REMARK    1  A    between atoms: C1_2  and  C2_3 
ROOT
ATOM      1  C2  UNL d   1      -0.655  -1.050  -0.009  0.00  0.00    -0.076 A 
ATOM      2  C3  UNL d   1      -1.229  -0.418  -1.126  0.00  0.00     0.004 A 
ATOM      3  C4  UNL d   1      -2.557  -0.654  -1.480  0.00  0.00    -0.003 A 
ATOM      4  C5  UNL d   1      -3.332  -1.524  -0.722  0.00  0.00     0.000 A 
ATOM      5  C6  UNL d   1      -2.784  -2.145   0.400  0.00  0.00     0.000 A 
ATOM      6  C7  UNL d   1      -1.452  -1.906   0.780  0.00  0.00    -0.073 A 
ATOM      7  C8  UNL d   1      -0.911  -2.608   1.995  0.00  0.00     0.078 C 
ENDROOT
BRANCH   1   8
ATOM      8  C1  UNL d   1       0.797  -0.777   0.310  0.00  0.00     0.053 C 
ATOM      9  C   UNL d   1       1.120   0.709   0.332  0.00  0.00     0.018 C 
ENDBRANCH   1   8
TORSDOF 1
ENDMDL
