MODEL 1
REMARK minimizedAffinity -5.33160353
REMARK minimizedRMSD -1
REMARK  1 active torsions:
REMARK  status: ('A' for Active; 'I' for Inactive)
REMARK    1  A    between atoms: C1_2  and  C2_3 
ROOT
ATOM      1  C2  UNL d   1      -1.585  -0.786   0.338  0.00  0.00    -0.076 A 
ATOM      2  C3  UNL d   1      -1.426   0.126  -0.720  0.00  0.00     0.004 A 
ATOM      3  C4  UNL d   1      -0.181   0.685  -1.005  0.00  0.00    -0.003 A 
ATOM      4  C5  UNL d   1       0.925   0.340  -0.237  0.00  0.00     0.000 A 
ATOM      5  C6  UNL d   1       0.790  -0.577   0.805  0.00  0.00     0.000 A 
ATOM      6  C7  UNL d   1      -0.454  -1.162   1.095  0.00  0.00    -0.073 A 
ATOM      7  C8  UNL d   1      -0.544  -2.141   2.234  0.00  0.00     0.078 C 
ENDROOT
BRANCH   1   8
ATOM      8  C1  UNL d   1      -2.964  -1.339   0.617  0.00  0.00     0.053 C 
ATOM      9  C   UNL d   1      -3.735  -1.651  -0.656  0.00  0.00     0.018 C 
ENDBRANCH   1   8
TORSDOF 1
ENDMDL
