MODEL 1
REMARK minimizedAffinity -5.52445269
REMARK minimizedRMSD -1
REMARK  1 active torsions:
REMARK  status: ('A' for Active; 'I' for Inactive)
REMARK    1  A    between atoms: C1_2  and  C2_3 
ROOT
ATOM      1  C2  UNL d   1      -0.360  -0.243  -1.397  0.00  0.00    -0.076 A 
ATOM      2  C3  UNL d   1      -1.623  -0.795  -1.672  0.00  0.00     0.004 A 
ATOM      3  C4  UNL d   1      -2.664  -0.701  -0.750  0.00  0.00    -0.003 A 
ATOM      4  C5  UNL d   1      -2.458  -0.053   0.463  0.00  0.00     0.000 A 
ATOM      5  C6  UNL d   1      -1.216   0.515   0.746  0.00  0.00     0.000 A 
ATOM      6  C7  UNL d   1      -0.162   0.444  -0.180  0.00  0.00    -0.073 A 
ATOM      7  C8  UNL d   1       1.158   1.069   0.179  0.00  0.00     0.078 C 
ENDROOT
BRANCH   1   8
ATOM      8  C1  UNL d   1       0.738  -0.400  -2.424  0.00  0.00     0.053 C 
ATOM      9  C   UNL d   1       0.622   0.606  -3.560  0.00  0.00     0.018 C 
ENDBRANCH   1   8
TORSDOF 1
ENDMDL
