MODEL 1
REMARK minimizedAffinity -4.93623304
REMARK minimizedRMSD -1
REMARK  1 active torsions:
REMARK  status: ('A' for Active; 'I' for Inactive)
REMARK    1  A    between atoms: C1_2  and  C2_3 
ROOT
ATOM      1  C2  UNL d   1      -0.148  -0.384   0.058  0.00  0.00    -0.076 A 
ATOM      2  C3  UNL d   1      -0.707   0.390  -0.973  0.00  0.00     0.004 A 
ATOM      3  C4  UNL d   1      -2.064   0.303  -1.281  0.00  0.00    -0.003 A 
ATOM      4  C5  UNL d   1      -2.883  -0.560  -0.562  0.00  0.00     0.000 A 
ATOM      5  C6  UNL d   1      -2.349  -1.323   0.476  0.00  0.00     0.000 A 
ATOM      6  C7  UNL d   1      -0.986  -1.235   0.810  0.00  0.00    -0.073 A 
ATOM      7  C8  UNL d   1      -0.462  -2.085   1.934  0.00  0.00     0.078 C 
ENDROOT
BRANCH   1   8
ATOM      8  C1  UNL d   1       1.335  -0.267   0.328  0.00  0.00     0.053 C 
ATOM      9  C   UNL d   1       1.758   1.157   0.650  0.00  0.00     0.018 C 
ENDBRANCH   1   8
TORSDOF 1
ENDMDL
