MODEL 1
REMARK minimizedAffinity -5.78628349
REMARK minimizedRMSD -1
REMARK  1 active torsions:
REMARK  status: ('A' for Active; 'I' for Inactive)
REMARK    1  A    between atoms: C1_2  and  C2_3 
ROOT
ATOM      1  C2  UNL d   1      -0.175  -0.118  -0.208  0.00  0.00    -0.076 A 
ATOM      2  C3  UNL d   1      -0.999  -0.532   0.852  0.00  0.00     0.004 A 
ATOM      3  C4  UNL d   1      -2.377  -0.659   0.683  0.00  0.00    -0.003 A 
ATOM      4  C5  UNL d   1      -2.952  -0.375  -0.551  0.00  0.00     0.000 A 
ATOM      5  C6  UNL d   1      -2.148   0.020  -1.619  0.00  0.00     0.000 A 
ATOM      6  C7  UNL d   1      -0.755   0.137  -1.469  0.00  0.00    -0.073 A 
ATOM      7  C8  UNL d   1       0.064   0.573  -2.653  0.00  0.00     0.078 C 
ENDROOT
BRANCH   1   8
ATOM      8  C1  UNL d   1       1.309   0.028   0.042  0.00  0.00     0.053 C 
ATOM      9  C   UNL d   1       1.643   1.265   0.863  0.00  0.00     0.018 C 
ENDBRANCH   1   8
TORSDOF 1
ENDMDL
