MODEL 1
REMARK minimizedAffinity -5.99975729
REMARK minimizedRMSD -1
REMARK  1 active torsions:
REMARK  status: ('A' for Active; 'I' for Inactive)
REMARK    1  A    between atoms: C1_2  and  C2_3 
ROOT
ATOM      1  C2  UNL d   1      -0.703  -0.884   0.424  0.00  0.00    -0.076 A 
ATOM      2  C3  UNL d   1      -0.852  -2.044   1.205  0.00  0.00     0.004 A 
ATOM      3  C4  UNL d   1      -1.980  -2.853   1.079  0.00  0.00    -0.003 A 
ATOM      4  C5  UNL d   1      -2.977  -2.516   0.171  0.00  0.00     0.000 A 
ATOM      5  C6  UNL d   1      -2.838  -1.379  -0.624  0.00  0.00     0.000 A 
ATOM      6  C7  UNL d   1      -1.699  -0.561  -0.522  0.00  0.00    -0.073 A 
ATOM      7  C8  UNL d   1      -1.604   0.657  -1.399  0.00  0.00     0.078 C 
ENDROOT
BRANCH   1   8
ATOM      8  C1  UNL d   1       0.529  -0.031   0.623  0.00  0.00     0.053 C 
ATOM      9  C   UNL d   1       1.815  -0.784   0.321  0.00  0.00     0.018 C 
ENDBRANCH   1   8
TORSDOF 1
ENDMDL
