MODEL 1
REMARK minimizedAffinity -2.44881272
REMARK minimizedRMSD -1
REMARK  1 active torsions:
REMARK  status: ('A' for Active; 'I' for Inactive)
REMARK    1  A    between atoms: C1_2  and  C2_3 
ROOT
ATOM      1  C2  UNL d   1      -0.163  -0.174   0.001  0.00  0.00    -0.076 A 
ATOM      2  C3  UNL d   1      -0.646   0.384  -1.195  0.00  0.00     0.004 A 
ATOM      3  C4  UNL d   1      -1.982   0.241  -1.566  0.00  0.00    -0.003 A 
ATOM      4  C5  UNL d   1      -2.858  -0.462  -0.746  0.00  0.00     0.000 A 
ATOM      5  C6  UNL d   1      -2.400  -1.007   0.453  0.00  0.00     0.000 A 
ATOM      6  C7  UNL d   1      -1.060  -0.859   0.850  0.00  0.00    -0.073 A 
ATOM      7  C8  UNL d   1      -0.620  -1.473   2.150  0.00  0.00     0.078 C 
ENDROOT
BRANCH   1   8
ATOM      8  C1  UNL d   1       1.301  -0.010   0.338  0.00  0.00     0.053 C 
ATOM      9  C   UNL d   1       1.788   1.417   0.140  0.00  0.00     0.018 C 
ENDBRANCH   1   8
TORSDOF 1
ENDMDL
