MODEL 1
REMARK minimizedAffinity -2.41211581
REMARK minimizedRMSD -1
REMARK  1 active torsions:
REMARK  status: ('A' for Active; 'I' for Inactive)
REMARK    1  A    between atoms: C1_2  and  C2_3 
ROOT
ATOM      1  C2  UNL d   1       0.089  -0.118  -0.389  0.00  0.00    -0.076 A 
ATOM      2  C3  UNL d   1      -0.479  -0.590   0.807  0.00  0.00     0.004 A 
ATOM      3  C4  UNL d   1      -1.834  -0.911   0.881  0.00  0.00    -0.003 A 
ATOM      4  C5  UNL d   1      -2.642  -0.767  -0.242  0.00  0.00     0.000 A 
ATOM      5  C6  UNL d   1      -2.092  -0.317  -1.441  0.00  0.00     0.000 A 
ATOM      6  C7  UNL d   1      -0.725  -0.004  -1.537  0.00  0.00    -0.073 A 
ATOM      7  C8  UNL d   1      -0.186   0.482  -2.854  0.00  0.00     0.078 C 
ENDROOT
BRANCH   1   8
ATOM      8  C1  UNL d   1       1.557   0.241  -0.401  0.00  0.00     0.053 C 
ATOM      9  C   UNL d   1       1.879   1.411   0.515  0.00  0.00     0.018 C 
ENDBRANCH   1   8
TORSDOF 1
ENDMDL
