MODEL 1
REMARK minimizedAffinity -3.75128269
REMARK minimizedRMSD -1
REMARK  1 active torsions:
REMARK  status: ('A' for Active; 'I' for Inactive)
REMARK    1  A    between atoms: C1_2  and  C2_3 
ROOT
ATOM      1  C2  UNL d   1       0.145  -0.012  -0.064  0.00  0.00    -0.076 A 
ATOM      2  C3  UNL d   1      -0.491  -0.687   0.992  0.00  0.00     0.004 A 
ATOM      3  C4  UNL d   1      -1.792  -1.168   0.855  0.00  0.00    -0.003 A 
ATOM      4  C5  UNL d   1      -2.477  -0.983  -0.340  0.00  0.00     0.000 A 
ATOM      5  C6  UNL d   1      -1.855  -0.331  -1.404  0.00  0.00     0.000 A 
ATOM      6  C7  UNL d   1      -0.538   0.146  -1.289  0.00  0.00    -0.073 A 
ATOM      7  C8  UNL d   1       0.082   0.847  -2.466  0.00  0.00     0.078 C 
ENDROOT
BRANCH   1   8
ATOM      8  C1  UNL d   1       1.547   0.512   0.152  0.00  0.00     0.053 C 
ATOM      9  C   UNL d   1       1.674   1.329   1.429  0.00  0.00     0.018 C 
ENDBRANCH   1   8
TORSDOF 1
ENDMDL
