MODEL 1
REMARK minimizedAffinity -4.6381011
REMARK minimizedRMSD -1
REMARK  1 active torsions:
REMARK  status: ('A' for Active; 'I' for Inactive)
REMARK    1  A    between atoms: C1_2  and  C2_3 
ROOT
ATOM      1  C2  UNL d   1      -0.018  -0.548   0.567  0.00  0.00    -0.076 A 
ATOM      2  C3  UNL d   1      -0.669  -1.202   1.627  0.00  0.00     0.004 A 
ATOM      3  C4  UNL d   1      -2.053  -1.370   1.625  0.00  0.00    -0.003 A 
ATOM      4  C5  UNL d   1      -2.808  -0.888   0.561  0.00  0.00     0.000 A 
ATOM      5  C6  UNL d   1      -2.177  -0.253  -0.507  0.00  0.00     0.000 A 
ATOM      6  C7  UNL d   1      -0.781  -0.089  -0.528  0.00  0.00    -0.073 A 
ATOM      7  C8  UNL d   1      -0.153   0.609  -1.703  0.00  0.00     0.078 C 
ENDROOT
BRANCH   1   8
ATOM      8  C1  UNL d   1       1.482  -0.371   0.637  0.00  0.00     0.053 C 
ATOM      9  C   UNL d   1       1.885   0.895   1.379  0.00  0.00     0.018 C 
ENDBRANCH   1   8
TORSDOF 1
ENDMDL
