MODEL 1
REMARK minimizedAffinity -3.24983788
REMARK minimizedRMSD -1
REMARK  1 active torsions:
REMARK  status: ('A' for Active; 'I' for Inactive)
REMARK    1  A    between atoms: C1_2  and  C2_3 
ROOT
ATOM      1  C2  UNL d   1       2.192   1.566   0.184  0.00  0.00    -0.076 A 
ATOM      2  C3  UNL d   1       2.875   2.044  -0.948  0.00  0.00     0.004 A 
ATOM      3  C4  UNL d   1       3.316   3.364  -1.015  0.00  0.00    -0.003 A 
ATOM      4  C5  UNL d   1       3.083   4.228   0.050  0.00  0.00     0.000 A 
ATOM      5  C6  UNL d   1       2.424   3.766   1.188  0.00  0.00     0.000 A 
ATOM      6  C7  UNL d   1       1.987   2.433   1.279  0.00  0.00    -0.073 A 
ATOM      7  C8  UNL d   1       1.275   1.990   2.528  0.00  0.00     0.078 C 
ENDROOT
BRANCH   1   8
ATOM      8  C1  UNL d   1       1.713   0.132   0.189  0.00  0.00     0.053 C 
ATOM      9  C   UNL d   1       0.258   0.002  -0.234  0.00  0.00     0.018 C 
ENDBRANCH   1   8
TORSDOF 1
ENDMDL
