MODEL 1
REMARK minimizedAffinity -5.34648514
REMARK minimizedRMSD -1
REMARK  0 active torsions:
REMARK  status: ('A' for Active; 'I' for Inactive)
ROOT
ATOM      1  N1  IND d   1      -0.452  -2.063   0.604  0.00  0.00    -0.196 N 
ATOM      2  C2  IND d   1       0.442  -3.065   0.349  0.00  0.00     0.054 A 
ATOM      3  C3  IND d   1       1.612  -2.550  -0.093  0.00  0.00    -0.031 A 
ATOM      4  C4  IND d   1       2.313  -0.089  -0.375  0.00  0.00     0.051 A 
ATOM      5  C5  IND d   1       1.825   1.185  -0.302  0.00  0.00    -0.031 A 
ATOM      6  C6  IND d   1       0.528   1.448   0.088  0.00  0.00     0.015 A 
ATOM      7  C7  IND d   1      -0.331   0.441   0.431  0.00  0.00    -0.016 A 
ATOM      8  C8  IND d   1       0.160  -0.854   0.351  0.00  0.00    -0.047 A 
ATOM      9  C9  IND d   1       1.462  -1.129  -0.085  0.00  0.00    -0.096 A 
ATOM     10  HN1 IND d   1      -1.260  -2.169   0.877  0.00  0.00     0.298 HD
ENDROOT
TORSDOF 0
ENDMDL
