MODEL 1
REMARK minimizedAffinity -4.85020447
REMARK minimizedRMSD -1
REMARK  0 active torsions:
REMARK  status: ('A' for Active; 'I' for Inactive)
ROOT
ATOM      1  N1  IND d   1      -0.958   1.433   0.252  0.00  0.00    -0.196 N 
ATOM      2  C2  IND d   1      -1.290   1.655  -1.056  0.00  0.00     0.054 A 
ATOM      3  C3  IND d   1      -0.693   0.743  -1.855  0.00  0.00    -0.031 A 
ATOM      4  C4  IND d   1       0.788  -1.265  -1.221  0.00  0.00     0.051 A 
ATOM      5  C5  IND d   1       1.401  -1.857  -0.153  0.00  0.00    -0.031 A 
ATOM      6  C6  IND d   1       1.254  -1.374   1.132  0.00  0.00     0.015 A 
ATOM      7  C7  IND d   1       0.475  -0.283   1.398  0.00  0.00    -0.016 A 
ATOM      8  C8  IND d   1      -0.143   0.324   0.314  0.00  0.00    -0.047 A 
ATOM      9  C9  IND d   1       0.037  -0.135  -0.997  0.00  0.00    -0.096 A 
ATOM     10  HN1 IND d   1      -1.214   1.907   0.922  0.00  0.00     0.298 HD
ENDROOT
TORSDOF 0
ENDMDL
