MODEL 1
REMARK minimizedAffinity -2.90985513
REMARK minimizedRMSD -1
REMARK  0 active torsions:
REMARK  status: ('A' for Active; 'I' for Inactive)
ROOT
ATOM      1  N1  IND d   1      -1.015   0.716   0.673  0.00  0.00    -0.196 N 
ATOM      2  C2  IND d   1      -0.549   1.781  -0.048  0.00  0.00     0.054 A 
ATOM      3  C3  IND d   1       0.681   1.512  -0.542  0.00  0.00    -0.031 A 
ATOM      4  C4  IND d   1       2.074  -0.646  -0.378  0.00  0.00     0.051 A 
ATOM      5  C5  IND d   1       2.083  -1.880   0.209  0.00  0.00    -0.031 A 
ATOM      6  C6  IND d   1       1.038  -2.322   0.994  0.00  0.00     0.015 A 
ATOM      7  C7  IND d   1      -0.066  -1.547   1.213  0.00  0.00    -0.016 A 
ATOM      8  C8  IND d   1      -0.075  -0.290   0.625  0.00  0.00    -0.047 A 
ATOM      9  C9  IND d   1       1.001   0.180  -0.138  0.00  0.00    -0.096 A 
ATOM     10  HN1 IND d   1      -1.767   0.681   1.087  0.00  0.00     0.298 HD
ENDROOT
TORSDOF 0
ENDMDL
