MODEL 1
REMARK minimizedAffinity -2.6111629
REMARK minimizedRMSD -1
REMARK  0 active torsions:
REMARK  status: ('A' for Active; 'I' for Inactive)
ROOT
ATOM      1  N1  IND d   1      -1.079  -0.691   2.151  0.00  0.00    -0.196 N 
ATOM      2  C2  IND d   1      -1.729   0.350   1.548  0.00  0.00     0.054 A 
ATOM      3  C3  IND d   1      -0.988   0.840   0.529  0.00  0.00    -0.031 A 
ATOM      4  C4  IND d   1       1.275   0.023  -0.388  0.00  0.00     0.051 A 
ATOM      5  C5  IND d   1       2.277  -0.873  -0.141  0.00  0.00    -0.031 A 
ATOM      6  C6  IND d   1       2.208  -1.775   0.901  0.00  0.00     0.015 A 
ATOM      7  C7  IND d   1       1.126  -1.821   1.733  0.00  0.00    -0.016 A 
ATOM      8  C8  IND d   1       0.110  -0.908   1.490  0.00  0.00    -0.047 A 
ATOM      9  C9  IND d   1       0.193   0.038   0.460  0.00  0.00    -0.096 A 
ATOM     10  HN1 IND d   1      -1.365  -1.135   2.830  0.00  0.00     0.298 HD
ENDROOT
TORSDOF 0
ENDMDL
