MODEL 1
REMARK minimizedAffinity -4.45269918
REMARK minimizedRMSD -1
REMARK  0 active torsions:
REMARK  status: ('A' for Active; 'I' for Inactive)
ROOT
ATOM      1  N1  IND d   1      -2.087   0.181  -3.832  0.00  0.00    -0.196 N 
ATOM      2  C2  IND d   1      -2.154  -1.024  -3.191  0.00  0.00     0.054 A 
ATOM      3  C3  IND d   1      -1.738  -0.900  -1.911  0.00  0.00    -0.031 A 
ATOM      4  C4  IND d   1      -0.997   1.207  -0.629  0.00  0.00     0.051 A 
ATOM      5  C5  IND d   1      -0.736   2.537  -0.803  0.00  0.00    -0.031 A 
ATOM      6  C6  IND d   1      -0.918   3.163  -2.019  0.00  0.00     0.015 A 
ATOM      7  C7  IND d   1      -1.380   2.482  -3.109  0.00  0.00    -0.016 A 
ATOM      8  C8  IND d   1      -1.640   1.129  -2.938  0.00  0.00    -0.047 A 
ATOM      9  C9  IND d   1      -1.417   0.479  -1.718  0.00  0.00    -0.096 A 
ATOM     10  HN1 IND d   1      -2.289   0.323  -4.656  0.00  0.00     0.298 HD
ENDROOT
TORSDOF 0
ENDMDL
