MODEL 1
REMARK minimizedAffinity -1.9089365
REMARK minimizedRMSD -1
REMARK  0 active torsions:
REMARK  status: ('A' for Active; 'I' for Inactive)
ROOT
ATOM      1  N1  IND d   1      -1.625   0.386  -0.165  0.00  0.00    -0.196 N 
ATOM      2  C2  IND d   1      -1.006   1.451  -0.757  0.00  0.00     0.054 A 
ATOM      3  C3  IND d   1       0.336   1.283  -0.743  0.00  0.00    -0.031 A 
ATOM      4  C4  IND d   1       1.725  -0.710   0.110  0.00  0.00     0.051 A 
ATOM      5  C5  IND d   1       1.607  -1.903   0.767  0.00  0.00    -0.031 A 
ATOM      6  C6  IND d   1       0.381  -2.405   1.152  0.00  0.00     0.015 A 
ATOM      7  C7  IND d   1      -0.779  -1.736   0.883  0.00  0.00    -0.016 A 
ATOM      8  C8  IND d   1      -0.663  -0.521   0.222  0.00  0.00    -0.047 A 
ATOM      9  C9  IND d   1       0.582   0.014  -0.133  0.00  0.00    -0.096 A 
ATOM     10  HN1 IND d   1      -2.473   0.297  -0.054  0.00  0.00     0.298 HD
ENDROOT
TORSDOF 0
ENDMDL
