MODEL 1
REMARK minimizedAffinity -1.81866586
REMARK minimizedRMSD -1
REMARK  0 active torsions:
REMARK  status: ('A' for Active; 'I' for Inactive)
ROOT
ATOM      1  N1  IND d   1       0.245   1.238  -0.767  0.00  0.00    -0.196 N 
ATOM      2  C2  IND d   1      -0.999   1.745  -0.513  0.00  0.00     0.054 A 
ATOM      3  C3  IND d   1      -1.709   0.887   0.254  0.00  0.00    -0.031 A 
ATOM      4  C4  IND d   1      -0.992  -1.358   1.290  0.00  0.00     0.051 A 
ATOM      5  C5  IND d   1       0.039  -2.254   1.310  0.00  0.00    -0.031 A 
ATOM      6  C6  IND d   1       1.217  -2.027   0.627  0.00  0.00     0.015 A 
ATOM      7  C7  IND d   1       1.412  -0.884  -0.095  0.00  0.00    -0.016 A 
ATOM      8  C8  IND d   1       0.364   0.025  -0.124  0.00  0.00    -0.047 A 
ATOM      9  C9  IND d   1      -0.849  -0.219   0.533  0.00  0.00    -0.096 A 
ATOM     10  HN1 IND d   1       0.851   1.613  -1.249  0.00  0.00     0.298 HD
ENDROOT
TORSDOF 0
ENDMDL
