MODEL 1
REMARK minimizedAffinity -3.33416629
REMARK minimizedRMSD -1
REMARK  0 active torsions:
REMARK  status: ('A' for Active; 'I' for Inactive)
ROOT
ATOM      1  N1  IND d   1      -1.669  -0.648   1.611  0.00  0.00    -0.196 N 
ATOM      2  C2  IND d   1      -1.041  -1.859   1.520  0.00  0.00     0.054 A 
ATOM      3  C3  IND d   1       0.027  -1.774   0.696  0.00  0.00    -0.031 A 
ATOM      4  C4  IND d   1       0.987   0.275  -0.532  0.00  0.00     0.051 A 
ATOM      5  C5  IND d   1       0.735   1.595  -0.786  0.00  0.00    -0.031 A 
ATOM      6  C6  IND d   1      -0.352   2.247  -0.240  0.00  0.00     0.015 A 
ATOM      7  C7  IND d   1      -1.225   1.605   0.592  0.00  0.00    -0.016 A 
ATOM      8  C8  IND d   1      -0.976   0.264   0.846  0.00  0.00    -0.047 A 
ATOM      9  C9  IND d   1       0.101  -0.415   0.262  0.00  0.00    -0.096 A 
ATOM     10  HN1 IND d   1      -2.379  -0.484   2.068  0.00  0.00     0.298 HD
ENDROOT
TORSDOF 0
ENDMDL
