MODEL 1
REMARK minimizedAffinity -4.39243507
REMARK minimizedRMSD -1
REMARK  0 active torsions:
REMARK  status: ('A' for Active; 'I' for Inactive)
ROOT
ATOM      1  N1  IND d   1      -1.370   0.180  -0.594  0.00  0.00    -0.196 N 
ATOM      2  C2  IND d   1      -0.816   1.371  -0.972  0.00  0.00     0.054 A 
ATOM      3  C3  IND d   1       0.529   1.324  -0.847  0.00  0.00    -0.031 A 
ATOM      4  C4  IND d   1       2.039  -0.637  -0.139  0.00  0.00     0.051 A 
ATOM      5  C5  IND d   1       1.989  -1.918   0.335  0.00  0.00    -0.031 A 
ATOM      6  C6  IND d   1       0.793  -2.580   0.524  0.00  0.00     0.015 A 
ATOM      7  C7  IND d   1      -0.403  -1.986   0.235  0.00  0.00    -0.016 A 
ATOM      8  C8  IND d   1      -0.357  -0.683  -0.240  0.00  0.00    -0.047 A 
ATOM      9  C9  IND d   1       0.852   0.008  -0.393  0.00  0.00    -0.096 A 
ATOM     10  HN1 IND d   1      -2.211  -0.001  -0.581  0.00  0.00     0.298 HD
ENDROOT
TORSDOF 0
ENDMDL
