MODEL 1
REMARK minimizedAffinity -1.53506899
REMARK minimizedRMSD -1
REMARK  0 active torsions:
REMARK  status: ('A' for Active; 'I' for Inactive)
ROOT
ATOM      1  N1  IND d   1      -0.621   2.130  -0.425  0.00  0.00    -0.196 N 
ATOM      2  C2  IND d   1      -1.467   2.137  -1.499  0.00  0.00     0.054 A 
ATOM      3  C3  IND d   1      -1.386   0.967  -2.170  0.00  0.00    -0.031 A 
ATOM      4  C4  IND d   1      -0.006  -1.138  -1.627  0.00  0.00     0.051 A 
ATOM      5  C5  IND d   1       0.945  -1.610  -0.766  0.00  0.00    -0.031 A 
ATOM      6  C6  IND d   1       1.431  -0.845   0.275  0.00  0.00     0.015 A 
ATOM      7  C7  IND d   1       0.973   0.422   0.502  0.00  0.00    -0.016 A 
ATOM      8  C8  IND d   1       0.012   0.907  -0.374  0.00  0.00    -0.047 A 
ATOM      9  C9  IND d   1      -0.453   0.151  -1.458  0.00  0.00    -0.096 A 
ATOM     10  HN1 IND d   1      -0.503   2.780   0.126  0.00  0.00     0.298 HD
ENDROOT
TORSDOF 0
ENDMDL
