MODEL 1
REMARK minimizedAffinity -4.38847446
REMARK minimizedRMSD -1
REMARK  0 active torsions:
REMARK  status: ('A' for Active; 'I' for Inactive)
ROOT
ATOM      1  N1  IND d   1       2.182  -1.636   0.704  0.00  0.00    -0.196 N 
ATOM      2  C2  IND d   1       1.513  -2.651   1.330  0.00  0.00     0.054 A 
ATOM      3  C3  IND d   1       0.193  -2.367   1.405  0.00  0.00    -0.031 A 
ATOM      4  C4  IND d   1      -1.101  -0.344   0.477  0.00  0.00     0.051 A 
ATOM      5  C5  IND d   1      -0.916   0.861  -0.141  0.00  0.00    -0.031 A 
ATOM      6  C6  IND d   1       0.335   1.303  -0.519  0.00  0.00     0.015 A 
ATOM      7  C7  IND d   1       1.453   0.548  -0.302  0.00  0.00    -0.016 A 
ATOM      8  C8  IND d   1       1.270  -0.673   0.331  0.00  0.00    -0.047 A 
ATOM      9  C9  IND d   1       0.008  -1.108   0.755  0.00  0.00    -0.096 A 
ATOM     10  HN1 IND d   1       3.030  -1.605   0.566  0.00  0.00     0.298 HD
ENDROOT
TORSDOF 0
ENDMDL
