MODEL 1
REMARK minimizedAffinity -4.41555977
REMARK minimizedRMSD -1
REMARK  0 active torsions:
REMARK  status: ('A' for Active; 'I' for Inactive)
ROOT
ATOM      1  N1  IND d   1      -0.714   0.404   0.093  0.00  0.00    -0.196 N 
ATOM      2  C2  IND d   1       0.041   1.208  -0.714  0.00  0.00     0.054 A 
ATOM      3  C3  IND d   1       1.275   0.681  -0.882  0.00  0.00    -0.031 A 
ATOM      4  C4  IND d   1       2.237  -1.540  -0.006  0.00  0.00     0.051 A 
ATOM      5  C5  IND d   1       1.937  -2.599   0.804  0.00  0.00    -0.031 A 
ATOM      6  C6  IND d   1       0.713  -2.714   1.430  0.00  0.00     0.015 A 
ATOM      7  C7  IND d   1      -0.266  -1.777   1.258  0.00  0.00    -0.016 A 
ATOM      8  C8  IND d   1       0.037  -0.697   0.441  0.00  0.00    -0.047 A 
ATOM      9  C9  IND d   1       1.293  -0.553  -0.162  0.00  0.00    -0.096 A 
ATOM     10  HN1 IND d   1      -1.522   0.560   0.342  0.00  0.00     0.298 HD
ENDROOT
TORSDOF 0
ENDMDL
