MODEL 1
REMARK minimizedAffinity -2.5899477
REMARK minimizedRMSD -1
REMARK  0 active torsions:
REMARK  status: ('A' for Active; 'I' for Inactive)
ROOT
ATOM      1  N1  IND d   1       0.169  -2.302   0.797  0.00  0.00    -0.196 N 
ATOM      2  C2  IND d   1       1.501  -2.599   0.704  0.00  0.00     0.054 A 
ATOM      3  C3  IND d   1       2.165  -1.593   0.091  0.00  0.00    -0.031 A 
ATOM      4  C4  IND d   1       1.284   0.676  -0.748  0.00  0.00     0.051 A 
ATOM      5  C5  IND d   1       0.130   1.389  -0.915  0.00  0.00    -0.031 A 
ATOM      6  C6  IND d   1      -1.094   0.899  -0.509  0.00  0.00     0.015 A 
ATOM      7  C7  IND d   1      -1.209  -0.323   0.092  0.00  0.00    -0.016 A 
ATOM      8  C8  IND d   1      -0.040  -1.052   0.257  0.00  0.00    -0.047 A 
ATOM      9  C9  IND d   1       1.200  -0.578  -0.192  0.00  0.00    -0.096 A 
ATOM     10  HN1 IND d   1      -0.435  -2.810   1.137  0.00  0.00     0.298 HD
ENDROOT
TORSDOF 0
ENDMDL
