MODEL 1
REMARK minimizedAffinity -3.86215162
REMARK minimizedRMSD -1
REMARK  0 active torsions:
REMARK  status: ('A' for Active; 'I' for Inactive)
ROOT
ATOM      1  N1  IND d   1       0.211  -2.473   0.898  0.00  0.00    -0.196 N 
ATOM      2  C2  IND d   1       1.546  -2.738   1.025  0.00  0.00     0.054 A 
ATOM      3  C3  IND d   1       2.278  -1.723   0.513  0.00  0.00    -0.031 A 
ATOM      4  C4  IND d   1       1.493   0.514  -0.491  0.00  0.00     0.051 A 
ATOM      5  C5  IND d   1       0.366   1.196  -0.853  0.00  0.00    -0.031 A 
ATOM      6  C6  IND d   1      -0.897   0.681  -0.643  0.00  0.00     0.015 A 
ATOM      7  C7  IND d   1      -1.080  -0.537  -0.050  0.00  0.00    -0.016 A 
ATOM      8  C8  IND d   1       0.063  -1.235   0.312  0.00  0.00    -0.047 A 
ATOM      9  C9  IND d   1       1.348  -0.735   0.063  0.00  0.00    -0.096 A 
ATOM     10  HN1 IND d   1      -0.429  -2.992   1.143  0.00  0.00     0.298 HD
ENDROOT
TORSDOF 0
ENDMDL
