MODEL 1
REMARK minimizedAffinity -4.98085308
REMARK minimizedRMSD -1
REMARK  0 active torsions:
REMARK  status: ('A' for Active; 'I' for Inactive)
ROOT
ATOM      1  N1  IND d   1      -1.449  -0.022  -0.126  0.00  0.00    -0.196 N 
ATOM      2  C2  IND d   1      -1.082   1.077  -0.851  0.00  0.00     0.054 A 
ATOM      3  C3  IND d   1       0.246   1.055  -1.100  0.00  0.00    -0.031 A 
ATOM      4  C4  IND d   1       1.993  -0.739  -0.501  0.00  0.00     0.051 A 
ATOM      5  C5  IND d   1       2.142  -1.908   0.190  0.00  0.00    -0.031 A 
ATOM      6  C6  IND d   1       1.080  -2.523   0.821  0.00  0.00     0.015 A 
ATOM      7  C7  IND d   1      -0.179  -1.994   0.775  0.00  0.00    -0.016 A 
ATOM      8  C8  IND d   1      -0.333  -0.803   0.080  0.00  0.00    -0.047 A 
ATOM      9  C9  IND d   1       0.750  -0.152  -0.526  0.00  0.00    -0.096 A 
ATOM     10  HN1 IND d   1      -2.243  -0.197   0.153  0.00  0.00     0.298 HD
ENDROOT
TORSDOF 0
ENDMDL
