MODEL 1
REMARK minimizedAffinity -4.34668207
REMARK minimizedRMSD -1
REMARK  0 active torsions:
REMARK  status: ('A' for Active; 'I' for Inactive)
ROOT
ATOM      1  N1  IND d   1      -0.851   0.539   0.453  0.00  0.00    -0.196 N 
ATOM      2  C2  IND d   1      -0.089   1.277  -0.410  0.00  0.00     0.054 A 
ATOM      3  C3  IND d   1       1.058   0.624  -0.701  0.00  0.00    -0.031 A 
ATOM      4  C4  IND d   1       1.845  -1.711   0.045  0.00  0.00     0.051 A 
ATOM      5  C5  IND d   1       1.506  -2.751   0.864  0.00  0.00    -0.031 A 
ATOM      6  C6  IND d   1       0.340  -2.749   1.601  0.00  0.00     0.015 A 
ATOM      7  C7  IND d   1      -0.541  -1.707   1.537  0.00  0.00    -0.016 A 
ATOM      8  C8  IND d   1      -0.197  -0.646   0.712  0.00  0.00    -0.047 A 
ATOM      9  C9  IND d   1       1.006  -0.623  -0.006  0.00  0.00    -0.096 A 
ATOM     10  HN1 IND d   1      -1.610   0.775   0.780  0.00  0.00     0.298 HD
ENDROOT
TORSDOF 0
ENDMDL
