MODEL 1
REMARK minimizedAffinity -4.86028814
REMARK minimizedRMSD -1
REMARK  0 active torsions:
REMARK  status: ('A' for Active; 'I' for Inactive)
ROOT
ATOM      1  N1  IND d   1       2.125  -1.404   0.018  0.00  0.00    -0.196 N 
ATOM      2  C2  IND d   1       1.785  -2.606   0.573  0.00  0.00     0.054 A 
ATOM      3  C3  IND d   1       0.504  -2.579   1.004  0.00  0.00    -0.031 A 
ATOM      4  C4  IND d   1      -1.248  -0.704   0.809  0.00  0.00     0.051 A 
ATOM      5  C5  IND d   1      -1.396   0.595   0.410  0.00  0.00    -0.031 A 
ATOM      6  C6  IND d   1      -0.357   1.308  -0.153  0.00  0.00     0.015 A 
ATOM      7  C7  IND d   1       0.870   0.741  -0.350  0.00  0.00    -0.016 A 
ATOM      8  C8  IND d   1       1.026  -0.575   0.059  0.00  0.00    -0.047 A 
ATOM      9  C9  IND d   1      -0.012  -1.290   0.671  0.00  0.00    -0.096 A 
ATOM     10  HN1 IND d   1       2.896  -1.200  -0.303  0.00  0.00     0.298 HD
ENDROOT
TORSDOF 0
ENDMDL
