MODEL 1
REMARK minimizedAffinity -4.08100605
REMARK minimizedRMSD -1
REMARK  0 active torsions:
REMARK  status: ('A' for Active; 'I' for Inactive)
ROOT
ATOM      1  N1  IND d   1      -1.541  -0.233  -0.263  0.00  0.00    -0.196 N 
ATOM      2  C2  IND d   1      -1.506   0.934  -0.975  0.00  0.00     0.054 A 
ATOM      3  C3  IND d   1      -0.235   1.381  -1.081  0.00  0.00    -0.031 A 
ATOM      4  C4  IND d   1       1.953   0.306  -0.252  0.00  0.00     0.051 A 
ATOM      5  C5  IND d   1       2.425  -0.746   0.482  0.00  0.00    -0.031 A 
ATOM      6  C6  IND d   1       1.583  -1.701   1.014  0.00  0.00     0.015 A 
ATOM      7  C7  IND d   1       0.232  -1.646   0.820  0.00  0.00    -0.016 A 
ATOM      8  C8  IND d   1      -0.252  -0.576   0.081  0.00  0.00    -0.047 A 
ATOM      9  C9  IND d   1       0.593   0.420  -0.425  0.00  0.00    -0.096 A 
ATOM     10  HN1 IND d   1      -2.250  -0.678  -0.065  0.00  0.00     0.298 HD
ENDROOT
TORSDOF 0
ENDMDL
