MODEL 1
REMARK minimizedAffinity 15.3154707
REMARK minimizedRMSD -1
REMARK  0 active torsions:
REMARK  status: ('A' for Active; 'I' for Inactive)
ROOT
ATOM      1  N1  IND d   1       4.926  -6.000  -4.214  0.00  0.00    -0.196 N 
ATOM      2  C2  IND d   1       4.506  -5.070  -5.124  0.00  0.00     0.054 A 
ATOM      3  C3  IND d   1       4.109  -3.942  -4.494  0.00  0.00    -0.031 A 
ATOM      4  C4  IND d   1       4.161  -3.364  -1.986  0.00  0.00     0.051 A 
ATOM      5  C5  IND d   1       4.429  -3.908  -0.760  0.00  0.00    -0.031 A 
ATOM      6  C6  IND d   1       4.889  -5.202  -0.621  0.00  0.00     0.015 A 
ATOM      7  C7  IND d   1       5.109  -6.000  -1.708  0.00  0.00    -0.016 A 
ATOM      8  C8  IND d   1       4.831  -5.454  -2.953  0.00  0.00    -0.047 A 
ATOM      9  C9  IND d   1       4.324  -4.156  -3.098  0.00  0.00    -0.096 A 
ATOM     10  HN1 IND d   1       5.204  -6.793  -4.399  0.00  0.00     0.298 HD
ENDROOT
TORSDOF 0
ENDMDL
