MODEL 1
REMARK minimizedAffinity 6.54034042
REMARK minimizedRMSD -1
REMARK  0 active torsions:
REMARK  status: ('A' for Active; 'I' for Inactive)
ROOT
ATOM      1  N1  IND d   1       1.305   3.226   2.367  0.00  0.00    -0.196 N 
ATOM      2  C2  IND d   1       0.366   2.521   3.068  0.00  0.00     0.054 A 
ATOM      3  C3  IND d   1      -0.712   2.272   2.291  0.00  0.00    -0.031 A 
ATOM      4  C4  IND d   1      -1.108   2.841  -0.188  0.00  0.00     0.051 A 
ATOM      5  C5  IND d   1      -0.552   3.511  -1.242  0.00  0.00    -0.031 A 
ATOM      6  C6  IND d   1       0.677   4.131  -1.145  0.00  0.00     0.015 A 
ATOM      7  C7  IND d   1       1.404   4.094   0.011  0.00  0.00    -0.016 A 
ATOM      8  C8  IND d   1       0.840   3.420   1.085  0.00  0.00    -0.047 A 
ATOM      9  C9  IND d   1      -0.426   2.825   1.005  0.00  0.00    -0.096 A 
ATOM     10  HN1 IND d   1       2.058   3.503   2.676  0.00  0.00     0.298 HD
ENDROOT
TORSDOF 0
ENDMDL
