MODEL 1
REMARK minimizedAffinity 1.88373196
REMARK minimizedRMSD -1
REMARK  0 active torsions:
REMARK  status: ('A' for Active; 'I' for Inactive)
ROOT
ATOM      1  N1  IND d   1       1.229   4.585  -1.125  0.00  0.00    -0.196 N 
ATOM      2  C2  IND d   1      -0.082   4.354  -1.433  0.00  0.00     0.054 A 
ATOM      3  C3  IND d   1      -0.675   3.634  -0.454  0.00  0.00    -0.031 A 
ATOM      4  C4  IND d   1       0.291   2.815   1.788  0.00  0.00     0.051 A 
ATOM      5  C5  IND d   1       1.456   2.752   2.500  0.00  0.00    -0.031 A 
ATOM      6  C6  IND d   1       2.628   3.311   2.032  0.00  0.00     0.015 A 
ATOM      7  C7  IND d   1       2.676   3.966   0.834  0.00  0.00    -0.016 A 
ATOM      8  C8  IND d   1       1.497   4.025   0.105  0.00  0.00    -0.047 A 
ATOM      9  C9  IND d   1       0.315   3.424   0.555  0.00  0.00    -0.096 A 
ATOM     10  HN1 IND d   1       1.793   5.008  -1.618  0.00  0.00     0.298 HD
ENDROOT
TORSDOF 0
ENDMDL
