MODEL 1
REMARK minimizedAffinity 3.17856121
REMARK minimizedRMSD -1
REMARK  0 active torsions:
REMARK  status: ('A' for Active; 'I' for Inactive)
ROOT
ATOM      1  N1  IND d   1      -0.951  -3.052  -1.880  0.00  0.00    -0.196 N 
ATOM      2  C2  IND d   1      -0.580  -4.366  -1.958  0.00  0.00     0.054 A 
ATOM      3  C3  IND d   1       0.588  -4.564  -1.307  0.00  0.00    -0.031 A 
ATOM      4  C4  IND d   1       2.010  -2.897   0.044  0.00  0.00     0.051 A 
ATOM      5  C5  IND d   1       2.097  -1.573   0.371  0.00  0.00    -0.031 A 
ATOM      6  C6  IND d   1       1.152  -0.656  -0.041  0.00  0.00     0.015 A 
ATOM      7  C7  IND d   1       0.073  -1.033  -0.790  0.00  0.00    -0.016 A 
ATOM      8  C8  IND d   1      -0.014  -2.376  -1.131  0.00  0.00    -0.047 A 
ATOM      9  C9  IND d   1       0.965  -3.303  -0.751  0.00  0.00    -0.096 A 
ATOM     10  HN1 IND d   1      -1.652  -2.707  -2.239  0.00  0.00     0.298 HD
ENDROOT
TORSDOF 0
ENDMDL
