MODEL 1
REMARK minimizedAffinity 23.2204628
REMARK minimizedRMSD -1
REMARK  0 active torsions:
REMARK  status: ('A' for Active; 'I' for Inactive)
ROOT
ATOM      1  N1  IND d   1       5.016  -3.959  -4.558  0.00  0.00    -0.196 N 
ATOM      2  C2  IND d   1       4.494  -5.036  -5.219  0.00  0.00     0.054 A 
ATOM      3  C3  IND d   1       4.130  -5.996  -4.339  0.00  0.00    -0.031 A 
ATOM      4  C4  IND d   1       4.205  -5.971  -1.766  0.00  0.00     0.051 A 
ATOM      5  C5  IND d   1       4.634  -5.219  -0.709  0.00  0.00    -0.031 A 
ATOM      6  C6  IND d   1       5.222  -3.983  -0.883  0.00  0.00     0.015 A 
ATOM      7  C7  IND d   1       5.393  -3.445  -2.128  0.00  0.00    -0.016 A 
ATOM      8  C8  IND d   1       4.965  -4.209  -3.204  0.00  0.00    -0.047 A 
ATOM      9  C9  IND d   1       4.406  -5.482  -3.036  0.00  0.00    -0.096 A 
ATOM     10  HN1 IND d   1       5.325  -3.246  -4.926  0.00  0.00     0.298 HD
ENDROOT
TORSDOF 0
ENDMDL
