MODEL 1
REMARK minimizedAffinity 15.5062027
REMARK minimizedRMSD -1
REMARK  0 active torsions:
REMARK  status: ('A' for Active; 'I' for Inactive)
ROOT
ATOM      1  N1  IND d   1       5.010  -4.444  -4.795  0.00  0.00    -0.196 N 
ATOM      2  C2  IND d   1       4.119  -5.247  -5.450  0.00  0.00     0.054 A 
ATOM      3  C3  IND d   1       3.425  -5.999  -4.567  0.00  0.00    -0.031 A 
ATOM      4  C4  IND d   1       3.515  -6.000  -1.994  0.00  0.00     0.051 A 
ATOM      5  C5  IND d   1       4.200  -5.463  -0.940  0.00  0.00    -0.031 A 
ATOM      6  C6  IND d   1       5.208  -4.538  -1.121  0.00  0.00     0.015 A 
ATOM      7  C7  IND d   1       5.563  -4.105  -2.367  0.00  0.00    -0.016 A 
ATOM      8  C8  IND d   1       4.875  -4.654  -3.440  0.00  0.00    -0.047 A 
ATOM      9  C9  IND d   1       3.880  -5.624  -3.266  0.00  0.00    -0.096 A 
ATOM     10  HN1 IND d   1       5.562  -3.899  -5.166  0.00  0.00     0.298 HD
ENDROOT
TORSDOF 0
ENDMDL
