MODEL 1
REMARK minimizedAffinity 4.14030266
REMARK minimizedRMSD -1
REMARK  0 active torsions:
REMARK  status: ('A' for Active; 'I' for Inactive)
ROOT
ATOM      1  N1  IND d   1      -5.347   3.928  -5.506  0.00  0.00    -0.196 N 
ATOM      2  C2  IND d   1      -5.783   5.126  -6.000  0.00  0.00     0.054 A 
ATOM      3  C3  IND d   1      -6.000   6.000  -4.991  0.00  0.00    -0.031 A 
ATOM      4  C4  IND d   1      -5.608   5.709  -2.463  0.00  0.00     0.051 A 
ATOM      5  C5  IND d   1      -5.251   4.778  -1.529  0.00  0.00    -0.031 A 
ATOM      6  C6  IND d   1      -4.899   3.491  -1.879  0.00  0.00     0.015 A 
ATOM      7  C7  IND d   1      -4.878   3.089  -3.185  0.00  0.00    -0.016 A 
ATOM      8  C8  IND d   1      -5.247   4.029  -4.136  0.00  0.00    -0.047 A 
ATOM      9  C9  IND d   1      -5.646   5.325  -3.783  0.00  0.00    -0.096 A 
ATOM     10  HN1 IND d   1      -5.165   3.229  -5.973  0.00  0.00     0.298 HD
ENDROOT
TORSDOF 0
ENDMDL
