MODEL 1
REMARK minimizedAffinity 3.69574881
REMARK minimizedRMSD -1
REMARK  0 active torsions:
REMARK  status: ('A' for Active; 'I' for Inactive)
ROOT
ATOM      1  N1  IND d   1      -4.486   1.124  -5.580  0.00  0.00    -0.196 N 
ATOM      2  C2  IND d   1      -5.313   0.037  -5.523  0.00  0.00     0.054 A 
ATOM      3  C3  IND d   1      -6.000   0.028  -4.359  0.00  0.00    -0.031 A 
ATOM      4  C4  IND d   1      -5.999   1.752  -2.447  0.00  0.00     0.051 A 
ATOM      5  C5  IND d   1      -5.379   2.896  -2.028  0.00  0.00    -0.031 A 
ATOM      6  C6  IND d   1      -4.412   3.522  -2.788  0.00  0.00     0.015 A 
ATOM      7  C7  IND d   1      -4.036   3.031  -4.006  0.00  0.00    -0.016 A 
ATOM      8  C8  IND d   1      -4.658   1.866  -4.432  0.00  0.00    -0.047 A 
ATOM      9  C9  IND d   1      -5.609   1.203  -3.646  0.00  0.00    -0.096 A 
ATOM     10  HN1 IND d   1      -3.949   1.313  -6.224  0.00  0.00     0.298 HD
ENDROOT
TORSDOF 0
ENDMDL
