MODEL 1
REMARK minimizedAffinity 11.4624681
REMARK minimizedRMSD -1
REMARK  0 active torsions:
REMARK  status: ('A' for Active; 'I' for Inactive)
ROOT
ATOM      1  N1  IND d   1      -2.831   5.282  -1.859  0.00  0.00    -0.196 N 
ATOM      2  C2  IND d   1      -2.120   5.655  -2.965  0.00  0.00     0.054 A 
ATOM      3  C3  IND d   1      -2.747   5.240  -4.089  0.00  0.00    -0.031 A 
ATOM      4  C4  IND d   1      -5.000   4.023  -4.351  0.00  0.00     0.051 A 
ATOM      5  C5  IND d   1      -6.000   3.440  -3.625  0.00  0.00    -0.031 A 
ATOM      6  C6  IND d   1      -5.996   3.443  -2.245  0.00  0.00     0.015 A 
ATOM      7  C7  IND d   1      -4.993   4.042  -1.537  0.00  0.00    -0.016 A 
ATOM      8  C8  IND d   1      -3.972   4.630  -2.271  0.00  0.00    -0.047 A 
ATOM      9  C9  IND d   1      -3.949   4.593  -3.671  0.00  0.00    -0.096 A 
ATOM     10  HN1 IND d   1      -2.604   5.430  -1.043  0.00  0.00     0.298 HD
ENDROOT
TORSDOF 0
ENDMDL
