MODEL 1
REMARK minimizedAffinity -0.300318152
REMARK minimizedRMSD -1
REMARK  0 active torsions:
REMARK  status: ('A' for Active; 'I' for Inactive)
ROOT
ATOM      1  C   UNL d   1      -1.231  -0.737  -0.846  0.00  0.00     0.124 A 
ATOM      2  C1  UNL d   1      -1.707   0.033   0.206  0.00  0.00     0.062 A 
ATOM      3  C2  UNL d   1      -0.822   0.758   0.999  0.00  0.00     0.162 A 
ATOM      4  C3  UNL d   1       0.549   0.716   0.743  0.00  0.00    -0.034 A 
ATOM      5  C4  UNL d   1       1.020  -0.061  -0.317  0.00  0.00     0.162 A 
ATOM      6  C5  UNL d   1       0.131  -0.783  -1.106  0.00  0.00     0.062 A 
ATOM      7  F   UNL d   1       0.592  -1.527  -2.123  0.00  0.00    -0.097 F 
ATOM      8  F1  UNL d   1       2.331  -0.124  -0.591  0.00  0.00    -0.096 F 
ATOM      9  I   UNL d   1       1.875   1.798   1.927  0.00  0.00    -0.060 I 
ATOM     10  F2  UNL d   1      -1.309   1.493   2.010  0.00  0.00    -0.096 F 
ATOM     11  F3  UNL d   1      -3.023   0.079   0.461  0.00  0.00    -0.097 F 
ATOM     12  F4  UNL d   1      -2.085  -1.433  -1.607  0.00  0.00    -0.092 F 
ENDROOT
TORSDOF 0
ENDMDL
