MODEL 1
REMARK minimizedAffinity -0.768856764
REMARK minimizedRMSD -1
REMARK  0 active torsions:
REMARK  status: ('A' for Active; 'I' for Inactive)
ROOT
ATOM      1  C   UNL d   1       2.080   2.117   0.958  0.00  0.00     0.124 A 
ATOM      2  C1  UNL d   1       1.298   2.781   0.023  0.00  0.00     0.062 A 
ATOM      3  C2  UNL d   1       0.210   2.139  -0.562  0.00  0.00     0.162 A 
ATOM      4  C3  UNL d   1      -0.104   0.826  -0.213  0.00  0.00    -0.034 A 
ATOM      5  C4  UNL d   1       0.688   0.164   0.728  0.00  0.00     0.162 A 
ATOM      6  C5  UNL d   1       1.774   0.810   1.309  0.00  0.00     0.062 A 
ATOM      7  F   UNL d   1       2.529   0.166   2.212  0.00  0.00    -0.097 F 
ATOM      8  F1  UNL d   1       0.415  -1.099   1.087  0.00  0.00    -0.096 F 
ATOM      9  I   UNL d   1      -1.730  -0.137  -1.085  0.00  0.00    -0.060 I 
ATOM     10  F2  UNL d   1      -0.529   2.805  -1.462  0.00  0.00    -0.096 F 
ATOM     11  F3  UNL d   1       1.591   4.043  -0.319  0.00  0.00    -0.097 F 
ATOM     12  F4  UNL d   1       3.127   2.736   1.518  0.00  0.00    -0.092 F 
ENDROOT
TORSDOF 0
ENDMDL
