MODEL 1
REMARK minimizedAffinity 2.30413556
REMARK minimizedRMSD -1
REMARK  0 active torsions:
REMARK  status: ('A' for Active; 'I' for Inactive)
ROOT
ATOM      1  C   UNL d   1      -1.407  -1.218  -0.309  0.00  0.00     0.124 A 
ATOM      2  C1  UNL d   1      -0.500  -1.335   0.735  0.00  0.00     0.062 A 
ATOM      3  C2  UNL d   1       0.529  -0.408   0.876  0.00  0.00     0.162 A 
ATOM      4  C3  UNL d   1       0.656   0.645  -0.030  0.00  0.00    -0.034 A 
ATOM      5  C4  UNL d   1      -0.259   0.755  -1.078  0.00  0.00     0.162 A 
ATOM      6  C5  UNL d   1      -1.286  -0.173  -1.214  0.00  0.00     0.062 A 
ATOM      7  F   UNL d   1      -2.161  -0.059  -2.224  0.00  0.00    -0.097 F 
ATOM      8  F1  UNL d   1      -0.166   1.755  -1.967  0.00  0.00    -0.096 F 
ATOM      9  I   UNL d   1       2.194   2.032   0.176  0.00  0.00    -0.060 I 
ATOM     10  F2  UNL d   1       1.391  -0.546   1.894  0.00  0.00    -0.096 F 
ATOM     11  F3  UNL d   1      -0.615  -2.344   1.611  0.00  0.00    -0.097 F 
ATOM     12  F4  UNL d   1      -2.396  -2.111  -0.442  0.00  0.00    -0.092 F 
ENDROOT
TORSDOF 0
ENDMDL
