MODEL 1
REMARK minimizedAffinity 3.6620841
REMARK minimizedRMSD -1
REMARK  0 active torsions:
REMARK  status: ('A' for Active; 'I' for Inactive)
ROOT
ATOM      1  C   UNL d   1      -1.735  -1.142   0.245  0.00  0.00     0.124 A 
ATOM      2  C1  UNL d   1      -0.676  -1.384   1.109  0.00  0.00     0.062 A 
ATOM      3  C2  UNL d   1       0.417  -0.524   1.134  0.00  0.00     0.162 A 
ATOM      4  C3  UNL d   1       0.457   0.588   0.293  0.00  0.00    -0.034 A 
ATOM      5  C4  UNL d   1      -0.611   0.825  -0.574  0.00  0.00     0.162 A 
ATOM      6  C5  UNL d   1      -1.702  -0.038  -0.595  0.00  0.00     0.062 A 
ATOM      7  F   UNL d   1      -2.724   0.198  -1.430  0.00  0.00    -0.097 F 
ATOM      8  F1  UNL d   1      -0.605   1.885  -1.395  0.00  0.00    -0.096 F 
ATOM      9  I   UNL d   1       2.091   1.877   0.328  0.00  0.00    -0.060 I 
ATOM     10  F2  UNL d   1       1.426  -0.782   1.979  0.00  0.00    -0.096 F 
ATOM     11  F3  UNL d   1      -0.706  -2.451   1.921  0.00  0.00    -0.097 F 
ATOM     12  F4  UNL d   1      -2.786  -1.972   0.222  0.00  0.00    -0.092 F 
ENDROOT
TORSDOF 0
ENDMDL
