MODEL 1
REMARK minimizedAffinity 3.82548833
REMARK minimizedRMSD -1
REMARK  0 active torsions:
REMARK  status: ('A' for Active; 'I' for Inactive)
ROOT
ATOM      1  C   UNL d   1       1.473   1.491   0.623  0.00  0.00     0.124 A 
ATOM      2  C1  UNL d   1       0.336   1.012   1.259  0.00  0.00     0.062 A 
ATOM      3  C2  UNL d   1      -0.495   0.100   0.615  0.00  0.00     0.162 A 
ATOM      4  C3  UNL d   1      -0.192  -0.340  -0.674  0.00  0.00    -0.034 A 
ATOM      5  C4  UNL d   1       0.952   0.148  -1.308  0.00  0.00     0.162 A 
ATOM      6  C5  UNL d   1       1.780   1.059  -0.660  0.00  0.00     0.062 A 
ATOM      7  F   UNL d   1       2.878   1.521  -1.276  0.00  0.00    -0.097 F 
ATOM      8  F1  UNL d   1       1.273  -0.254  -2.547  0.00  0.00    -0.096 F 
ATOM      9  I   UNL d   1      -1.432  -1.703  -1.641  0.00  0.00    -0.060 I 
ATOM     10  F2  UNL d   1      -1.586  -0.346   1.254  0.00  0.00    -0.096 F 
ATOM     11  F3  UNL d   1       0.037   1.429   2.498  0.00  0.00    -0.097 F 
ATOM     12  F4  UNL d   1       2.271   2.369   1.245  0.00  0.00    -0.092 F 
ENDROOT
TORSDOF 0
ENDMDL
