MODEL 1
REMARK minimizedAffinity -0.801839948
REMARK minimizedRMSD -1
REMARK  0 active torsions:
REMARK  status: ('A' for Active; 'I' for Inactive)
ROOT
ATOM      1  C   UNL d   1      -1.475  -0.431  -1.100  0.00  0.00     0.124 A 
ATOM      2  C1  UNL d   1      -0.210  -0.136  -1.589  0.00  0.00     0.062 A 
ATOM      3  C2  UNL d   1       0.719   0.515  -0.782  0.00  0.00     0.162 A 
ATOM      4  C3  UNL d   1       0.386   0.875   0.524  0.00  0.00    -0.034 A 
ATOM      5  C4  UNL d   1      -0.888   0.575   1.009  0.00  0.00     0.162 A 
ATOM      6  C5  UNL d   1      -1.813  -0.075   0.198  0.00  0.00     0.062 A 
ATOM      7  F   UNL d   1      -3.034  -0.360   0.673  0.00  0.00    -0.097 F 
ATOM      8  F1  UNL d   1      -1.241   0.907   2.260  0.00  0.00    -0.096 F 
ATOM      9  I   UNL d   1       1.772   1.848   1.734  0.00  0.00    -0.060 I 
ATOM     10  F2  UNL d   1       1.933   0.787  -1.281  0.00  0.00    -0.096 F 
ATOM     11  F3  UNL d   1       0.119  -0.479  -2.843  0.00  0.00    -0.097 F 
ATOM     12  F4  UNL d   1      -2.366  -1.057  -1.879  0.00  0.00    -0.092 F 
ENDROOT
TORSDOF 0
ENDMDL
