MODEL 1
REMARK minimizedAffinity -3.34827328
REMARK minimizedRMSD -1
REMARK  0 active torsions:
REMARK  status: ('A' for Active; 'I' for Inactive)
ROOT
ATOM      1  C   UNL d   1      -2.801  -0.658  -0.485  0.00  0.00     0.124 A 
ATOM      2  C1  UNL d   1      -2.277  -0.841   0.787  0.00  0.00     0.062 A 
ATOM      3  C2  UNL d   1      -0.929  -0.596   1.031  0.00  0.00     0.162 A 
ATOM      4  C3  UNL d   1      -0.094  -0.164   0.001  0.00  0.00    -0.034 A 
ATOM      5  C4  UNL d   1      -0.628   0.017  -1.277  0.00  0.00     0.162 A 
ATOM      6  C5  UNL d   1      -1.976  -0.229  -1.516  0.00  0.00     0.062 A 
ATOM      7  F   UNL d   1      -2.480  -0.052  -2.746  0.00  0.00    -0.097 F 
ATOM      8  F1  UNL d   1       0.146   0.432  -2.290  0.00  0.00    -0.096 F 
ATOM      9  I   UNL d   1       1.922   0.204   0.362  0.00  0.00    -0.060 I 
ATOM     10  F2  UNL d   1      -0.451  -0.781   2.271  0.00  0.00    -0.096 F 
ATOM     11  F3  UNL d   1      -3.072  -1.256   1.784  0.00  0.00    -0.097 F 
ATOM     12  F4  UNL d   1      -4.098  -0.896  -0.718  0.00  0.00    -0.092 F 
ENDROOT
TORSDOF 0
ENDMDL
