MODEL 1
REMARK minimizedAffinity -0.575263143
REMARK minimizedRMSD -1
REMARK  0 active torsions:
REMARK  status: ('A' for Active; 'I' for Inactive)
ROOT
ATOM      1  C   UNL d   1       1.590  -0.498   0.363  0.00  0.00     0.124 A 
ATOM      2  C1  UNL d   1       0.799  -1.229   1.239  0.00  0.00     0.062 A 
ATOM      3  C2  UNL d   1      -0.585  -1.229   1.100  0.00  0.00     0.162 A 
ATOM      4  C3  UNL d   1      -1.190  -0.495   0.079  0.00  0.00    -0.034 A 
ATOM      5  C4  UNL d   1      -0.388   0.239  -0.798  0.00  0.00     0.162 A 
ATOM      6  C5  UNL d   1       0.995   0.235  -0.654  0.00  0.00     0.062 A 
ATOM      7  F   UNL d   1       1.757   0.942  -1.501  0.00  0.00    -0.097 F 
ATOM      8  F1  UNL d   1      -0.937   0.955  -1.790  0.00  0.00    -0.096 F 
ATOM      9  I   UNL d   1      -3.260  -0.492  -0.133  0.00  0.00    -0.060 I 
ATOM     10  F2  UNL d   1      -1.324  -1.944   1.961  0.00  0.00    -0.096 F 
ATOM     11  F3  UNL d   1       1.371  -1.937   2.224  0.00  0.00    -0.097 F 
ATOM     12  F4  UNL d   1       2.922  -0.499   0.501  0.00  0.00    -0.092 F 
ENDROOT
TORSDOF 0
ENDMDL
