MODEL 1
REMARK minimizedAffinity -2.12372661
REMARK minimizedRMSD -1
REMARK  0 active torsions:
REMARK  status: ('A' for Active; 'I' for Inactive)
ROOT
ATOM      1  C   UNL d   1      -2.816  -1.404  -0.488  0.00  0.00     0.124 A 
ATOM      2  C1  UNL d   1      -2.415  -1.107   0.807  0.00  0.00     0.062 A 
ATOM      3  C2  UNL d   1      -1.283  -0.328   1.027  0.00  0.00     0.162 A 
ATOM      4  C3  UNL d   1      -0.544   0.161  -0.050  0.00  0.00    -0.034 A 
ATOM      5  C4  UNL d   1      -0.954  -0.143  -1.350  0.00  0.00     0.162 A 
ATOM      6  C5  UNL d   1      -2.086  -0.922  -1.565  0.00  0.00     0.062 A 
ATOM      7  F   UNL d   1      -2.472  -1.209  -2.817  0.00  0.00    -0.097 F 
ATOM      8  F1  UNL d   1      -0.267   0.310  -2.409  0.00  0.00    -0.096 F 
ATOM      9  I   UNL d   1       1.149   1.326   0.275  0.00  0.00    -0.060 I 
ATOM     10  F2  UNL d   1      -0.918  -0.056   2.289  0.00  0.00    -0.096 F 
ATOM     11  F3  UNL d   1      -3.118  -1.572   1.849  0.00  0.00    -0.097 F 
ATOM     12  F4  UNL d   1      -3.905  -2.155  -0.697  0.00  0.00    -0.092 F 
ENDROOT
TORSDOF 0
ENDMDL
