MODEL 1
REMARK minimizedAffinity 0.2126313
REMARK minimizedRMSD -1
REMARK  0 active torsions:
REMARK  status: ('A' for Active; 'I' for Inactive)
ROOT
ATOM      1  C   UNL d   1      -1.150  -1.533   1.129  0.00  0.00     0.124 A 
ATOM      2  C1  UNL d   1      -2.032  -1.214   0.106  0.00  0.00     0.062 A 
ATOM      3  C2  UNL d   1      -1.552  -0.703  -1.097  0.00  0.00     0.162 A 
ATOM      4  C3  UNL d   1      -0.184  -0.507  -1.283  0.00  0.00    -0.034 A 
ATOM      5  C4  UNL d   1       0.696  -0.829  -0.248  0.00  0.00     0.162 A 
ATOM      6  C5  UNL d   1       0.212  -1.340   0.952  0.00  0.00     0.062 A 
ATOM      7  F   UNL d   1       1.065  -1.648   1.940  0.00  0.00    -0.097 F 
ATOM      8  F1  UNL d   1       2.018  -0.654  -0.393  0.00  0.00    -0.096 F 
ATOM      9  I   UNL d   1       0.537   0.258  -3.079  0.00  0.00    -0.060 I 
ATOM     10  F2  UNL d   1      -2.427  -0.403  -2.069  0.00  0.00    -0.096 F 
ATOM     11  F3  UNL d   1      -3.349  -1.399   0.275  0.00  0.00    -0.097 F 
ATOM     12  F4  UNL d   1      -1.614  -2.024   2.286  0.00  0.00    -0.092 F 
ENDROOT
TORSDOF 0
ENDMDL
