MODEL 1
REMARK minimizedAffinity 1.78569114
REMARK minimizedRMSD -1
REMARK  0 active torsions:
REMARK  status: ('A' for Active; 'I' for Inactive)
ROOT
ATOM      1  C   UNL d   1      -0.359  -1.236   0.633  0.00  0.00     0.124 A 
ATOM      2  C1  UNL d   1      -0.841  -0.105  -0.011  0.00  0.00     0.062 A 
ATOM      3  C2  UNL d   1      -0.144   1.097   0.070  0.00  0.00     0.162 A 
ATOM      4  C3  UNL d   1       1.044   1.174   0.797  0.00  0.00    -0.034 A 
ATOM      5  C4  UNL d   1       1.522   0.032   1.443  0.00  0.00     0.162 A 
ATOM      6  C5  UNL d   1       0.821  -1.167   1.359  0.00  0.00     0.062 A 
ATOM      7  F   UNL d   1       1.288  -2.259   1.982  0.00  0.00    -0.097 F 
ATOM      8  F1  UNL d   1       2.661   0.071   2.151  0.00  0.00    -0.096 F 
ATOM      9  I   UNL d   1       2.090   2.969   0.921  0.00  0.00    -0.060 I 
ATOM     10  F2  UNL d   1      -0.632   2.174  -0.562  0.00  0.00    -0.096 F 
ATOM     11  F3  UNL d   1      -1.982  -0.169  -0.712  0.00  0.00    -0.097 F 
ATOM     12  F4  UNL d   1      -1.033  -2.391   0.554  0.00  0.00    -0.092 F 
ENDROOT
TORSDOF 0
ENDMDL
