MODEL 1
REMARK minimizedAffinity 1.38394403
REMARK minimizedRMSD -1
REMARK  0 active torsions:
REMARK  status: ('A' for Active; 'I' for Inactive)
ROOT
ATOM      1  C   UNL d   1      -2.495  -1.580  -0.569  0.00  0.00     0.124 A 
ATOM      2  C1  UNL d   1      -2.086  -1.401   0.745  0.00  0.00     0.062 A 
ATOM      3  C2  UNL d   1      -0.946  -0.655   1.029  0.00  0.00     0.162 A 
ATOM      4  C3  UNL d   1      -0.207  -0.080  -0.005  0.00  0.00    -0.034 A 
ATOM      5  C4  UNL d   1      -0.623  -0.265  -1.325  0.00  0.00     0.162 A 
ATOM      6  C5  UNL d   1      -1.763  -1.012  -1.603  0.00  0.00     0.062 A 
ATOM      7  F   UNL d   1      -2.156  -1.184  -2.873  0.00  0.00    -0.097 F 
ATOM      8  F1  UNL d   1       0.065   0.273  -2.342  0.00  0.00    -0.096 F 
ATOM      9  I   UNL d   1       1.498   1.037   0.414  0.00  0.00    -0.060 I 
ATOM     10  F2  UNL d   1      -0.575  -0.498   2.308  0.00  0.00    -0.096 F 
ATOM     11  F3  UNL d   1      -2.791  -1.950   1.745  0.00  0.00    -0.097 F 
ATOM     12  F4  UNL d   1      -3.591  -2.300  -0.839  0.00  0.00    -0.092 F 
ENDROOT
TORSDOF 0
ENDMDL
