MODEL 1
REMARK minimizedAffinity 4.79535484
REMARK minimizedRMSD -1
REMARK  0 active torsions:
REMARK  status: ('A' for Active; 'I' for Inactive)
ROOT
ATOM      1  C   UNL d   1      -0.878  -1.143   1.573  0.00  0.00     0.124 A 
ATOM      2  C1  UNL d   1      -1.846  -1.071   0.580  0.00  0.00     0.062 A 
ATOM      3  C2  UNL d   1      -1.513  -0.602  -0.688  0.00  0.00     0.162 A 
ATOM      4  C3  UNL d   1      -0.207  -0.203  -0.971  0.00  0.00    -0.034 A 
ATOM      5  C4  UNL d   1       0.760  -0.278   0.033  0.00  0.00     0.162 A 
ATOM      6  C5  UNL d   1       0.423  -0.747   1.299  0.00  0.00     0.062 A 
ATOM      7  F   UNL d   1       1.359  -0.816   2.257  0.00  0.00    -0.097 F 
ATOM      8  F1  UNL d   1       2.025   0.098  -0.204  0.00  0.00    -0.096 F 
ATOM      9  I   UNL d   1       0.294   0.498  -2.865  0.00  0.00    -0.060 I 
ATOM     10  F2  UNL d   1      -2.468  -0.543  -1.628  0.00  0.00    -0.096 F 
ATOM     11  F3  UNL d   1      -3.104  -1.452   0.843  0.00  0.00    -0.097 F 
ATOM     12  F4  UNL d   1      -1.201  -1.594   2.792  0.00  0.00    -0.092 F 
ENDROOT
TORSDOF 0
ENDMDL
