MODEL 1
REMARK minimizedAffinity -4.16713953
REMARK minimizedRMSD -1
REMARK  0 active torsions:
REMARK  status: ('A' for Active; 'I' for Inactive)
ROOT
ATOM      1  C   UNL d   1      -2.428  -1.386  -0.332  0.00  0.00     0.124 A 
ATOM      2  C1  UNL d   1      -1.925  -0.625  -1.378  0.00  0.00     0.062 A 
ATOM      3  C2  UNL d   1      -0.679  -0.014  -1.263  0.00  0.00     0.162 A 
ATOM      4  C3  UNL d   1       0.073  -0.163  -0.097  0.00  0.00    -0.034 A 
ATOM      5  C4  UNL d   1      -0.441  -0.930   0.950  0.00  0.00     0.162 A 
ATOM      6  C5  UNL d   1      -1.686  -1.538   0.831  0.00  0.00     0.062 A 
ATOM      7  F   UNL d   1      -2.171  -2.273   1.842  0.00  0.00    -0.097 F 
ATOM      8  F1  UNL d   1       0.256  -1.094   2.085  0.00  0.00    -0.096 F 
ATOM      9  I   UNL d   1       1.935   0.748   0.078  0.00  0.00    -0.060 I 
ATOM     10  F2  UNL d   1      -0.218   0.716  -2.289  0.00  0.00    -0.096 F 
ATOM     11  F3  UNL d   1      -2.641  -0.476  -2.502  0.00  0.00    -0.097 F 
ATOM     12  F4  UNL d   1      -3.628  -1.972  -0.445  0.00  0.00    -0.092 F 
ENDROOT
TORSDOF 0
ENDMDL
