MODEL 1
REMARK minimizedAffinity 12.267848
REMARK minimizedRMSD -1
REMARK  0 active torsions:
REMARK  status: ('A' for Active; 'I' for Inactive)
ROOT
ATOM      1  C   UNL d   1       0.300   0.140   0.418  0.00  0.00     0.124 A 
ATOM      2  C1  UNL d   1       0.864   0.050  -0.847  0.00  0.00     0.062 A 
ATOM      3  C2  UNL d   1       0.212  -0.653  -1.856  0.00  0.00     0.162 A 
ATOM      4  C3  UNL d   1      -1.012  -1.273  -1.603  0.00  0.00    -0.034 A 
ATOM      5  C4  UNL d   1      -1.572  -1.179  -0.328  0.00  0.00     0.162 A 
ATOM      6  C5  UNL d   1      -0.917  -0.475   0.676  0.00  0.00     0.062 A 
ATOM      7  F   UNL d   1      -1.463  -0.389   1.898  0.00  0.00    -0.097 F 
ATOM      8  F1  UNL d   1      -2.748  -1.763  -0.051  0.00  0.00    -0.096 F 
ATOM      9  I   UNL d   1      -1.990  -2.326  -3.109  0.00  0.00    -0.060 I 
ATOM     10  F2  UNL d   1       0.780  -0.723  -3.069  0.00  0.00    -0.096 F 
ATOM     11  F3  UNL d   1       2.040   0.643  -1.099  0.00  0.00    -0.097 F 
ATOM     12  F4  UNL d   1       0.930   0.817   1.387  0.00  0.00    -0.092 F 
ENDROOT
TORSDOF 0
ENDMDL
