MODEL 1
REMARK minimizedAffinity 2.53457379
REMARK minimizedRMSD -1
REMARK  0 active torsions:
REMARK  status: ('A' for Active; 'I' for Inactive)
ROOT
ATOM      1  C   UNL d   1       2.575   2.241   0.902  0.00  0.00     0.124 A 
ATOM      2  C1  UNL d   1       2.493   1.386  -0.188  0.00  0.00     0.062 A 
ATOM      3  C2  UNL d   1       1.382   0.564  -0.351  0.00  0.00     0.162 A 
ATOM      4  C3  UNL d   1       0.342   0.594   0.579  0.00  0.00    -0.034 A 
ATOM      5  C4  UNL d   1       0.433   1.455   1.674  0.00  0.00     0.162 A 
ATOM      6  C5  UNL d   1       1.546   2.275   1.832  0.00  0.00     0.062 A 
ATOM      7  F   UNL d   1       1.623   3.100   2.886  0.00  0.00    -0.097 F 
ATOM      8  F1  UNL d   1      -0.548   1.509   2.587  0.00  0.00    -0.096 F 
ATOM      9  I   UNL d   1      -1.321  -0.634   0.339  0.00  0.00    -0.060 I 
ATOM     10  F2  UNL d   1       1.329  -0.252  -1.414  0.00  0.00    -0.096 F 
ATOM     11  F3  UNL d   1       3.487   1.351  -1.087  0.00  0.00    -0.097 F 
ATOM     12  F4  UNL d   1       3.646   3.030   1.057  0.00  0.00    -0.092 F 
ENDROOT
TORSDOF 0
ENDMDL
