MODEL 1
REMARK minimizedAffinity -3.87047791
REMARK minimizedRMSD -1
REMARK  0 active torsions:
REMARK  status: ('A' for Active; 'I' for Inactive)
ROOT
ATOM      1  O1  BZF d   1      -0.329   1.249   0.472  0.00  0.00    -0.204 OA
ATOM      2  C2  BZF d   1      -1.644   1.467   0.835  0.00  0.00     0.174 A 
ATOM      3  C3  BZF d   1      -2.312   0.299   0.934  0.00  0.00    -0.012 A 
ATOM      4  C3A BZF d   1      -1.331  -0.716   0.703  0.00  0.00    -0.107 A 
ATOM      5  C4  BZF d   1      -1.379  -2.081   0.684  0.00  0.00     0.055 A 
ATOM      6  C5  BZF d   1      -0.259  -2.777   0.353  0.00  0.00    -0.016 A 
ATOM      7  C6  BZF d   1       0.922  -2.141   0.031  0.00  0.00     0.022 A 
ATOM      8  C7  BZF d   1       1.019  -0.789   0.040  0.00  0.00     0.029 A 
ATOM      9  C7A BZF d   1      -0.101  -0.084   0.406  0.00  0.00     0.058 A 
ENDROOT
TORSDOF 0
ENDMDL
