MODEL 1
REMARK minimizedAffinity -4.615592
REMARK minimizedRMSD -1
REMARK  0 active torsions:
REMARK  status: ('A' for Active; 'I' for Inactive)
ROOT
ATOM      1  O1  BZF d   1      -2.329  -4.069  -5.929  0.00  0.00    -0.204 OA
ATOM      2  C2  BZF d   1      -2.174  -5.395  -5.576  0.00  0.00     0.174 A 
ATOM      3  C3  BZF d   1      -3.162  -5.788  -4.745  0.00  0.00    -0.012 A 
ATOM      4  C3A BZF d   1      -4.036  -4.660  -4.642  0.00  0.00    -0.107 A 
ATOM      5  C4  BZF d   1      -5.205  -4.437  -3.972  0.00  0.00     0.055 A 
ATOM      6  C5  BZF d   1      -5.769  -3.202  -4.021  0.00  0.00    -0.016 A 
ATOM      7  C6  BZF d   1      -5.190  -2.166  -4.725  0.00  0.00     0.022 A 
ATOM      8  C7  BZF d   1      -4.033  -2.341  -5.409  0.00  0.00     0.029 A 
ATOM      9  C7A BZF d   1      -3.478  -3.597  -5.389  0.00  0.00     0.058 A 
ENDROOT
TORSDOF 0
ENDMDL
