MODEL 1
REMARK minimizedAffinity -3.19502449
REMARK minimizedRMSD -1
REMARK  0 active torsions:
REMARK  status: ('A' for Active; 'I' for Inactive)
ROOT
ATOM      1  O1  BZF d   1      -4.832  -2.563  -5.294  0.00  0.00    -0.204 OA
ATOM      2  C2  BZF d   1      -6.000  -3.016  -4.711  0.00  0.00     0.174 A 
ATOM      3  C3  BZF d   1      -5.954  -4.351  -4.523  0.00  0.00    -0.012 A 
ATOM      4  C3A BZF d   1      -4.641  -4.743  -4.934  0.00  0.00    -0.107 A 
ATOM      5  C4  BZF d   1      -3.987  -5.942  -4.969  0.00  0.00     0.055 A 
ATOM      6  C5  BZF d   1      -2.735  -5.996  -5.496  0.00  0.00    -0.016 A 
ATOM      7  C6  BZF d   1      -2.110  -4.875  -6.000  0.00  0.00     0.022 A 
ATOM      8  C7  BZF d   1      -2.717  -3.663  -5.982  0.00  0.00     0.029 A 
ATOM      9  C7A BZF d   1      -3.969  -3.599  -5.421  0.00  0.00     0.058 A 
ENDROOT
TORSDOF 0
ENDMDL
