MODEL 1
REMARK minimizedAffinity -3.56737947
REMARK minimizedRMSD -1
REMARK  0 active torsions:
REMARK  status: ('A' for Active; 'I' for Inactive)
ROOT
ATOM      1  O1  BZF d   1      -5.813  -3.986  -3.928  0.00  0.00    -0.204 OA
ATOM      2  C2  BZF d   1      -5.999  -2.697  -4.388  0.00  0.00     0.174 A 
ATOM      3  C3  BZF d   1      -4.984  -2.326  -5.195  0.00  0.00    -0.012 A 
ATOM      4  C3A BZF d   1      -4.156  -3.487  -5.316  0.00  0.00    -0.107 A 
ATOM      5  C4  BZF d   1      -3.004  -3.751  -6.000  0.00  0.00     0.055 A 
ATOM      6  C5  BZF d   1      -2.409  -4.964  -5.848  0.00  0.00    -0.016 A 
ATOM      7  C6  BZF d   1      -2.936  -5.932  -5.018  0.00  0.00     0.022 A 
ATOM      8  C7  BZF d   1      -4.080  -5.718  -4.324  0.00  0.00     0.029 A 
ATOM      9  C7A BZF d   1      -4.701  -4.505  -4.501  0.00  0.00     0.058 A 
ENDROOT
TORSDOF 0
ENDMDL
