MODEL 1
REMARK minimizedAffinity -4.39461327
REMARK minimizedRMSD -1
REMARK  0 active torsions:
REMARK  status: ('A' for Active; 'I' for Inactive)
ROOT
ATOM      1  O1  BZF d   1      -1.923  -4.024  -5.711  0.00  0.00    -0.204 OA
ATOM      2  C2  BZF d   1      -1.759  -5.392  -5.614  0.00  0.00     0.174 A 
ATOM      3  C3  BZF d   1      -2.871  -5.972  -5.117  0.00  0.00    -0.012 A 
ATOM      4  C3A BZF d   1      -3.819  -4.910  -4.976  0.00  0.00    -0.107 A 
ATOM      5  C4  BZF d   1      -5.114  -4.859  -4.545  0.00  0.00     0.055 A 
ATOM      6  C5  BZF d   1      -5.734  -3.653  -4.460  0.00  0.00    -0.016 A 
ATOM      7  C6  BZF d   1      -5.089  -2.480  -4.793  0.00  0.00     0.022 A 
ATOM      8  C7  BZF d   1      -3.807  -2.481  -5.230  0.00  0.00     0.029 A 
ATOM      9  C7A BZF d   1      -3.188  -3.701  -5.348  0.00  0.00     0.058 A 
ENDROOT
TORSDOF 0
ENDMDL
