MODEL 1
REMARK minimizedAffinity -2.46497703
REMARK minimizedRMSD -1
REMARK  0 active torsions:
REMARK  status: ('A' for Active; 'I' for Inactive)
ROOT
ATOM      1  O1  BZF d   1      -6.000  -1.619  -4.876  0.00  0.00    -0.204 OA
ATOM      2  C2  BZF d   1      -6.000  -1.192  -3.562  0.00  0.00     0.174 A 
ATOM      3  C3  BZF d   1      -5.579  -2.174  -2.740  0.00  0.00    -0.012 A 
ATOM      4  C3A BZF d   1      -5.211  -3.255  -3.602  0.00  0.00    -0.107 A 
ATOM      5  C4  BZF d   1      -4.704  -4.503  -3.379  0.00  0.00     0.055 A 
ATOM      6  C5  BZF d   1      -4.525  -5.341  -4.433  0.00  0.00    -0.016 A 
ATOM      7  C6  BZF d   1      -4.845  -4.966  -5.722  0.00  0.00     0.022 A 
ATOM      8  C7  BZF d   1      -5.346  -3.736  -5.993  0.00  0.00     0.029 A 
ATOM      9  C7A BZF d   1      -5.497  -2.875  -4.934  0.00  0.00     0.058 A 
ENDROOT
TORSDOF 0
ENDMDL
