MODEL 1
REMARK minimizedAffinity -1.94105375
REMARK minimizedRMSD -1
REMARK  0 active torsions:
REMARK  status: ('A' for Active; 'I' for Inactive)
ROOT
ATOM      1  O1  BZF d   1      -5.361  -3.321  -3.752  0.00  0.00    -0.204 OA
ATOM      2  C2  BZF d   1      -5.999  -2.994  -4.933  0.00  0.00     0.174 A 
ATOM      3  C3  BZF d   1      -5.221  -3.288  -5.994  0.00  0.00    -0.012 A 
ATOM      4  C3A BZF d   1      -4.059  -3.918  -5.446  0.00  0.00    -0.107 A 
ATOM      5  C4  BZF d   1      -2.929  -4.450  -6.000  0.00  0.00     0.055 A 
ATOM      6  C5  BZF d   1      -1.952  -4.922  -5.182  0.00  0.00    -0.016 A 
ATOM      7  C6  BZF d   1      -2.069  -4.874  -3.809  0.00  0.00     0.022 A 
ATOM      8  C7  BZF d   1      -3.172  -4.361  -3.213  0.00  0.00     0.029 A 
ATOM      9  C7A BZF d   1      -4.176  -3.913  -4.037  0.00  0.00     0.058 A 
ENDROOT
TORSDOF 0
ENDMDL
