MODEL 1
REMARK minimizedAffinity -3.90112066
REMARK minimizedRMSD -1
REMARK  0 active torsions:
REMARK  status: ('A' for Active; 'I' for Inactive)
ROOT
ATOM      1  O1  BZF d   1      -3.009  -5.958  -5.320  0.00  0.00    -0.204 OA
ATOM      2  C2  BZF d   1      -1.984  -5.245  -5.910  0.00  0.00     0.174 A 
ATOM      3  C3  BZF d   1      -2.301  -3.937  -5.999  0.00  0.00    -0.012 A 
ATOM      4  C3A BZF d   1      -3.567  -3.811  -5.344  0.00  0.00    -0.107 A 
ATOM      5  C4  BZF d   1      -4.393  -2.754  -5.093  0.00  0.00     0.055 A 
ATOM      6  C5  BZF d   1      -5.593  -2.980  -4.496  0.00  0.00    -0.016 A 
ATOM      7  C6  BZF d   1      -6.000  -4.250  -4.142  0.00  0.00     0.022 A 
ATOM      8  C7  BZF d   1      -5.212  -5.330  -4.367  0.00  0.00     0.029 A 
ATOM      9  C7A BZF d   1      -3.985  -5.100  -4.940  0.00  0.00     0.058 A 
ENDROOT
TORSDOF 0
ENDMDL
