MODEL 1
REMARK minimizedAffinity -3.33852744
REMARK minimizedRMSD -1
REMARK  0 active torsions:
REMARK  status: ('A' for Active; 'I' for Inactive)
ROOT
ATOM      1  O1  BZF d   1      -5.993  -4.022  -3.724  0.00  0.00    -0.204 OA
ATOM      2  C2  BZF d   1      -6.000  -2.646  -3.848  0.00  0.00     0.174 A 
ATOM      3  C3  BZF d   1      -4.927  -2.223  -4.546  0.00  0.00    -0.012 A 
ATOM      4  C3A BZF d   1      -4.252  -3.416  -4.959  0.00  0.00    -0.107 A 
ATOM      5  C4  BZF d   1      -3.127  -3.651  -5.696  0.00  0.00     0.055 A 
ATOM      6  C5  BZF d   1      -2.698  -4.931  -5.855  0.00  0.00    -0.016 A 
ATOM      7  C6  BZF d   1      -3.364  -5.996  -5.287  0.00  0.00     0.022 A 
ATOM      8  C7  BZF d   1      -4.488  -5.813  -4.552  0.00  0.00     0.029 A 
ATOM      9  C7A BZF d   1      -4.943  -4.524  -4.417  0.00  0.00     0.058 A 
ENDROOT
TORSDOF 0
ENDMDL
