MODEL 1
REMARK minimizedAffinity -3.16863346
REMARK minimizedRMSD -1
REMARK  0 active torsions:
REMARK  status: ('A' for Active; 'I' for Inactive)
ROOT
ATOM      1  O1  BZF d   1      -5.593  -4.511  -4.438  0.00  0.00    -0.204 OA
ATOM      2  C2  BZF d   1      -5.508  -3.312  -3.759  0.00  0.00     0.174 A 
ATOM      3  C3  BZF d   1      -4.233  -2.874  -3.718  0.00  0.00    -0.012 A 
ATOM      4  C3A BZF d   1      -3.487  -3.815  -4.495  0.00  0.00    -0.107 A 
ATOM      5  C4  BZF d   1      -2.169  -3.913  -4.840  0.00  0.00     0.055 A 
ATOM      6  C5  BZF d   1      -1.751  -4.994  -5.549  0.00  0.00    -0.016 A 
ATOM      7  C6  BZF d   1      -2.620  -5.996  -5.925  0.00  0.00     0.022 A 
ATOM      8  C7  BZF d   1      -3.937  -5.941  -5.611  0.00  0.00     0.029 A 
ATOM      9  C7A BZF d   1      -4.370  -4.834  -4.923  0.00  0.00     0.058 A 
ENDROOT
TORSDOF 0
ENDMDL
