MODEL 1
REMARK minimizedAffinity 3.70644283
REMARK minimizedRMSD -1
REMARK  0 active torsions:
REMARK  status: ('A' for Active; 'I' for Inactive)
ROOT
ATOM      1  O1  BZF d   1      -2.863  -3.740  -3.240  0.00  0.00    -0.204 OA
ATOM      2  C2  BZF d   1      -2.153  -4.507  -4.143  0.00  0.00     0.174 A 
ATOM      3  C3  BZF d   1      -2.809  -4.593  -5.318  0.00  0.00    -0.012 A 
ATOM      4  C3A BZF d   1      -3.959  -3.755  -5.169  0.00  0.00    -0.107 A 
ATOM      5  C4  BZF d   1      -4.989  -3.417  -6.000  0.00  0.00     0.055 A 
ATOM      6  C5  BZF d   1      -5.992  -2.633  -5.524  0.00  0.00    -0.016 A 
ATOM      7  C6  BZF d   1      -6.000  -2.175  -4.223  0.00  0.00     0.022 A 
ATOM      8  C7  BZF d   1      -4.998  -2.480  -3.363  0.00  0.00     0.029 A 
ATOM      9  C7A BZF d   1      -3.966  -3.244  -3.850  0.00  0.00     0.058 A 
ENDROOT
TORSDOF 0
ENDMDL
