MODEL 1
REMARK minimizedAffinity -4.55517483
REMARK minimizedRMSD -1
REMARK  0 active torsions:
REMARK  status: ('A' for Active; 'I' for Inactive)
ROOT
ATOM      1  O1  BZF d   1      -4.046  -6.000  -4.874  0.00  0.00    -0.204 OA
ATOM      2  C2  BZF d   1      -2.714  -5.868  -5.219  0.00  0.00     0.174 A 
ATOM      3  C3  BZF d   1      -2.338  -4.573  -5.187  0.00  0.00    -0.012 A 
ATOM      4  C3A BZF d   1      -3.483  -3.860  -4.709  0.00  0.00    -0.107 A 
ATOM      5  C4  BZF d   1      -3.726  -2.542  -4.448  0.00  0.00     0.055 A 
ATOM      6  C5  BZF d   1      -4.973  -2.164  -4.061  0.00  0.00    -0.016 A 
ATOM      7  C6  BZF d   1      -6.000  -3.077  -3.930  0.00  0.00     0.022 A 
ATOM      8  C7  BZF d   1      -5.805  -4.396  -4.173  0.00  0.00     0.029 A 
ATOM      9  C7A BZF d   1      -4.538  -4.785  -4.533  0.00  0.00     0.058 A 
ENDROOT
TORSDOF 0
ENDMDL
