MODEL 1
REMARK minimizedAffinity -1.55218315
REMARK minimizedRMSD -1
REMARK  0 active torsions:
REMARK  status: ('A' for Active; 'I' for Inactive)
ROOT
ATOM      1  O1  BZF d   1      -2.144  -4.753  -4.257  0.00  0.00    -0.204 OA
ATOM      2  C2  BZF d   1      -1.770  -5.673  -5.217  0.00  0.00     0.174 A 
ATOM      3  C3  BZF d   1      -2.818  -6.000  -6.000  0.00  0.00    -0.012 A 
ATOM      4  C3A BZF d   1      -3.894  -5.167  -5.556  0.00  0.00    -0.107 A 
ATOM      5  C4  BZF d   1      -5.191  -5.016  -5.955  0.00  0.00     0.055 A 
ATOM      6  C5  BZF d   1      -6.000  -4.169  -5.265  0.00  0.00    -0.016 A 
ATOM      7  C6  BZF d   1      -5.547  -3.463  -4.170  0.00  0.00     0.022 A 
ATOM      8  C7  BZF d   1      -4.267  -3.576  -3.740  0.00  0.00     0.029 A 
ATOM      9  C7A BZF d   1      -3.438  -4.405  -4.455  0.00  0.00     0.058 A 
ENDROOT
TORSDOF 0
ENDMDL
