MODEL 1
REMARK minimizedAffinity -2.16500974
REMARK minimizedRMSD -1
REMARK  0 active torsions:
REMARK  status: ('A' for Active; 'I' for Inactive)
ROOT
ATOM      1  O1  BZF d   1      -2.707  -5.849  -5.999  0.00  0.00    -0.204 OA
ATOM      2  C2  BZF d   1      -1.691  -5.820  -5.064  0.00  0.00     0.174 A 
ATOM      3  C3  BZF d   1      -2.096  -5.200  -3.937  0.00  0.00    -0.012 A 
ATOM      4  C3A BZF d   1      -3.479  -4.899  -4.149  0.00  0.00    -0.107 A 
ATOM      5  C4  BZF d   1      -4.437  -4.298  -3.383  0.00  0.00     0.055 A 
ATOM      6  C5  BZF d   1      -5.671  -4.091  -3.913  0.00  0.00    -0.016 A 
ATOM      7  C6  BZF d   1      -5.980  -4.466  -5.204  0.00  0.00     0.022 A 
ATOM      8  C7  BZF d   1      -5.064  -5.070  -6.000  0.00  0.00     0.029 A 
ATOM      9  C7A BZF d   1      -3.825  -5.310  -5.457  0.00  0.00     0.058 A 
ENDROOT
TORSDOF 0
ENDMDL
