MODEL 1
REMARK minimizedAffinity -4.00357628
REMARK minimizedRMSD -1
REMARK  0 active torsions:
REMARK  status: ('A' for Active; 'I' for Inactive)
ROOT
ATOM      1  O1  BZF d   1      -5.876  -3.138  -5.628  0.00  0.00    -0.204 OA
ATOM      2  C2  BZF d   1      -5.983  -1.991  -4.864  0.00  0.00     0.174 A 
ATOM      3  C3  BZF d   1      -4.991  -1.930  -3.952  0.00  0.00    -0.012 A 
ATOM      4  C3A BZF d   1      -4.163  -3.066  -4.221  0.00  0.00    -0.107 A 
ATOM      5  C4  BZF d   1      -3.012  -3.542  -3.660  0.00  0.00     0.055 A 
ATOM      6  C5  BZF d   1      -2.496  -4.717  -4.108  0.00  0.00    -0.016 A 
ATOM      7  C6  BZF d   1      -3.108  -5.444  -5.108  0.00  0.00     0.022 A 
ATOM      8  C7  BZF d   1      -4.248  -5.010  -5.698  0.00  0.00     0.029 A 
ATOM      9  C7A BZF d   1      -4.754  -3.806  -5.271  0.00  0.00     0.058 A 
ENDROOT
TORSDOF 0
ENDMDL
