MODEL 1
REMARK minimizedAffinity -3.85150647
REMARK minimizedRMSD -1
REMARK  0 active torsions:
REMARK  status: ('A' for Active; 'I' for Inactive)
ROOT
ATOM      1  O1  BZF d   1      -5.083  -5.246  -3.791  0.00  0.00    -0.204 OA
ATOM      2  C2  BZF d   1      -5.782  -5.027  -4.962  0.00  0.00     0.174 A 
ATOM      3  C3  BZF d   1      -4.936  -4.863  -6.000  0.00  0.00    -0.012 A 
ATOM      4  C3A BZF d   1      -3.630  -5.079  -5.459  0.00  0.00    -0.107 A 
ATOM      5  C4  BZF d   1      -2.376  -5.070  -6.000  0.00  0.00     0.055 A 
ATOM      6  C5  BZF d   1      -1.303  -5.247  -5.184  0.00  0.00    -0.016 A 
ATOM      7  C6  BZF d   1      -1.447  -5.431  -3.825  0.00  0.00     0.022 A 
ATOM      8  C7  BZF d   1      -2.671  -5.453  -3.243  0.00  0.00     0.029 A 
ATOM      9  C7A BZF d   1      -3.759  -5.307  -4.069  0.00  0.00     0.058 A 
ENDROOT
TORSDOF 0
ENDMDL
