MODEL 1
REMARK minimizedAffinity -4.07425213
REMARK minimizedRMSD -1
REMARK  0 active torsions:
REMARK  status: ('A' for Active; 'I' for Inactive)
ROOT
ATOM      1  O1  BZF d   1      -5.226  -4.508  -3.787  0.00  0.00    -0.204 OA
ATOM      2  C2  BZF d   1      -5.992  -4.638  -4.929  0.00  0.00     0.174 A 
ATOM      3  C3  BZF d   1      -5.228  -5.003  -5.979  0.00  0.00    -0.012 A 
ATOM      4  C3A BZF d   1      -3.917  -5.197  -5.441  0.00  0.00    -0.107 A 
ATOM      5  C4  BZF d   1      -2.725  -5.580  -5.987  0.00  0.00     0.055 A 
ATOM      6  C5  BZF d   1      -1.616  -5.601  -5.203  0.00  0.00    -0.016 A 
ATOM      7  C6  BZF d   1      -1.660  -5.241  -3.872  0.00  0.00     0.022 A 
ATOM      8  C7  BZF d   1      -2.821  -4.859  -3.284  0.00  0.00     0.029 A 
ATOM      9  C7A BZF d   1      -3.950  -4.868  -4.066  0.00  0.00     0.058 A 
ENDROOT
TORSDOF 0
ENDMDL
