MODEL 1
REMARK minimizedAffinity 6.04295874
REMARK minimizedRMSD -1
REMARK  1 active torsions:
REMARK  status: ('A' for Active; 'I' for Inactive)
REMARK    1  A    between atoms: C1_2  and  C2_3 
ROOT
ATOM      1  C2  UNL d   1       0.083   0.936   0.631  0.00  0.00    -0.076 A 
ATOM      2  C3  UNL d   1       0.006   2.268   1.074  0.00  0.00     0.004 A 
ATOM      3  C4  UNL d   1      -1.202   2.811   1.508  0.00  0.00    -0.003 A 
ATOM      4  C5  UNL d   1      -2.353   2.031   1.506  0.00  0.00     0.000 A 
ATOM      5  C6  UNL d   1      -2.292   0.703   1.087  0.00  0.00     0.000 A 
ATOM      6  C7  UNL d   1      -1.079   0.134   0.663  0.00  0.00    -0.073 A 
ATOM      7  C8  UNL d   1      -1.072  -1.302   0.215  0.00  0.00     0.078 C 
ENDROOT
BRANCH   1   8
ATOM      8  C1  UNL d   1       1.414   0.409   0.147  0.00  0.00     0.053 C 
ATOM      9  C   UNL d   1       1.718   0.821  -1.285  0.00  0.00     0.018 C 
ENDBRANCH   1   8
TORSDOF 1
ENDMDL
