MODEL 1
REMARK minimizedAffinity 6.43325806
REMARK minimizedRMSD -1
REMARK  1 active torsions:
REMARK  status: ('A' for Active; 'I' for Inactive)
REMARK    1  A    between atoms: C1_2  and  C2_3 
ROOT
ATOM      1  C2  UNL d   1       0.053   1.037   0.332  0.00  0.00    -0.076 A 
ATOM      2  C3  UNL d   1      -0.127  -0.342   0.127  0.00  0.00     0.004 A 
ATOM      3  C4  UNL d   1      -1.369  -0.941   0.327  0.00  0.00    -0.003 A 
ATOM      4  C5  UNL d   1      -2.452  -0.171   0.736  0.00  0.00     0.000 A 
ATOM      5  C6  UNL d   1      -2.296   1.201   0.928  0.00  0.00     0.000 A 
ATOM      6  C7  UNL d   1      -1.055   1.824   0.715  0.00  0.00    -0.073 A 
ATOM      7  C8  UNL d   1      -0.942   3.306   0.943  0.00  0.00     0.078 C 
ENDROOT
BRANCH   1   8
ATOM      8  C1  UNL d   1       1.430   1.627   0.125  0.00  0.00     0.053 C 
ATOM      9  C   UNL d   1       2.188   0.953  -1.008  0.00  0.00     0.018 C 
ENDBRANCH   1   8
TORSDOF 1
ENDMDL
