MODEL 1
REMARK minimizedAffinity 7.83863258
REMARK minimizedRMSD -1
REMARK  1 active torsions:
REMARK  status: ('A' for Active; 'I' for Inactive)
REMARK    1  A    between atoms: C1_2  and  C2_3 
ROOT
ATOM      1  C2  UNL d   1      -2.812  -4.190  -0.734  0.00  0.00    -0.076 A 
ATOM      2  C3  UNL d   1      -2.474  -5.222  -1.627  0.00  0.00     0.004 A 
ATOM      3  C4  UNL d   1      -1.524  -5.022  -2.627  0.00  0.00    -0.003 A 
ATOM      4  C5  UNL d   1      -0.895  -3.788  -2.750  0.00  0.00     0.000 A 
ATOM      5  C6  UNL d   1      -1.205  -2.759  -1.861  0.00  0.00     0.000 A 
ATOM      6  C7  UNL d   1      -2.149  -2.949  -0.837  0.00  0.00    -0.073 A 
ATOM      7  C8  UNL d   1      -2.449  -1.803   0.090  0.00  0.00     0.078 C 
ENDROOT
BRANCH   1   8
ATOM      8  C1  UNL d   1      -3.869  -4.457   0.313  0.00  0.00     0.053 C 
ATOM      9  C   UNL d   1      -4.236  -5.930   0.410  0.00  0.00     0.018 C 
ENDBRANCH   1   8
TORSDOF 1
ENDMDL
