MODEL 1
REMARK minimizedAffinity 12.8895855
REMARK minimizedRMSD -1
REMARK  1 active torsions:
REMARK  status: ('A' for Active; 'I' for Inactive)
REMARK    1  A    between atoms: C1_2  and  C2_3 
ROOT
ATOM      1  C2  UNL d   1       2.172   0.216  -1.179  0.00  0.00    -0.076 A 
ATOM      2  C3  UNL d   1       2.444   1.413  -0.494  0.00  0.00     0.004 A 
ATOM      3  C4  UNL d   1       2.050   1.586   0.832  0.00  0.00    -0.003 A 
ATOM      4  C5  UNL d   1       1.378   0.565   1.494  0.00  0.00     0.000 A 
ATOM      5  C6  UNL d   1       1.115  -0.636   0.835  0.00  0.00     0.000 A 
ATOM      6  C7  UNL d   1       1.520  -0.833  -0.496  0.00  0.00    -0.073 A 
ATOM      7  C8  UNL d   1       1.205  -2.145  -1.159  0.00  0.00     0.078 C 
ENDROOT
BRANCH   1   8
ATOM      8  C1  UNL d   1       2.600   0.096  -2.624  0.00  0.00     0.053 C 
ATOM      9  C   UNL d   1       1.860   1.065  -3.533  0.00  0.00     0.018 C 
ENDBRANCH   1   8
TORSDOF 1
ENDMDL
