MODEL 1
REMARK minimizedAffinity -0.46608907
REMARK minimizedRMSD -1
REMARK  3 active torsions:
REMARK  status: ('A' for Active; 'I' for Inactive)
REMARK    1  A    between atoms: C3'_2  and  C2'_3 
REMARK    2  A    between atoms: C2'_3  and  C1'_4 
REMARK    3  A    between atoms: C1'_4  and  C1_5 
ROOT
ATOM      1  C1  N4B d   1       0.445  -0.321   1.614  0.00  0.00    -0.075 A 
ATOM      2  C2  N4B d   1      -0.779   0.213   1.154  0.00  0.00     0.002 A 
ATOM      3  C3  N4B d   1      -1.895   0.157   1.951  0.00  0.00     0.002 A 
ATOM      4  C4  N4B d   1      -1.818  -0.442   3.200  0.00  0.00    -0.004 A 
ATOM      5  C5  N4B d   1      -0.626  -0.932   3.647  0.00  0.00     0.002 A 
ATOM      6  C6  N4B d   1       0.505  -0.879   2.858  0.00  0.00     0.002 A 
ENDROOT
BRANCH   1   7
ATOM      7  C1' N4B d   1       1.672  -0.360   0.745  0.00  0.00     0.057 C 
BRANCH   7   8
ATOM      8  C2' N4B d   1       2.149   1.066   0.487  0.00  0.00     0.009 C 
BRANCH   8   9
ATOM      9  C3' N4B d   1       2.599   1.754   1.764  0.00  0.00     0.004 C 
ATOM     10  C4' N4B d   1       2.978   3.189   1.548  0.00  0.00     0.003 C 
ENDBRANCH   8   9
ENDBRANCH   7   8
ENDBRANCH   1   7
TORSDOF 3
ENDMDL
