MODEL 1
REMARK minimizedAffinity -2.04770398
REMARK minimizedRMSD -1
REMARK  3 active torsions:
REMARK  status: ('A' for Active; 'I' for Inactive)
REMARK    1  A    between atoms: C3'_2  and  C2'_3 
REMARK    2  A    between atoms: C2'_3  and  C1'_4 
REMARK    3  A    between atoms: C1'_4  and  C1_5 
ROOT
ATOM      1  C1  N4B d   1      -0.618   0.248   0.867  0.00  0.00    -0.075 A 
ATOM      2  C2  N4B d   1       0.776   0.056   0.984  0.00  0.00     0.002 A 
ATOM      3  C3  N4B d   1       1.566   0.056  -0.139  0.00  0.00     0.002 A 
ATOM      4  C4  N4B d   1       0.984   0.227  -1.387  0.00  0.00    -0.004 A 
ATOM      5  C5  N4B d   1      -0.360   0.438  -1.489  0.00  0.00     0.002 A 
ATOM      6  C6  N4B d   1      -1.165   0.444  -0.368  0.00  0.00     0.002 A 
ENDROOT
BRANCH   1   7
ATOM      7  C1' N4B d   1      -1.533   0.170   2.058  0.00  0.00     0.057 C 
BRANCH   7   8
ATOM      8  C2' N4B d   1      -0.716   0.373   3.331  0.00  0.00     0.009 C 
BRANCH   8   9
ATOM      9  C3' N4B d   1      -0.548  -0.920   4.110  0.00  0.00     0.004 C 
ATOM     10  C4' N4B d   1       0.875  -1.176   4.510  0.00  0.00     0.003 C 
ENDBRANCH   8   9
ENDBRANCH   7   8
ENDBRANCH   1   7
TORSDOF 3
ENDMDL
