MODEL 1
REMARK minimizedAffinity 4.7953229
REMARK minimizedRMSD -1
REMARK  3 active torsions:
REMARK  status: ('A' for Active; 'I' for Inactive)
REMARK    1  A    between atoms: C3'_2  and  C2'_3 
REMARK    2  A    between atoms: C2'_3  and  C1'_4 
REMARK    3  A    between atoms: C1'_4  and  C1_5 
ROOT
ATOM      1  C1  N4B d   1      -1.031   0.010   0.645  0.00  0.00    -0.075 A 
ATOM      2  C2  N4B d   1      -1.961   0.010   1.708  0.00  0.00     0.002 A 
ATOM      3  C3  N4B d   1      -1.567  -0.375   2.965  0.00  0.00     0.002 A 
ATOM      4  C4  N4B d   1      -0.258  -0.782   3.180  0.00  0.00    -0.004 A 
ATOM      5  C5  N4B d   1       0.640  -0.755   2.154  0.00  0.00     0.002 A 
ATOM      6  C6  N4B d   1       0.259  -0.366   0.885  0.00  0.00     0.002 A 
ENDROOT
BRANCH   1   7
ATOM      7  C1' N4B d   1      -1.436   0.341  -0.765  0.00  0.00     0.057 C 
BRANCH   7   8
ATOM      8  C2' N4B d   1      -0.184   0.472  -1.628  0.00  0.00     0.009 C 
BRANCH   8   9
ATOM      9  C3' N4B d   1      -0.518   0.870  -3.056  0.00  0.00     0.004 C 
ATOM     10  C4' N4B d   1       0.684   0.872  -3.953  0.00  0.00     0.003 C 
ENDBRANCH   8   9
ENDBRANCH   7   8
ENDBRANCH   1   7
TORSDOF 3
ENDMDL
