MODEL 1
REMARK minimizedAffinity -2.10494089
REMARK minimizedRMSD -1
REMARK  3 active torsions:
REMARK  status: ('A' for Active; 'I' for Inactive)
REMARK    1  A    between atoms: C3'_2  and  C2'_3 
REMARK    2  A    between atoms: C2'_3  and  C1'_4 
REMARK    3  A    between atoms: C1'_4  and  C1_5 
ROOT
ATOM      1  C1  N4B d   1      -0.165  -0.435   0.132  0.00  0.00    -0.075 A 
ATOM      2  C2  N4B d   1      -0.780  -1.493  -0.573  0.00  0.00     0.002 A 
ATOM      3  C3  N4B d   1      -2.142  -1.499  -0.751  0.00  0.00     0.002 A 
ATOM      4  C4  N4B d   1      -2.907  -0.472  -0.219  0.00  0.00    -0.004 A 
ATOM      5  C5  N4B d   1      -2.303   0.559   0.438  0.00  0.00     0.002 A 
ATOM      6  C6  N4B d   1      -0.935   0.580   0.621  0.00  0.00     0.002 A 
ENDROOT
BRANCH   1   7
ATOM      7  C1' N4B d   1       1.311  -0.429   0.426  0.00  0.00     0.057 C 
BRANCH   7   8
ATOM      8  C2' N4B d   1       1.874   0.957   0.131  0.00  0.00     0.009 C 
BRANCH   8   9
ATOM      9  C3' N4B d   1       3.344   0.904  -0.248  0.00  0.00     0.004 C 
ATOM     10  C4' N4B d   1       3.623   1.528  -1.583  0.00  0.00     0.003 C 
ENDBRANCH   8   9
ENDBRANCH   7   8
ENDBRANCH   1   7
TORSDOF 3
ENDMDL
