MODEL 1
REMARK minimizedAffinity -4.44094324
REMARK minimizedRMSD -1
REMARK  3 active torsions:
REMARK  status: ('A' for Active; 'I' for Inactive)
REMARK    1  A    between atoms: C3'_2  and  C2'_3 
REMARK    2  A    between atoms: C2'_3  and  C1'_4 
REMARK    3  A    between atoms: C1'_4  and  C1_5 
ROOT
ATOM      1  C1  N4B d   1      -0.278   0.235   2.203  0.00  0.00    -0.075 A 
ATOM      2  C2  N4B d   1       0.114   0.994   1.079  0.00  0.00     0.002 A 
ATOM      3  C3  N4B d   1       1.367   0.829   0.542  0.00  0.00     0.002 A 
ATOM      4  C4  N4B d   1       2.248  -0.071   1.121  0.00  0.00    -0.004 A 
ATOM      5  C5  N4B d   1       1.853  -0.819   2.191  0.00  0.00     0.002 A 
ATOM      6  C6  N4B d   1       0.595  -0.667   2.739  0.00  0.00     0.002 A 
ENDROOT
BRANCH   1   7
ATOM      7  C1' N4B d   1      -1.607   0.442   2.878  0.00  0.00     0.057 C 
BRANCH   7   8
ATOM      8  C2' N4B d   1      -2.610  -0.569   2.329  0.00  0.00     0.009 C 
BRANCH   8   9
ATOM      9  C3' N4B d   1      -2.461  -0.760   0.829  0.00  0.00     0.004 C 
ATOM     10  C4' N4B d   1      -3.725  -0.463   0.078  0.00  0.00     0.003 C 
ENDBRANCH   8   9
ENDBRANCH   7   8
ENDBRANCH   1   7
TORSDOF 3
ENDMDL
