MODEL 1
REMARK minimizedAffinity 0.459653199
REMARK minimizedRMSD -1
REMARK  3 active torsions:
REMARK  status: ('A' for Active; 'I' for Inactive)
REMARK    1  A    between atoms: C3'_2  and  C2'_3 
REMARK    2  A    between atoms: C2'_3  and  C1'_4 
REMARK    3  A    between atoms: C1'_4  and  C1_5 
ROOT
ATOM      1  C1  N4B d   1      -1.247  -0.129   2.460  0.00  0.00    -0.075 A 
ATOM      2  C2  N4B d   1      -0.097  -0.499   1.729  0.00  0.00     0.002 A 
ATOM      3  C3  N4B d   1      -0.103  -0.431   0.357  0.00  0.00     0.002 A 
ATOM      4  C4  N4B d   1      -1.249  -0.015  -0.303  0.00  0.00    -0.004 A 
ATOM      5  C5  N4B d   1      -2.347   0.366   0.411  0.00  0.00     0.002 A 
ATOM      6  C6  N4B d   1      -2.354   0.305   1.790  0.00  0.00     0.002 A 
ENDROOT
BRANCH   1   7
ATOM      7  C1' N4B d   1      -1.316  -0.269   3.956  0.00  0.00     0.057 C 
BRANCH   7   8
ATOM      8  C2' N4B d   1      -0.730  -1.619   4.360  0.00  0.00     0.009 C 
BRANCH   8   9
ATOM      9  C3' N4B d   1      -1.808  -2.667   4.571  0.00  0.00     0.004 C 
ATOM     10  C4' N4B d   1      -3.178  -2.170   4.216  0.00  0.00     0.003 C 
ENDBRANCH   8   9
ENDBRANCH   7   8
ENDBRANCH   1   7
TORSDOF 3
ENDMDL
