MODEL 1
REMARK minimizedAffinity -3.32774615
REMARK minimizedRMSD -1
REMARK  1 active torsions:
REMARK  status: ('A' for Active; 'I' for Inactive)
REMARK    1  A    between atoms: C1_2  and  C2_3 
ROOT
ATOM      1  C2  UNL d   1      -0.824   1.690   0.270  0.00  0.00    -0.076 A 
ATOM      2  C3  UNL d   1      -0.450   3.009   0.582  0.00  0.00     0.004 A 
ATOM      3  C4  UNL d   1       0.892   3.385   0.613  0.00  0.00    -0.003 A 
ATOM      4  C5  UNL d   1       1.881   2.449   0.333  0.00  0.00     0.000 A 
ATOM      5  C6  UNL d   1       1.527   1.141   0.004  0.00  0.00     0.000 A 
ATOM      6  C7  UNL d   1       0.179   0.749  -0.048  0.00  0.00    -0.073 A 
ATOM      7  C8  UNL d   1      -0.145  -0.676  -0.402  0.00  0.00     0.078 C 
ENDROOT
BRANCH   1   8
ATOM      8  C1  UNL d   1      -2.293   1.333   0.278  0.00  0.00     0.053 C 
ATOM      9  C   UNL d   1      -3.128   2.319   1.080  0.00  0.00     0.018 C 
ENDBRANCH   1   8
TORSDOF 1
ENDMDL
