MODEL 1
REMARK minimizedAffinity -4.2136898
REMARK minimizedRMSD -1
REMARK  1 active torsions:
REMARK  status: ('A' for Active; 'I' for Inactive)
REMARK    1  A    between atoms: C1_2  and  C2_3 
ROOT
ATOM      1  C2  UNL d   1       0.627   0.827   0.332  0.00  0.00    -0.076 A 
ATOM      2  C3  UNL d   1       2.021   0.643   0.341  0.00  0.00     0.004 A 
ATOM      3  C4  UNL d   1       2.887   1.730   0.440  0.00  0.00    -0.003 A 
ATOM      4  C5  UNL d   1       2.374   3.019   0.533  0.00  0.00     0.000 A 
ATOM      5  C6  UNL d   1       0.994   3.219   0.544  0.00  0.00     0.000 A 
ATOM      6  C7  UNL d   1       0.107   2.132   0.461  0.00  0.00    -0.073 A 
ATOM      7  C8  UNL d   1      -1.372   2.406   0.471  0.00  0.00     0.078 C 
ENDROOT
BRANCH   1   8
ATOM      8  C1  UNL d   1      -0.263  -0.388   0.195  0.00  0.00     0.053 C 
ATOM      9  C   UNL d   1       0.053  -1.204  -1.050  0.00  0.00     0.018 C 
ENDBRANCH   1   8
TORSDOF 1
ENDMDL
