MODEL 1
REMARK minimizedAffinity -4.31455135
REMARK minimizedRMSD -1
REMARK  1 active torsions:
REMARK  status: ('A' for Active; 'I' for Inactive)
REMARK    1  A    between atoms: C1_2  and  C2_3 
ROOT
ATOM      1  C2  UNL d   1       0.581   0.942   0.754  0.00  0.00    -0.076 A 
ATOM      2  C3  UNL d   1      -0.772   0.861   0.379  0.00  0.00     0.004 A 
ATOM      3  C4  UNL d   1      -1.663   1.889   0.683  0.00  0.00    -0.003 A 
ATOM      4  C5  UNL d   1      -1.216   3.015   1.365  0.00  0.00     0.000 A 
ATOM      5  C6  UNL d   1       0.127   3.120   1.728  0.00  0.00     0.000 A 
ATOM      6  C7  UNL d   1       1.042   2.100   1.416  0.00  0.00    -0.073 A 
ATOM      7  C8  UNL d   1       2.476   2.263   1.837  0.00  0.00     0.078 C 
ENDROOT
BRANCH   1   8
ATOM      8  C1  UNL d   1       1.495  -0.216   0.422  0.00  0.00     0.053 C 
ATOM      9  C   UNL d   1       0.730  -1.500   0.142  0.00  0.00     0.018 C 
ENDBRANCH   1   8
TORSDOF 1
ENDMDL
