MODEL 1
REMARK minimizedAffinity -1.90780091
REMARK minimizedRMSD -1
REMARK  1 active torsions:
REMARK  status: ('A' for Active; 'I' for Inactive)
REMARK    1  A    between atoms: C1_2  and  C2_3 
ROOT
ATOM      1  C2  UNL d   1      -0.883  -2.199  -0.000  0.00  0.00    -0.076 A 
ATOM      2  C3  UNL d   1      -0.959  -2.648  -1.330  0.00  0.00     0.004 A 
ATOM      3  C4  UNL d   1      -1.632  -3.825  -1.653  0.00  0.00    -0.003 A 
ATOM      4  C5  UNL d   1      -2.241  -4.573  -0.650  0.00  0.00     0.000 A 
ATOM      5  C6  UNL d   1      -2.190  -4.133   0.672  0.00  0.00     0.000 A 
ATOM      6  C7  UNL d   1      -1.530  -2.940   1.012  0.00  0.00    -0.073 A 
ATOM      7  C8  UNL d   1      -1.501  -2.517   2.455  0.00  0.00     0.078 C 
ENDROOT
BRANCH   1   8
ATOM      8  C1  UNL d   1      -0.116  -0.930   0.293  0.00  0.00     0.053 C 
ATOM      9  C   UNL d   1       1.347  -1.027  -0.110  0.00  0.00     0.018 C 
ENDBRANCH   1   8
TORSDOF 1
ENDMDL
