MODEL 1
REMARK minimizedAffinity -4.20651007
REMARK minimizedRMSD -1
REMARK  1 active torsions:
REMARK  status: ('A' for Active; 'I' for Inactive)
REMARK    1  A    between atoms: C1_2  and  C2_3 
ROOT
ATOM      1  C2  UNL d   1      -1.326   0.747   0.846  0.00  0.00    -0.076 A 
ATOM      2  C3  UNL d   1      -1.330   2.153   0.819  0.00  0.00     0.004 A 
ATOM      3  C4  UNL d   1      -0.248   2.864   0.303  0.00  0.00    -0.003 A 
ATOM      4  C5  UNL d   1       0.856   2.181  -0.195  0.00  0.00     0.000 A 
ATOM      5  C6  UNL d   1       0.870   0.786  -0.192  0.00  0.00     0.000 A 
ATOM      6  C7  UNL d   1      -0.220   0.054   0.309  0.00  0.00    -0.073 A 
ATOM      7  C8  UNL d   1      -0.148  -1.448   0.293  0.00  0.00     0.078 C 
ENDROOT
BRANCH   1   8
ATOM      8  C1  UNL d   1      -2.516   0.030   1.443  0.00  0.00     0.053 C 
ATOM      9  C   UNL d   1      -2.248  -0.469   2.854  0.00  0.00     0.018 C 
ENDBRANCH   1   8
TORSDOF 1
ENDMDL
