MODEL 1
REMARK minimizedAffinity -4.02158546
REMARK minimizedRMSD -1
REMARK  1 active torsions:
REMARK  status: ('A' for Active; 'I' for Inactive)
REMARK    1  A    between atoms: C1_2  and  C2_3 
ROOT
ATOM      1  C2  UNL d   1      -1.262   1.362   0.650  0.00  0.00    -0.076 A 
ATOM      2  C3  UNL d   1      -0.980   2.738   0.700  0.00  0.00     0.004 A 
ATOM      3  C4  UNL d   1       0.190   3.251   0.142  0.00  0.00    -0.003 A 
ATOM      4  C5  UNL d   1       1.096   2.397  -0.476  0.00  0.00     0.000 A 
ATOM      5  C6  UNL d   1       0.823   1.031  -0.551  0.00  0.00     0.000 A 
ATOM      6  C7  UNL d   1      -0.359   0.500  -0.008  0.00  0.00    -0.073 A 
ATOM      7  C8  UNL d   1      -0.599  -0.981  -0.112  0.00  0.00     0.078 C 
ENDROOT
BRANCH   1   8
ATOM      8  C1  UNL d   1      -2.533   0.860   1.296  0.00  0.00     0.053 C 
ATOM      9  C   UNL d   1      -3.685   1.843   1.158  0.00  0.00     0.018 C 
ENDBRANCH   1   8
TORSDOF 1
ENDMDL
