MODEL 1
REMARK minimizedAffinity -2.42233872
REMARK minimizedRMSD -1
REMARK  1 active torsions:
REMARK  status: ('A' for Active; 'I' for Inactive)
REMARK    1  A    between atoms: C1_2  and  C2_3 
ROOT
ATOM      1  C2  UNL d   1      -0.278  -0.638  -0.057  0.00  0.00    -0.076 A 
ATOM      2  C3  UNL d   1      -1.432   0.164  -0.101  0.00  0.00     0.004 A 
ATOM      3  C4  UNL d   1      -1.475   1.395   0.550  0.00  0.00    -0.003 A 
ATOM      4  C5  UNL d   1      -0.364   1.846   1.255  0.00  0.00     0.000 A 
ATOM      5  C6  UNL d   1       0.795   1.072   1.294  0.00  0.00     0.000 A 
ATOM      6  C7  UNL d   1       0.860  -0.165   0.630  0.00  0.00    -0.073 A 
ATOM      7  C8  UNL d   1       2.134  -0.961   0.710  0.00  0.00     0.078 C 
ENDROOT
BRANCH   1   8
ATOM      8  C1  UNL d   1      -0.299  -1.977  -0.759  0.00  0.00     0.053 C 
ATOM      9  C   UNL d   1      -1.648  -2.282  -1.392  0.00  0.00     0.018 C 
ENDBRANCH   1   8
TORSDOF 1
ENDMDL
