MODEL 1
REMARK minimizedAffinity 0.341580927
REMARK minimizedRMSD -1
REMARK  1 active torsions:
REMARK  status: ('A' for Active; 'I' for Inactive)
REMARK    1  A    between atoms: C1_2  and  C2_3 
ROOT
ATOM      1  C2  UNL d   1       1.875   4.921   3.368  0.00  0.00    -0.076 A 
ATOM      2  C3  UNL d   1       0.937   5.199   4.377  0.00  0.00     0.004 A 
ATOM      3  C4  UNL d   1      -0.016   4.253   4.751  0.00  0.00    -0.003 A 
ATOM      4  C5  UNL d   1      -0.046   3.013   4.122  0.00  0.00     0.000 A 
ATOM      5  C6  UNL d   1       0.888   2.714   3.131  0.00  0.00     0.000 A 
ATOM      6  C7  UNL d   1       1.866   3.650   2.754  0.00  0.00    -0.073 A 
ATOM      7  C8  UNL d   1       2.845   3.276   1.675  0.00  0.00     0.078 C 
ENDROOT
BRANCH   1   8
ATOM      8  C1  UNL d   1       2.868   5.995   2.986  0.00  0.00     0.053 C 
ATOM      9  C   UNL d   1       4.098   5.996   3.880  0.00  0.00     0.018 C 
ENDBRANCH   1   8
TORSDOF 1
ENDMDL
