MODEL 1
REMARK minimizedAffinity 11.4294653
REMARK minimizedRMSD -1
REMARK  1 active torsions:
REMARK  status: ('A' for Active; 'I' for Inactive)
REMARK    1  A    between atoms: C1_2  and  C2_3 
ROOT
ATOM      1  C2  UNL d   1       4.061   2.411  -3.166  0.00  0.00    -0.076 A 
ATOM      2  C3  UNL d   1       4.084   3.375  -2.143  0.00  0.00     0.004 A 
ATOM      3  C4  UNL d   1       5.043   4.387  -2.133  0.00  0.00    -0.003 A 
ATOM      4  C5  UNL d   1       5.993   4.452  -3.146  0.00  0.00     0.000 A 
ATOM      5  C6  UNL d   1       5.974   3.514  -4.178  0.00  0.00     0.000 A 
ATOM      6  C7  UNL d   1       5.004   2.497  -4.212  0.00  0.00    -0.073 A 
ATOM      7  C8  UNL d   1       5.034   1.509  -5.346  0.00  0.00     0.078 C 
ENDROOT
BRANCH   1   8
ATOM      8  C1  UNL d   1       3.015   1.321  -3.110  0.00  0.00     0.053 C 
ATOM      9  C   UNL d   1       1.902   1.631  -2.121  0.00  0.00     0.018 C 
ENDBRANCH   1   8
TORSDOF 1
ENDMDL
