MODEL 1
REMARK minimizedAffinity -3.80916929
REMARK minimizedRMSD -1
REMARK  1 active torsions:
REMARK  status: ('A' for Active; 'I' for Inactive)
REMARK    1  A    between atoms: C1_2  and  C2_3 
ROOT
ATOM      1  C2  UNL d   1      -0.013   2.103   0.467  0.00  0.00    -0.076 A 
ATOM      2  C3  UNL d   1       0.118   2.367   1.842  0.00  0.00     0.004 A 
ATOM      3  C4  UNL d   1       0.721   3.541   2.292  0.00  0.00    -0.003 A 
ATOM      4  C5  UNL d   1       1.202   4.469   1.375  0.00  0.00     0.000 A 
ATOM      5  C6  UNL d   1       1.064   4.231   0.008  0.00  0.00     0.000 A 
ATOM      6  C7  UNL d   1       0.444   3.061  -0.463  0.00  0.00    -0.073 A 
ATOM      7  C8  UNL d   1       0.328   2.852  -1.948  0.00  0.00     0.078 C 
ENDROOT
BRANCH   1   8
ATOM      8  C1  UNL d   1      -0.651   0.801   0.038  0.00  0.00     0.053 C 
ATOM      9  C   UNL d   1       0.122  -0.415   0.525  0.00  0.00     0.018 C 
ENDBRANCH   1   8
TORSDOF 1
ENDMDL
