MODEL 1
REMARK minimizedAffinity -1.04674208
REMARK minimizedRMSD -1
REMARK  1 active torsions:
REMARK  status: ('A' for Active; 'I' for Inactive)
REMARK    1  A    between atoms: C1_2  and  C2_3 
ROOT
ATOM      1  C2  UNL d   1       1.359   2.678  -4.694  0.00  0.00    -0.076 A 
ATOM      2  C3  UNL d   1       2.050   2.921  -5.894  0.00  0.00     0.004 A 
ATOM      3  C4  UNL d   1       3.416   2.666  -6.000  0.00  0.00    -0.003 A 
ATOM      4  C5  UNL d   1       4.114   2.163  -4.907  0.00  0.00     0.000 A 
ATOM      5  C6  UNL d   1       3.442   1.899  -3.715  0.00  0.00     0.000 A 
ATOM      6  C7  UNL d   1       2.061   2.135  -3.596  0.00  0.00    -0.073 A 
ATOM      7  C8  UNL d   1       1.388   1.839  -2.284  0.00  0.00     0.078 C 
ENDROOT
BRANCH   1   8
ATOM      8  C1  UNL d   1      -0.117   2.999  -4.630  0.00  0.00     0.053 C 
ATOM      9  C   UNL d   1      -0.777   2.982  -6.000  0.00  0.00     0.018 C 
ENDBRANCH   1   8
TORSDOF 1
ENDMDL
