MODEL 1
REMARK minimizedAffinity -4.23919821
REMARK minimizedRMSD -1
REMARK  1 active torsions:
REMARK  status: ('A' for Active; 'I' for Inactive)
REMARK    1  A    between atoms: C1_2  and  C2_3 
ROOT
ATOM      1  C2  UNL d   1      -0.284   0.620   0.006  0.00  0.00    -0.076 A 
ATOM      2  C3  UNL d   1      -1.478   1.361  -0.017  0.00  0.00     0.004 A 
ATOM      3  C4  UNL d   1      -1.473   2.737   0.207  0.00  0.00    -0.003 A 
ATOM      4  C5  UNL d   1      -0.274   3.394   0.457  0.00  0.00     0.000 A 
ATOM      5  C6  UNL d   1       0.923   2.678   0.465  0.00  0.00     0.000 A 
ATOM      6  C7  UNL d   1       0.937   1.293   0.225  0.00  0.00    -0.073 A 
ATOM      7  C8  UNL d   1       2.256   0.570   0.253  0.00  0.00     0.078 C 
ENDROOT
BRANCH   1   8
ATOM      8  C1  UNL d   1      -0.353  -0.874  -0.217  0.00  0.00     0.053 C 
ATOM      9  C   UNL d   1      -0.351  -1.243  -1.692  0.00  0.00     0.018 C 
ENDBRANCH   1   8
TORSDOF 1
ENDMDL
