MODEL 1
REMARK minimizedAffinity -1.59562278
REMARK minimizedRMSD -1
REMARK  0 active torsions:
REMARK  status: ('A' for Active; 'I' for Inactive)
ROOT
ATOM      1  C   UNL d   1      -3.499   5.473  -2.566  0.00  0.00     0.078 C 
ATOM      2  C1  UNL d   1      -4.360   5.167  -3.755  0.00  0.00    -0.077 A 
ATOM      3  C2  UNL d   1      -5.200   4.047  -3.768  0.00  0.00    -0.001 A 
ATOM      4  C3  UNL d   1      -5.988   3.769  -4.886  0.00  0.00     0.003 A 
ATOM      5  C4  UNL d   1      -5.943   4.604  -6.000  0.00  0.00    -0.005 A 
ATOM      6  C5  UNL d   1      -5.107   5.720  -5.997  0.00  0.00     0.003 A 
ATOM      7  C6  UNL d   1      -4.319   6.000  -4.880  0.00  0.00    -0.001 A 
ENDROOT
TORSDOF 0
ENDMDL
