MODEL 1
REMARK minimizedAffinity -1.32806695
REMARK minimizedRMSD -1
REMARK  0 active torsions:
REMARK  status: ('A' for Active; 'I' for Inactive)
ROOT
ATOM      1  C   UNL d   1       4.518  -1.598   0.207  0.00  0.00     0.078 C 
ATOM      2  C1  UNL d   1       4.468  -2.655  -0.856  0.00  0.00    -0.077 A 
ATOM      3  C2  UNL d   1       4.946  -3.948  -0.610  0.00  0.00    -0.001 A 
ATOM      4  C3  UNL d   1       4.902  -4.919  -1.611  0.00  0.00     0.003 A 
ATOM      5  C4  UNL d   1       4.382  -4.608  -2.865  0.00  0.00    -0.005 A 
ATOM      6  C5  UNL d   1       3.905  -3.324  -3.120  0.00  0.00     0.003 A 
ATOM      7  C6  UNL d   1       3.949  -2.351  -2.120  0.00  0.00    -0.001 A 
ENDROOT
TORSDOF 0
ENDMDL
