MODEL 1
REMARK minimizedAffinity -3.15610528
REMARK minimizedRMSD -1
REMARK  0 active torsions:
REMARK  status: ('A' for Active; 'I' for Inactive)
ROOT
ATOM      1  C   UNL d   1       2.716  -3.869  -4.227  0.00  0.00     0.078 C 
ATOM      2  C1  UNL d   1       3.678  -3.986  -3.082  0.00  0.00    -0.077 A 
ATOM      3  C2  UNL d   1       4.297  -5.206  -2.783  0.00  0.00    -0.001 A 
ATOM      4  C3  UNL d   1       5.183  -5.303  -1.709  0.00  0.00     0.003 A 
ATOM      5  C4  UNL d   1       5.456  -4.185  -0.924  0.00  0.00    -0.005 A 
ATOM      6  C5  UNL d   1       4.843  -2.968  -1.212  0.00  0.00     0.003 A 
ATOM      7  C6  UNL d   1       3.957  -2.868  -2.286  0.00  0.00    -0.001 A 
ENDROOT
TORSDOF 0
ENDMDL
