MODEL 1
REMARK minimizedAffinity -1.89566922
REMARK minimizedRMSD -1
REMARK  0 active torsions:
REMARK  status: ('A' for Active; 'I' for Inactive)
ROOT
ATOM      1  C   UNL d   1       2.997  -4.196  -4.142  0.00  0.00     0.078 C 
ATOM      2  C1  UNL d   1       3.778  -3.913  -2.893  0.00  0.00    -0.077 A 
ATOM      3  C2  UNL d   1       3.732  -2.653  -2.284  0.00  0.00    -0.001 A 
ATOM      4  C3  UNL d   1       4.471  -2.401  -1.127  0.00  0.00     0.003 A 
ATOM      5  C4  UNL d   1       5.262  -3.403  -0.570  0.00  0.00    -0.005 A 
ATOM      6  C5  UNL d   1       5.316  -4.660  -1.170  0.00  0.00     0.003 A 
ATOM      7  C6  UNL d   1       4.577  -4.914  -2.327  0.00  0.00    -0.001 A 
ENDROOT
TORSDOF 0
ENDMDL
