MODEL 1
REMARK minimizedAffinity 3.73759294
REMARK minimizedRMSD -1
REMARK  0 active torsions:
REMARK  status: ('A' for Active; 'I' for Inactive)
ROOT
ATOM      1  C   UNL d   1       4.324  -1.580  -4.271  0.00  0.00     0.078 C 
ATOM      2  C1  UNL d   1       3.997  -2.651  -3.274  0.00  0.00    -0.077 A 
ATOM      3  C2  UNL d   1       4.059  -4.005  -3.624  0.00  0.00    -0.001 A 
ATOM      4  C3  UNL d   1       3.742  -4.991  -2.688  0.00  0.00     0.003 A 
ATOM      5  C4  UNL d   1       3.359  -4.633  -1.397  0.00  0.00    -0.005 A 
ATOM      6  C5  UNL d   1       3.292  -3.287  -1.040  0.00  0.00     0.003 A 
ATOM      7  C6  UNL d   1       3.608  -2.300  -1.975  0.00  0.00    -0.001 A 
ENDROOT
TORSDOF 0
ENDMDL
