MODEL 1
REMARK minimizedAffinity -2.54571295
REMARK minimizedRMSD -1
REMARK  0 active torsions:
REMARK  status: ('A' for Active; 'I' for Inactive)
ROOT
ATOM      1  C   UNL d   1       1.194  -5.167  -0.840  0.00  0.00     0.078 C 
ATOM      2  C1  UNL d   1       2.543  -4.564  -1.094  0.00  0.00    -0.077 A 
ATOM      3  C2  UNL d   1       3.357  -4.144  -0.034  0.00  0.00    -0.001 A 
ATOM      4  C3  UNL d   1       4.606  -3.575  -0.286  0.00  0.00     0.003 A 
ATOM      5  C4  UNL d   1       5.053  -3.419  -1.596  0.00  0.00    -0.005 A 
ATOM      6  C5  UNL d   1       4.249  -3.832  -2.657  0.00  0.00     0.003 A 
ATOM      7  C6  UNL d   1       2.999  -4.401  -2.408  0.00  0.00    -0.001 A 
ENDROOT
TORSDOF 0
ENDMDL
