MODEL 1
REMARK minimizedAffinity -2.5152185
REMARK minimizedRMSD -1
REMARK  0 active torsions:
REMARK  status: ('A' for Active; 'I' for Inactive)
ROOT
ATOM      1  C   UNL d   1       1.451  -5.044  -0.891  0.00  0.00     0.078 C 
ATOM      2  C1  UNL d   1       2.746  -4.384  -1.260  0.00  0.00    -0.077 A 
ATOM      3  C2  UNL d   1       3.184  -3.233  -0.593  0.00  0.00    -0.001 A 
ATOM      4  C3  UNL d   1       4.386  -2.623  -0.953  0.00  0.00     0.003 A 
ATOM      5  C4  UNL d   1       5.160  -3.155  -1.983  0.00  0.00    -0.005 A 
ATOM      6  C5  UNL d   1       4.731  -4.298  -2.655  0.00  0.00     0.003 A 
ATOM      7  C6  UNL d   1       3.528  -4.910  -2.295  0.00  0.00    -0.001 A 
ENDROOT
TORSDOF 0
ENDMDL
