MODEL 1
REMARK minimizedAffinity 2.41513395
REMARK minimizedRMSD -1
REMARK  0 active torsions:
REMARK  status: ('A' for Active; 'I' for Inactive)
ROOT
ATOM      1  C   UNL d   1       2.620  -4.697   1.257  0.00  0.00     0.078 C 
ATOM      2  C1  UNL d   1       3.537  -4.021   0.282  0.00  0.00    -0.077 A 
ATOM      3  C2  UNL d   1       4.837  -4.495   0.066  0.00  0.00    -0.001 A 
ATOM      4  C3  UNL d   1       5.683  -3.850  -0.837  0.00  0.00     0.003 A 
ATOM      5  C4  UNL d   1       5.239  -2.726  -1.532  0.00  0.00    -0.005 A 
ATOM      6  C5  UNL d   1       3.948  -2.246  -1.322  0.00  0.00     0.003 A 
ATOM      7  C6  UNL d   1       3.101  -2.889  -0.419  0.00  0.00    -0.001 A 
ENDROOT
TORSDOF 0
ENDMDL
