MODEL 1
REMARK minimizedAffinity 7.12408972
REMARK minimizedRMSD -1
REMARK  2 active torsions:
REMARK  status: ('A' for Active; 'I' for Inactive)
REMARK    1  A    between atoms: C2'_3  and  C1'_4 
REMARK    2  A    between atoms: C1'_4  and  C1_5 
ROOT
ATOM      1  C1  I4B d   1       2.873   0.966  -0.432  0.00  0.00    -0.075 A 
ATOM      2  C2  I4B d   1       3.264   0.979  -1.748  0.00  0.00     0.003 A 
ATOM      3  C3  I4B d   1       4.523   1.517  -2.112  0.00  0.00     0.002 A 
ATOM      4  C4  I4B d   1       5.331   2.072  -1.141  0.00  0.00    -0.004 A 
ATOM      5  C5  I4B d   1       4.943   2.036   0.196  0.00  0.00     0.002 A 
ATOM      6  C6  I4B d   1       3.711   1.469   0.554  0.00  0.00     0.003 A 
ENDROOT
BRANCH   1   7
ATOM      7  C1' I4B d   1       1.523   0.421  -0.087  0.00  0.00     0.060 C 
BRANCH   7   8
ATOM      8  C2' I4B d   1       0.511   1.059  -1.016  0.00  0.00    -0.013 C 
ATOM      9  C4' I4B d   1      -0.604   0.102  -1.349  0.00  0.00     0.013 C 
ATOM     10  C3' I4B d   1      -0.017   2.293  -0.348  0.00  0.00     0.013 C 
ENDBRANCH   7   8
ENDBRANCH   1   7
TORSDOF 2
ENDMDL
