MODEL 1
REMARK minimizedAffinity 17.0273438
REMARK minimizedRMSD -1
REMARK  2 active torsions:
REMARK  status: ('A' for Active; 'I' for Inactive)
REMARK    1  A    between atoms: C2'_3  and  C1'_4 
REMARK    2  A    between atoms: C1'_4  and  C1_5 
ROOT
ATOM      1  C1  I4B d   1      -3.016   0.361  -0.612  0.00  0.00    -0.075 A 
ATOM      2  C2  I4B d   1      -3.025  -0.992  -0.376  0.00  0.00     0.003 A 
ATOM      3  C3  I4B d   1      -2.278  -1.864  -1.204  0.00  0.00     0.002 A 
ATOM      4  C4  I4B d   1      -1.581  -1.351  -2.279  0.00  0.00    -0.004 A 
ATOM      5  C5  I4B d   1      -1.555   0.022  -2.503  0.00  0.00     0.002 A 
ATOM      6  C6  I4B d   1      -2.267   0.885  -1.657  0.00  0.00     0.003 A 
ENDROOT
BRANCH   1   7
ATOM      7  C1' I4B d   1      -3.843   1.250   0.261  0.00  0.00     0.060 C 
BRANCH   7   8
ATOM      8  C2' I4B d   1      -5.297   0.860   0.082  0.00  0.00    -0.013 C 
ATOM      9  C4' I4B d   1      -5.995   0.735   1.410  0.00  0.00     0.013 C 
ATOM     10  C3' I4B d   1      -5.952   1.899  -0.779  0.00  0.00     0.013 C 
ENDBRANCH   7   8
ENDBRANCH   1   7
TORSDOF 2
ENDMDL
