MODEL 1
REMARK minimizedAffinity 9.49425602
REMARK minimizedRMSD -1
REMARK  2 active torsions:
REMARK  status: ('A' for Active; 'I' for Inactive)
REMARK    1  A    between atoms: C2'_3  and  C1'_4 
REMARK    2  A    between atoms: C1'_4  and  C1_5 
ROOT
ATOM      1  C1  I4B d   1       5.266   2.427  -2.208  0.00  0.00    -0.075 A 
ATOM      2  C2  I4B d   1       4.244   1.701  -2.767  0.00  0.00     0.003 A 
ATOM      3  C3  I4B d   1       3.550   0.737  -1.997  0.00  0.00     0.002 A 
ATOM      4  C4  I4B d   1       3.941   0.496  -0.696  0.00  0.00    -0.004 A 
ATOM      5  C5  I4B d   1       4.963   1.248  -0.124  0.00  0.00     0.002 A 
ATOM      6  C6  I4B d   1       5.622   2.229  -0.880  0.00  0.00     0.003 A 
ENDROOT
BRANCH   1   7
ATOM      7  C1' I4B d   1       5.999   3.414  -3.060  0.00  0.00     0.060 C 
BRANCH   7   8
ATOM      8  C2' I4B d   1       5.390   4.780  -2.820  0.00  0.00    -0.013 C 
ATOM      9  C4' I4B d   1       5.998   5.444  -1.612  0.00  0.00     0.013 C 
ATOM     10  C3' I4B d   1       5.602   5.605  -4.055  0.00  0.00     0.013 C 
ENDBRANCH   7   8
ENDBRANCH   1   7
TORSDOF 2
ENDMDL
