MODEL 1
REMARK minimizedAffinity 4.36089087
REMARK minimizedRMSD -1
REMARK  2 active torsions:
REMARK  status: ('A' for Active; 'I' for Inactive)
REMARK    1  A    between atoms: C2'_3  and  C1'_4 
REMARK    2  A    between atoms: C1'_4  and  C1_5 
ROOT
ATOM      1  C1  I4B d   1      -1.235   0.719  -1.492  0.00  0.00    -0.075 A 
ATOM      2  C2  I4B d   1       0.129   0.842  -1.399  0.00  0.00     0.003 A 
ATOM      3  C3  I4B d   1       0.701   1.799  -0.525  0.00  0.00     0.002 A 
ATOM      4  C4  I4B d   1      -0.123   2.640   0.194  0.00  0.00    -0.004 A 
ATOM      5  C5  I4B d   1      -1.506   2.498   0.116  0.00  0.00     0.002 A 
ATOM      6  C6  I4B d   1      -2.065   1.523  -0.723  0.00  0.00     0.003 A 
ENDROOT
BRANCH   1   7
ATOM      7  C1' I4B d   1      -1.805  -0.279  -2.450  0.00  0.00     0.060 C 
BRANCH   7   8
ATOM      8  C2' I4B d   1      -2.064  -1.562  -1.687  0.00  0.00    -0.013 C 
ATOM      9  C4' I4B d   1      -1.107  -2.647  -2.104  0.00  0.00     0.013 C 
ATOM     10  C3' I4B d   1      -1.939  -1.264  -0.223  0.00  0.00     0.013 C 
ENDBRANCH   7   8
ENDBRANCH   1   7
TORSDOF 2
ENDMDL
