MODEL 1
REMARK minimizedAffinity 7.61566305
REMARK minimizedRMSD -1
REMARK  1 active torsions:
REMARK  status: ('A' for Active; 'I' for Inactive)
REMARK    1  A    between atoms: N_2  and  C1_3 
ROOT
ATOM      1  C1  UNL d   1      -2.074  -1.401  -1.057  0.00  0.00     0.143 A 
ATOM      2  C2  UNL d   1      -2.897  -1.028   0.012  0.00  0.00    -0.057 A 
ATOM      3  C3  UNL d   1      -2.431  -1.057   1.332  0.00  0.00     0.033 A 
ATOM      4  C4  UNL d   1      -1.138  -1.487   1.610  0.00  0.00    -0.042 A 
ATOM      5  C5  UNL d   1      -0.310  -1.886   0.566  0.00  0.00     0.033 A 
ATOM      6  C6  UNL d   1      -0.779  -1.849  -0.751  0.00  0.00    -0.057 A 
ENDROOT
BRANCH   1   7
ATOM      7  N   UNL d   1      -2.510  -1.488  -2.381  0.00  0.00    -0.732 N 
ATOM      8  C   UNL d   1      -2.155  -2.627  -3.200  0.00  0.00     0.284 C 
ATOM      9  H3  UNL d   1      -3.473  -1.179  -2.494  0.00  0.00     0.395 HD
ENDBRANCH   1   7
TORSDOF 1
ENDMDL
