MODEL 1
REMARK minimizedAffinity -1.60931253
REMARK minimizedRMSD -1
REMARK  1 active torsions:
REMARK  status: ('A' for Active; 'I' for Inactive)
REMARK    1  A    between atoms: N_2  and  C1_3 
ROOT
ATOM      1  C1  UNL d   1       4.493   2.466  -0.728  0.00  0.00     0.143 A 
ATOM      2  C2  UNL d   1       3.403   3.284  -0.414  0.00  0.00    -0.057 A 
ATOM      3  C3  UNL d   1       2.615   3.041   0.718  0.00  0.00     0.033 A 
ATOM      4  C4  UNL d   1       2.887   1.954   1.542  0.00  0.00    -0.042 A 
ATOM      5  C5  UNL d   1       3.950   1.112   1.235  0.00  0.00     0.033 A 
ATOM      6  C6  UNL d   1       4.738   1.364   0.107  0.00  0.00    -0.057 A 
ENDROOT
BRANCH   1   7
ATOM      7  N   UNL d   1       5.254   2.597  -1.892  0.00  0.00    -0.732 N 
ATOM      8  C   UNL d   1       6.000   1.473  -2.416  0.00  0.00     0.284 C 
ATOM      9  H3  UNL d   1       4.784   3.152  -2.603  0.00  0.00     0.395 HD
ENDBRANCH   1   7
TORSDOF 1
ENDMDL
