MODEL 1
REMARK minimizedAffinity 11.9128084
REMARK minimizedRMSD -1
REMARK  1 active torsions:
REMARK  status: ('A' for Active; 'I' for Inactive)
REMARK    1  A    between atoms: N_2  and  C1_3 
ROOT
ATOM      1  C1  UNL d   1       0.954   4.820  -4.024  0.00  0.00     0.143 A 
ATOM      2  C2  UNL d   1       1.852   5.894  -4.040  0.00  0.00    -0.057 A 
ATOM      3  C3  UNL d   1       2.840   5.999  -5.026  0.00  0.00     0.033 A 
ATOM      4  C4  UNL d   1       2.968   5.015  -6.000  0.00  0.00    -0.042 A 
ATOM      5  C5  UNL d   1       2.103   3.926  -5.989  0.00  0.00     0.033 A 
ATOM      6  C6  UNL d   1       1.113   3.830  -5.006  0.00  0.00    -0.057 A 
ENDROOT
BRANCH   1   7
ATOM      7  N   UNL d   1       0.013   4.608  -3.014  0.00  0.00    -0.732 N 
ATOM      8  C   UNL d   1       0.064   3.413  -2.198  0.00  0.00     0.284 C 
ATOM      9  H3  UNL d   1      -0.197   5.457  -2.494  0.00  0.00     0.395 HD
ENDBRANCH   1   7
TORSDOF 1
ENDMDL
