MODEL 1
REMARK minimizedAffinity 0.658190787
REMARK minimizedRMSD -1
REMARK  1 active torsions:
REMARK  status: ('A' for Active; 'I' for Inactive)
REMARK    1  A    between atoms: N_2  and  C1_3 
ROOT
ATOM      1  C1  UNL d   1       3.145   5.474  -5.330  0.00  0.00     0.143 A 
ATOM      2  C2  UNL d   1       2.082   4.828  -5.970  0.00  0.00    -0.057 A 
ATOM      3  C3  UNL d   1       1.048   4.231  -5.238  0.00  0.00     0.033 A 
ATOM      4  C4  UNL d   1       1.075   4.245  -3.848  0.00  0.00    -0.042 A 
ATOM      5  C5  UNL d   1       2.134   4.860  -3.190  0.00  0.00     0.033 A 
ATOM      6  C6  UNL d   1       3.160   5.460  -3.926  0.00  0.00    -0.057 A 
ENDROOT
BRANCH   1   7
ATOM      7  N   UNL d   1       4.252   6.000  -6.000  0.00  0.00    -0.732 N 
ATOM      8  C   UNL d   1       5.517   5.297  -5.998  0.00  0.00     0.284 C 
ATOM      9  H3  UNL d   1       4.005   6.408  -6.898  0.00  0.00     0.395 HD
ENDBRANCH   1   7
TORSDOF 1
ENDMDL
