MODEL 1
REMARK minimizedAffinity 2.648664
REMARK minimizedRMSD -1
REMARK  1 active torsions:
REMARK  status: ('A' for Active; 'I' for Inactive)
REMARK    1  A    between atoms: N_2  and  C1_3 
ROOT
ATOM      1  C1  UNL d   1       0.331  -1.416  -0.510  0.00  0.00     0.143 A 
ATOM      2  C2  UNL d   1      -0.608  -1.952   0.378  0.00  0.00    -0.057 A 
ATOM      3  C3  UNL d   1      -1.955  -2.086   0.018  0.00  0.00     0.033 A 
ATOM      4  C4  UNL d   1      -2.392  -1.658  -1.231  0.00  0.00    -0.042 A 
ATOM      5  C5  UNL d   1      -1.481  -1.099  -2.120  0.00  0.00     0.033 A 
ATOM      6  C6  UNL d   1      -0.137  -0.974  -1.757  0.00  0.00    -0.057 A 
ENDROOT
BRANCH   1   7
ATOM      7  N   UNL d   1       1.664  -1.166  -0.175  0.00  0.00    -0.732 N 
ATOM      8  C   UNL d   1       2.013  -0.053   0.681  0.00  0.00     0.284 C 
ATOM      9  H3  UNL d   1       2.181  -2.020   0.023  0.00  0.00     0.395 HD
ENDBRANCH   1   7
TORSDOF 1
ENDMDL
