MODEL 1
REMARK minimizedAffinity 9.48935509
REMARK minimizedRMSD -1
REMARK  1 active torsions:
REMARK  status: ('A' for Active; 'I' for Inactive)
REMARK    1  A    between atoms: N_2  and  C1_3 
ROOT
ATOM      1  C1  UNL d   1       3.709   2.289  -3.429  0.00  0.00     0.143 A 
ATOM      2  C2  UNL d   1       4.135   1.381  -4.404  0.00  0.00    -0.057 A 
ATOM      3  C3  UNL d   1       3.560   1.362  -5.680  0.00  0.00     0.033 A 
ATOM      4  C4  UNL d   1       2.525   2.236  -5.996  0.00  0.00    -0.042 A 
ATOM      5  C5  UNL d   1       2.068   3.131  -5.035  0.00  0.00     0.033 A 
ATOM      6  C6  UNL d   1       2.651   3.149  -3.764  0.00  0.00    -0.057 A 
ENDROOT
BRANCH   1   7
ATOM      7  N   UNL d   1       4.173   2.291  -2.111  0.00  0.00    -0.732 N 
ATOM      8  C   UNL d   1       4.978   1.198  -1.612  0.00  0.00     0.284 C 
ATOM      9  H3  UNL d   1       4.489   3.211  -1.812  0.00  0.00     0.395 HD
ENDBRANCH   1   7
TORSDOF 1
ENDMDL
