MODEL 1
REMARK minimizedAffinity 14.5443659
REMARK minimizedRMSD -1
REMARK  1 active torsions:
REMARK  status: ('A' for Active; 'I' for Inactive)
REMARK    1  A    between atoms: N_2  and  C1_3 
ROOT
ATOM      1  C1  UNL d   1      -1.997  -2.242  -3.744  0.00  0.00     0.143 A 
ATOM      2  C2  UNL d   1      -1.405  -1.395  -2.801  0.00  0.00    -0.057 A 
ATOM      3  C3  UNL d   1      -1.882  -1.326  -1.486  0.00  0.00     0.033 A 
ATOM      4  C4  UNL d   1      -2.982  -2.084  -1.098  0.00  0.00    -0.042 A 
ATOM      5  C5  UNL d   1      -3.602  -2.914  -2.026  0.00  0.00     0.033 A 
ATOM      6  C6  UNL d   1      -3.117  -2.983  -3.335  0.00  0.00    -0.057 A 
ENDROOT
BRANCH   1   7
ATOM      7  N   UNL d   1      -1.631  -2.282  -5.092  0.00  0.00    -0.732 N 
ATOM      8  C   UNL d   1      -2.264  -3.214  -6.000  0.00  0.00     0.284 C 
ATOM      9  H3  UNL d   1      -1.487  -1.354  -5.483  0.00  0.00     0.395 HD
ENDBRANCH   1   7
TORSDOF 1
ENDMDL
