MODEL 1
REMARK minimizedAffinity 5.56610346
REMARK minimizedRMSD -1
REMARK  1 active torsions:
REMARK  status: ('A' for Active; 'I' for Inactive)
REMARK    1  A    between atoms: N_2  and  C1_3 
ROOT
ATOM      1  C1  UNL d   1       1.869  -0.055   2.768  0.00  0.00     0.143 A 
ATOM      2  C2  UNL d   1       2.932  -0.573   3.516  0.00  0.00    -0.057 A 
ATOM      3  C3  UNL d   1       4.131  -0.958   2.905  0.00  0.00     0.033 A 
ATOM      4  C4  UNL d   1       4.278  -0.858   1.525  0.00  0.00    -0.042 A 
ATOM      5  C5  UNL d   1       3.226  -0.370   0.759  0.00  0.00     0.033 A 
ATOM      6  C6  UNL d   1       2.034   0.019   1.376  0.00  0.00    -0.057 A 
ENDROOT
BRANCH   1   7
ATOM      7  N   UNL d   1       0.617   0.253   3.306  0.00  0.00    -0.732 N 
ATOM      8  C   UNL d   1       0.174  -0.358   4.540  0.00  0.00     0.284 C 
ATOM      9  H3  UNL d   1       0.394   1.243   3.228  0.00  0.00     0.395 HD
ENDBRANCH   1   7
TORSDOF 1
ENDMDL
