MODEL 1
REMARK minimizedAffinity 2.66052032
REMARK minimizedRMSD -1
REMARK  1 active torsions:
REMARK  status: ('A' for Active; 'I' for Inactive)
REMARK    1  A    between atoms: N_2  and  C1_3 
ROOT
ATOM      1  C1  UNL d   1       2.883   3.555  -5.413  0.00  0.00     0.143 A 
ATOM      2  C2  UNL d   1       3.277   4.782  -5.957  0.00  0.00    -0.057 A 
ATOM      3  C3  UNL d   1       2.883   5.994  -5.377  0.00  0.00     0.033 A 
ATOM      4  C4  UNL d   1       2.060   6.000  -4.256  0.00  0.00    -0.042 A 
ATOM      5  C5  UNL d   1       1.635   4.792  -3.713  0.00  0.00     0.033 A 
ATOM      6  C6  UNL d   1       2.037   3.585  -4.292  0.00  0.00    -0.057 A 
ENDROOT
BRANCH   1   7
ATOM      7  N   UNL d   1       3.160   2.318  -6.000  0.00  0.00    -0.732 N 
ATOM      8  C   UNL d   1       4.507   1.787  -5.998  0.00  0.00     0.284 C 
ATOM      9  H3  UNL d   1       2.440   1.626  -5.807  0.00  0.00     0.395 HD
ENDBRANCH   1   7
TORSDOF 1
ENDMDL
