MODEL 1
REMARK minimizedAffinity 4.54532671
REMARK minimizedRMSD -1
REMARK  1 active torsions:
REMARK  status: ('A' for Active; 'I' for Inactive)
REMARK    1  A    between atoms: N_2  and  C1_3 
ROOT
ATOM      1  C1  UNL d   1      -2.913  -2.494  -0.597  0.00  0.00     0.143 A 
ATOM      2  C2  UNL d   1      -2.480  -2.026   0.648  0.00  0.00    -0.057 A 
ATOM      3  C3  UNL d   1      -1.119  -1.975   0.972  0.00  0.00     0.033 A 
ATOM      4  C4  UNL d   1      -0.165  -2.422   0.064  0.00  0.00    -0.042 A 
ATOM      5  C5  UNL d   1      -0.573  -2.915  -1.170  0.00  0.00     0.033 A 
ATOM      6  C6  UNL d   1      -1.934  -2.956  -1.490  0.00  0.00    -0.057 A 
ENDROOT
BRANCH   1   7
ATOM      7  N   UNL d   1      -4.257  -2.661  -0.941  0.00  0.00    -0.732 N 
ATOM      8  C   UNL d   1      -5.101  -3.571  -0.198  0.00  0.00     0.284 C 
ATOM      9  H3  UNL d   1      -4.707  -1.782  -1.186  0.00  0.00     0.395 HD
ENDBRANCH   1   7
TORSDOF 1
ENDMDL
