MODEL 1
REMARK minimizedAffinity 6.61797333
REMARK minimizedRMSD -1
REMARK  1 active torsions:
REMARK  status: ('A' for Active; 'I' for Inactive)
REMARK    1  A    between atoms: N_2  and  C1_3 
ROOT
ATOM      1  C1  UNL d   1      -1.448  -2.480   2.416  0.00  0.00     0.143 A 
ATOM      2  C2  UNL d   1      -0.869  -2.111   1.197  0.00  0.00    -0.057 A 
ATOM      3  C3  UNL d   1      -0.308  -3.067   0.340  0.00  0.00     0.033 A 
ATOM      4  C4  UNL d   1      -0.291  -4.409   0.703  0.00  0.00    -0.042 A 
ATOM      5  C5  UNL d   1      -0.839  -4.796   1.921  0.00  0.00     0.033 A 
ATOM      6  C6  UNL d   1      -1.403  -3.838   2.769  0.00  0.00    -0.057 A 
ENDROOT
BRANCH   1   7
ATOM      7  N   UNL d   1      -1.933  -1.566   3.355  0.00  0.00    -0.732 N 
ATOM      8  C   UNL d   1      -2.346  -0.240   2.948  0.00  0.00     0.284 C 
ATOM      9  H3  UNL d   1      -2.547  -2.002   4.039  0.00  0.00     0.395 HD
ENDBRANCH   1   7
TORSDOF 1
ENDMDL
