MODEL 1
REMARK minimizedAffinity -0.321410269
REMARK minimizedRMSD -1
REMARK  1 active torsions:
REMARK  status: ('A' for Active; 'I' for Inactive)
REMARK    1  A    between atoms: N_2  and  C1_3 
ROOT
ATOM      1  C1  UNL d   1      -3.970  -4.133  -1.248  0.00  0.00     0.143 A 
ATOM      2  C2  UNL d   1      -2.939  -4.361  -2.166  0.00  0.00    -0.057 A 
ATOM      3  C3  UNL d   1      -1.752  -3.621  -2.122  0.00  0.00     0.033 A 
ATOM      4  C4  UNL d   1      -1.586  -2.616  -1.175  0.00  0.00    -0.042 A 
ATOM      5  C5  UNL d   1      -2.607  -2.355  -0.269  0.00  0.00     0.033 A 
ATOM      6  C6  UNL d   1      -3.788  -3.102  -0.313  0.00  0.00    -0.057 A 
ENDROOT
BRANCH   1   7
ATOM      7  N   UNL d   1      -5.213  -4.768  -1.301  0.00  0.00    -0.732 N 
ATOM      8  C   UNL d   1      -5.998  -4.955  -0.100  0.00  0.00     0.284 C 
ATOM      9  H3  UNL d   1      -5.758  -4.488  -2.114  0.00  0.00     0.395 HD
ENDBRANCH   1   7
TORSDOF 1
ENDMDL
