MODEL 1
REMARK minimizedAffinity 1.50034916
REMARK minimizedRMSD -1
REMARK  1 active torsions:
REMARK  status: ('A' for Active; 'I' for Inactive)
REMARK    1  A    between atoms: N_2  and  C1_3 
ROOT
ATOM      1  C1  UNL d   1       2.926   3.444  -5.205  0.00  0.00     0.143 A 
ATOM      2  C2  UNL d   1       3.767   4.562  -5.217  0.00  0.00    -0.057 A 
ATOM      3  C3  UNL d   1       3.290   5.826  -5.587  0.00  0.00     0.033 A 
ATOM      4  C4  UNL d   1       1.966   5.988  -5.980  0.00  0.00    -0.042 A 
ATOM      5  C5  UNL d   1       1.118   4.886  -6.000  0.00  0.00     0.033 A 
ATOM      6  C6  UNL d   1       1.599   3.628  -5.623  0.00  0.00    -0.057 A 
ENDROOT
BRANCH   1   7
ATOM      7  N   UNL d   1       3.364   2.144  -4.942  0.00  0.00    -0.732 N 
ATOM      8  C   UNL d   1       3.423   1.158  -6.000  0.00  0.00     0.284 C 
ATOM      9  H3  UNL d   1       4.161   2.123  -4.310  0.00  0.00     0.395 HD
ENDBRANCH   1   7
TORSDOF 1
ENDMDL
