MODEL 1
REMARK minimizedAffinity 0.487554669
REMARK minimizedRMSD -1
REMARK  1 active torsions:
REMARK  status: ('A' for Active; 'I' for Inactive)
REMARK    1  A    between atoms: N_2  and  C1_3 
ROOT
ATOM      1  C1  UNL d   1       4.586   4.419  -3.745  0.00  0.00     0.143 A 
ATOM      2  C2  UNL d   1       4.510   3.600  -4.877  0.00  0.00    -0.057 A 
ATOM      3  C3  UNL d   1       3.766   3.980  -6.000  0.00  0.00     0.033 A 
ATOM      4  C4  UNL d   1       3.059   5.178  -6.000  0.00  0.00    -0.042 A 
ATOM      5  C5  UNL d   1       3.100   5.997  -4.876  0.00  0.00     0.033 A 
ATOM      6  C6  UNL d   1       3.850   5.614  -3.760  0.00  0.00    -0.057 A 
ENDROOT
BRANCH   1   7
ATOM      7  N   UNL d   1       5.229   4.051  -2.560  0.00  0.00    -0.732 N 
ATOM      8  C   UNL d   1       5.618   2.676  -2.329  0.00  0.00     0.284 C 
ATOM      9  H3  UNL d   1       5.922   4.734  -2.266  0.00  0.00     0.395 HD
ENDBRANCH   1   7
TORSDOF 1
ENDMDL
