MODEL 1
REMARK minimizedAffinity -2.48696947
REMARK minimizedRMSD -1
REMARK  1 active torsions:
REMARK  status: ('A' for Active; 'I' for Inactive)
REMARK    1  A    between atoms: N_2  and  C1_3 
ROOT
ATOM      1  C1  UNL d   1       0.549   0.119   0.133  0.00  0.00     0.143 A 
ATOM      2  C2  UNL d   1       1.382   0.938  -0.636  0.00  0.00    -0.057 A 
ATOM      3  C3  UNL d   1       1.654   2.258  -0.257  0.00  0.00     0.033 A 
ATOM      4  C4  UNL d   1       1.071   2.793   0.887  0.00  0.00    -0.042 A 
ATOM      5  C5  UNL d   1       0.220   2.005   1.654  0.00  0.00     0.033 A 
ATOM      6  C6  UNL d   1      -0.042   0.685   1.274  0.00  0.00    -0.057 A 
ENDROOT
BRANCH   1   7
ATOM      7  N   UNL d   1       0.162  -1.170  -0.243  0.00  0.00    -0.732 N 
ATOM      8  C   UNL d   1      -0.836  -1.369  -1.272  0.00  0.00     0.284 C 
ATOM      9  H3  UNL d   1       0.950  -1.812  -0.298  0.00  0.00     0.395 HD
ENDBRANCH   1   7
TORSDOF 1
ENDMDL
