MODEL 1
REMARK minimizedAffinity -1.68125725
REMARK minimizedRMSD -1
REMARK  1 active torsions:
REMARK  status: ('A' for Active; 'I' for Inactive)
REMARK    1  A    between atoms: N_2  and  C1_3 
ROOT
ATOM      1  C1  UNL d   1      -0.186   0.406   1.381  0.00  0.00     0.143 A 
ATOM      2  C2  UNL d   1      -0.439   0.863   0.084  0.00  0.00    -0.057 A 
ATOM      3  C3  UNL d   1       0.032   2.107  -0.353  0.00  0.00     0.033 A 
ATOM      4  C4  UNL d   1       0.742   2.932   0.514  0.00  0.00    -0.042 A 
ATOM      5  C5  UNL d   1       0.984   2.509   1.816  0.00  0.00     0.033 A 
ATOM      6  C6  UNL d   1       0.516   1.262   2.244  0.00  0.00    -0.057 A 
ENDROOT
BRANCH   1   7
ATOM      7  N   UNL d   1      -0.711  -0.778   1.905  0.00  0.00    -0.732 N 
ATOM      8  C   UNL d   1      -1.641  -0.745   3.013  0.00  0.00     0.284 C 
ATOM      9  H3  UNL d   1      -0.952  -1.450   1.180  0.00  0.00     0.395 HD
ENDBRANCH   1   7
TORSDOF 1
ENDMDL
