MODEL 1
REMARK minimizedAffinity -3.10711312
REMARK minimizedRMSD -1
REMARK  1 active torsions:
REMARK  status: ('A' for Active; 'I' for Inactive)
REMARK    1  A    between atoms: N_2  and  C1_3 
ROOT
ATOM      1  C1  UNL d   1       0.206   0.287   0.114  0.00  0.00     0.143 A 
ATOM      2  C2  UNL d   1       0.140   0.415   1.505  0.00  0.00    -0.057 A 
ATOM      3  C3  UNL d   1       0.724   1.504   2.163  0.00  0.00     0.033 A 
ATOM      4  C4  UNL d   1       1.410   2.474   1.440  0.00  0.00    -0.042 A 
ATOM      5  C5  UNL d   1       1.509   2.355   0.059  0.00  0.00     0.033 A 
ATOM      6  C6  UNL d   1       0.919   1.268  -0.593  0.00  0.00    -0.057 A 
ENDROOT
BRANCH   1   7
ATOM      7  N   UNL d   1      -0.269  -0.823  -0.589  0.00  0.00    -0.732 N 
ATOM      8  C   UNL d   1      -1.097  -0.653  -1.764  0.00  0.00     0.284 C 
ATOM      9  H3  UNL d   1       0.431  -1.556  -0.676  0.00  0.00     0.395 HD
ENDBRANCH   1   7
TORSDOF 1
ENDMDL
