MODEL 1
REMARK minimizedAffinity -4.63951874
REMARK minimizedRMSD -1
REMARK  1 active torsions:
REMARK  status: ('A' for Active; 'I' for Inactive)
REMARK    1  A    between atoms: N_2  and  C1_3 
ROOT
ATOM      1  C1  UNL d   1       0.155  -0.796  -0.107  0.00  0.00     0.143 A 
ATOM      2  C2  UNL d   1       1.263   0.035  -0.307  0.00  0.00    -0.057 A 
ATOM      3  C3  UNL d   1       1.394   1.247   0.381  0.00  0.00     0.033 A 
ATOM      4  C4  UNL d   1       0.402   1.665   1.262  0.00  0.00    -0.042 A 
ATOM      5  C5  UNL d   1      -0.720   0.868   1.456  0.00  0.00     0.033 A 
ATOM      6  C6  UNL d   1      -0.842  -0.345   0.772  0.00  0.00    -0.057 A 
ENDROOT
BRANCH   1   7
ATOM      7  N   UNL d   1      -0.081  -1.966  -0.834  0.00  0.00    -0.732 N 
ATOM      8  C   UNL d   1      -1.315  -2.141  -1.569  0.00  0.00     0.284 C 
ATOM      9  H3  UNL d   1       0.747  -2.289  -1.329  0.00  0.00     0.395 HD
ENDBRANCH   1   7
TORSDOF 1
ENDMDL
