MODEL 1
REMARK minimizedAffinity -3.03436637
REMARK minimizedRMSD -1
REMARK  1 active torsions:
REMARK  status: ('A' for Active; 'I' for Inactive)
REMARK    1  A    between atoms: N_2  and  C1_3 
ROOT
ATOM      1  C1  UNL d   1       1.233   1.149  -0.195  0.00  0.00     0.143 A 
ATOM      2  C2  UNL d   1       2.136   0.107   0.039  0.00  0.00    -0.057 A 
ATOM      3  C3  UNL d   1       1.732  -1.232  -0.024  0.00  0.00     0.033 A 
ATOM      4  C4  UNL d   1       0.406  -1.553  -0.295  0.00  0.00    -0.042 A 
ATOM      5  C5  UNL d   1      -0.515  -0.533  -0.506  0.00  0.00     0.033 A 
ATOM      6  C6  UNL d   1      -0.104   0.802  -0.448  0.00  0.00    -0.057 A 
ENDROOT
BRANCH   1   7
ATOM      7  N   UNL d   1       1.551   2.502  -0.050  0.00  0.00    -0.732 N 
ATOM      8  C   UNL d   1       1.916   3.038   1.244  0.00  0.00     0.284 C 
ATOM      9  H3  UNL d   1       2.116   2.853  -0.820  0.00  0.00     0.395 HD
ENDBRANCH   1   7
TORSDOF 1
ENDMDL
