MODEL 1
REMARK minimizedAffinity -3.68773031
REMARK minimizedRMSD -1
REMARK  1 active torsions:
REMARK  status: ('A' for Active; 'I' for Inactive)
REMARK    1  A    between atoms: N_2  and  C1_3 
ROOT
ATOM      1  C1  UNL d   1       1.987   1.707   0.862  0.00  0.00     0.143 A 
ATOM      2  C2  UNL d   1       0.838   2.116   1.547  0.00  0.00    -0.057 A 
ATOM      3  C3  UNL d   1       0.733   1.977   2.937  0.00  0.00     0.033 A 
ATOM      4  C4  UNL d   1       1.769   1.399   3.664  0.00  0.00    -0.042 A 
ATOM      5  C5  UNL d   1       2.910   0.962   3.000  0.00  0.00     0.033 A 
ATOM      6  C6  UNL d   1       3.011   1.110   1.613  0.00  0.00    -0.057 A 
ENDROOT
BRANCH   1   7
ATOM      7  N   UNL d   1       2.111   1.728  -0.530  0.00  0.00    -0.732 N 
ATOM      8  C   UNL d   1       1.878   0.531  -1.308  0.00  0.00     0.284 C 
ATOM      9  H3  UNL d   1       1.724   2.574  -0.942  0.00  0.00     0.395 HD
ENDBRANCH   1   7
TORSDOF 1
ENDMDL
