MODEL 1
REMARK minimizedAffinity -4.79988813
REMARK minimizedRMSD -1
REMARK  1 active torsions:
REMARK  status: ('A' for Active; 'I' for Inactive)
REMARK    1  A    between atoms: N_2  and  C1_3 
ROOT
ATOM      1  C1  UNL d   1       0.423   0.403   0.009  0.00  0.00     0.143 A 
ATOM      2  C2  UNL d   1       1.250   1.503  -0.243  0.00  0.00    -0.057 A 
ATOM      3  C3  UNL d   1       1.294   2.594   0.632  0.00  0.00     0.033 A 
ATOM      4  C4  UNL d   1       0.486   2.619   1.764  0.00  0.00    -0.042 A 
ATOM      5  C5  UNL d   1      -0.363   1.548   2.021  0.00  0.00     0.033 A 
ATOM      6  C6  UNL d   1      -0.397   0.458   1.147  0.00  0.00    -0.057 A 
ENDROOT
BRANCH   1   7
ATOM      7  N   UNL d   1       0.262  -0.668  -0.874  0.00  0.00    -0.732 N 
ATOM      8  C   UNL d   1      -0.797  -0.657  -1.860  0.00  0.00     0.284 C 
ATOM      9  H3  UNL d   1       1.150  -1.022  -1.221  0.00  0.00     0.395 HD
ENDBRANCH   1   7
TORSDOF 1
ENDMDL
