MODEL 1
REMARK minimizedAffinity -0.355642438
REMARK minimizedRMSD -1
REMARK  1 active torsions:
REMARK  status: ('A' for Active; 'I' for Inactive)
REMARK    1  A    between atoms: N_2  and  C1_3 
ROOT
ATOM      1  C1  UNL d   1       0.368   1.410   1.512  0.00  0.00     0.143 A 
ATOM      2  C2  UNL d   1       0.724   0.224   0.861  0.00  0.00    -0.057 A 
ATOM      3  C3  UNL d   1       1.603   0.229  -0.229  0.00  0.00     0.033 A 
ATOM      4  C4  UNL d   1       2.120   1.429  -0.707  0.00  0.00    -0.042 A 
ATOM      5  C5  UNL d   1       1.760   2.623  -0.091  0.00  0.00     0.033 A 
ATOM      6  C6  UNL d   1       0.888   2.610   1.001  0.00  0.00    -0.057 A 
ENDROOT
BRANCH   1   7
ATOM      7  N   UNL d   1      -0.577   1.481   2.538  0.00  0.00    -0.732 N 
ATOM      8  C   UNL d   1      -1.758   0.644   2.512  0.00  0.00     0.284 C 
ATOM      9  H3  UNL d   1      -0.148   1.565   3.457  0.00  0.00     0.395 HD
ENDBRANCH   1   7
TORSDOF 1
ENDMDL
