MODEL 1
REMARK minimizedAffinity -4.74977636
REMARK minimizedRMSD -1
REMARK  1 active torsions:
REMARK  status: ('A' for Active; 'I' for Inactive)
REMARK    1  A    between atoms: N_2  and  C1_3 
ROOT
ATOM      1  C1  UNL d   1       0.169  -0.272  -0.014  0.00  0.00     0.143 A 
ATOM      2  C2  UNL d   1      -0.371   0.207   1.184  0.00  0.00    -0.057 A 
ATOM      3  C3  UNL d   1       0.081   1.402   1.757  0.00  0.00     0.033 A 
ATOM      4  C4  UNL d   1       1.104   2.126   1.155  0.00  0.00    -0.042 A 
ATOM      5  C5  UNL d   1       1.673   1.656  -0.023  0.00  0.00     0.033 A 
ATOM      6  C6  UNL d   1       1.213   0.466  -0.595  0.00  0.00    -0.057 A 
ENDROOT
BRANCH   1   7
ATOM      7  N   UNL d   1      -0.168  -1.503  -0.582  0.00  0.00    -0.732 N 
ATOM      8  C   UNL d   1      -1.494  -1.729  -1.116  0.00  0.00     0.284 C 
ATOM      9  H3  UNL d   1       0.581  -1.885  -1.155  0.00  0.00     0.395 HD
ENDBRANCH   1   7
TORSDOF 1
ENDMDL
