MODEL 1
REMARK minimizedAffinity -3.51344371
REMARK minimizedRMSD -1
REMARK  1 active torsions:
REMARK  status: ('A' for Active; 'I' for Inactive)
REMARK    1  A    between atoms: N_2  and  C1_3 
ROOT
ATOM      1  C1  UNL d   1       0.100   0.160   0.247  0.00  0.00     0.143 A 
ATOM      2  C2  UNL d   1       1.100   1.023  -0.213  0.00  0.00    -0.057 A 
ATOM      3  C3  UNL d   1       1.356   2.243   0.424  0.00  0.00     0.033 A 
ATOM      4  C4  UNL d   1       0.593   2.636   1.519  0.00  0.00    -0.042 A 
ATOM      5  C5  UNL d   1      -0.422   1.806   1.978  0.00  0.00     0.033 A 
ATOM      6  C6  UNL d   1      -0.669   0.585   1.342  0.00  0.00    -0.057 A 
ENDROOT
BRANCH   1   7
ATOM      7  N   UNL d   1      -0.268  -1.021  -0.403  0.00  0.00    -0.732 N 
ATOM      8  C   UNL d   1      -1.148  -0.987  -1.551  0.00  0.00     0.284 C 
ATOM      9  H3  UNL d   1       0.508  -1.673  -0.493  0.00  0.00     0.395 HD
ENDBRANCH   1   7
TORSDOF 1
ENDMDL
