MODEL 1
REMARK minimizedAffinity -2.35612702
REMARK minimizedRMSD -1
REMARK  1 active torsions:
REMARK  status: ('A' for Active; 'I' for Inactive)
REMARK    1  A    between atoms: N_2  and  C1_3 
ROOT
ATOM      1  C1  UNL d   1      -0.665  -0.473  -1.040  0.00  0.00     0.143 A 
ATOM      2  C2  UNL d   1      -1.074  -1.786  -0.789  0.00  0.00    -0.057 A 
ATOM      3  C3  UNL d   1      -1.923  -2.464  -1.672  0.00  0.00     0.033 A 
ATOM      4  C4  UNL d   1      -2.402  -1.827  -2.812  0.00  0.00    -0.042 A 
ATOM      5  C5  UNL d   1      -2.028  -0.513  -3.069  0.00  0.00     0.033 A 
ATOM      6  C6  UNL d   1      -1.175   0.156  -2.187  0.00  0.00    -0.057 A 
ENDROOT
BRANCH   1   7
ATOM      7  N   UNL d   1       0.098   0.288  -0.150  0.00  0.00    -0.732 N 
ATOM      8  C   UNL d   1      -0.531   0.986   0.950  0.00  0.00     0.284 C 
ATOM      9  H3  UNL d   1       0.977  -0.163   0.092  0.00  0.00     0.395 HD
ENDBRANCH   1   7
TORSDOF 1
ENDMDL
