MODEL 1
REMARK minimizedAffinity -5.74294758
REMARK minimizedRMSD -1
REMARK  1 active torsions:
REMARK  status: ('A' for Active; 'I' for Inactive)
REMARK    1  A    between atoms: C1_2  and  C2_3 
ROOT
ATOM      1  C2  UNL d   1      -0.544  -0.881   0.692  0.00  0.00    -0.077 A 
ATOM      2  C3  UNL d   1      -1.454   0.137   1.012  0.00  0.00     0.002 A 
ATOM      3  C4  UNL d   1      -2.622  -0.157   1.718  0.00  0.00     0.002 A 
ATOM      4  C5  UNL d   1      -2.889  -1.465   2.113  0.00  0.00    -0.004 A 
ATOM      5  C6  UNL d   1      -1.992  -2.485   1.798  0.00  0.00     0.002 A 
ATOM      6  C7  UNL d   1      -0.824  -2.194   1.092  0.00  0.00     0.002 A 
ENDROOT
BRANCH   1   7
ATOM      7  C1  UNL d   1       0.740  -0.559  -0.026  0.00  0.00     0.055 C 
ATOM      8  C   UNL d   1       0.882   0.938  -0.262  0.00  0.00     0.019 C 
ENDBRANCH   1   7
TORSDOF 1
ENDMDL
