MODEL 1
REMARK minimizedAffinity -2.72992849
REMARK minimizedRMSD -1
REMARK  1 active torsions:
REMARK  status: ('A' for Active; 'I' for Inactive)
REMARK    1  A    between atoms: C1_2  and  C2_3 
ROOT
ATOM      1  C2  UNL d   1      -1.033  -0.389   0.434  0.00  0.00    -0.077 A 
ATOM      2  C3  UNL d   1      -0.798  -1.719   0.808  0.00  0.00     0.002 A 
ATOM      3  C4  UNL d   1       0.483  -2.266   0.708  0.00  0.00     0.002 A 
ATOM      4  C5  UNL d   1       1.539  -1.489   0.237  0.00  0.00    -0.004 A 
ATOM      5  C6  UNL d   1       1.315  -0.165  -0.140  0.00  0.00     0.002 A 
ATOM      6  C7  UNL d   1       0.035   0.383  -0.041  0.00  0.00     0.002 A 
ENDROOT
BRANCH   1   7
ATOM      7  C1  UNL d   1      -2.403   0.217   0.588  0.00  0.00     0.055 C 
ATOM      8  C   UNL d   1      -2.327   1.613   1.189  0.00  0.00     0.019 C 
ENDBRANCH   1   7
TORSDOF 1
ENDMDL
