MODEL 1
REMARK minimizedAffinity -1.67155123
REMARK minimizedRMSD -1
REMARK  1 active torsions:
REMARK  status: ('A' for Active; 'I' for Inactive)
REMARK    1  A    between atoms: C1_2  and  C2_3 
ROOT
ATOM      1  C2  UNL d   1       0.073  -0.241   0.369  0.00  0.00    -0.077 A 
ATOM      2  C3  UNL d   1       0.983  -1.307   0.392  0.00  0.00     0.002 A 
ATOM      3  C4  UNL d   1       0.574  -2.577   0.801  0.00  0.00     0.002 A 
ATOM      4  C5  UNL d   1      -0.748  -2.795   1.186  0.00  0.00    -0.004 A 
ATOM      5  C6  UNL d   1      -1.660  -1.741   1.168  0.00  0.00     0.002 A 
ATOM      6  C7  UNL d   1      -1.252  -0.470   0.761  0.00  0.00     0.002 A 
ENDROOT
BRANCH   1   7
ATOM      7  C1  UNL d   1       0.501   1.118  -0.119  0.00  0.00     0.055 C 
ATOM      8  C   UNL d   1       0.635   1.146  -1.634  0.00  0.00     0.019 C 
ENDBRANCH   1   7
TORSDOF 1
ENDMDL
