MODEL 1
REMARK minimizedAffinity -3.66987014
REMARK minimizedRMSD -1
REMARK  1 active torsions:
REMARK  status: ('A' for Active; 'I' for Inactive)
REMARK    1  A    between atoms: C1_2  and  C2_3 
ROOT
ATOM      1  C2  UNL d   1       0.898   2.443  -1.541  0.00  0.00    -0.077 A 
ATOM      2  C3  UNL d   1      -0.063   2.985  -2.406  0.00  0.00     0.002 A 
ATOM      3  C4  UNL d   1       0.111   2.912  -3.789  0.00  0.00     0.002 A 
ATOM      4  C5  UNL d   1       1.241   2.294  -4.319  0.00  0.00    -0.004 A 
ATOM      5  C6  UNL d   1       2.204   1.753  -3.467  0.00  0.00     0.002 A 
ATOM      6  C7  UNL d   1       2.032   1.826  -2.084  0.00  0.00     0.002 A 
ENDROOT
BRANCH   1   7
ATOM      7  C1  UNL d   1       0.688   2.477  -0.049  0.00  0.00     0.055 C 
ATOM      8  C   UNL d   1       0.242   1.121   0.478  0.00  0.00     0.019 C 
ENDBRANCH   1   7
TORSDOF 1
ENDMDL
