MODEL 1
REMARK minimizedAffinity -4.4514389
REMARK minimizedRMSD -1
REMARK  1 active torsions:
REMARK  status: ('A' for Active; 'I' for Inactive)
REMARK    1  A    between atoms: C1_2  and  C2_3 
ROOT
ATOM      1  C2  UNL d   1      -0.467   0.126   0.519  0.00  0.00    -0.077 A 
ATOM      2  C3  UNL d   1      -1.419  -0.900   0.439  0.00  0.00     0.002 A 
ATOM      3  C4  UNL d   1      -1.021  -2.237   0.463  0.00  0.00     0.002 A 
ATOM      4  C5  UNL d   1       0.330  -2.562   0.570  0.00  0.00    -0.004 A 
ATOM      5  C6  UNL d   1       1.286  -1.549   0.648  0.00  0.00     0.002 A 
ATOM      6  C7  UNL d   1       0.889  -0.211   0.623  0.00  0.00     0.002 A 
ENDROOT
BRANCH   1   7
ATOM      7  C1  UNL d   1      -0.898   1.569   0.543  0.00  0.00     0.055 C 
ATOM      8  C   UNL d   1      -2.235   1.735   1.251  0.00  0.00     0.019 C 
ENDBRANCH   1   7
TORSDOF 1
ENDMDL
