MODEL 1
REMARK minimizedAffinity -3.9174757
REMARK minimizedRMSD -1
REMARK  1 active torsions:
REMARK  status: ('A' for Active; 'I' for Inactive)
REMARK    1  A    between atoms: C1_2  and  C2_3 
ROOT
ATOM      1  C2  UNL d   1       0.430   0.807  -0.358  0.00  0.00    -0.077 A 
ATOM      2  C3  UNL d   1       1.427  -0.136  -0.072  0.00  0.00     0.002 A 
ATOM      3  C4  UNL d   1       1.093  -1.367   0.496  0.00  0.00     0.002 A 
ATOM      4  C5  UNL d   1      -0.237  -1.668   0.778  0.00  0.00    -0.004 A 
ATOM      5  C6  UNL d   1      -1.236  -0.736   0.499  0.00  0.00     0.002 A 
ATOM      6  C7  UNL d   1      -0.905   0.496  -0.067  0.00  0.00     0.002 A 
ENDROOT
BRANCH   1   7
ATOM      7  C1  UNL d   1       0.782   2.116  -1.016  0.00  0.00     0.055 C 
ATOM      8  C   UNL d   1      -0.186   2.448  -2.142  0.00  0.00     0.019 C 
ENDBRANCH   1   7
TORSDOF 1
ENDMDL
