MODEL 1
REMARK minimizedAffinity -0.562979519
REMARK minimizedRMSD -1
REMARK  1 active torsions:
REMARK  status: ('A' for Active; 'I' for Inactive)
REMARK    1  A    between atoms: C1_2  and  C2_3 
ROOT
ATOM      1  C2  UNL d   1      -0.255  -0.121   0.232  0.00  0.00    -0.077 A 
ATOM      2  C3  UNL d   1       1.027  -0.664   0.070  0.00  0.00     0.002 A 
ATOM      3  C4  UNL d   1       1.289  -1.982   0.448  0.00  0.00     0.002 A 
ATOM      4  C5  UNL d   1       0.273  -2.769   0.986  0.00  0.00    -0.004 A 
ATOM      5  C6  UNL d   1      -1.005  -2.238   1.153  0.00  0.00     0.002 A 
ATOM      6  C7  UNL d   1      -1.268  -0.920   0.777  0.00  0.00     0.002 A 
ENDROOT
BRANCH   1   7
ATOM      7  C1  UNL d   1      -0.552   1.285  -0.221  0.00  0.00     0.055 C 
ATOM      8  C   UNL d   1       0.130   1.596  -1.546  0.00  0.00     0.019 C 
ENDBRANCH   1   7
TORSDOF 1
ENDMDL
