MODEL 1
REMARK minimizedAffinity -6.4383769
REMARK minimizedRMSD -1
REMARK  1 active torsions:
REMARK  status: ('A' for Active; 'I' for Inactive)
REMARK    1  A    between atoms: C1_2  and  C2_3 
ROOT
ATOM      1  C2  UNL d   1      -0.015  -0.245   0.193  0.00  0.00    -0.077 A 
ATOM      2  C3  UNL d   1      -1.412  -0.359   0.184  0.00  0.00     0.002 A 
ATOM      3  C4  UNL d   1      -2.023  -1.575   0.498  0.00  0.00     0.002 A 
ATOM      4  C5  UNL d   1      -1.245  -2.683   0.827  0.00  0.00    -0.004 A 
ATOM      5  C6  UNL d   1       0.145  -2.580   0.837  0.00  0.00     0.002 A 
ATOM      6  C7  UNL d   1       0.758  -1.366   0.522  0.00  0.00     0.002 A 
ENDROOT
BRANCH   1   7
ATOM      7  C1  UNL d   1       0.645   1.078  -0.097  0.00  0.00     0.055 C 
ATOM      8  C   UNL d   1       0.464   1.479  -1.554  0.00  0.00     0.019 C 
ENDBRANCH   1   7
TORSDOF 1
ENDMDL
