MODEL 1
REMARK minimizedAffinity -3.31453824
REMARK minimizedRMSD -1
REMARK  1 active torsions:
REMARK  status: ('A' for Active; 'I' for Inactive)
REMARK    1  A    between atoms: C1_2  and  C2_3 
ROOT
ATOM      1  C2  UNL d   1      -0.318  -0.100   0.223  0.00  0.00    -0.077 A 
ATOM      2  C3  UNL d   1      -1.644  -0.339   0.609  0.00  0.00     0.002 A 
ATOM      3  C4  UNL d   1      -2.031  -1.600   1.065  0.00  0.00     0.002 A 
ATOM      4  C5  UNL d   1      -1.097  -2.631   1.144  0.00  0.00    -0.004 A 
ATOM      5  C6  UNL d   1       0.224  -2.404   0.760  0.00  0.00     0.002 A 
ATOM      6  C7  UNL d   1       0.612  -1.144   0.303  0.00  0.00     0.002 A 
ENDROOT
BRANCH   1   7
ATOM      7  C1  UNL d   1       0.112   1.273  -0.222  0.00  0.00     0.055 C 
ATOM      8  C   UNL d   1       1.418   1.219  -1.002  0.00  0.00     0.019 C 
ENDBRANCH   1   7
TORSDOF 1
ENDMDL
