MODEL 1
REMARK minimizedAffinity -4.48815393
REMARK minimizedRMSD -1
REMARK  1 active torsions:
REMARK  status: ('A' for Active; 'I' for Inactive)
REMARK    1  A    between atoms: C1_2  and  C2_3 
ROOT
ATOM      1  C2  UNL d   1       0.293  -1.191   0.438  0.00  0.00    -0.077 A 
ATOM      2  C3  UNL d   1      -0.747  -0.686  -0.356  0.00  0.00     0.002 A 
ATOM      3  C4  UNL d   1      -2.016  -1.266  -0.309  0.00  0.00     0.002 A 
ATOM      4  C5  UNL d   1      -2.258  -2.350   0.532  0.00  0.00    -0.004 A 
ATOM      5  C6  UNL d   1      -1.230  -2.860   1.323  0.00  0.00     0.002 A 
ATOM      6  C7  UNL d   1       0.039  -2.283   1.277  0.00  0.00     0.002 A 
ENDROOT
BRANCH   1   7
ATOM      7  C1  UNL d   1       1.649  -0.536   0.425  0.00  0.00     0.055 C 
ATOM      8  C   UNL d   1       2.760  -1.561   0.602  0.00  0.00     0.019 C 
ENDBRANCH   1   7
TORSDOF 1
ENDMDL
