MODEL 1
REMARK minimizedAffinity -5.66985846
REMARK minimizedRMSD -1
REMARK  1 active torsions:
REMARK  status: ('A' for Active; 'I' for Inactive)
REMARK    1  A    between atoms: C1_2  and  C2_3 
ROOT
ATOM      1  C2  UNL d   1      -0.130  -0.213   0.093  0.00  0.00    -0.077 A 
ATOM      2  C3  UNL d   1      -1.530  -0.246   0.143  0.00  0.00     0.002 A 
ATOM      3  C4  UNL d   1      -2.196  -1.414   0.522  0.00  0.00     0.002 A 
ATOM      4  C5  UNL d   1      -1.470  -2.554   0.858  0.00  0.00    -0.004 A 
ATOM      5  C6  UNL d   1      -0.077  -2.532   0.809  0.00  0.00     0.002 A 
ATOM      6  C7  UNL d   1       0.590  -1.367   0.429  0.00  0.00     0.002 A 
ENDROOT
BRANCH   1   7
ATOM      7  C1  UNL d   1       0.592   1.059  -0.268  0.00  0.00     0.055 C 
ATOM      8  C   UNL d   1       0.159   1.572  -1.634  0.00  0.00     0.019 C 
ENDBRANCH   1   7
TORSDOF 1
ENDMDL
