MODEL 1
REMARK minimizedAffinity -4.04416943
REMARK minimizedRMSD -1
REMARK  2 active torsions:
REMARK  status: ('A' for Active; 'I' for Inactive)
REMARK    1  A    between atoms: C1_2  and  C2_3 
REMARK    2  A    between atoms: C2_3  and  C3_4 
ROOT
ATOM      1  C3  UNL d   1      -0.380   0.145   0.095  0.00  0.00    -0.075 A 
ATOM      2  C4  UNL d   1      -0.266   0.235   1.490  0.00  0.00     0.002 A 
ATOM      3  C5  UNL d   1      -1.085   1.102   2.214  0.00  0.00     0.002 A 
ATOM      4  C6  UNL d   1      -2.020   1.896   1.553  0.00  0.00    -0.004 A 
ATOM      5  C7  UNL d   1      -2.131   1.827   0.166  0.00  0.00     0.002 A 
ATOM      6  C8  UNL d   1      -1.316   0.957  -0.560  0.00  0.00     0.002 A 
ENDROOT
BRANCH   1   7
ATOM      7  C2  UNL d   1       0.483  -0.813  -0.691  0.00  0.00     0.056 C 
BRANCH   7   8
ATOM      8  C1  UNL d   1      -0.266  -1.564  -1.796  0.00  0.00     0.007 C 
ATOM      9  C   UNL d   1       0.012  -3.062  -1.799  0.00  0.00     0.009 C 
ENDBRANCH   7   8
ENDBRANCH   1   7
TORSDOF 2
ENDMDL
