MODEL 1
REMARK minimizedAffinity -3.39676595
REMARK minimizedRMSD -1
REMARK  2 active torsions:
REMARK  status: ('A' for Active; 'I' for Inactive)
REMARK    1  A    between atoms: C1_2  and  C2_3 
REMARK    2  A    between atoms: C2_3  and  C3_4 
ROOT
ATOM      1  C3  UNL d   1      -0.193   0.246  -0.129  0.00  0.00    -0.075 A 
ATOM      2  C4  UNL d   1      -1.157   1.138  -0.621  0.00  0.00     0.002 A 
ATOM      3  C5  UNL d   1      -1.882   1.949   0.253  0.00  0.00     0.002 A 
ATOM      4  C6  UNL d   1      -1.660   1.872   1.626  0.00  0.00    -0.004 A 
ATOM      5  C7  UNL d   1      -0.717   0.978   2.126  0.00  0.00     0.002 A 
ATOM      6  C8  UNL d   1       0.014   0.168   1.255  0.00  0.00     0.002 A 
ENDROOT
BRANCH   1   7
ATOM      7  C2  UNL d   1       0.616  -0.613  -1.071  0.00  0.00     0.056 C 
BRANCH   7   8
ATOM      8  C1  UNL d   1       1.088  -1.936  -0.459  0.00  0.00     0.007 C 
ATOM      9  C   UNL d   1       1.245  -3.050  -1.486  0.00  0.00     0.009 C 
ENDBRANCH   7   8
ENDBRANCH   1   7
TORSDOF 2
ENDMDL
