MODEL 1
REMARK minimizedAffinity -4.38435411
REMARK minimizedRMSD -1
REMARK  2 active torsions:
REMARK  status: ('A' for Active; 'I' for Inactive)
REMARK    1  A    between atoms: C1_2  and  C2_3 
REMARK    2  A    between atoms: C2_3  and  C3_4 
ROOT
ATOM      1  C3  UNL d   1       0.804  -0.743  -0.874  0.00  0.00    -0.075 A 
ATOM      2  C4  UNL d   1       0.014  -0.852   0.280  0.00  0.00     0.002 A 
ATOM      3  C5  UNL d   1      -0.460   0.292   0.924  0.00  0.00     0.002 A 
ATOM      4  C6  UNL d   1      -0.143   1.555   0.430  0.00  0.00    -0.004 A 
ATOM      5  C7  UNL d   1       0.655   1.675  -0.706  0.00  0.00     0.002 A 
ATOM      6  C8  UNL d   1       1.127   0.533  -1.355  0.00  0.00     0.002 A 
ENDROOT
BRANCH   1   7
ATOM      7  C2  UNL d   1       1.296  -1.977  -1.592  0.00  0.00     0.056 C 
BRANCH   7   8
ATOM      8  C1  UNL d   1       0.313  -2.527  -2.632  0.00  0.00     0.007 C 
ATOM      9  C   UNL d   1      -0.261  -3.886  -2.256  0.00  0.00     0.009 C 
ENDBRANCH   7   8
ENDBRANCH   1   7
TORSDOF 2
ENDMDL
