MODEL 1
REMARK minimizedAffinity -5.1434803
REMARK minimizedRMSD -1
REMARK  2 active torsions:
REMARK  status: ('A' for Active; 'I' for Inactive)
REMARK    1  A    between atoms: C1_2  and  C2_3 
REMARK    2  A    between atoms: C2_3  and  C3_4 
ROOT
ATOM      1  C3  UNL d   1       0.582  -0.675  -0.534  0.00  0.00    -0.075 A 
ATOM      2  C4  UNL d   1      -0.196  -0.590   0.629  0.00  0.00     0.002 A 
ATOM      3  C5  UNL d   1      -0.854   0.596   0.955  0.00  0.00     0.002 A 
ATOM      4  C6  UNL d   1      -0.736   1.712   0.130  0.00  0.00    -0.004 A 
ATOM      5  C7  UNL d   1       0.048   1.643  -1.020  0.00  0.00     0.002 A 
ATOM      6  C8  UNL d   1       0.705   0.457  -1.351  0.00  0.00     0.002 A 
ENDROOT
BRANCH   1   7
ATOM      7  C2  UNL d   1       1.274  -1.965  -0.908  0.00  0.00     0.056 C 
BRANCH   7   8
ATOM      8  C1  UNL d   1       0.770  -2.587  -2.214  0.00  0.00     0.007 C 
ATOM      9  C   UNL d   1       0.009  -3.889  -2.005  0.00  0.00     0.009 C 
ENDBRANCH   7   8
ENDBRANCH   1   7
TORSDOF 2
ENDMDL
