MODEL 1
REMARK minimizedAffinity 4.05557442
REMARK minimizedRMSD -1
REMARK  2 active torsions:
REMARK  status: ('A' for Active; 'I' for Inactive)
REMARK    1  A    between atoms: C1_2  and  C2_3 
REMARK    2  A    between atoms: C2_3  and  C3_4 
ROOT
ATOM      1  C3  UNL d   1      -0.178   0.343  -0.350  0.00  0.00    -0.075 A 
ATOM      2  C4  UNL d   1       0.618   1.496  -0.415  0.00  0.00     0.002 A 
ATOM      3  C5  UNL d   1       0.117   2.671  -0.977  0.00  0.00     0.002 A 
ATOM      4  C6  UNL d   1      -1.178   2.705  -1.490  0.00  0.00    -0.004 A 
ATOM      5  C7  UNL d   1      -1.971   1.560  -1.445  0.00  0.00     0.002 A 
ATOM      6  C8  UNL d   1      -1.474   0.385  -0.879  0.00  0.00     0.002 A 
ENDROOT
BRANCH   1   7
ATOM      7  C2  UNL d   1       0.348  -0.923   0.284  0.00  0.00     0.056 C 
BRANCH   7   8
ATOM      8  C1  UNL d   1       1.575  -0.711   1.177  0.00  0.00     0.007 C 
ATOM      9  C   UNL d   1       1.490  -1.458   2.501  0.00  0.00     0.009 C 
ENDBRANCH   7   8
ENDBRANCH   1   7
TORSDOF 2
ENDMDL
