MODEL 1
REMARK minimizedAffinity -4.65950871
REMARK minimizedRMSD -1
REMARK  2 active torsions:
REMARK  status: ('A' for Active; 'I' for Inactive)
REMARK    1  A    between atoms: C1_2  and  C2_3 
REMARK    2  A    between atoms: C2_3  and  C3_4 
ROOT
ATOM      1  C3  UNL d   1      -0.145  -0.399   0.385  0.00  0.00    -0.075 A 
ATOM      2  C4  UNL d   1      -0.620  -0.490   1.701  0.00  0.00     0.002 A 
ATOM      3  C5  UNL d   1      -1.394   0.535   2.248  0.00  0.00     0.002 A 
ATOM      4  C6  UNL d   1      -1.692   1.665   1.491  0.00  0.00    -0.004 A 
ATOM      5  C7  UNL d   1      -1.212   1.774   0.188  0.00  0.00     0.002 A 
ATOM      6  C8  UNL d   1      -0.442   0.748  -0.363  0.00  0.00     0.002 A 
ENDROOT
BRANCH   1   7
ATOM      7  C2  UNL d   1       0.667  -1.518  -0.222  0.00  0.00     0.056 C 
BRANCH   7   8
ATOM      8  C1  UNL d   1       0.155  -1.991  -1.587  0.00  0.00     0.007 C 
ATOM      9  C   UNL d   1       0.245  -3.500  -1.771  0.00  0.00     0.009 C 
ENDBRANCH   7   8
ENDBRANCH   1   7
TORSDOF 2
ENDMDL
