MODEL 1
REMARK minimizedAffinity -3.41038251
REMARK minimizedRMSD -1
REMARK  2 active torsions:
REMARK  status: ('A' for Active; 'I' for Inactive)
REMARK    1  A    between atoms: C1_2  and  C2_3 
REMARK    2  A    between atoms: C2_3  and  C3_4 
ROOT
ATOM      1  C3  UNL d   1       0.018  -0.640  -0.026  0.00  0.00    -0.075 A 
ATOM      2  C4  UNL d   1      -0.365  -0.606   1.323  0.00  0.00     0.002 A 
ATOM      3  C5  UNL d   1      -0.939   0.543   1.867  0.00  0.00     0.002 A 
ATOM      4  C6  UNL d   1      -1.127   1.674   1.075  0.00  0.00    -0.004 A 
ATOM      5  C7  UNL d   1      -0.734   1.656  -0.262  0.00  0.00     0.002 A 
ATOM      6  C8  UNL d   1      -0.164   0.506  -0.810  0.00  0.00     0.002 A 
ENDROOT
BRANCH   1   7
ATOM      7  C2  UNL d   1       0.613  -1.891  -0.628  0.00  0.00     0.056 C 
BRANCH   7   8
ATOM      8  C1  UNL d   1      -0.020  -2.302  -1.962  0.00  0.00     0.007 C 
ATOM      9  C   UNL d   1      -0.007  -3.807  -2.193  0.00  0.00     0.009 C 
ENDBRANCH   7   8
ENDBRANCH   1   7
TORSDOF 2
ENDMDL
