MODEL 1
REMARK minimizedAffinity -2.73868537
REMARK minimizedRMSD -1
REMARK  2 active torsions:
REMARK  status: ('A' for Active; 'I' for Inactive)
REMARK    1  A    between atoms: C1_2  and  C2_3 
REMARK    2  A    between atoms: C2_3  and  C3_4 
ROOT
ATOM      1  C3  UNL d   1       0.498  -0.491  -0.207  0.00  0.00    -0.075 A 
ATOM      2  C4  UNL d   1      -0.363   0.596  -0.411  0.00  0.00     0.002 A 
ATOM      3  C5  UNL d   1      -1.083   1.139   0.654  0.00  0.00     0.002 A 
ATOM      4  C6  UNL d   1      -0.960   0.595   1.931  0.00  0.00    -0.004 A 
ATOM      5  C7  UNL d   1      -0.120  -0.496   2.141  0.00  0.00     0.002 A 
ATOM      6  C8  UNL d   1       0.606  -1.038   1.079  0.00  0.00     0.002 A 
ENDROOT
BRANCH   1   7
ATOM      7  C2  UNL d   1       1.303  -1.064  -1.350  0.00  0.00     0.056 C 
BRANCH   7   8
ATOM      8  C1  UNL d   1       1.148  -2.579  -1.524  0.00  0.00     0.007 C 
ATOM      9  C   UNL d   1       0.383  -2.963  -2.783  0.00  0.00     0.009 C 
ENDBRANCH   7   8
ENDBRANCH   1   7
TORSDOF 2
ENDMDL
