MODEL 1
REMARK minimizedAffinity -5.90605688
REMARK minimizedRMSD -1
REMARK  2 active torsions:
REMARK  status: ('A' for Active; 'I' for Inactive)
REMARK    1  A    between atoms: C1_2  and  C2_3 
REMARK    2  A    between atoms: C2_3  and  C3_4 
ROOT
ATOM      1  C3  UNL d   1      -0.093  -0.165   0.060  0.00  0.00    -0.075 A 
ATOM      2  C4  UNL d   1      -0.299  -0.302   1.440  0.00  0.00     0.002 A 
ATOM      3  C5  UNL d   1      -0.965   0.691   2.159  0.00  0.00     0.002 A 
ATOM      4  C6  UNL d   1      -1.423   1.836   1.511  0.00  0.00    -0.004 A 
ATOM      5  C7  UNL d   1      -1.209   1.990   0.143  0.00  0.00     0.002 A 
ATOM      6  C8  UNL d   1      -0.547   0.996  -0.580  0.00  0.00     0.002 A 
ENDROOT
BRANCH   1   7
ATOM      7  C2  UNL d   1       0.600  -1.250  -0.729  0.00  0.00     0.056 C 
BRANCH   7   8
ATOM      8  C1  UNL d   1      -0.276  -1.892  -1.810  0.00  0.00     0.007 C 
ATOM      9  C   UNL d   1       0.087  -3.343  -2.093  0.00  0.00     0.009 C 
ENDBRANCH   7   8
ENDBRANCH   1   7
TORSDOF 2
ENDMDL
