MODEL 1
REMARK minimizedAffinity -5.01834869
REMARK minimizedRMSD -1
REMARK  2 active torsions:
REMARK  status: ('A' for Active; 'I' for Inactive)
REMARK    1  A    between atoms: C1_2  and  C2_3 
REMARK    2  A    between atoms: C2_3  and  C3_4 
ROOT
ATOM      1  C3  UNL d   1      -0.255   0.410   0.103  0.00  0.00    -0.075 A 
ATOM      2  C4  UNL d   1      -0.546   0.371   1.475  0.00  0.00     0.002 A 
ATOM      3  C5  UNL d   1      -1.128   1.470   2.107  0.00  0.00     0.002 A 
ATOM      4  C6  UNL d   1      -1.417   2.623   1.380  0.00  0.00    -0.004 A 
ATOM      5  C7  UNL d   1      -1.117   2.678   0.021  0.00  0.00     0.002 A 
ATOM      6  C8  UNL d   1      -0.539   1.579  -0.615  0.00  0.00     0.002 A 
ENDROOT
BRANCH   1   7
ATOM      7  C2  UNL d   1       0.348  -0.787  -0.592  0.00  0.00     0.056 C 
BRANCH   7   8
ATOM      8  C1  UNL d   1      -0.565  -2.017  -0.622  0.00  0.00     0.007 C 
ATOM      9  C   UNL d   1      -0.154  -3.045  -1.668  0.00  0.00     0.009 C 
ENDBRANCH   7   8
ENDBRANCH   1   7
TORSDOF 2
ENDMDL
