MODEL 1
REMARK minimizedAffinity -3.22243285
REMARK minimizedRMSD -1
REMARK  2 active torsions:
REMARK  status: ('A' for Active; 'I' for Inactive)
REMARK    1  A    between atoms: C1_2  and  C2_3 
REMARK    2  A    between atoms: C2_3  and  C3_4 
ROOT
ATOM      1  C3  UNL d   1       0.308  -0.233  -0.285  0.00  0.00    -0.075 A 
ATOM      2  C4  UNL d   1       0.473  -0.193   1.107  0.00  0.00     0.002 A 
ATOM      3  C5  UNL d   1      -0.327   0.637   1.892  0.00  0.00     0.002 A 
ATOM      4  C6  UNL d   1      -1.294   1.444   1.296  0.00  0.00    -0.004 A 
ATOM      5  C7  UNL d   1      -1.456   1.425  -0.087  0.00  0.00     0.002 A 
ATOM      6  C8  UNL d   1      -0.659   0.592  -0.875  0.00  0.00     0.002 A 
ENDROOT
BRANCH   1   7
ATOM      7  C2  UNL d   1       1.151  -1.151  -1.138  0.00  0.00     0.056 C 
BRANCH   7   8
ATOM      8  C1  UNL d   1       0.345  -2.204  -1.906  0.00  0.00     0.007 C 
ATOM      9  C   UNL d   1       1.015  -3.571  -1.933  0.00  0.00     0.009 C 
ENDBRANCH   7   8
ENDBRANCH   1   7
TORSDOF 2
ENDMDL
