MODEL 1
REMARK minimizedAffinity -1.59572625
REMARK minimizedRMSD -1
REMARK  1 active torsions:
REMARK  status: ('A' for Active; 'I' for Inactive)
REMARK    1  A    between atoms: C1_2  and  C2_3 
ROOT
ATOM      1  C2  UNL d   1       0.182   0.091  -0.755  0.00  0.00    -0.081 A 
ATOM      2  C3  UNL d   1       1.199   0.147   0.205  0.00  0.00     0.006 A 
ATOM      3  C4  UNL d   1       0.915  -0.084   1.553  0.00  0.00     0.002 A 
ATOM      4  C5  UNL d   1      -0.388  -0.384   1.962  0.00  0.00    -0.080 A 
ATOM      5  C6  UNL d   1      -0.701  -0.665   3.402  0.00  0.00     0.076 C 
ATOM      6  C7  UNL d   1      -1.408  -0.424   1.005  0.00  0.00     0.002 A 
ATOM      7  C8  UNL d   1      -1.125  -0.192  -0.342  0.00  0.00     0.006 A 
ENDROOT
BRANCH   1   8
ATOM      8  C1  UNL d   1       0.496   0.276  -2.218  0.00  0.00     0.054 C 
ATOM      9  C   UNL d   1       0.934  -1.032  -2.860  0.00  0.00     0.018 C 
ENDBRANCH   1   8
TORSDOF 1
ENDMDL
