MODEL 1
REMARK minimizedAffinity -5.20468521
REMARK minimizedRMSD -1
REMARK  1 active torsions:
REMARK  status: ('A' for Active; 'I' for Inactive)
REMARK    1  A    between atoms: C1_2  and  C2_3 
ROOT
ATOM      1  C2  UNL d   1       0.505  -0.159  -0.843  0.00  0.00    -0.081 A 
ATOM      2  C3  UNL d   1       1.365  -0.366   0.243  0.00  0.00     0.006 A 
ATOM      3  C4  UNL d   1       0.867  -0.376   1.548  0.00  0.00     0.002 A 
ATOM      4  C5  UNL d   1      -0.498  -0.189   1.789  0.00  0.00    -0.080 A 
ATOM      5  C6  UNL d   1      -1.049  -0.228   3.183  0.00  0.00     0.076 C 
ATOM      6  C7  UNL d   1      -1.354   0.035   0.706  0.00  0.00     0.002 A 
ATOM      7  C8  UNL d   1      -0.857   0.046  -0.600  0.00  0.00     0.006 A 
ENDROOT
BRANCH   1   8
ATOM      8  C1  UNL d   1       1.029  -0.212  -2.255  0.00  0.00     0.054 C 
ATOM      9  C   UNL d   1       0.852  -1.597  -2.860  0.00  0.00     0.018 C 
ENDBRANCH   1   8
TORSDOF 1
ENDMDL
