MODEL 1
REMARK minimizedAffinity -3.17577362
REMARK minimizedRMSD -1
REMARK  1 active torsions:
REMARK  status: ('A' for Active; 'I' for Inactive)
REMARK    1  A    between atoms: C1_2  and  C2_3 
ROOT
ATOM      1  C2  UNL d   1       0.048   0.404  -0.808  0.00  0.00    -0.081 A 
ATOM      2  C3  UNL d   1       1.069   0.740   0.090  0.00  0.00     0.006 A 
ATOM      3  C4  UNL d   1       0.922   0.490   1.456  0.00  0.00     0.002 A 
ATOM      4  C5  UNL d   1      -0.245  -0.107   1.947  0.00  0.00    -0.080 A 
ATOM      5  C6  UNL d   1      -0.403  -0.409   3.407  0.00  0.00     0.076 C 
ATOM      6  C7  UNL d   1      -1.272  -0.427   1.053  0.00  0.00     0.002 A 
ATOM      7  C8  UNL d   1      -1.126  -0.177  -0.314  0.00  0.00     0.006 A 
ENDROOT
BRANCH   1   8
ATOM      8  C1  UNL d   1       0.230   0.613  -2.289  0.00  0.00     0.054 C 
ATOM      9  C   UNL d   1       0.599  -0.687  -2.990  0.00  0.00     0.018 C 
ENDBRANCH   1   8
TORSDOF 1
ENDMDL
