MODEL 1
REMARK minimizedAffinity -1.16177928
REMARK minimizedRMSD -1
REMARK  1 active torsions:
REMARK  status: ('A' for Active; 'I' for Inactive)
REMARK    1  A    between atoms: C1_2  and  C2_3 
ROOT
ATOM      1  C2  UNL d   1       0.446   0.080  -0.846  0.00  0.00    -0.081 A 
ATOM      2  C3  UNL d   1       1.307   0.103   0.258  0.00  0.00     0.006 A 
ATOM      3  C4  UNL d   1       0.824  -0.175   1.539  0.00  0.00     0.002 A 
ATOM      4  C5  UNL d   1      -0.525  -0.488   1.736  0.00  0.00    -0.080 A 
ATOM      5  C6  UNL d   1      -1.050  -0.817   3.102  0.00  0.00     0.076 C 
ATOM      6  C7  UNL d   1      -1.389  -0.493   0.636  0.00  0.00     0.002 A 
ATOM      7  C8  UNL d   1      -0.907  -0.215  -0.645  0.00  0.00     0.006 A 
ENDROOT
BRANCH   1   8
ATOM      8  C1  UNL d   1       0.977   0.315  -2.237  0.00  0.00     0.054 C 
ATOM      9  C   UNL d   1       1.315  -0.997  -2.930  0.00  0.00     0.018 C 
ENDBRANCH   1   8
TORSDOF 1
ENDMDL
