MODEL 1
REMARK minimizedAffinity -4.02379274
REMARK minimizedRMSD -1
REMARK  1 active torsions:
REMARK  status: ('A' for Active; 'I' for Inactive)
REMARK    1  A    between atoms: C1_2  and  C2_3 
ROOT
ATOM      1  C2  UNL d   1       0.497   0.785  -0.433  0.00  0.00    -0.081 A 
ATOM      2  C3  UNL d   1       1.161   0.812   0.799  0.00  0.00     0.006 A 
ATOM      3  C4  UNL d   1       0.526   0.357   1.956  0.00  0.00     0.002 A 
ATOM      4  C5  UNL d   1      -0.781  -0.140   1.900  0.00  0.00    -0.080 A 
ATOM      5  C6  UNL d   1      -1.464  -0.660   3.130  0.00  0.00     0.076 C 
ATOM      6  C7  UNL d   1      -1.451  -0.151   0.672  0.00  0.00     0.002 A 
ATOM      7  C8  UNL d   1      -0.816   0.305  -0.486  0.00  0.00     0.006 A 
ENDROOT
BRANCH   1   8
ATOM      8  C1  UNL d   1       1.203   1.215  -1.694  0.00  0.00     0.054 C 
ATOM      9  C   UNL d   1       1.507   0.024  -2.592  0.00  0.00     0.018 C 
ENDBRANCH   1   8
TORSDOF 1
ENDMDL
