MODEL 1
REMARK minimizedAffinity -3.90377259
REMARK minimizedRMSD -1
REMARK  1 active torsions:
REMARK  status: ('A' for Active; 'I' for Inactive)
REMARK    1  A    between atoms: C1_2  and  C2_3 
ROOT
ATOM      1  C2  UNL d   1       0.300   0.310  -0.565  0.00  0.00    -0.081 A 
ATOM      2  C3  UNL d   1      -1.011  -0.160  -0.416  0.00  0.00     0.006 A 
ATOM      3  C4  UNL d   1      -1.478  -0.569   0.835  0.00  0.00     0.002 A 
ATOM      4  C5  UNL d   1      -0.647  -0.507   1.959  0.00  0.00    -0.080 A 
ATOM      5  C6  UNL d   1      -1.147  -0.914   3.313  0.00  0.00     0.076 C 
ATOM      6  C7  UNL d   1       0.667  -0.053   1.807  0.00  0.00     0.002 A 
ATOM      7  C8  UNL d   1       1.136   0.355   0.556  0.00  0.00     0.006 A 
ENDROOT
BRANCH   1   8
ATOM      8  C1  UNL d   1       0.787   0.812  -1.900  0.00  0.00     0.054 C 
ATOM      9  C   UNL d   1       1.483  -0.290  -2.685  0.00  0.00     0.018 C 
ENDBRANCH   1   8
TORSDOF 1
ENDMDL
