MODEL 1
REMARK minimizedAffinity -2.12049198
REMARK minimizedRMSD -1
REMARK  1 active torsions:
REMARK  status: ('A' for Active; 'I' for Inactive)
REMARK    1  A    between atoms: C1_2  and  C2_3 
ROOT
ATOM      1  C2  UNL d   1       0.625   0.097  -0.746  0.00  0.00    -0.081 A 
ATOM      2  C3  UNL d   1       1.427   0.360   0.372  0.00  0.00     0.006 A 
ATOM      3  C4  UNL d   1       0.922   0.184   1.663  0.00  0.00     0.002 A 
ATOM      4  C5  UNL d   1      -0.388  -0.266   1.857  0.00  0.00    -0.080 A 
ATOM      5  C6  UNL d   1      -0.932  -0.489   3.237  0.00  0.00     0.076 C 
ATOM      6  C7  UNL d   1      -1.194  -0.512   0.740  0.00  0.00     0.002 A 
ATOM      7  C8  UNL d   1      -0.691  -0.335  -0.550  0.00  0.00     0.006 A 
ENDROOT
BRANCH   1   8
ATOM      8  C1  UNL d   1       1.187   0.225  -2.139  0.00  0.00     0.054 C 
ATOM      9  C   UNL d   1       1.317  -1.135  -2.810  0.00  0.00     0.018 C 
ENDBRANCH   1   8
TORSDOF 1
ENDMDL
