MODEL 1
REMARK minimizedAffinity -2.51698399
REMARK minimizedRMSD -1
REMARK  1 active torsions:
REMARK  status: ('A' for Active; 'I' for Inactive)
REMARK    1  A    between atoms: C1_2  and  C2_3 
ROOT
ATOM      1  C2  UNL d   1      -0.039   0.183  -0.263  0.00  0.00    -0.081 A 
ATOM      2  C3  UNL d   1      -1.402  -0.056  -0.044  0.00  0.00     0.006 A 
ATOM      3  C4  UNL d   1      -1.875  -0.330   1.241  0.00  0.00     0.002 A 
ATOM      4  C5  UNL d   1      -0.996  -0.362   2.329  0.00  0.00    -0.080 A 
ATOM      5  C6  UNL d   1      -1.496  -0.625   3.719  0.00  0.00     0.076 C 
ATOM      6  C7  UNL d   1       0.367  -0.141   2.108  0.00  0.00     0.002 A 
ATOM      7  C8  UNL d   1       0.841   0.133   0.823  0.00  0.00     0.006 A 
ENDROOT
BRANCH   1   8
ATOM      8  C1  UNL d   1       0.464   0.543  -1.638  0.00  0.00     0.054 C 
ATOM      9  C   UNL d   1       0.763  -0.702  -2.461  0.00  0.00     0.018 C 
ENDBRANCH   1   8
TORSDOF 1
ENDMDL
