MODEL 1
REMARK minimizedAffinity 3.70570683
REMARK minimizedRMSD -1
REMARK  0 active torsions:
REMARK  status: ('A' for Active; 'I' for Inactive)
ROOT
ATOM      1  C2' OXE d   1       4.332   0.261   4.667  0.00  0.00     0.078 C 
ATOM      2  C1' OXE d   1       1.549   0.624   4.666  0.00  0.00     0.078 C 
ATOM      3  C1  OXE d   1       2.254   0.584   3.333  0.00  0.00    -0.078 A 
ATOM      4  C2  OXE d   1       3.621   0.453   3.345  0.00  0.00    -0.078 A 
ATOM      5  C3  OXE d   1       4.315   0.356   2.142  0.00  0.00     0.003 A 
ATOM      6  C4  OXE d   1       3.651   0.544   0.924  0.00  0.00    -0.002 A 
ATOM      7  C5  OXE d   1       2.264   0.718   0.891  0.00  0.00    -0.002 A 
ATOM      8  C6  OXE d   1       1.546   0.698   2.081  0.00  0.00     0.003 A 
ENDROOT
TORSDOF 0
ENDMDL
