MODEL 1
REMARK minimizedAffinity 2.52282834
REMARK minimizedRMSD -1
REMARK  0 active torsions:
REMARK  status: ('A' for Active; 'I' for Inactive)
ROOT
ATOM      1  C2' OXE d   1       4.285   0.008   4.559  0.00  0.00     0.078 C 
ATOM      2  C1' OXE d   1       1.553   0.648   4.628  0.00  0.00     0.078 C 
ATOM      3  C1  OXE d   1       2.208   0.503   3.277  0.00  0.00    -0.078 A 
ATOM      4  C2  OXE d   1       3.555   0.236   3.253  0.00  0.00    -0.078 A 
ATOM      5  C3  OXE d   1       4.197   0.038   2.034  0.00  0.00     0.003 A 
ATOM      6  C4  OXE d   1       3.517   0.260   0.830  0.00  0.00    -0.002 A 
ATOM      7  C5  OXE d   1       2.154   0.572   0.832  0.00  0.00    -0.002 A 
ATOM      8  C6  OXE d   1       1.476   0.656   2.044  0.00  0.00     0.003 A 
ENDROOT
TORSDOF 0
ENDMDL
