MODEL 1
REMARK minimizedAffinity 1.92560005
REMARK minimizedRMSD -1
REMARK  0 active torsions:
REMARK  status: ('A' for Active; 'I' for Inactive)
ROOT
ATOM      1  C2' OXE d   1       0.420  -0.805   0.242  0.00  0.00     0.078 C 
ATOM      2  C1' OXE d   1      -0.581   1.020   2.126  0.00  0.00     0.078 C 
ATOM      3  C1  OXE d   1       0.133   1.575   0.919  0.00  0.00    -0.078 A 
ATOM      4  C2  OXE d   1       0.661   0.674   0.026  0.00  0.00    -0.078 A 
ATOM      5  C3  OXE d   1       1.282   1.133  -1.132  0.00  0.00     0.003 A 
ATOM      6  C4  OXE d   1       1.509   2.502  -1.319  0.00  0.00    -0.002 A 
ATOM      7  C5  OXE d   1       1.015   3.436  -0.401  0.00  0.00    -0.002 A 
ATOM      8  C6  OXE d   1       0.289   2.992   0.699  0.00  0.00     0.003 A 
ENDROOT
TORSDOF 0
ENDMDL
