MODEL 1
REMARK minimizedAffinity -1.3948276
REMARK minimizedRMSD -1
REMARK  0 active torsions:
REMARK  status: ('A' for Active; 'I' for Inactive)
ROOT
ATOM      1  C2' OXE d   1      -0.552   5.973  -3.516  0.00  0.00     0.078 C 
ATOM      2  C1' OXE d   1      -1.195   5.897  -0.785  0.00  0.00     0.078 C 
ATOM      3  C1  OXE d   1      -2.333   5.916  -1.775  0.00  0.00    -0.078 A 
ATOM      4  C2  OXE d   1      -2.010   6.000  -3.108  0.00  0.00    -0.078 A 
ATOM      5  C3  OXE d   1      -3.019   5.965  -4.065  0.00  0.00     0.003 A 
ATOM      6  C4  OXE d   1      -4.364   6.000  -3.679  0.00  0.00    -0.002 A 
ATOM      7  C5  OXE d   1      -4.716   5.955  -2.325  0.00  0.00    -0.002 A 
ATOM      8  C6  OXE d   1      -3.714   5.870  -1.364  0.00  0.00     0.003 A 
ENDROOT
TORSDOF 0
ENDMDL
