MODEL 1
REMARK minimizedAffinity -0.445039541
REMARK minimizedRMSD -1
REMARK  0 active torsions:
REMARK  status: ('A' for Active; 'I' for Inactive)
ROOT
ATOM      1  C2' OXE d   1      -5.204   5.915  -1.084  0.00  0.00     0.078 C 
ATOM      2  C1' OXE d   1      -5.408   5.973  -3.883  0.00  0.00     0.078 C 
ATOM      3  C1  OXE d   1      -4.026   5.958  -3.278  0.00  0.00    -0.078 A 
ATOM      4  C2  OXE d   1      -3.936   5.977  -1.907  0.00  0.00    -0.078 A 
ATOM      5  C3  OXE d   1      -2.686   5.909  -1.298  0.00  0.00     0.003 A 
ATOM      6  C4  OXE d   1      -1.518   5.977  -2.066  0.00  0.00    -0.002 A 
ATOM      7  C5  OXE d   1      -1.588   5.999  -3.463  0.00  0.00    -0.002 A 
ATOM      8  C6  OXE d   1      -2.831   5.947  -4.085  0.00  0.00     0.003 A 
ENDROOT
TORSDOF 0
ENDMDL
