MODEL 1
REMARK minimizedAffinity -2.68966174
REMARK minimizedRMSD -1
REMARK  0 active torsions:
REMARK  status: ('A' for Active; 'I' for Inactive)
ROOT
ATOM      1  C2' OXE d   1       3.336   1.606  -0.148  0.00  0.00     0.078 C 
ATOM      2  C1' OXE d   1       1.083   3.049   0.702  0.00  0.00     0.078 C 
ATOM      3  C1  OXE d   1       0.924   1.567   0.472  0.00  0.00    -0.078 A 
ATOM      4  C2  OXE d   1       2.020   0.877   0.012  0.00  0.00    -0.078 A 
ATOM      5  C3  OXE d   1       1.942  -0.502  -0.164  0.00  0.00     0.003 A 
ATOM      6  C4  OXE d   1       0.718  -1.166  -0.024  0.00  0.00    -0.002 A 
ATOM      7  C5  OXE d   1      -0.420  -0.476   0.405  0.00  0.00    -0.002 A 
ATOM      8  C6  OXE d   1      -0.324   0.880   0.698  0.00  0.00     0.003 A 
ENDROOT
TORSDOF 0
ENDMDL
