MODEL 1
REMARK minimizedAffinity -0.739139259
REMARK minimizedRMSD -1
REMARK  0 active torsions:
REMARK  status: ('A' for Active; 'I' for Inactive)
ROOT
ATOM      1  C2' OXE d   1      -1.590   5.947  -1.634  0.00  0.00     0.078 C 
ATOM      2  C1' OXE d   1      -3.853   6.000  -3.293  0.00  0.00     0.078 C 
ATOM      3  C1  OXE d   1      -2.497   5.977  -3.954  0.00  0.00    -0.078 A 
ATOM      4  C2  OXE d   1      -1.395   5.998  -3.134  0.00  0.00    -0.078 A 
ATOM      5  C3  OXE d   1      -0.121   5.923  -3.690  0.00  0.00     0.003 A 
ATOM      6  C4  OXE d   1       0.051   5.981  -5.078  0.00  0.00    -0.002 A 
ATOM      7  C5  OXE d   1      -1.058   5.999  -5.931  0.00  0.00    -0.002 A 
ATOM      8  C6  OXE d   1      -2.337   5.955  -5.387  0.00  0.00     0.003 A 
ENDROOT
TORSDOF 0
ENDMDL
