MODEL 1
REMARK minimizedAffinity 2.82090878
REMARK minimizedRMSD -1
REMARK  0 active torsions:
REMARK  status: ('A' for Active; 'I' for Inactive)
ROOT
ATOM      1  C2' OXE d   1      -2.506   6.000  -4.075  0.00  0.00     0.078 C 
ATOM      2  C1' OXE d   1      -5.097   5.980  -2.993  0.00  0.00     0.078 C 
ATOM      3  C1  OXE d   1      -3.933   5.980  -2.033  0.00  0.00    -0.078 A 
ATOM      4  C2  OXE d   1      -2.670   5.943  -2.571  0.00  0.00    -0.078 A 
ATOM      5  C3  OXE d   1      -1.561   5.997  -1.731  0.00  0.00     0.003 A 
ATOM      6  C4  OXE d   1      -1.721   5.934  -0.341  0.00  0.00    -0.002 A 
ATOM      7  C5  OXE d   1      -2.999   5.931   0.227  0.00  0.00    -0.002 A 
ATOM      8  C6  OXE d   1      -4.113   5.997  -0.602  0.00  0.00     0.003 A 
ENDROOT
TORSDOF 0
ENDMDL
