MODEL 1
REMARK minimizedAffinity 0.600701928
REMARK minimizedRMSD -1
REMARK  0 active torsions:
REMARK  status: ('A' for Active; 'I' for Inactive)
ROOT
ATOM      1  C2' OXE d   1      -1.233   0.285   2.653  0.00  0.00     0.078 C 
ATOM      2  C1' OXE d   1      -0.031  -0.945   0.434  0.00  0.00     0.078 C 
ATOM      3  C1  OXE d   1       0.399   0.459   0.779  0.00  0.00    -0.078 A 
ATOM      4  C2  OXE d   1      -0.228   1.070   1.838  0.00  0.00    -0.078 A 
ATOM      5  C3  OXE d   1       0.170   2.345   2.232  0.00  0.00     0.003 A 
ATOM      6  C4  OXE d   1       1.093   3.068   1.467  0.00  0.00    -0.002 A 
ATOM      7  C5  OXE d   1       1.714   2.479   0.361  0.00  0.00    -0.002 A 
ATOM      8  C6  OXE d   1       1.411   1.163   0.029  0.00  0.00     0.003 A 
ENDROOT
TORSDOF 0
ENDMDL
