MODEL 1
REMARK minimizedAffinity -0.780120015
REMARK minimizedRMSD -1
REMARK  0 active torsions:
REMARK  status: ('A' for Active; 'I' for Inactive)
ROOT
ATOM      1  C2' OXE d   1      -1.301   0.413   1.957  0.00  0.00     0.078 C 
ATOM      2  C1' OXE d   1      -0.595  -1.639   0.176  0.00  0.00     0.078 C 
ATOM      3  C1  OXE d   1       0.202  -0.359   0.127  0.00  0.00    -0.078 A 
ATOM      4  C2  OXE d   1      -0.180   0.656   0.969  0.00  0.00    -0.078 A 
ATOM      5  C3  OXE d   1       0.555   1.838   1.003  0.00  0.00     0.003 A 
ATOM      6  C4  OXE d   1       1.583   2.059   0.079  0.00  0.00    -0.002 A 
ATOM      7  C5  OXE d   1       1.963   1.052  -0.815  0.00  0.00    -0.002 A 
ATOM      8  C6  OXE d   1       1.312  -0.175  -0.776  0.00  0.00     0.003 A 
ENDROOT
TORSDOF 0
ENDMDL
