MODEL 1
REMARK minimizedAffinity 6.65539551
REMARK minimizedRMSD -1
REMARK  0 active torsions:
REMARK  status: ('A' for Active; 'I' for Inactive)
ROOT
ATOM      1  C2' OXE d   1      -1.440  -0.542   2.817  0.00  0.00     0.078 C 
ATOM      2  C1' OXE d   1      -0.630  -2.437   0.910  0.00  0.00     0.078 C 
ATOM      3  C1  OXE d   1       0.029  -1.080   0.878  0.00  0.00    -0.078 A 
ATOM      4  C2  OXE d   1      -0.407  -0.144   1.784  0.00  0.00    -0.078 A 
ATOM      5  C3  OXE d   1       0.205   1.105   1.833  0.00  0.00     0.003 A 
ATOM      6  C4  OXE d   1       1.153   1.468   0.869  0.00  0.00    -0.002 A 
ATOM      7  C5  OXE d   1       1.582   0.543  -0.089  0.00  0.00    -0.002 A 
ATOM      8  C6  OXE d   1       1.062  -0.747  -0.071  0.00  0.00     0.003 A 
ENDROOT
TORSDOF 0
ENDMDL
