MODEL 1
REMARK minimizedAffinity 0.615113437
REMARK minimizedRMSD -1
REMARK  0 active torsions:
REMARK  status: ('A' for Active; 'I' for Inactive)
ROOT
ATOM      1  C2' OXE d   1       0.462   5.910  -3.632  0.00  0.00     0.078 C 
ATOM      2  C1' OXE d   1      -1.213   5.890  -5.884  0.00  0.00     0.078 C 
ATOM      3  C1  OXE d   1      -1.864   5.938  -4.524  0.00  0.00    -0.078 A 
ATOM      4  C2  OXE d   1      -1.038   5.900  -3.427  0.00  0.00    -0.078 A 
ATOM      5  C3  OXE d   1      -1.583   5.997  -2.150  0.00  0.00     0.003 A 
ATOM      6  C4  OXE d   1      -2.971   5.977  -1.969  0.00  0.00    -0.002 A 
ATOM      7  C5  OXE d   1      -3.831   5.976  -3.072  0.00  0.00    -0.002 A 
ATOM      8  C6  OXE d   1      -3.294   5.999  -4.355  0.00  0.00     0.003 A 
ENDROOT
TORSDOF 0
ENDMDL
