MODEL 1
REMARK minimizedAffinity 1.05477464
REMARK minimizedRMSD -1
REMARK  0 active torsions:
REMARK  status: ('A' for Active; 'I' for Inactive)
ROOT
ATOM      1  C2' OXE d   1       1.184   3.889  -3.877  0.00  0.00     0.078 C 
ATOM      2  C1' OXE d   1       0.996   5.959  -5.763  0.00  0.00     0.078 C 
ATOM      3  C1  OXE d   1       2.373   5.464  -5.397  0.00  0.00    -0.078 A 
ATOM      4  C2  OXE d   1       2.458   4.483  -4.439  0.00  0.00    -0.078 A 
ATOM      5  C3  OXE d   1       3.700   3.952  -4.105  0.00  0.00     0.003 A 
ATOM      6  C4  OXE d   1       4.874   4.515  -4.621  0.00  0.00    -0.002 A 
ATOM      7  C5  OXE d   1       4.811   5.542  -5.569  0.00  0.00    -0.002 A 
ATOM      8  C6  OXE d   1       3.570   5.998  -5.998  0.00  0.00     0.003 A 
ENDROOT
TORSDOF 0
ENDMDL
