MODEL 1
REMARK minimizedAffinity 5.4732089
REMARK minimizedRMSD -1
REMARK  0 active torsions:
REMARK  status: ('A' for Active; 'I' for Inactive)
ROOT
ATOM      1  C2' OXE d   1       2.011   1.952  -1.254  0.00  0.00     0.078 C 
ATOM      2  C1' OXE d   1       0.652   3.723   0.448  0.00  0.00     0.078 C 
ATOM      3  C1  OXE d   1       0.334   2.253   0.564  0.00  0.00    -0.078 A 
ATOM      4  C2  OXE d   1       0.970   1.399  -0.305  0.00  0.00    -0.078 A 
ATOM      5  C3  OXE d   1       0.754   0.028  -0.204  0.00  0.00     0.003 A 
ATOM      6  C4  OXE d   1      -0.218  -0.475   0.670  0.00  0.00    -0.002 A 
ATOM      7  C5  OXE d   1      -0.905   0.382   1.535  0.00  0.00    -0.002 A 
ATOM      8  C6  OXE d   1      -0.611   1.741   1.525  0.00  0.00     0.003 A 
ENDROOT
TORSDOF 0
ENDMDL
