MODEL 1
REMARK minimizedAffinity 3.44410706
REMARK minimizedRMSD -1
REMARK  0 active torsions:
REMARK  status: ('A' for Active; 'I' for Inactive)
ROOT
ATOM      1  C2' OXE d   1       1.974   5.896  -5.634  0.00  0.00     0.078 C 
ATOM      2  C1' OXE d   1       2.365   3.849  -3.753  0.00  0.00     0.078 C 
ATOM      3  C1  OXE d   1       3.584   4.427  -4.428  0.00  0.00    -0.078 A 
ATOM      4  C2  OXE d   1       3.380   5.395  -5.381  0.00  0.00    -0.078 A 
ATOM      5  C3  OXE d   1       4.474   6.000  -5.994  0.00  0.00     0.003 A 
ATOM      6  C4  OXE d   1       5.770   5.524  -5.762  0.00  0.00    -0.002 A 
ATOM      7  C5  OXE d   1       5.996   4.511  -4.824  0.00  0.00    -0.002 A 
ATOM      8  C6  OXE d   1       4.921   3.982  -4.119  0.00  0.00     0.003 A 
ENDROOT
TORSDOF 0
ENDMDL
