MODEL 1
REMARK minimizedAffinity 6.11031342
REMARK minimizedRMSD -1
REMARK  0 active torsions:
REMARK  status: ('A' for Active; 'I' for Inactive)
ROOT
ATOM      1  C2' OXE d   1      -3.871   0.748  -0.742  0.00  0.00     0.078 C 
ATOM      2  C1' OXE d   1      -3.306  -0.818   1.518  0.00  0.00     0.078 C 
ATOM      3  C1  OXE d   1      -3.632  -1.533   0.230  0.00  0.00    -0.078 A 
ATOM      4  C2  OXE d   1      -3.953  -0.759  -0.859  0.00  0.00    -0.078 A 
ATOM      5  C3  OXE d   1      -4.209  -1.366  -2.085  0.00  0.00     0.003 A 
ATOM      6  C4  OXE d   1      -4.292  -2.760  -2.182  0.00  0.00    -0.002 A 
ATOM      7  C5  OXE d   1      -4.007  -3.567  -1.075  0.00  0.00    -0.002 A 
ATOM      8  C6  OXE d   1      -3.635  -2.971   0.125  0.00  0.00     0.003 A 
ENDROOT
TORSDOF 0
ENDMDL
