MODEL 1
REMARK minimizedAffinity -2.88341546
REMARK minimizedRMSD -1
REMARK  0 active torsions:
REMARK  status: ('A' for Active; 'I' for Inactive)
ROOT
ATOM      1  C   UNL d   1       0.408  -1.246  -1.287  0.00  0.00     0.077 C 
ATOM      2  C1  UNL d   1       0.122  -0.473  -0.034  0.00  0.00    -0.074 A 
ATOM      3  C2  UNL d   1       0.634  -0.889   1.200  0.00  0.00    -0.005 A 
ATOM      4  C3  UNL d   1       0.368  -0.154   2.355  0.00  0.00     0.006 A 
ATOM      5  C4  UNL d   1      -0.411   1.001   2.289  0.00  0.00    -0.005 A 
ATOM      6  C5  UNL d   1      -0.931   1.433   1.065  0.00  0.00    -0.074 A 
ATOM      7  C6  UNL d   1      -1.762   2.678   0.975  0.00  0.00     0.077 C 
ATOM      8  C7  UNL d   1      -0.653   0.693  -0.093  0.00  0.00    -0.001 A 
ENDROOT
TORSDOF 0
ENDMDL
