MODEL 1
REMARK minimizedAffinity -3.48807526
REMARK minimizedRMSD -1
REMARK  0 active torsions:
REMARK  status: ('A' for Active; 'I' for Inactive)
ROOT
ATOM      1  C   UNL d   1       1.127  -1.895  -1.408  0.00  0.00     0.077 C 
ATOM      2  C1  UNL d   1       0.750  -0.569  -0.818  0.00  0.00    -0.074 A 
ATOM      3  C2  UNL d   1       1.041   0.624  -1.487  0.00  0.00    -0.005 A 
ATOM      4  C3  UNL d   1       0.676   1.850  -0.930  0.00  0.00     0.006 A 
ATOM      5  C4  UNL d   1       0.017   1.894   0.300  0.00  0.00    -0.005 A 
ATOM      6  C5  UNL d   1      -0.283   0.711   0.983  0.00  0.00    -0.074 A 
ATOM      7  C6  UNL d   1      -1.000   0.741   2.300  0.00  0.00     0.077 C 
ATOM      8  C7  UNL d   1       0.081  -0.516   0.413  0.00  0.00    -0.001 A 
ENDROOT
TORSDOF 0
ENDMDL
