MODEL 1
REMARK minimizedAffinity 0.31105417
REMARK minimizedRMSD -1
REMARK  0 active torsions:
REMARK  status: ('A' for Active; 'I' for Inactive)
ROOT
ATOM      1  C   UNL d   1       1.251  -1.376   2.349  0.00  0.00     0.077 C 
ATOM      2  C1  UNL d   1       0.878  -0.719   1.054  0.00  0.00    -0.074 A 
ATOM      3  C2  UNL d   1       1.692  -0.846  -0.077  0.00  0.00    -0.005 A 
ATOM      4  C3  UNL d   1       1.327  -0.238  -1.278  0.00  0.00     0.006 A 
ATOM      5  C4  UNL d   1       0.147   0.502  -1.360  0.00  0.00    -0.005 A 
ATOM      6  C5  UNL d   1      -0.680   0.640  -0.241  0.00  0.00    -0.074 A 
ATOM      7  C6  UNL d   1      -1.956   1.424  -0.315  0.00  0.00     0.077 C 
ATOM      8  C7  UNL d   1      -0.310   0.020   0.961  0.00  0.00    -0.001 A 
ENDROOT
TORSDOF 0
ENDMDL
