MODEL 1
REMARK minimizedAffinity -0.0526642054
REMARK minimizedRMSD -1
REMARK  0 active torsions:
REMARK  status: ('A' for Active; 'I' for Inactive)
ROOT
ATOM      1  C   UNL d   1       0.653  -3.692  -2.617  0.00  0.00     0.077 C 
ATOM      2  C1  UNL d   1       0.505  -2.331  -2.005  0.00  0.00    -0.074 A 
ATOM      3  C2  UNL d   1       0.098  -1.237  -2.775  0.00  0.00    -0.005 A 
ATOM      4  C3  UNL d   1      -0.045   0.021  -2.190  0.00  0.00     0.006 A 
ATOM      5  C4  UNL d   1       0.219   0.198  -0.831  0.00  0.00    -0.005 A 
ATOM      6  C5  UNL d   1       0.626  -0.885  -0.045  0.00  0.00    -0.074 A 
ATOM      7  C6  UNL d   1       0.904  -0.714   1.419  0.00  0.00     0.077 C 
ATOM      8  C7  UNL d   1       0.760  -2.147  -0.639  0.00  0.00    -0.001 A 
ENDROOT
TORSDOF 0
ENDMDL
