MODEL 1
REMARK minimizedAffinity -1.48002672
REMARK minimizedRMSD -1
REMARK  0 active torsions:
REMARK  status: ('A' for Active; 'I' for Inactive)
ROOT
ATOM      1  C   UNL d   1      -1.339   1.099   1.977  0.00  0.00     0.077 C 
ATOM      2  C1  UNL d   1      -0.534   0.898   0.728  0.00  0.00    -0.074 A 
ATOM      3  C2  UNL d   1      -0.263   1.966  -0.133  0.00  0.00    -0.005 A 
ATOM      4  C3  UNL d   1       0.495   1.766  -1.286  0.00  0.00     0.006 A 
ATOM      5  C4  UNL d   1       0.990   0.497  -1.590  0.00  0.00    -0.005 A 
ATOM      6  C5  UNL d   1       0.730  -0.583  -0.741  0.00  0.00    -0.074 A 
ATOM      7  C6  UNL d   1       1.263  -1.952  -1.047  0.00  0.00     0.077 C 
ATOM      8  C7  UNL d   1      -0.027  -0.372   0.420  0.00  0.00    -0.001 A 
ENDROOT
TORSDOF 0
ENDMDL
