MODEL 1
REMARK minimizedAffinity -2.11909223
REMARK minimizedRMSD -1
REMARK  0 active torsions:
REMARK  status: ('A' for Active; 'I' for Inactive)
ROOT
ATOM      1  C   UNL d   1       0.956  -1.613  -1.193  0.00  0.00     0.077 C 
ATOM      2  C1  UNL d   1       0.288  -0.709  -0.200  0.00  0.00    -0.074 A 
ATOM      3  C2  UNL d   1      -0.253  -1.218   0.985  0.00  0.00    -0.005 A 
ATOM      4  C3  UNL d   1      -0.863  -0.363   1.903  0.00  0.00     0.006 A 
ATOM      5  C4  UNL d   1      -0.938   1.006   1.646  0.00  0.00    -0.005 A 
ATOM      6  C5  UNL d   1      -0.401   1.533   0.467  0.00  0.00    -0.074 A 
ATOM      7  C6  UNL d   1      -0.464   3.004   0.180  0.00  0.00     0.077 C 
ATOM      8  C7  UNL d   1       0.216   0.669  -0.447  0.00  0.00    -0.001 A 
ENDROOT
TORSDOF 0
ENDMDL
