MODEL 1
REMARK minimizedAffinity 3.38793993
REMARK minimizedRMSD -1
REMARK  0 active torsions:
REMARK  status: ('A' for Active; 'I' for Inactive)
ROOT
ATOM      1  C   UNL d   1      -1.143   2.449  -0.909  0.00  0.00     0.077 C 
ATOM      2  C1  UNL d   1      -0.113   1.405  -0.594  0.00  0.00    -0.074 A 
ATOM      3  C2  UNL d   1       1.036   1.269  -1.379  0.00  0.00    -0.005 A 
ATOM      4  C3  UNL d   1       1.990   0.300  -1.068  0.00  0.00     0.006 A 
ATOM      5  C4  UNL d   1       1.805  -0.541   0.030  0.00  0.00    -0.005 A 
ATOM      6  C5  UNL d   1       0.663  -0.419   0.828  0.00  0.00    -0.074 A 
ATOM      7  C6  UNL d   1       0.453  -1.308   2.017  0.00  0.00     0.077 C 
ATOM      8  C7  UNL d   1      -0.288   0.562   0.513  0.00  0.00    -0.001 A 
ENDROOT
TORSDOF 0
ENDMDL
