MODEL 1
REMARK minimizedAffinity -1.95639884
REMARK minimizedRMSD -1
REMARK  0 active torsions:
REMARK  status: ('A' for Active; 'I' for Inactive)
ROOT
ATOM      1  C   UNL d   1      -0.121   2.424  -1.266  0.00  0.00     0.077 C 
ATOM      2  C1  UNL d   1      -0.181   1.051  -0.665  0.00  0.00    -0.074 A 
ATOM      3  C2  UNL d   1      -0.738   0.845   0.601  0.00  0.00    -0.005 A 
ATOM      4  C3  UNL d   1      -0.795  -0.439   1.143  0.00  0.00     0.006 A 
ATOM      5  C4  UNL d   1      -0.296  -1.527   0.426  0.00  0.00    -0.005 A 
ATOM      6  C5  UNL d   1       0.264  -1.340  -0.842  0.00  0.00    -0.074 A 
ATOM      7  C6  UNL d   1       0.795  -2.500  -1.630  0.00  0.00     0.077 C 
ATOM      8  C7  UNL d   1       0.311  -0.048  -1.383  0.00  0.00    -0.001 A 
ENDROOT
TORSDOF 0
ENDMDL
