MODEL 1
REMARK minimizedAffinity -2.7822454
REMARK minimizedRMSD -1
REMARK  0 active torsions:
REMARK  status: ('A' for Active; 'I' for Inactive)
ROOT
ATOM      1  C   UNL d   1      -1.244   0.592   1.720  0.00  0.00     0.077 C 
ATOM      2  C1  UNL d   1      -0.258   0.399   0.606  0.00  0.00    -0.074 A 
ATOM      3  C2  UNL d   1       0.210   1.487  -0.136  0.00  0.00    -0.005 A 
ATOM      4  C3  UNL d   1       1.134   1.293  -1.163  0.00  0.00     0.006 A 
ATOM      5  C4  UNL d   1       1.598   0.010  -1.457  0.00  0.00    -0.005 A 
ATOM      6  C5  UNL d   1       1.142  -1.090  -0.725  0.00  0.00    -0.074 A 
ATOM      7  C6  UNL d   1       1.638  -2.474  -1.022  0.00  0.00     0.077 C 
ATOM      8  C7  UNL d   1       0.218  -0.886   0.310  0.00  0.00    -0.001 A 
ENDROOT
TORSDOF 0
ENDMDL
