MODEL 1
REMARK minimizedAffinity -1.02749431
REMARK minimizedRMSD -1
REMARK  0 active torsions:
REMARK  status: ('A' for Active; 'I' for Inactive)
ROOT
ATOM      1  C   UNL d   1       0.545   2.192  -1.908  0.00  0.00     0.077 C 
ATOM      2  C1  UNL d   1       0.287   1.186  -0.826  0.00  0.00    -0.074 A 
ATOM      3  C2  UNL d   1       0.647  -0.155  -0.991  0.00  0.00    -0.005 A 
ATOM      4  C3  UNL d   1       0.410  -1.077   0.028  0.00  0.00     0.006 A 
ATOM      5  C4  UNL d   1      -0.189  -0.668   1.220  0.00  0.00    -0.005 A 
ATOM      6  C5  UNL d   1      -0.555   0.669   1.404  0.00  0.00    -0.074 A 
ATOM      7  C6  UNL d   1      -1.191   1.127   2.683  0.00  0.00     0.077 C 
ATOM      8  C7  UNL d   1      -0.307   1.591   0.378  0.00  0.00    -0.001 A 
ENDROOT
TORSDOF 0
ENDMDL
