MODEL 1
REMARK minimizedAffinity -1.03377831
REMARK minimizedRMSD -1
REMARK  0 active torsions:
REMARK  status: ('A' for Active; 'I' for Inactive)
ROOT
ATOM      1  C   UNL d   1       1.875  -4.322  -0.382  0.00  0.00     0.077 C 
ATOM      2  C1  UNL d   1       1.174  -3.205  -1.096  0.00  0.00    -0.074 A 
ATOM      3  C2  UNL d   1       0.565  -3.416  -2.338  0.00  0.00    -0.005 A 
ATOM      4  C3  UNL d   1      -0.091  -2.369  -2.986  0.00  0.00     0.006 A 
ATOM      5  C4  UNL d   1      -0.146  -1.104  -2.400  0.00  0.00    -0.005 A 
ATOM      6  C5  UNL d   1       0.456  -0.875  -1.159  0.00  0.00    -0.074 A 
ATOM      7  C6  UNL d   1       0.398   0.477  -0.511  0.00  0.00     0.077 C 
ATOM      8  C7  UNL d   1       1.108  -1.933  -0.511  0.00  0.00    -0.001 A 
ENDROOT
TORSDOF 0
ENDMDL
