MODEL 1
REMARK minimizedAffinity -5.27277613
REMARK minimizedRMSD -1
REMARK  0 active torsions:
REMARK  status: ('A' for Active; 'I' for Inactive)
ROOT
ATOM      1  C   UNL d   1      -0.180   3.566   0.052  0.00  0.00     0.077 C 
ATOM      2  C1  UNL d   1      -0.330   2.125   0.439  0.00  0.00    -0.074 A 
ATOM      3  C2  UNL d   1      -1.135   1.751   1.520  0.00  0.00    -0.005 A 
ATOM      4  C3  UNL d   1      -1.273   0.406   1.862  0.00  0.00     0.006 A 
ATOM      5  C4  UNL d   1      -0.609  -0.578   1.128  0.00  0.00    -0.005 A 
ATOM      6  C5  UNL d   1       0.199  -0.223   0.043  0.00  0.00    -0.074 A 
ATOM      7  C6  UNL d   1       0.911  -1.268  -0.763  0.00  0.00     0.077 C 
ATOM      8  C7  UNL d   1       0.327   1.130  -0.299  0.00  0.00    -0.001 A 
ENDROOT
TORSDOF 0
ENDMDL
