MODEL 1
REMARK minimizedAffinity -6.19951773
REMARK minimizedRMSD -1
REMARK  0 active torsions:
REMARK  status: ('A' for Active; 'I' for Inactive)
ROOT
ATOM      1  C   UNL d   1      -2.431   3.739   1.575  0.00  0.00     0.077 C 
ATOM      2  C1  UNL d   1      -1.440   2.831   0.910  0.00  0.00    -0.074 A 
ATOM      3  C2  UNL d   1      -0.648   3.285  -0.150  0.00  0.00    -0.005 A 
ATOM      4  C3  UNL d   1       0.276   2.431  -0.752  0.00  0.00     0.006 A 
ATOM      5  C4  UNL d   1       0.417   1.118  -0.303  0.00  0.00    -0.005 A 
ATOM      6  C5  UNL d   1      -0.366   0.647   0.755  0.00  0.00    -0.074 A 
ATOM      7  C6  UNL d   1      -0.221  -0.759   1.257  0.00  0.00     0.077 C 
ATOM      8  C7  UNL d   1      -1.287   1.512   1.361  0.00  0.00    -0.001 A 
ENDROOT
TORSDOF 0
ENDMDL
