MODEL 1
REMARK minimizedAffinity -3.76499534
REMARK minimizedRMSD -1
REMARK  0 active torsions:
REMARK  status: ('A' for Active; 'I' for Inactive)
ROOT
ATOM      1  C   UNL d   1       0.011   2.459  -1.116  0.00  0.00     0.077 C 
ATOM      2  C1  UNL d   1       0.051   1.200  -0.302  0.00  0.00    -0.074 A 
ATOM      3  C2  UNL d   1      -0.526   1.148   0.971  0.00  0.00    -0.005 A 
ATOM      4  C3  UNL d   1      -0.489  -0.032   1.713  0.00  0.00     0.006 A 
ATOM      5  C4  UNL d   1       0.123  -1.172   1.190  0.00  0.00    -0.005 A 
ATOM      6  C5  UNL d   1       0.704  -1.140  -0.082  0.00  0.00    -0.074 A 
ATOM      7  C6  UNL d   1       1.357  -2.359  -0.663  0.00  0.00     0.077 C 
ATOM      8  C7  UNL d   1       0.657   0.048  -0.824  0.00  0.00    -0.001 A 
ENDROOT
TORSDOF 0
ENDMDL
