MODEL 1
REMARK minimizedAffinity -0.915975511
REMARK minimizedRMSD -1
REMARK  0 active torsions:
REMARK  status: ('A' for Active; 'I' for Inactive)
ROOT
ATOM      1  C   UNL d   1       0.517  -2.868  -1.211  0.00  0.00     0.077 C 
ATOM      2  C1  UNL d   1       0.354  -1.436  -0.794  0.00  0.00    -0.074 A 
ATOM      3  C2  UNL d   1       0.763  -0.393  -1.631  0.00  0.00    -0.005 A 
ATOM      4  C3  UNL d   1       0.596   0.934  -1.233  0.00  0.00     0.006 A 
ATOM      5  C4  UNL d   1       0.021   1.230   0.003  0.00  0.00    -0.005 A 
ATOM      6  C5  UNL d   1      -0.395   0.199   0.853  0.00  0.00    -0.074 A 
ATOM      7  C6  UNL d   1      -1.025   0.500   2.180  0.00  0.00     0.077 C 
ATOM      8  C7  UNL d   1      -0.231  -1.131   0.443  0.00  0.00    -0.001 A 
ENDROOT
TORSDOF 0
ENDMDL
