MODEL 1
REMARK minimizedAffinity -3.75614309
REMARK minimizedRMSD -1
REMARK  0 active torsions:
REMARK  status: ('A' for Active; 'I' for Inactive)
ROOT
ATOM      1  C   UNL d   1      -0.061   3.218  -0.934  0.00  0.00     0.077 C 
ATOM      2  C1  UNL d   1      -0.283   1.961  -0.146  0.00  0.00    -0.074 A 
ATOM      3  C2  UNL d   1      -1.047   1.973   1.026  0.00  0.00    -0.005 A 
ATOM      4  C3  UNL d   1      -1.252   0.794   1.743  0.00  0.00     0.006 A 
ATOM      5  C4  UNL d   1      -0.697  -0.406   1.297  0.00  0.00    -0.005 A 
ATOM      6  C5  UNL d   1       0.069  -0.437   0.127  0.00  0.00    -0.074 A 
ATOM      7  C6  UNL d   1       0.665  -1.720  -0.371  0.00  0.00     0.077 C 
ATOM      8  C7  UNL d   1       0.265   0.750  -0.592  0.00  0.00    -0.001 A 
ENDROOT
TORSDOF 0
ENDMDL
