MODEL 1
REMARK minimizedAffinity 2.46768403
REMARK minimizedRMSD -1
REMARK  0 active torsions:
REMARK  status: ('A' for Active; 'I' for Inactive)
ROOT
ATOM      1  C   UNL d   1       0.143   1.340   1.913  0.00  0.00     0.172 C 
ATOM      2  N   UNL d   1      -0.609   0.168   2.295  0.00  0.00    -0.070 N 
ATOM      3  C1  UNL d   1      -1.297   0.009   3.469  0.00  0.00    -0.004 A 
ATOM      4  C2  UNL d   1      -1.878  -1.241   3.451  0.00  0.00    -0.047 A 
ATOM      5  C3  UNL d   1      -1.527  -1.854   2.224  0.00  0.00    -0.047 A 
ATOM      6  C4  UNL d   1      -0.741  -0.959   1.529  0.00  0.00    -0.004 A 
ENDROOT
TORSDOF 0
ENDMDL
