MODEL 1
REMARK minimizedAffinity 1.1728375
REMARK minimizedRMSD -1
REMARK  0 active torsions:
REMARK  status: ('A' for Active; 'I' for Inactive)
ROOT
ATOM      1  C   UNL d   1      -2.277  -5.994   1.069  0.00  0.00     0.172 C 
ATOM      2  N   UNL d   1      -1.111  -5.995   1.921  0.00  0.00    -0.070 N 
ATOM      3  C1  UNL d   1       0.190  -5.996   1.493  0.00  0.00    -0.004 A 
ATOM      4  C2  UNL d   1       1.001  -5.996   2.607  0.00  0.00    -0.047 A 
ATOM      5  C3  UNL d   1       0.158  -5.995   3.744  0.00  0.00    -0.047 A 
ATOM      6  C4  UNL d   1      -1.144  -5.995   3.290  0.00  0.00    -0.004 A 
ENDROOT
TORSDOF 0
ENDMDL
