MODEL 1
REMARK minimizedAffinity 1.48504305
REMARK minimizedRMSD -1
REMARK  0 active torsions:
REMARK  status: ('A' for Active; 'I' for Inactive)
ROOT
ATOM      1  C   UNL d   1       3.440  -0.376  -3.749  0.00  0.00     0.172 C 
ATOM      2  N   UNL d   1       4.108   0.669  -4.490  0.00  0.00    -0.070 N 
ATOM      3  C1  UNL d   1       5.363   1.152  -4.233  0.00  0.00    -0.004 A 
ATOM      4  C2  UNL d   1       5.634   2.137  -5.158  0.00  0.00    -0.047 A 
ATOM      5  C3  UNL d   1       4.502   2.250  -6.000  0.00  0.00    -0.047 A 
ATOM      6  C4  UNL d   1       3.572   1.330  -5.563  0.00  0.00    -0.004 A 
ENDROOT
TORSDOF 0
ENDMDL
