MODEL 1
REMARK minimizedAffinity 4.49988031
REMARK minimizedRMSD -1
REMARK  0 active torsions:
REMARK  status: ('A' for Active; 'I' for Inactive)
ROOT
ATOM      1  C   UNL d   1      -1.897  -0.397  -2.477  0.00  0.00     0.172 C 
ATOM      2  N   UNL d   1      -1.744  -1.664  -3.154  0.00  0.00    -0.070 N 
ATOM      3  C1  UNL d   1      -2.529  -2.770  -2.965  0.00  0.00    -0.004 A 
ATOM      4  C2  UNL d   1      -2.060  -3.767  -3.793  0.00  0.00    -0.047 A 
ATOM      5  C3  UNL d   1      -0.954  -3.242  -4.503  0.00  0.00    -0.047 A 
ATOM      6  C4  UNL d   1      -0.780  -1.939  -4.088  0.00  0.00    -0.004 A 
ENDROOT
TORSDOF 0
ENDMDL
