MODEL 1
REMARK minimizedAffinity 2.57964087
REMARK minimizedRMSD -1
REMARK  0 active torsions:
REMARK  status: ('A' for Active; 'I' for Inactive)
ROOT
ATOM      1  C   UNL d   1       2.183  -5.999   6.000  0.00  0.00     0.172 C 
ATOM      2  N   UNL d   1       1.484  -5.520   4.831  0.00  0.00    -0.070 N 
ATOM      3  C1  UNL d   1       0.290  -5.999   4.362  0.00  0.00    -0.004 A 
ATOM      4  C2  UNL d   1      -0.039  -5.281   3.233  0.00  0.00    -0.047 A 
ATOM      5  C3  UNL d   1       0.993  -4.338   3.015  0.00  0.00    -0.047 A 
ATOM      6  C4  UNL d   1       1.923  -4.507   4.019  0.00  0.00    -0.004 A 
ENDROOT
TORSDOF 0
ENDMDL
