MODEL 1
REMARK minimizedAffinity 5.45535564
REMARK minimizedRMSD -1
REMARK  0 active torsions:
REMARK  status: ('A' for Active; 'I' for Inactive)
ROOT
ATOM      1  C   UNL d   1       1.534  -1.401  -3.006  0.00  0.00     0.172 C 
ATOM      2  N   UNL d   1       0.281  -2.054  -3.302  0.00  0.00    -0.070 N 
ATOM      3  C1  UNL d   1       0.122  -3.148  -4.109  0.00  0.00    -0.004 A 
ATOM      4  C2  UNL d   1      -1.220  -3.463  -4.134  0.00  0.00    -0.047 A 
ATOM      5  C3  UNL d   1      -1.890  -2.524  -3.315  0.00  0.00    -0.047 A 
ATOM      6  C4  UNL d   1      -0.938  -1.663  -2.812  0.00  0.00    -0.004 A 
ENDROOT
TORSDOF 0
ENDMDL
