MODEL 1
REMARK minimizedAffinity 3.78749037
REMARK minimizedRMSD -1
REMARK  0 active torsions:
REMARK  status: ('A' for Active; 'I' for Inactive)
ROOT
ATOM      1  C   UNL d   1      -0.354  -5.983   4.676  0.00  0.00     0.172 C 
ATOM      2  N   UNL d   1      -0.344  -5.990   3.232  0.00  0.00    -0.070 N 
ATOM      3  C1  UNL d   1       0.774  -5.992   2.441  0.00  0.00    -0.004 A 
ATOM      4  C2  UNL d   1       0.361  -5.999   1.127  0.00  0.00    -0.047 A 
ATOM      5  C3  UNL d   1      -1.055  -6.000   1.127  0.00  0.00    -0.047 A 
ATOM      6  C4  UNL d   1      -1.465  -5.994   2.444  0.00  0.00    -0.004 A 
ENDROOT
TORSDOF 0
ENDMDL
