MODEL 1
REMARK minimizedAffinity -0.128111437
REMARK minimizedRMSD -1
REMARK  0 active torsions:
REMARK  status: ('A' for Active; 'I' for Inactive)
ROOT
ATOM      1  C   UNL d   1      -1.177  -5.998   0.659  0.00  0.00     0.172 C 
ATOM      2  N   UNL d   1      -0.184  -5.996   1.707  0.00  0.00    -0.070 N 
ATOM      3  C1  UNL d   1      -0.442  -5.996   3.052  0.00  0.00    -0.004 A 
ATOM      4  C2  UNL d   1       0.767  -5.994   3.713  0.00  0.00    -0.047 A 
ATOM      5  C3  UNL d   1       1.787  -5.993   2.732  0.00  0.00    -0.047 A 
ATOM      6  C4  UNL d   1       1.170  -5.994   1.499  0.00  0.00    -0.004 A 
ENDROOT
TORSDOF 0
ENDMDL
