MODEL 1
REMARK minimizedAffinity 3.63601112
REMARK minimizedRMSD -1
REMARK  0 active torsions:
REMARK  status: ('A' for Active; 'I' for Inactive)
ROOT
ATOM      1  C   UNL d   1       0.748   0.965   1.748  0.00  0.00     0.172 C 
ATOM      2  N   UNL d   1      -0.015  -0.226   2.038  0.00  0.00    -0.070 N 
ATOM      3  C1  UNL d   1      -0.014  -1.375   1.294  0.00  0.00    -0.004 A 
ATOM      4  C2  UNL d   1      -0.868  -2.271   1.901  0.00  0.00    -0.047 A 
ATOM      5  C3  UNL d   1      -1.400  -1.638   3.049  0.00  0.00    -0.047 A 
ATOM      6  C4  UNL d   1      -0.855  -0.373   3.110  0.00  0.00    -0.004 A 
ENDROOT
TORSDOF 0
ENDMDL
