MODEL 1
REMARK minimizedAffinity 5.03227234
REMARK minimizedRMSD -1
REMARK  0 active torsions:
REMARK  status: ('A' for Active; 'I' for Inactive)
ROOT
ATOM      1  C   UNL d   1      -5.357  -1.153   5.995  0.00  0.00     0.172 C 
ATOM      2  N   UNL d   1      -5.616  -0.050   5.099  0.00  0.00    -0.070 N 
ATOM      3  C1  UNL d   1      -5.768   1.260   5.467  0.00  0.00    -0.004 A 
ATOM      4  C2  UNL d   1      -6.000   1.995   4.325  0.00  0.00    -0.047 A 
ATOM      5  C3  UNL d   1      -5.988   1.096   3.233  0.00  0.00    -0.047 A 
ATOM      6  C4  UNL d   1      -5.749  -0.164   3.740  0.00  0.00    -0.004 A 
ENDROOT
TORSDOF 0
ENDMDL
