MODEL 1
REMARK minimizedAffinity 6.60127735
REMARK minimizedRMSD -1
REMARK  0 active torsions:
REMARK  status: ('A' for Active; 'I' for Inactive)
ROOT
ATOM      1  C   UNL d   1       2.303  -1.517  -3.093  0.00  0.00     0.172 C 
ATOM      2  N   UNL d   1       1.074  -2.067  -3.616  0.00  0.00    -0.070 N 
ATOM      3  C1  UNL d   1       0.927  -3.313  -4.164  0.00  0.00    -0.004 A 
ATOM      4  C2  UNL d   1      -0.391  -3.456  -4.539  0.00  0.00    -0.047 A 
ATOM      5  C3  UNL d   1      -1.059  -2.254  -4.206  0.00  0.00    -0.047 A 
ATOM      6  C4  UNL d   1      -0.128  -1.411  -3.636  0.00  0.00    -0.004 A 
ENDROOT
TORSDOF 0
ENDMDL
