MODEL 1
REMARK minimizedAffinity 4.36424637
REMARK minimizedRMSD -1
REMARK  0 active torsions:
REMARK  status: ('A' for Active; 'I' for Inactive)
ROOT
ATOM      1  C   UNL d   1       1.106  -5.963   5.496  0.00  0.00     0.172 C 
ATOM      2  N   UNL d   1       0.360  -5.973   4.260  0.00  0.00    -0.070 N 
ATOM      3  C1  UNL d   1      -1.005  -5.996   4.152  0.00  0.00    -0.004 A 
ATOM      4  C2  UNL d   1      -1.323  -5.998   2.811  0.00  0.00    -0.047 A 
ATOM      5  C3  UNL d   1      -0.106  -5.977   2.088  0.00  0.00    -0.047 A 
ATOM      6  C4  UNL d   1       0.919  -5.962   3.010  0.00  0.00    -0.004 A 
ENDROOT
TORSDOF 0
ENDMDL
