MODEL 1
REMARK minimizedAffinity 0.946038067
REMARK minimizedRMSD -1
REMARK  0 active torsions:
REMARK  status: ('A' for Active; 'I' for Inactive)
ROOT
ATOM      1  C   UNL d   1      -5.632  -0.006   6.000  0.00  0.00     0.172 C 
ATOM      2  N   UNL d   1      -5.737   1.103   5.082  0.00  0.00    -0.070 N 
ATOM      3  C1  UNL d   1      -5.624   2.427   5.413  0.00  0.00    -0.004 A 
ATOM      4  C2  UNL d   1      -5.783   3.166   4.261  0.00  0.00    -0.047 A 
ATOM      5  C3  UNL d   1      -5.999   2.254   3.200  0.00  0.00    -0.047 A 
ATOM      6  C4  UNL d   1      -5.965   0.984   3.736  0.00  0.00    -0.004 A 
ENDROOT
TORSDOF 0
ENDMDL
