MODEL 1
REMARK minimizedAffinity 1.48524868
REMARK minimizedRMSD -1
REMARK  0 active torsions:
REMARK  status: ('A' for Active; 'I' for Inactive)
ROOT
ATOM      1  C   UNL d   1       1.079  -2.649  -4.877  0.00  0.00     0.172 C 
ATOM      2  N   UNL d   1      -0.266  -2.525  -4.367  0.00  0.00    -0.070 N 
ATOM      3  C1  UNL d   1      -1.162  -3.550  -4.223  0.00  0.00    -0.004 A 
ATOM      4  C2  UNL d   1      -2.326  -3.024  -3.706  0.00  0.00    -0.047 A 
ATOM      5  C3  UNL d   1      -2.123  -1.634  -3.535  0.00  0.00    -0.047 A 
ATOM      6  C4  UNL d   1      -0.839  -1.352  -3.952  0.00  0.00    -0.004 A 
ENDROOT
TORSDOF 0
ENDMDL
