MODEL 1
REMARK minimizedAffinity 1.60079527
REMARK minimizedRMSD -1
REMARK  0 active torsions:
REMARK  status: ('A' for Active; 'I' for Inactive)
ROOT
ATOM      1  C   UNL d   1       0.754  -5.998   5.408  0.00  0.00     0.172 C 
ATOM      2  N   UNL d   1       0.389  -5.998   4.011  0.00  0.00    -0.070 N 
ATOM      3  C1  UNL d   1      -0.889  -5.998   3.519  0.00  0.00    -0.004 A 
ATOM      4  C2  UNL d   1      -0.812  -5.998   2.143  0.00  0.00    -0.047 A 
ATOM      5  C3  UNL d   1       0.560  -6.000   1.796  0.00  0.00    -0.047 A 
ATOM      6  C4  UNL d   1       1.281  -6.000   2.971  0.00  0.00    -0.004 A 
ENDROOT
TORSDOF 0
ENDMDL
