MODEL 1
REMARK minimizedAffinity 3.22858953
REMARK minimizedRMSD -1
REMARK  0 active torsions:
REMARK  status: ('A' for Active; 'I' for Inactive)
ROOT
ATOM      1  C   UNL d   1      -2.780  -5.980   0.463  0.00  0.00     0.172 C 
ATOM      2  N   UNL d   1      -1.874  -5.987   1.587  0.00  0.00    -0.070 N 
ATOM      3  C1  UNL d   1      -2.238  -5.994   2.907  0.00  0.00    -0.004 A 
ATOM      4  C2  UNL d   1      -1.086  -6.000   3.663  0.00  0.00    -0.047 A 
ATOM      5  C3  UNL d   1       0.009  -5.995   2.766  0.00  0.00    -0.047 A 
ATOM      6  C4  UNL d   1      -0.507  -5.988   1.488  0.00  0.00    -0.004 A 
ENDROOT
TORSDOF 0
ENDMDL
