MODEL 1
REMARK minimizedAffinity 3.62684608
REMARK minimizedRMSD -1
REMARK  0 active torsions:
REMARK  status: ('A' for Active; 'I' for Inactive)
ROOT
ATOM      1  C   UNL d   1      -1.217  -5.993   2.999  0.00  0.00     0.172 C 
ATOM      2  N   UNL d   1       0.138  -5.988   3.499  0.00  0.00    -0.070 N 
ATOM      3  C1  UNL d   1       1.271  -5.999   2.731  0.00  0.00    -0.004 A 
ATOM      4  C2  UNL d   1       2.356  -5.988   3.580  0.00  0.00    -0.047 A 
ATOM      5  C3  UNL d   1       1.858  -5.970   4.904  0.00  0.00    -0.047 A 
ATOM      6  C4  UNL d   1       0.481  -5.971   4.825  0.00  0.00    -0.004 A 
ENDROOT
TORSDOF 0
ENDMDL
