MODEL 1
REMARK minimizedAffinity -4.25153542
REMARK minimizedRMSD -1
REMARK  2 active torsions:
REMARK  status: ('A' for Active; 'I' for Inactive)
REMARK    1  A    between atoms: C1_2  and  C2_3 
REMARK    2  A    between atoms: C2_3  and  C3_4 
ROOT
ATOM      1  C3  UNL d   1       0.416  -0.233  -0.028  0.00  0.00    -0.075 A 
ATOM      2  C4  UNL d   1      -0.388  -1.248  -0.568  0.00  0.00     0.002 A 
ATOM      3  C5  UNL d   1      -0.066  -2.590  -0.363  0.00  0.00     0.002 A 
ATOM      4  C6  UNL d   1       1.065  -2.934   0.373  0.00  0.00    -0.004 A 
ATOM      5  C7  UNL d   1       1.880  -1.934   0.899  0.00  0.00     0.002 A 
ATOM      6  C8  UNL d   1       1.558  -0.590   0.700  0.00  0.00     0.002 A 
ENDROOT
BRANCH   1   7
ATOM      7  C2  UNL d   1       0.057   1.221  -0.221  0.00  0.00     0.056 C 
BRANCH   7   8
ATOM      8  C1  UNL d   1      -1.395   1.454  -0.653  0.00  0.00     0.007 C 
ATOM      9  C   UNL d   1      -1.529   2.457  -1.791  0.00  0.00     0.009 C 
ENDBRANCH   7   8
ENDBRANCH   1   7
TORSDOF 2
ENDMDL
