MODEL 1
REMARK minimizedAffinity -6.16213751
REMARK minimizedRMSD -1
REMARK  2 active torsions:
REMARK  status: ('A' for Active; 'I' for Inactive)
REMARK    1  A    between atoms: C1_2  and  C2_3 
REMARK    2  A    between atoms: C2_3  and  C3_4 
ROOT
ATOM      1  C3  UNL d   1      -0.089  -0.230   0.622  0.00  0.00    -0.075 A 
ATOM      2  C4  UNL d   1      -0.711  -1.115   1.515  0.00  0.00     0.002 A 
ATOM      3  C5  UNL d   1      -0.003  -2.188   2.056  0.00  0.00     0.002 A 
ATOM      4  C6  UNL d   1       1.329  -2.397   1.705  0.00  0.00    -0.004 A 
ATOM      5  C7  UNL d   1       1.952  -1.533   0.806  0.00  0.00     0.002 A 
ATOM      6  C8  UNL d   1       1.247  -0.456   0.266  0.00  0.00     0.002 A 
ENDROOT
BRANCH   1   7
ATOM      7  C2  UNL d   1      -0.841   0.951   0.056  0.00  0.00     0.056 C 
BRANCH   7   8
ATOM      8  C1  UNL d   1      -0.301   1.447  -1.290  0.00  0.00     0.007 C 
ATOM      9  C   UNL d   1      -1.398   1.848  -2.266  0.00  0.00     0.009 C 
ENDBRANCH   7   8
ENDBRANCH   1   7
TORSDOF 2
ENDMDL
