MODEL 1
REMARK minimizedAffinity -0.576700151
REMARK minimizedRMSD -1
REMARK  2 active torsions:
REMARK  status: ('A' for Active; 'I' for Inactive)
REMARK    1  A    between atoms: C1_2  and  C2_3 
REMARK    2  A    between atoms: C2_3  and  C3_4 
ROOT
ATOM      1  C3  UNL d   1      -0.824   3.412  -4.360  0.00  0.00    -0.075 A 
ATOM      2  C4  UNL d   1      -1.968   2.824  -4.920  0.00  0.00     0.002 A 
ATOM      3  C5  UNL d   1      -2.896   2.169  -4.110  0.00  0.00     0.002 A 
ATOM      4  C6  UNL d   1      -2.689   2.084  -2.735  0.00  0.00    -0.004 A 
ATOM      5  C7  UNL d   1      -1.548   2.651  -2.170  0.00  0.00     0.002 A 
ATOM      6  C8  UNL d   1      -0.620   3.311  -2.977  0.00  0.00     0.002 A 
ENDROOT
BRANCH   1   7
ATOM      7  C2  UNL d   1       0.169   4.148  -5.227  0.00  0.00     0.056 C 
BRANCH   7   8
ATOM      8  C1  UNL d   1       0.391   5.608  -4.819  0.00  0.00     0.007 C 
ATOM      9  C   UNL d   1       1.862   5.999  -4.763  0.00  0.00     0.009 C 
ENDBRANCH   7   8
ENDBRANCH   1   7
TORSDOF 2
ENDMDL
