MODEL 1
REMARK minimizedAffinity -6.01781416
REMARK minimizedRMSD -1
REMARK  2 active torsions:
REMARK  status: ('A' for Active; 'I' for Inactive)
REMARK    1  A    between atoms: C1_2  and  C2_3 
REMARK    2  A    between atoms: C2_3  and  C3_4 
ROOT
ATOM      1  C3  UNL d   1      -0.103   0.382  -0.455  0.00  0.00    -0.075 A 
ATOM      2  C4  UNL d   1       1.216   0.161  -0.880  0.00  0.00     0.002 A 
ATOM      3  C5  UNL d   1       1.893  -1.002  -0.512  0.00  0.00     0.002 A 
ATOM      4  C6  UNL d   1       1.267  -1.951   0.293  0.00  0.00    -0.004 A 
ATOM      5  C7  UNL d   1      -0.036  -1.735   0.735  0.00  0.00     0.002 A 
ATOM      6  C8  UNL d   1      -0.718  -0.574   0.364  0.00  0.00     0.002 A 
ENDROOT
BRANCH   1   7
ATOM      7  C2  UNL d   1      -0.852   1.624  -0.874  0.00  0.00     0.056 C 
BRANCH   7   8
ATOM      8  C1  UNL d   1      -2.125   1.342  -1.679  0.00  0.00     0.007 C 
ATOM      9  C   UNL d   1      -2.085   1.919  -3.088  0.00  0.00     0.009 C 
ENDBRANCH   7   8
ENDBRANCH   1   7
TORSDOF 2
ENDMDL
