MODEL 1
REMARK minimizedAffinity -5.29296017
REMARK minimizedRMSD -1
REMARK  2 active torsions:
REMARK  status: ('A' for Active; 'I' for Inactive)
REMARK    1  A    between atoms: C1_2  and  C2_3 
REMARK    2  A    between atoms: C2_3  and  C3_4 
ROOT
ATOM      1  C3  UNL d   1       0.841  -0.583  -0.280  0.00  0.00    -0.075 A 
ATOM      2  C4  UNL d   1      -0.010  -1.167   0.669  0.00  0.00     0.002 A 
ATOM      3  C5  UNL d   1       0.441  -2.210   1.478  0.00  0.00     0.002 A 
ATOM      4  C6  UNL d   1       1.742  -2.689   1.341  0.00  0.00    -0.004 A 
ATOM      5  C7  UNL d   1       2.591  -2.128   0.390  0.00  0.00     0.002 A 
ATOM      6  C8  UNL d   1       2.144  -1.080  -0.418  0.00  0.00     0.002 A 
ENDROOT
BRANCH   1   7
ATOM      7  C2  UNL d   1       0.368   0.566  -1.138  0.00  0.00     0.056 C 
BRANCH   7   8
ATOM      8  C1  UNL d   1      -0.965   1.174  -0.688  0.00  0.00     0.007 C 
ATOM      9  C   UNL d   1      -1.886   1.526  -1.849  0.00  0.00     0.009 C 
ENDBRANCH   7   8
ENDBRANCH   1   7
TORSDOF 2
ENDMDL
