MODEL 1
REMARK minimizedAffinity -2.0408237
REMARK minimizedRMSD -1
REMARK  2 active torsions:
REMARK  status: ('A' for Active; 'I' for Inactive)
REMARK    1  A    between atoms: C1_2  and  C2_3 
REMARK    2  A    between atoms: C2_3  and  C3_4 
ROOT
ATOM      1  C3  UNL d   1      -0.197  -1.701   0.966  0.00  0.00    -0.075 A 
ATOM      2  C4  UNL d   1      -0.065  -0.352   0.606  0.00  0.00     0.002 A 
ATOM      3  C5  UNL d   1      -0.865   0.622   1.204  0.00  0.00     0.002 A 
ATOM      4  C6  UNL d   1      -1.811   0.261   2.160  0.00  0.00    -0.004 A 
ATOM      5  C7  UNL d   1      -1.962  -1.079   2.514  0.00  0.00     0.002 A 
ATOM      6  C8  UNL d   1      -1.160  -2.055   1.920  0.00  0.00     0.002 A 
ENDROOT
BRANCH   1   7
ATOM      7  C2  UNL d   1       0.686  -2.756   0.344  0.00  0.00     0.056 C 
BRANCH   7   8
ATOM      8  C1  UNL d   1       2.047  -2.915   1.031  0.00  0.00     0.007 C 
ATOM      9  C   UNL d   1       2.726  -1.586   1.334  0.00  0.00     0.009 C 
ENDBRANCH   7   8
ENDBRANCH   1   7
TORSDOF 2
ENDMDL
