MODEL 1
REMARK minimizedAffinity -4.65661383
REMARK minimizedRMSD -1
REMARK  2 active torsions:
REMARK  status: ('A' for Active; 'I' for Inactive)
REMARK    1  A    between atoms: C1_2  and  C2_3 
REMARK    2  A    between atoms: C2_3  and  C3_4 
ROOT
ATOM      1  C3  UNL d   1      -0.391  -0.246   1.237  0.00  0.00    -0.075 A 
ATOM      2  C4  UNL d   1       0.750  -0.746   0.591  0.00  0.00     0.002 A 
ATOM      3  C5  UNL d   1       1.406  -1.874   1.084  0.00  0.00     0.002 A 
ATOM      4  C6  UNL d   1       0.938  -2.509   2.232  0.00  0.00    -0.004 A 
ATOM      5  C7  UNL d   1      -0.185  -2.012   2.891  0.00  0.00     0.002 A 
ATOM      6  C8  UNL d   1      -0.846  -0.886   2.397  0.00  0.00     0.002 A 
ENDROOT
BRANCH   1   7
ATOM      7  C2  UNL d   1      -1.123   0.957   0.691  0.00  0.00     0.056 C 
BRANCH   7   8
ATOM      8  C1  UNL d   1      -0.312   1.774  -0.321  0.00  0.00     0.007 C 
ATOM      9  C   UNL d   1      -1.123   2.194  -1.540  0.00  0.00     0.009 C 
ENDBRANCH   7   8
ENDBRANCH   1   7
TORSDOF 2
ENDMDL
