MODEL 1
REMARK minimizedAffinity -2.1208632
REMARK minimizedRMSD -1
REMARK  2 active torsions:
REMARK  status: ('A' for Active; 'I' for Inactive)
REMARK    1  A    between atoms: C1_2  and  C2_3 
REMARK    2  A    between atoms: C2_3  and  C3_4 
ROOT
ATOM      1  C3  UNL d   1      -0.105   0.429   0.174  0.00  0.00    -0.075 A 
ATOM      2  C4  UNL d   1       1.113   0.475  -0.519  0.00  0.00     0.002 A 
ATOM      3  C5  UNL d   1       2.116  -0.459  -0.252  0.00  0.00     0.002 A 
ATOM      4  C6  UNL d   1       1.918  -1.440   0.716  0.00  0.00    -0.004 A 
ATOM      5  C7  UNL d   1       0.718  -1.485   1.423  0.00  0.00     0.002 A 
ATOM      6  C8  UNL d   1      -0.289  -0.555   1.155  0.00  0.00     0.002 A 
ENDROOT
BRANCH   1   7
ATOM      7  C2  UNL d   1      -1.205   1.418  -0.131  0.00  0.00     0.056 C 
BRANCH   7   8
ATOM      8  C1  UNL d   1      -1.295   1.814  -1.608  0.00  0.00     0.007 C 
ATOM      9  C   UNL d   1      -2.583   1.352  -2.276  0.00  0.00     0.009 C 
ENDBRANCH   7   8
ENDBRANCH   1   7
TORSDOF 2
ENDMDL
