MODEL 1
REMARK minimizedAffinity -4.56393576
REMARK minimizedRMSD -1
REMARK  2 active torsions:
REMARK  status: ('A' for Active; 'I' for Inactive)
REMARK    1  A    between atoms: C1_2  and  C2_3 
REMARK    2  A    between atoms: C2_3  and  C3_4 
ROOT
ATOM      1  C3  UNL d   1      -0.112   0.017   0.326  0.00  0.00    -0.075 A 
ATOM      2  C4  UNL d   1      -0.290  -0.994   1.281  0.00  0.00     0.002 A 
ATOM      3  C5  UNL d   1       0.726  -1.915   1.535  0.00  0.00     0.002 A 
ATOM      4  C6  UNL d   1       1.927  -1.845   0.832  0.00  0.00    -0.004 A 
ATOM      5  C7  UNL d   1       2.108  -0.854  -0.131  0.00  0.00     0.002 A 
ATOM      6  C8  UNL d   1       1.095   0.072  -0.384  0.00  0.00     0.002 A 
ENDROOT
BRANCH   1   7
ATOM      7  C2  UNL d   1      -1.196   1.036   0.067  0.00  0.00     0.056 C 
BRANCH   7   8
ATOM      8  C1  UNL d   1      -1.077   1.744  -1.287  0.00  0.00     0.007 C 
ATOM      9  C   UNL d   1      -2.420   1.956  -1.974  0.00  0.00     0.009 C 
ENDBRANCH   7   8
ENDBRANCH   1   7
TORSDOF 2
ENDMDL
