MODEL 1
REMARK minimizedAffinity -2.58423162
REMARK minimizedRMSD -1
REMARK  2 active torsions:
REMARK  status: ('A' for Active; 'I' for Inactive)
REMARK    1  A    between atoms: C1_2  and  C2_3 
REMARK    2  A    between atoms: C2_3  and  C3_4 
ROOT
ATOM      1  C3  UNL d   1       0.465  -1.150   0.314  0.00  0.00    -0.075 A 
ATOM      2  C4  UNL d   1      -0.770  -0.863   0.914  0.00  0.00     0.002 A 
ATOM      3  C5  UNL d   1      -1.362   0.390   0.752  0.00  0.00     0.002 A 
ATOM      4  C6  UNL d   1      -0.724   1.373  -0.002  0.00  0.00    -0.004 A 
ATOM      5  C7  UNL d   1       0.510   1.104  -0.588  0.00  0.00     0.002 A 
ATOM      6  C8  UNL d   1       1.103  -0.150  -0.431  0.00  0.00     0.002 A 
ENDROOT
BRANCH   1   7
ATOM      7  C2  UNL d   1       1.098  -2.513   0.462  0.00  0.00     0.056 C 
BRANCH   7   8
ATOM      8  C1  UNL d   1       1.599  -2.818   1.877  0.00  0.00     0.007 C 
ATOM      9  C   UNL d   1       2.451  -1.702   2.466  0.00  0.00     0.009 C 
ENDBRANCH   7   8
ENDBRANCH   1   7
TORSDOF 2
ENDMDL
