MODEL 1
REMARK minimizedAffinity -4.62040997
REMARK minimizedRMSD -1
REMARK  2 active torsions:
REMARK  status: ('A' for Active; 'I' for Inactive)
REMARK    1  A    between atoms: C1_2  and  C2_3 
REMARK    2  A    between atoms: C2_3  and  C3_4 
ROOT
ATOM      1  C3  UNL d   1       0.379  -0.921   0.665  0.00  0.00    -0.075 A 
ATOM      2  C4  UNL d   1      -0.597  -0.885   1.671  0.00  0.00     0.002 A 
ATOM      3  C5  UNL d   1      -0.561  -1.798   2.726  0.00  0.00     0.002 A 
ATOM      4  C6  UNL d   1       0.443  -2.762   2.783  0.00  0.00    -0.004 A 
ATOM      5  C7  UNL d   1       1.408  -2.818   1.780  0.00  0.00     0.002 A 
ATOM      6  C8  UNL d   1       1.377  -1.903   0.726  0.00  0.00     0.002 A 
ENDROOT
BRANCH   1   7
ATOM      7  C2  UNL d   1       0.363   0.082  -0.464  0.00  0.00     0.056 C 
BRANCH   7   8
ATOM      8  C1  UNL d   1      -0.680   1.192  -0.296  0.00  0.00     0.007 C 
ATOM      9  C   UNL d   1      -1.338   1.601  -1.607  0.00  0.00     0.009 C 
ENDBRANCH   7   8
ENDBRANCH   1   7
TORSDOF 2
ENDMDL
