MODEL 1
REMARK minimizedAffinity -6.10578394
REMARK minimizedRMSD -1
REMARK  2 active torsions:
REMARK  status: ('A' for Active; 'I' for Inactive)
REMARK    1  A    between atoms: C1_2  and  C2_3 
REMARK    2  A    between atoms: C2_3  and  C3_4 
ROOT
ATOM      1  C3  UNL d   1       0.235  -0.845   0.323  0.00  0.00    -0.075 A 
ATOM      2  C4  UNL d   1      -0.675  -0.818   1.390  0.00  0.00     0.002 A 
ATOM      3  C5  UNL d   1      -0.537  -1.701   2.461  0.00  0.00     0.002 A 
ATOM      4  C6  UNL d   1       0.502  -2.629   2.474  0.00  0.00    -0.004 A 
ATOM      5  C7  UNL d   1       1.402  -2.676   1.411  0.00  0.00     0.002 A 
ATOM      6  C8  UNL d   1       1.270  -1.790   0.340  0.00  0.00     0.002 A 
ENDROOT
BRANCH   1   7
ATOM      7  C2  UNL d   1       0.109   0.128  -0.825  0.00  0.00     0.056 C 
BRANCH   7   8
ATOM      8  C1  UNL d   1      -0.937   1.226  -0.600  0.00  0.00     0.007 C 
ATOM      9  C   UNL d   1      -1.664   1.632  -1.875  0.00  0.00     0.009 C 
ENDBRANCH   7   8
ENDBRANCH   1   7
TORSDOF 2
ENDMDL
