MODEL 1
REMARK minimizedAffinity -5.84519482
REMARK minimizedRMSD -1
REMARK  2 active torsions:
REMARK  status: ('A' for Active; 'I' for Inactive)
REMARK    1  A    between atoms: C1_2  and  C2_3 
REMARK    2  A    between atoms: C2_3  and  C3_4 
ROOT
ATOM      1  C3  UNL d   1      -0.068  -0.213   0.150  0.00  0.00    -0.075 A 
ATOM      2  C4  UNL d   1      -0.550  -1.417   0.684  0.00  0.00     0.002 A 
ATOM      3  C5  UNL d   1       0.317  -2.484   0.923  0.00  0.00     0.002 A 
ATOM      4  C6  UNL d   1       1.672  -2.365   0.623  0.00  0.00    -0.004 A 
ATOM      5  C7  UNL d   1       2.159  -1.179   0.076  0.00  0.00     0.002 A 
ATOM      6  C8  UNL d   1       1.295  -0.109  -0.160  0.00  0.00     0.002 A 
ENDROOT
BRANCH   1   7
ATOM      7  C2  UNL d   1      -0.996   0.955  -0.084  0.00  0.00     0.056 C 
BRANCH   7   8
ATOM      8  C1  UNL d   1      -1.334   1.197  -1.559  0.00  0.00     0.007 C 
ATOM      9  C   UNL d   1      -2.786   0.891  -1.900  0.00  0.00     0.009 C 
ENDBRANCH   7   8
ENDBRANCH   1   7
TORSDOF 2
ENDMDL
