MODEL 1
REMARK minimizedAffinity 14.2183409
REMARK minimizedRMSD -1
REMARK  0 active torsions:
REMARK  status: ('A' for Active; 'I' for Inactive)
ROOT
ATOM      1  C   UNL d   1       2.343   2.296  -3.248  0.00  0.00     0.077 C 
ATOM      2  C1  UNL d   1       3.620   1.516  -3.146  0.00  0.00    -0.074 A 
ATOM      3  C2  UNL d   1       4.807   2.004  -3.704  0.00  0.00    -0.005 A 
ATOM      4  C3  UNL d   1       5.989   1.272  -3.594  0.00  0.00     0.006 A 
ATOM      5  C4  UNL d   1       5.997   0.047  -2.926  0.00  0.00    -0.005 A 
ATOM      6  C5  UNL d   1       4.821  -0.456  -2.361  0.00  0.00    -0.074 A 
ATOM      7  C6  UNL d   1       4.814  -1.767  -1.631  0.00  0.00     0.077 C 
ATOM      8  C7  UNL d   1       3.638   0.288  -2.470  0.00  0.00    -0.001 A 
ENDROOT
TORSDOF 0
ENDMDL
