MODEL 1
REMARK minimizedAffinity 18.5537262
REMARK minimizedRMSD -1
REMARK  0 active torsions:
REMARK  status: ('A' for Active; 'I' for Inactive)
ROOT
ATOM      1  C   UNL d   1      -2.200   3.714  -5.816  0.00  0.00     0.077 C 
ATOM      2  C1  UNL d   1      -2.424   4.282  -4.446  0.00  0.00    -0.074 A 
ATOM      3  C2  UNL d   1      -1.813   5.478  -4.056  0.00  0.00    -0.005 A 
ATOM      4  C3  UNL d   1      -2.038   5.999  -2.781  0.00  0.00     0.006 A 
ATOM      5  C4  UNL d   1      -2.875   5.330  -1.887  0.00  0.00    -0.005 A 
ATOM      6  C5  UNL d   1      -3.495   4.134  -2.260  0.00  0.00    -0.074 A 
ATOM      7  C6  UNL d   1      -4.405   3.408  -1.314  0.00  0.00     0.077 C 
ATOM      8  C7  UNL d   1      -3.269   3.620  -3.545  0.00  0.00    -0.001 A 
ENDROOT
TORSDOF 0
ENDMDL
