MODEL 1
REMARK minimizedAffinity 19.4390507
REMARK minimizedRMSD -1
REMARK  0 active torsions:
REMARK  status: ('A' for Active; 'I' for Inactive)
ROOT
ATOM      1  C   UNL d   1       2.011  -0.581   1.105  0.00  0.00     0.077 C 
ATOM      2  C1  UNL d   1       0.733  -0.868   1.835  0.00  0.00    -0.074 A 
ATOM      3  C2  UNL d   1       0.238   0.022   2.794  0.00  0.00    -0.005 A 
ATOM      4  C3  UNL d   1      -0.957  -0.254   3.459  0.00  0.00     0.006 A 
ATOM      5  C4  UNL d   1      -1.667  -1.420   3.172  0.00  0.00    -0.005 A 
ATOM      6  C5  UNL d   1      -1.188  -2.321   2.216  0.00  0.00    -0.074 A 
ATOM      7  C6  UNL d   1      -1.944  -3.575   1.888  0.00  0.00     0.077 C 
ATOM      8  C7  UNL d   1       0.010  -2.034   1.547  0.00  0.00    -0.001 A 
ENDROOT
TORSDOF 0
ENDMDL
