MODEL 1
REMARK minimizedAffinity 12.9526796
REMARK minimizedRMSD -1
REMARK  0 active torsions:
REMARK  status: ('A' for Active; 'I' for Inactive)
ROOT
ATOM      1  C   UNL d   1       5.996  -2.480  -5.998  0.00  0.00     0.077 C 
ATOM      2  C1  UNL d   1       5.643  -1.847  -4.685  0.00  0.00    -0.074 A 
ATOM      3  C2  UNL d   1       6.000  -2.452  -3.476  0.00  0.00    -0.005 A 
ATOM      4  C3  UNL d   1       5.673  -1.847  -2.263  0.00  0.00     0.006 A 
ATOM      5  C4  UNL d   1       4.986  -0.633  -2.246  0.00  0.00    -0.005 A 
ATOM      6  C5  UNL d   1       4.621  -0.012  -3.445  0.00  0.00    -0.074 A 
ATOM      7  C6  UNL d   1       3.891   1.298  -3.445  0.00  0.00     0.077 C 
ATOM      8  C7  UNL d   1       4.960  -0.623  -4.661  0.00  0.00    -0.001 A 
ENDROOT
TORSDOF 0
ENDMDL
