MODEL 1
REMARK minimizedAffinity 8.11987972
REMARK minimizedRMSD -1
REMARK  0 active torsions:
REMARK  status: ('A' for Active; 'I' for Inactive)
ROOT
ATOM      1  C   UNL d   1      -0.962  -0.588   3.334  0.00  0.00     0.077 C 
ATOM      2  C1  UNL d   1       0.529  -0.550   3.172  0.00  0.00    -0.074 A 
ATOM      3  C2  UNL d   1       1.344   0.034   4.147  0.00  0.00    -0.005 A 
ATOM      4  C3  UNL d   1       2.729   0.054   3.986  0.00  0.00     0.006 A 
ATOM      5  C4  UNL d   1       3.313  -0.510   2.851  0.00  0.00    -0.005 A 
ATOM      6  C5  UNL d   1       2.515  -1.100   1.866  0.00  0.00    -0.074 A 
ATOM      7  C6  UNL d   1       3.127  -1.720   0.645  0.00  0.00     0.077 C 
ATOM      8  C7  UNL d   1       1.124  -1.122   2.038  0.00  0.00    -0.001 A 
ENDROOT
TORSDOF 0
ENDMDL
