MODEL 1
REMARK minimizedAffinity 15.6841812
REMARK minimizedRMSD -1
REMARK  0 active torsions:
REMARK  status: ('A' for Active; 'I' for Inactive)
ROOT
ATOM      1  C   UNL d   1       5.960  -5.992   5.249  0.00  0.00     0.077 C 
ATOM      2  C1  UNL d   1       4.532  -5.623   4.978  0.00  0.00    -0.074 A 
ATOM      3  C2  UNL d   1       3.724  -5.087   5.986  0.00  0.00    -0.005 A 
ATOM      4  C3  UNL d   1       2.400  -4.740   5.716  0.00  0.00     0.006 A 
ATOM      5  C4  UNL d   1       1.871  -4.926   4.438  0.00  0.00    -0.005 A 
ATOM      6  C5  UNL d   1       2.664  -5.460   3.417  0.00  0.00    -0.074 A 
ATOM      7  C6  UNL d   1       2.115  -5.657   2.036  0.00  0.00     0.077 C 
ATOM      8  C7  UNL d   1       3.996  -5.800   3.694  0.00  0.00    -0.001 A 
ENDROOT
TORSDOF 0
ENDMDL
