MODEL 1
REMARK minimizedAffinity 13.3958979
REMARK minimizedRMSD -1
REMARK  0 active torsions:
REMARK  status: ('A' for Active; 'I' for Inactive)
ROOT
ATOM      1  C   UNL d   1       2.221  -3.013  -0.467  0.00  0.00     0.077 C 
ATOM      2  C1  UNL d   1       2.019  -2.132   0.729  0.00  0.00    -0.074 A 
ATOM      3  C2  UNL d   1       0.938  -2.330   1.594  0.00  0.00    -0.005 A 
ATOM      4  C3  UNL d   1       0.768  -1.508   2.708  0.00  0.00     0.006 A 
ATOM      5  C4  UNL d   1       1.676  -0.481   2.968  0.00  0.00    -0.005 A 
ATOM      6  C5  UNL d   1       2.764  -0.268   2.115  0.00  0.00    -0.074 A 
ATOM      7  C6  UNL d   1       3.754   0.825   2.386  0.00  0.00     0.077 C 
ATOM      8  C7  UNL d   1       2.931  -1.103   1.002  0.00  0.00    -0.001 A 
ENDROOT
TORSDOF 0
ENDMDL
