MODEL 1
REMARK minimizedAffinity 12.2801704
REMARK minimizedRMSD -1
REMARK  0 active torsions:
REMARK  status: ('A' for Active; 'I' for Inactive)
ROOT
ATOM      1  C   UNL d   1      -0.787  -0.649   4.863  0.00  0.00     0.077 C 
ATOM      2  C1  UNL d   1      -0.073  -1.060   3.610  0.00  0.00    -0.074 A 
ATOM      3  C2  UNL d   1      -0.354  -2.282   2.990  0.00  0.00    -0.005 A 
ATOM      4  C3  UNL d   1       0.311  -2.647   1.820  0.00  0.00     0.006 A 
ATOM      5  C4  UNL d   1       1.263  -1.795   1.258  0.00  0.00    -0.005 A 
ATOM      6  C5  UNL d   1       1.557  -0.569   1.863  0.00  0.00    -0.074 A 
ATOM      7  C6  UNL d   1       2.571   0.362   1.267  0.00  0.00     0.077 C 
ATOM      8  C7  UNL d   1       0.879  -0.206   3.035  0.00  0.00    -0.001 A 
ENDROOT
TORSDOF 0
ENDMDL
