MODEL 1
REMARK minimizedAffinity 22.4102249
REMARK minimizedRMSD -1
REMARK  0 active torsions:
REMARK  status: ('A' for Active; 'I' for Inactive)
ROOT
ATOM      1  C   UNL d   1       0.163  -1.780   1.173  0.00  0.00     0.077 C 
ATOM      2  C1  UNL d   1       0.928  -0.823   2.038  0.00  0.00    -0.074 A 
ATOM      3  C2  UNL d   1       0.464  -0.476   3.311  0.00  0.00    -0.005 A 
ATOM      4  C3  UNL d   1       1.192   0.407   4.108  0.00  0.00     0.006 A 
ATOM      5  C4  UNL d   1       2.389   0.952   3.641  0.00  0.00    -0.005 A 
ATOM      6  C5  UNL d   1       2.869   0.616   2.371  0.00  0.00    -0.074 A 
ATOM      7  C6  UNL d   1       4.158   1.185   1.857  0.00  0.00     0.077 C 
ATOM      8  C7  UNL d   1       2.135  -0.278   1.579  0.00  0.00    -0.001 A 
ENDROOT
TORSDOF 0
ENDMDL
