MODEL 1
REMARK minimizedAffinity 7.76691628
REMARK minimizedRMSD -1
REMARK  0 active torsions:
REMARK  status: ('A' for Active; 'I' for Inactive)
ROOT
ATOM      1  C   UNL d   1       0.754  -0.217   5.983  0.00  0.00     0.077 C 
ATOM      2  C1  UNL d   1       1.228  -0.336   4.565  0.00  0.00    -0.074 A 
ATOM      3  C2  UNL d   1       0.416  -0.909   3.581  0.00  0.00    -0.005 A 
ATOM      4  C3  UNL d   1       0.866  -1.003   2.264  0.00  0.00     0.006 A 
ATOM      5  C4  UNL d   1       2.132  -0.526   1.919  0.00  0.00    -0.005 A 
ATOM      6  C5  UNL d   1       2.957   0.051   2.889  0.00  0.00    -0.074 A 
ATOM      7  C6  UNL d   1       4.316   0.577   2.533  0.00  0.00     0.077 C 
ATOM      8  C7  UNL d   1       2.494   0.148   4.208  0.00  0.00    -0.001 A 
ENDROOT
TORSDOF 0
ENDMDL
