MODEL 1
REMARK minimizedAffinity 13.1004515
REMARK minimizedRMSD -1
REMARK  0 active torsions:
REMARK  status: ('A' for Active; 'I' for Inactive)
ROOT
ATOM      1  C   UNL d   1       4.561  -0.203   2.320  0.00  0.00     0.077 C 
ATOM      2  C1  UNL d   1       3.169  -0.388   2.846  0.00  0.00    -0.074 A 
ATOM      3  C2  UNL d   1       2.820   0.051   4.128  0.00  0.00    -0.005 A 
ATOM      4  C3  UNL d   1       1.519  -0.119   4.599  0.00  0.00     0.006 A 
ATOM      5  C4  UNL d   1       0.554  -0.729   3.796  0.00  0.00    -0.005 A 
ATOM      6  C5  UNL d   1       0.884  -1.174   2.512  0.00  0.00    -0.074 A 
ATOM      7  C6  UNL d   1      -0.143  -1.822   1.632  0.00  0.00     0.077 C 
ATOM      8  C7  UNL d   1       2.192  -0.993   2.042  0.00  0.00    -0.001 A 
ENDROOT
TORSDOF 0
ENDMDL
