MODEL 1
REMARK minimizedAffinity 6.44101143
REMARK minimizedRMSD -1
REMARK  0 active torsions:
REMARK  status: ('A' for Active; 'I' for Inactive)
ROOT
ATOM      1  C   UNL d   1      -1.875  -3.375   2.625  0.00  0.00     0.077 C 
ATOM      2  C1  UNL d   1      -0.706  -2.436   2.628  0.00  0.00    -0.074 A 
ATOM      3  C2  UNL d   1      -0.645  -1.367   3.528  0.00  0.00    -0.005 A 
ATOM      4  C3  UNL d   1       0.453  -0.507   3.526  0.00  0.00     0.006 A 
ATOM      5  C4  UNL d   1       1.500  -0.707   2.625  0.00  0.00    -0.005 A 
ATOM      6  C5  UNL d   1       1.457  -1.770   1.718  0.00  0.00    -0.074 A 
ATOM      7  C6  UNL d   1       2.578  -2.005   0.750  0.00  0.00     0.077 C 
ATOM      8  C7  UNL d   1       0.353  -2.634   1.732  0.00  0.00    -0.001 A 
ENDROOT
TORSDOF 0
ENDMDL
