MODEL 1
REMARK minimizedAffinity 4.35207653
REMARK minimizedRMSD -1
REMARK  0 active torsions:
REMARK  status: ('A' for Active; 'I' for Inactive)
ROOT
ATOM      1  C   UNL d   1       1.887  -1.068   1.512  0.00  0.00     0.077 C 
ATOM      2  C1  UNL d   1       0.811  -1.369   2.513  0.00  0.00    -0.074 A 
ATOM      3  C2  UNL d   1       0.785  -0.727   3.755  0.00  0.00    -0.005 A 
ATOM      4  C3  UNL d   1      -0.227  -1.010   4.672  0.00  0.00     0.006 A 
ATOM      5  C4  UNL d   1      -1.221  -1.938   4.357  0.00  0.00    -0.005 A 
ATOM      6  C5  UNL d   1      -1.212  -2.589   3.120  0.00  0.00    -0.074 A 
ATOM      7  C6  UNL d   1      -2.278  -3.581   2.761  0.00  0.00     0.077 C 
ATOM      8  C7  UNL d   1      -0.195  -2.294   2.201  0.00  0.00    -0.001 A 
ENDROOT
TORSDOF 0
ENDMDL
