MODEL 1
REMARK minimizedAffinity 7.94051266
REMARK minimizedRMSD -1
REMARK  1 active torsions:
REMARK  status: ('A' for Active; 'I' for Inactive)
REMARK    1  A    between atoms: C1_2  and  C2_3 
ROOT
ATOM      1  C2  UNL d   1       3.696   0.357  -0.129  0.00  0.00    -0.076 A 
ATOM      2  C3  UNL d   1       3.667   1.566  -0.846  0.00  0.00     0.004 A 
ATOM      3  C4  UNL d   1       2.641   1.840  -1.749  0.00  0.00    -0.003 A 
ATOM      4  C5  UNL d   1       1.628   0.910  -1.950  0.00  0.00     0.000 A 
ATOM      5  C6  UNL d   1       1.631  -0.287  -1.234  0.00  0.00     0.000 A 
ATOM      6  C7  UNL d   1       2.649  -0.572  -0.308  0.00  0.00    -0.073 A 
ATOM      7  C8  UNL d   1       2.606  -1.881   0.432  0.00  0.00     0.078 C 
ENDROOT
BRANCH   1   8
ATOM      8  C1  UNL d   1       4.848   0.104   0.817  0.00  0.00     0.053 C 
ATOM      9  C   UNL d   1       5.756  -1.021   0.341  0.00  0.00     0.018 C 
ENDBRANCH   1   8
TORSDOF 1
ENDMDL
