MODEL 1
REMARK minimizedAffinity 2.13817692
REMARK minimizedRMSD -1
REMARK  1 active torsions:
REMARK  status: ('A' for Active; 'I' for Inactive)
REMARK    1  A    between atoms: C1_2  and  C2_3 
ROOT
ATOM      1  C2  UNL d   1       0.671  -1.703   1.351  0.00  0.00    -0.076 A 
ATOM      2  C3  UNL d   1      -0.447  -1.047   1.895  0.00  0.00     0.004 A 
ATOM      3  C4  UNL d   1      -1.234  -1.660   2.868  0.00  0.00    -0.003 A 
ATOM      4  C5  UNL d   1      -0.916  -2.938   3.314  0.00  0.00     0.000 A 
ATOM      5  C6  UNL d   1       0.199  -3.596   2.798  0.00  0.00     0.000 A 
ATOM      6  C7  UNL d   1       1.013  -2.987   1.828  0.00  0.00    -0.073 A 
ATOM      7  C8  UNL d   1       2.201  -3.745   1.302  0.00  0.00     0.078 C 
ENDROOT
BRANCH   1   8
ATOM      8  C1  UNL d   1       1.472  -1.000   0.279  0.00  0.00     0.053 C 
ATOM      9  C   UNL d   1       0.604  -0.145  -0.631  0.00  0.00     0.018 C 
ENDBRANCH   1   8
TORSDOF 1
ENDMDL
