MODEL 1
REMARK minimizedAffinity -1.57173336
REMARK minimizedRMSD -1
REMARK  1 active torsions:
REMARK  status: ('A' for Active; 'I' for Inactive)
REMARK    1  A    between atoms: C1_2  and  C2_3 
ROOT
ATOM      1  C2  UNL d   1      -0.212  -1.470   2.000  0.00  0.00    -0.076 A 
ATOM      2  C3  UNL d   1      -0.659  -2.376   2.977  0.00  0.00     0.004 A 
ATOM      3  C4  UNL d   1      -0.133  -3.665   3.054  0.00  0.00    -0.003 A 
ATOM      4  C5  UNL d   1       0.848  -4.069   2.156  0.00  0.00     0.000 A 
ATOM      5  C6  UNL d   1       1.316  -3.177   1.191  0.00  0.00     0.000 A 
ATOM      6  C7  UNL d   1       0.808  -1.869   1.110  0.00  0.00    -0.073 A 
ATOM      7  C8  UNL d   1       1.345  -0.951   0.046  0.00  0.00     0.078 C 
ENDROOT
BRANCH   1   8
ATOM      8  C1  UNL d   1      -0.838  -0.095   1.947  0.00  0.00     0.053 C 
ATOM      9  C   UNL d   1      -2.094  -0.059   1.090  0.00  0.00     0.018 C 
ENDBRANCH   1   8
TORSDOF 1
ENDMDL
