MODEL 1
REMARK minimizedAffinity 8.77307034
REMARK minimizedRMSD -1
REMARK  1 active torsions:
REMARK  status: ('A' for Active; 'I' for Inactive)
REMARK    1  A    between atoms: C1_2  and  C2_3 
ROOT
ATOM      1  C2  UNL d   1       0.117  -1.514   2.046  0.00  0.00    -0.076 A 
ATOM      2  C3  UNL d   1       0.724  -2.769   2.224  0.00  0.00     0.004 A 
ATOM      3  C4  UNL d   1       0.075  -3.788   2.919  0.00  0.00    -0.003 A 
ATOM      4  C5  UNL d   1      -1.192  -3.568   3.449  0.00  0.00     0.000 A 
ATOM      5  C6  UNL d   1      -1.816  -2.335   3.267  0.00  0.00     0.000 A 
ATOM      6  C7  UNL d   1      -1.183  -1.302   2.554  0.00  0.00    -0.073 A 
ATOM      7  C8  UNL d   1      -1.900   0.010   2.393  0.00  0.00     0.078 C 
ENDROOT
BRANCH   1   8
ATOM      8  C1  UNL d   1       0.880  -0.439   1.306  0.00  0.00     0.053 C 
ATOM      9  C   UNL d   1       1.915  -1.012   0.350  0.00  0.00     0.018 C 
ENDBRANCH   1   8
TORSDOF 1
ENDMDL
