MODEL 1
REMARK minimizedAffinity 8.94177532
REMARK minimizedRMSD -1
REMARK  1 active torsions:
REMARK  status: ('A' for Active; 'I' for Inactive)
REMARK    1  A    between atoms: C1_2  and  C2_3 
ROOT
ATOM      1  C2  UNL d   1       1.509  -1.338   0.302  0.00  0.00    -0.076 A 
ATOM      2  C3  UNL d   1       2.439  -2.126  -0.399  0.00  0.00     0.004 A 
ATOM      3  C4  UNL d   1       3.045  -3.226   0.203  0.00  0.00    -0.003 A 
ATOM      4  C5  UNL d   1       2.732  -3.558   1.516  0.00  0.00     0.000 A 
ATOM      5  C6  UNL d   1       1.798  -2.799   2.221  0.00  0.00     0.000 A 
ATOM      6  C7  UNL d   1       1.165  -1.696   1.623  0.00  0.00    -0.073 A 
ATOM      7  C8  UNL d   1       0.171  -0.908   2.432  0.00  0.00     0.078 C 
ENDROOT
BRANCH   1   8
ATOM      8  C1  UNL d   1       0.903  -0.140  -0.394  0.00  0.00     0.053 C 
ATOM      9  C   UNL d   1       1.112  -0.174  -1.900  0.00  0.00     0.018 C 
ENDBRANCH   1   8
TORSDOF 1
ENDMDL
