MODEL 1
REMARK minimizedAffinity 0.811591744
REMARK minimizedRMSD -1
REMARK  1 active torsions:
REMARK  status: ('A' for Active; 'I' for Inactive)
REMARK    1  A    between atoms: C1_2  and  C2_3 
ROOT
ATOM      1  C2  UNL d   1      -0.286  -1.805   2.188  0.00  0.00    -0.076 A 
ATOM      2  C3  UNL d   1      -1.421  -1.702   3.010  0.00  0.00     0.004 A 
ATOM      3  C4  UNL d   1      -1.870  -2.792   3.753  0.00  0.00    -0.003 A 
ATOM      4  C5  UNL d   1      -1.191  -4.004   3.687  0.00  0.00     0.000 A 
ATOM      5  C6  UNL d   1      -0.053  -4.119   2.889  0.00  0.00     0.000 A 
ATOM      6  C7  UNL d   1       0.423  -3.025   2.146  0.00  0.00    -0.073 A 
ATOM      7  C8  UNL d   1       1.652  -3.207   1.299  0.00  0.00     0.078 C 
ENDROOT
BRANCH   1   8
ATOM      8  C1  UNL d   1       0.138  -0.597   1.384  0.00  0.00     0.053 C 
ATOM      9  C   UNL d   1      -1.040   0.275   0.977  0.00  0.00     0.018 C 
ENDBRANCH   1   8
TORSDOF 1
ENDMDL
