MODEL 1
REMARK minimizedAffinity 5.30528593
REMARK minimizedRMSD -1
REMARK  1 active torsions:
REMARK  status: ('A' for Active; 'I' for Inactive)
REMARK    1  A    between atoms: C1_2  and  C2_3 
ROOT
ATOM      1  C2  UNL d   1       0.151  -0.491   0.094  0.00  0.00    -0.076 A 
ATOM      2  C3  UNL d   1       0.299  -0.541   1.491  0.00  0.00     0.004 A 
ATOM      3  C4  UNL d   1      -0.811  -0.487   2.332  0.00  0.00    -0.003 A 
ATOM      4  C5  UNL d   1      -2.087  -0.382   1.790  0.00  0.00     0.000 A 
ATOM      5  C6  UNL d   1      -2.254  -0.348   0.406  0.00  0.00     0.000 A 
ATOM      6  C7  UNL d   1      -1.146  -0.418  -0.457  0.00  0.00    -0.073 A 
ATOM      7  C8  UNL d   1      -1.384  -0.372  -1.941  0.00  0.00     0.078 C 
ENDROOT
BRANCH   1   8
ATOM      8  C1  UNL d   1       1.393  -0.526  -0.768  0.00  0.00     0.053 C 
ATOM      9  C   UNL d   1       2.532   0.294  -0.182  0.00  0.00     0.018 C 
ENDBRANCH   1   8
TORSDOF 1
ENDMDL
