MODEL 1
REMARK minimizedAffinity 0.287756592
REMARK minimizedRMSD -1
REMARK  1 active torsions:
REMARK  status: ('A' for Active; 'I' for Inactive)
REMARK    1  A    between atoms: C1_2  and  C2_3 
ROOT
ATOM      1  C2  UNL d   1       1.289  -2.321   1.019  0.00  0.00    -0.076 A 
ATOM      2  C3  UNL d   1       1.865  -1.939  -0.205  0.00  0.00     0.004 A 
ATOM      3  C4  UNL d   1       1.544  -0.720  -0.799  0.00  0.00    -0.003 A 
ATOM      4  C5  UNL d   1       0.641   0.137  -0.179  0.00  0.00     0.000 A 
ATOM      5  C6  UNL d   1       0.074  -0.218   1.044  0.00  0.00     0.000 A 
ATOM      6  C7  UNL d   1       0.399  -1.436   1.665  0.00  0.00    -0.073 A 
ATOM      7  C8  UNL d   1      -0.248  -1.771   2.981  0.00  0.00     0.078 C 
ENDROOT
BRANCH   1   8
ATOM      8  C1  UNL d   1       1.654  -3.668   1.602  0.00  0.00     0.053 C 
ATOM      9  C   UNL d   1       2.931  -4.236   1.002  0.00  0.00     0.018 C 
ENDBRANCH   1   8
TORSDOF 1
ENDMDL
