MODEL 1
REMARK minimizedAffinity 5.12292957
REMARK minimizedRMSD -1
REMARK  1 active torsions:
REMARK  status: ('A' for Active; 'I' for Inactive)
REMARK    1  A    between atoms: C1_2  and  C2_3 
ROOT
ATOM      1  C2  UNL d   1      -0.102  -1.699   2.074  0.00  0.00    -0.076 A 
ATOM      2  C3  UNL d   1       0.920  -1.701   1.108  0.00  0.00     0.004 A 
ATOM      3  C4  UNL d   1       1.730  -2.820   0.923  0.00  0.00    -0.003 A 
ATOM      4  C5  UNL d   1       1.531  -3.956   1.700  0.00  0.00     0.000 A 
ATOM      5  C6  UNL d   1       0.510  -3.978   2.650  0.00  0.00     0.000 A 
ATOM      6  C7  UNL d   1      -0.326  -2.864   2.838  0.00  0.00    -0.073 A 
ATOM      7  C8  UNL d   1      -1.407  -2.941   3.881  0.00  0.00     0.078 C 
ENDROOT
BRANCH   1   8
ATOM      8  C1  UNL d   1      -0.931  -0.447   2.248  0.00  0.00     0.053 C 
ATOM      9  C   UNL d   1      -2.014  -0.312   1.189  0.00  0.00     0.018 C 
ENDBRANCH   1   8
TORSDOF 1
ENDMDL
