MODEL 1
REMARK minimizedAffinity 7.85083628
REMARK minimizedRMSD -1
REMARK  1 active torsions:
REMARK  status: ('A' for Active; 'I' for Inactive)
REMARK    1  A    between atoms: C1_2  and  C2_3 
ROOT
ATOM      1  C2  UNL d   1      -3.479   2.528  -3.137  0.00  0.00    -0.076 A 
ATOM      2  C3  UNL d   1      -3.575   1.188  -3.550  0.00  0.00     0.004 A 
ATOM      3  C4  UNL d   1      -4.811   0.612  -3.837  0.00  0.00    -0.003 A 
ATOM      4  C5  UNL d   1      -5.973   1.367  -3.715  0.00  0.00     0.000 A 
ATOM      5  C6  UNL d   1      -5.895   2.703  -3.324  0.00  0.00     0.000 A 
ATOM      6  C7  UNL d   1      -4.655   3.304  -3.047  0.00  0.00    -0.073 A 
ATOM      7  C8  UNL d   1      -4.630   4.747  -2.622  0.00  0.00     0.078 C 
ENDROOT
BRANCH   1   8
ATOM      8  C1  UNL d   1      -2.114   3.091  -2.814  0.00  0.00     0.053 C 
ATOM      9  C   UNL d   1      -1.602   2.635  -1.456  0.00  0.00     0.018 C 
ENDBRANCH   1   8
TORSDOF 1
ENDMDL
