MODEL 1
REMARK minimizedAffinity 7.50872183
REMARK minimizedRMSD -1
REMARK  2 active torsions:
REMARK  status: ('A' for Active; 'I' for Inactive)
REMARK    1  A    between atoms: C2'_3  and  C1'_4 
REMARK    2  A    between atoms: C1'_4  and  C1_5 
ROOT
ATOM      1  C1  I4B d   1       1.842   3.002   3.193  0.00  0.00    -0.075 A 
ATOM      2  C2  I4B d   1       0.817   3.913   3.163  0.00  0.00     0.003 A 
ATOM      3  C3  I4B d   1       1.084   5.293   3.339  0.00  0.00     0.002 A 
ATOM      4  C4  I4B d   1       2.376   5.708   3.590  0.00  0.00    -0.004 A 
ATOM      5  C5  I4B d   1       3.418   4.785   3.597  0.00  0.00     0.002 A 
ATOM      6  C6  I4B d   1       3.151   3.424   3.385  0.00  0.00     0.003 A 
ENDROOT
BRANCH   1   7
ATOM      7  C1' I4B d   1       1.520   1.549   3.038  0.00  0.00     0.060 C 
BRANCH   7   8
ATOM      8  C2' I4B d   1       0.690   1.125   4.232  0.00  0.00    -0.013 C 
ATOM      9  C4' I4B d   1      -0.178  -0.060   3.898  0.00  0.00     0.013 C 
ATOM     10  C3' I4B d   1       1.627   0.810   5.359  0.00  0.00     0.013 C 
ENDBRANCH   7   8
ENDBRANCH   1   7
TORSDOF 2
ENDMDL
