MODEL 1
REMARK minimizedAffinity 13.2754002
REMARK minimizedRMSD -1
REMARK  2 active torsions:
REMARK  status: ('A' for Active; 'I' for Inactive)
REMARK    1  A    between atoms: C2'_3  and  C1'_4 
REMARK    2  A    between atoms: C1'_4  and  C1_5 
ROOT
ATOM      1  C1  I4B d   1       2.152   2.571   2.914  0.00  0.00    -0.075 A 
ATOM      2  C2  I4B d   1       1.899   2.275   1.598  0.00  0.00     0.003 A 
ATOM      3  C3  I4B d   1       2.785   2.715   0.585  0.00  0.00     0.002 A 
ATOM      4  C4  I4B d   1       3.878   3.486   0.926  0.00  0.00    -0.004 A 
ATOM      5  C5  I4B d   1       4.145   3.766   2.263  0.00  0.00     0.002 A 
ATOM      6  C6  I4B d   1       3.284   3.295   3.265  0.00  0.00     0.003 A 
ENDROOT
BRANCH   1   7
ATOM      7  C1' I4B d   1       1.177   2.119   3.955  0.00  0.00     0.060 C 
BRANCH   7   8
ATOM      8  C2' I4B d   1       1.457   0.660   4.254  0.00  0.00    -0.013 C 
ATOM      9  C4' I4B d   1       1.951   0.478   5.665  0.00  0.00     0.013 C 
ATOM     10  C3' I4B d   1       0.193  -0.111   4.019  0.00  0.00     0.013 C 
ENDBRANCH   7   8
ENDBRANCH   1   7
TORSDOF 2
ENDMDL
