MODEL 1
REMARK minimizedAffinity 3.94471502
REMARK minimizedRMSD -1
REMARK  2 active torsions:
REMARK  status: ('A' for Active; 'I' for Inactive)
REMARK    1  A    between atoms: C2'_3  and  C1'_4 
REMARK    2  A    between atoms: C1'_4  and  C1_5 
ROOT
ATOM      1  C1  I4B d   1       0.672  -3.019   4.497  0.00  0.00    -0.075 A 
ATOM      2  C2  I4B d   1       1.218  -3.747   5.524  0.00  0.00     0.003 A 
ATOM      3  C3  I4B d   1       0.571  -4.915   5.993  0.00  0.00     0.002 A 
ATOM      4  C4  I4B d   1      -0.639  -5.289   5.444  0.00  0.00    -0.004 A 
ATOM      5  C5  I4B d   1      -1.180  -4.562   4.388  0.00  0.00     0.002 A 
ATOM      6  C6  I4B d   1      -0.515  -3.427   3.903  0.00  0.00     0.003 A 
ENDROOT
BRANCH   1   7
ATOM      7  C1' I4B d   1       1.365  -1.771   4.049  0.00  0.00     0.060 C 
BRANCH   7   8
ATOM      8  C2' I4B d   1       0.413  -0.610   4.251  0.00  0.00    -0.013 C 
ATOM      9  C4' I4B d   1       1.146   0.621   4.717  0.00  0.00     0.013 C 
ATOM     10  C3' I4B d   1      -0.293  -0.359   2.952  0.00  0.00     0.013 C 
ENDBRANCH   7   8
ENDBRANCH   1   7
TORSDOF 2
ENDMDL
