MODEL 1
REMARK minimizedAffinity 6.50932169
REMARK minimizedRMSD -1
REMARK  2 active torsions:
REMARK  status: ('A' for Active; 'I' for Inactive)
REMARK    1  A    between atoms: C2'_3  and  C1'_4 
REMARK    2  A    between atoms: C1'_4  and  C1_5 
ROOT
ATOM      1  C1  I4B d   1       0.324  -1.793   4.642  0.00  0.00    -0.075 A 
ATOM      2  C2  I4B d   1      -0.637  -2.754   4.447  0.00  0.00     0.003 A 
ATOM      3  C3  I4B d   1      -0.384  -4.098   4.812  0.00  0.00     0.002 A 
ATOM      4  C4  I4B d   1       0.852  -4.445   5.318  0.00  0.00    -0.004 A 
ATOM      5  C5  I4B d   1       1.817  -3.465   5.537  0.00  0.00     0.002 A 
ATOM      6  C6  I4B d   1       1.547  -2.129   5.208  0.00  0.00     0.003 A 
ENDROOT
BRANCH   1   7
ATOM      7  C1' I4B d   1       0.036  -0.389   4.216  0.00  0.00     0.060 C 
BRANCH   7   8
ATOM      8  C2' I4B d   1       1.252   0.456   4.537  0.00  0.00    -0.013 C 
ATOM      9  C4' I4B d   1       1.018   1.903   4.189  0.00  0.00     0.013 C 
ATOM     10  C3' I4B d   1       1.556   0.292   5.996  0.00  0.00     0.013 C 
ENDBRANCH   7   8
ENDBRANCH   1   7
TORSDOF 2
ENDMDL
