MODEL 1
REMARK minimizedAffinity 10.4378881
REMARK minimizedRMSD -1
REMARK  2 active torsions:
REMARK  status: ('A' for Active; 'I' for Inactive)
REMARK    1  A    between atoms: C2'_3  and  C1'_4 
REMARK    2  A    between atoms: C1'_4  and  C1_5 
ROOT
ATOM      1  C1  I4B d   1       4.955   3.314   1.312  0.00  0.00    -0.075 A 
ATOM      2  C2  I4B d   1       6.000   2.426   1.250  0.00  0.00     0.003 A 
ATOM      3  C3  I4B d   1       5.956   1.336   0.347  0.00  0.00     0.002 A 
ATOM      4  C4  I4B d   1       4.834   1.144  -0.432  0.00  0.00    -0.004 A 
ATOM      5  C5  I4B d   1       3.785   2.058  -0.384  0.00  0.00     0.002 A 
ATOM      6  C6  I4B d   1       3.851   3.157   0.484  0.00  0.00     0.003 A 
ENDROOT
BRANCH   1   7
ATOM      7  C1' I4B d   1       5.020   4.436   2.300  0.00  0.00     0.060 C 
BRANCH   7   8
ATOM      8  C2' I4B d   1       4.888   3.843   3.688  0.00  0.00    -0.013 C 
ATOM      9  C4' I4B d   1       5.474   4.759   4.730  0.00  0.00     0.013 C 
ATOM     10  C3' I4B d   1       3.432   3.591   3.946  0.00  0.00     0.013 C 
ENDBRANCH   7   8
ENDBRANCH   1   7
TORSDOF 2
ENDMDL
