MODEL 1
REMARK minimizedAffinity -4.71130323
REMARK minimizedRMSD -1
REMARK  0 active torsions:
REMARK  status: ('A' for Active; 'I' for Inactive)
ROOT
ATOM      1  C1  BNZ d   1       0.811  -0.538   0.362  0.00  0.00     0.000 A 
ATOM      2  C2  BNZ d   1       1.078  -1.519   1.279  0.00  0.00     0.000 A 
ATOM      3  C3  BNZ d   1       2.327  -1.651   1.819  0.00  0.00     0.000 A 
ATOM      4  C4  BNZ d   1       3.315  -0.828   1.413  0.00  0.00     0.000 A 
ATOM      5  C5  BNZ d   1       3.064   0.161   0.483  0.00  0.00     0.000 A 
ATOM      6  C6  BNZ d   1       1.796   0.315  -0.030  0.00  0.00     0.000 A 
ENDROOT
TORSDOF 0
ENDMDL
