MODEL 1
REMARK minimizedAffinity -2.43474078
REMARK minimizedRMSD -1
REMARK  0 active torsions:
REMARK  status: ('A' for Active; 'I' for Inactive)
ROOT
ATOM      1  C1  BNZ d   1       0.273  -2.332   1.741  0.00  0.00     0.000 A 
ATOM      2  C2  BNZ d   1      -0.304  -1.281   1.080  0.00  0.00     0.000 A 
ATOM      3  C3  BNZ d   1       0.464  -0.285   0.543  0.00  0.00     0.000 A 
ATOM      4  C4  BNZ d   1       1.802  -0.321   0.702  0.00  0.00     0.000 A 
ATOM      5  C5  BNZ d   1       2.399  -1.370   1.374  0.00  0.00     0.000 A 
ATOM      6  C6  BNZ d   1       1.626  -2.390   1.879  0.00  0.00     0.000 A 
ENDROOT
TORSDOF 0
ENDMDL
