MODEL 1
REMARK minimizedAffinity -4.88238621
REMARK minimizedRMSD -1
REMARK  0 active torsions:
REMARK  status: ('A' for Active; 'I' for Inactive)
ROOT
ATOM      1  C1  BNZ d   1       0.577  -1.618   0.866  0.00  0.00     0.000 A 
ATOM      2  C2  BNZ d   1      -0.489  -0.760   0.912  0.00  0.00     0.000 A 
ATOM      3  C3  BNZ d   1      -0.335   0.565   0.615  0.00  0.00     0.000 A 
ATOM      4  C4  BNZ d   1       0.891   1.038   0.312  0.00  0.00     0.000 A 
ATOM      5  C5  BNZ d   1       1.978   0.188   0.270  0.00  0.00     0.000 A 
ATOM      6  C6  BNZ d   1       1.812  -1.153   0.532  0.00  0.00     0.000 A 
ENDROOT
TORSDOF 0
ENDMDL
