MODEL 1
REMARK minimizedAffinity -4.39423084
REMARK minimizedRMSD -1
REMARK  0 active torsions:
REMARK  status: ('A' for Active; 'I' for Inactive)
ROOT
ATOM      1  C1  BNZ d   1       3.320  -0.863   1.446  0.00  0.00     0.000 A 
ATOM      2  C2  BNZ d   1       3.104   0.202   0.613  0.00  0.00     0.000 A 
ATOM      3  C3  BNZ d   1       1.844   0.504   0.176  0.00  0.00     0.000 A 
ATOM      4  C4  BNZ d   1       0.810  -0.281   0.539  0.00  0.00     0.000 A 
ATOM      5  C5  BNZ d   1       1.013  -1.364   1.371  0.00  0.00     0.000 A 
ATOM      6  C6  BNZ d   1       2.276  -1.643   1.840  0.00  0.00     0.000 A 
ENDROOT
TORSDOF 0
ENDMDL
