MODEL 1
REMARK minimizedAffinity -4.60728216
REMARK minimizedRMSD -1
REMARK  0 active torsions:
REMARK  status: ('A' for Active; 'I' for Inactive)
ROOT
ATOM      1  C1  BNZ d   1       1.918  -1.550   0.599  0.00  0.00     0.000 A 
ATOM      2  C2  BNZ d   1       0.611  -1.232   0.342  0.00  0.00     0.000 A 
ATOM      3  C3  BNZ d   1       0.245   0.057   0.069  0.00  0.00     0.000 A 
ATOM      4  C4  BNZ d   1       1.178   1.030   0.093  0.00  0.00     0.000 A 
ATOM      5  C5  BNZ d   1       2.498   0.727   0.360  0.00  0.00     0.000 A 
ATOM      6  C6  BNZ d   1       2.869  -0.577   0.596  0.00  0.00     0.000 A 
ENDROOT
TORSDOF 0
ENDMDL
