MODEL 1
REMARK minimizedAffinity -4.4310565
REMARK minimizedRMSD -1
REMARK  0 active torsions:
REMARK  status: ('A' for Active; 'I' for Inactive)
ROOT
ATOM      1  C1  BNZ d   1       2.130  -1.391   1.860  0.00  0.00     0.000 A 
ATOM      2  C2  BNZ d   1       3.308  -0.835   1.436  0.00  0.00     0.000 A 
ATOM      3  C3  BNZ d   1       3.310   0.230   0.579  0.00  0.00     0.000 A 
ATOM      4  C4  BNZ d   1       2.138   0.711   0.117  0.00  0.00     0.000 A 
ATOM      5  C5  BNZ d   1       0.943   0.155   0.528  0.00  0.00     0.000 A 
ATOM      6  C6  BNZ d   1       0.943  -0.892   1.421  0.00  0.00     0.000 A 
ENDROOT
TORSDOF 0
ENDMDL
