MODEL 1
REMARK minimizedAffinity 0.139285728
REMARK minimizedRMSD -1
REMARK  0 active torsions:
REMARK  status: ('A' for Active; 'I' for Inactive)
ROOT
ATOM      1  C   UNL d   1      -2.658  -2.249   3.722  0.00  0.00     0.078 C 
ATOM      2  C1  UNL d   1      -1.919  -3.103   2.735  0.00  0.00    -0.077 A 
ATOM      3  C2  UNL d   1      -1.437  -4.368   3.094  0.00  0.00    -0.001 A 
ATOM      4  C3  UNL d   1      -0.743  -5.148   2.168  0.00  0.00     0.003 A 
ATOM      5  C4  UNL d   1      -0.523  -4.671   0.877  0.00  0.00    -0.005 A 
ATOM      6  C5  UNL d   1      -0.998  -3.414   0.511  0.00  0.00     0.003 A 
ATOM      7  C6  UNL d   1      -1.692  -2.632   1.436  0.00  0.00    -0.001 A 
ENDROOT
TORSDOF 0
ENDMDL
