MODEL 1
REMARK minimizedAffinity 13.9422607
REMARK minimizedRMSD -1
REMARK  0 active torsions:
REMARK  status: ('A' for Active; 'I' for Inactive)
ROOT
ATOM      1  C   UNL d   1      -2.983  -1.494   4.116  0.00  0.00     0.078 C 
ATOM      2  C1  UNL d   1      -3.747  -0.385   4.777  0.00  0.00    -0.077 A 
ATOM      3  C2  UNL d   1      -5.144  -0.419   4.856  0.00  0.00    -0.001 A 
ATOM      4  C3  UNL d   1      -5.842   0.625   5.465  0.00  0.00     0.003 A 
ATOM      5  C4  UNL d   1      -5.152   1.711   5.999  0.00  0.00    -0.005 A 
ATOM      6  C5  UNL d   1      -3.761   1.755   5.923  0.00  0.00     0.003 A 
ATOM      7  C6  UNL d   1      -3.061   0.712   5.314  0.00  0.00    -0.001 A 
ENDROOT
TORSDOF 0
ENDMDL
