MODEL 1
REMARK minimizedAffinity 14.2359028
REMARK minimizedRMSD -1
REMARK  0 active torsions:
REMARK  status: ('A' for Active; 'I' for Inactive)
ROOT
ATOM      1  C   UNL d   1       0.063  -5.995   2.619  0.00  0.00     0.078 C 
ATOM      2  C1  UNL d   1      -0.184  -5.163   1.396  0.00  0.00    -0.077 A 
ATOM      3  C2  UNL d   1      -0.385  -5.760   0.146  0.00  0.00    -0.001 A 
ATOM      4  C3  UNL d   1      -0.604  -4.973  -0.986  0.00  0.00     0.003 A 
ATOM      5  C4  UNL d   1      -0.623  -3.584  -0.879  0.00  0.00    -0.005 A 
ATOM      6  C5  UNL d   1      -0.422  -2.980   0.361  0.00  0.00     0.003 A 
ATOM      7  C6  UNL d   1      -0.202  -3.766   1.494  0.00  0.00    -0.001 A 
ENDROOT
TORSDOF 0
ENDMDL
