MODEL 1
REMARK minimizedAffinity 8.43339443
REMARK minimizedRMSD -1
REMARK  0 active torsions:
REMARK  status: ('A' for Active; 'I' for Inactive)
ROOT
ATOM      1  C   UNL d   1       0.031  -1.091  -2.929  0.00  0.00     0.078 C 
ATOM      2  C1  UNL d   1      -0.616   0.168  -3.425  0.00  0.00    -0.077 A 
ATOM      3  C2  UNL d   1       0.140   1.173  -4.040  0.00  0.00    -0.001 A 
ATOM      4  C3  UNL d   1      -0.474   2.344  -4.488  0.00  0.00     0.003 A 
ATOM      5  C4  UNL d   1      -1.847   2.521  -4.325  0.00  0.00    -0.005 A 
ATOM      6  C5  UNL d   1      -2.607   1.527  -3.712  0.00  0.00     0.003 A 
ATOM      7  C6  UNL d   1      -1.995   0.355  -3.263  0.00  0.00    -0.001 A 
ENDROOT
TORSDOF 0
ENDMDL
