MODEL 1
REMARK minimizedAffinity 12.0718584
REMARK minimizedRMSD -1
REMARK  0 active torsions:
REMARK  status: ('A' for Active; 'I' for Inactive)
ROOT
ATOM      1  C   UNL d   1      -1.921  -1.120  -3.189  0.00  0.00     0.078 C 
ATOM      2  C1  UNL d   1      -1.374  -2.144  -2.240  0.00  0.00    -0.077 A 
ATOM      3  C2  UNL d   1      -1.098  -1.816  -0.907  0.00  0.00    -0.001 A 
ATOM      4  C3  UNL d   1      -0.580  -2.777  -0.036  0.00  0.00     0.003 A 
ATOM      5  C4  UNL d   1      -0.333  -4.071  -0.489  0.00  0.00    -0.005 A 
ATOM      6  C5  UNL d   1      -0.603  -4.406  -1.815  0.00  0.00     0.003 A 
ATOM      7  C6  UNL d   1      -1.121  -3.447  -2.687  0.00  0.00    -0.001 A 
ENDROOT
TORSDOF 0
ENDMDL
