MODEL 1
REMARK minimizedAffinity 9.68768883
REMARK minimizedRMSD -1
REMARK  0 active torsions:
REMARK  status: ('A' for Active; 'I' for Inactive)
ROOT
ATOM      1  C   UNL d   1      -0.415  -4.674   0.765  0.00  0.00     0.078 C 
ATOM      2  C1  UNL d   1      -0.981  -3.364   0.303  0.00  0.00    -0.077 A 
ATOM      3  C2  UNL d   1      -2.059  -2.769   0.969  0.00  0.00    -0.001 A 
ATOM      4  C3  UNL d   1      -2.581  -1.555   0.523  0.00  0.00     0.003 A 
ATOM      5  C4  UNL d   1      -2.032  -0.925  -0.592  0.00  0.00    -0.005 A 
ATOM      6  C5  UNL d   1      -0.960  -1.510  -1.263  0.00  0.00     0.003 A 
ATOM      7  C6  UNL d   1      -0.437  -2.725  -0.818  0.00  0.00    -0.001 A 
ENDROOT
TORSDOF 0
ENDMDL
