MODEL 1
REMARK minimizedAffinity 11.6687136
REMARK minimizedRMSD -1
REMARK  0 active torsions:
REMARK  status: ('A' for Active; 'I' for Inactive)
ROOT
ATOM      1  C   UNL d   1      -4.399   1.808  -5.997  0.00  0.00     0.078 C 
ATOM      2  C1  UNL d   1      -3.081   2.409  -5.612  0.00  0.00    -0.077 A 
ATOM      3  C2  UNL d   1      -1.875   1.812  -5.999  0.00  0.00    -0.001 A 
ATOM      4  C3  UNL d   1      -0.655   2.377  -5.625  0.00  0.00     0.003 A 
ATOM      5  C4  UNL d   1      -0.629   3.542  -4.861  0.00  0.00    -0.005 A 
ATOM      6  C5  UNL d   1      -1.824   4.143  -4.470  0.00  0.00     0.003 A 
ATOM      7  C6  UNL d   1      -3.045   3.579  -4.843  0.00  0.00    -0.001 A 
ENDROOT
TORSDOF 0
ENDMDL
