MODEL 1
REMARK minimizedAffinity 7.77896643
REMARK minimizedRMSD -1
REMARK  0 active torsions:
REMARK  status: ('A' for Active; 'I' for Inactive)
ROOT
ATOM      1  C   UNL d   1      -0.827  -4.486   0.581  0.00  0.00     0.078 C 
ATOM      2  C1  UNL d   1      -1.603  -3.302   0.087  0.00  0.00    -0.077 A 
ATOM      3  C2  UNL d   1      -1.122  -2.512  -0.965  0.00  0.00    -0.001 A 
ATOM      4  C3  UNL d   1      -1.850  -1.407  -1.408  0.00  0.00     0.003 A 
ATOM      5  C4  UNL d   1      -3.064  -1.081  -0.805  0.00  0.00    -0.005 A 
ATOM      6  C5  UNL d   1      -3.550  -1.860   0.243  0.00  0.00     0.003 A 
ATOM      7  C6  UNL d   1      -2.823  -2.966   0.688  0.00  0.00    -0.001 A 
ENDROOT
TORSDOF 0
ENDMDL
