MODEL 1
REMARK minimizedAffinity 9.46280193
REMARK minimizedRMSD -1
REMARK  0 active torsions:
REMARK  status: ('A' for Active; 'I' for Inactive)
ROOT
ATOM      1  C   UNL d   1      -3.013  -0.869   3.777  0.00  0.00     0.078 C 
ATOM      2  C1  UNL d   1      -3.742   0.186   4.555  0.00  0.00    -0.077 A 
ATOM      3  C2  UNL d   1      -5.141   0.241   4.559  0.00  0.00    -0.001 A 
ATOM      4  C3  UNL d   1      -5.806   1.235   5.279  0.00  0.00     0.003 A 
ATOM      5  C4  UNL d   1      -5.081   2.181   6.000  0.00  0.00    -0.005 A 
ATOM      6  C5  UNL d   1      -3.688   2.135   6.000  0.00  0.00     0.003 A 
ATOM      7  C6  UNL d   1      -3.021   1.143   5.280  0.00  0.00    -0.001 A 
ENDROOT
TORSDOF 0
ENDMDL
