MODEL 1
REMARK minimizedAffinity 13.4356689
REMARK minimizedRMSD -1
REMARK  0 active torsions:
REMARK  status: ('A' for Active; 'I' for Inactive)
ROOT
ATOM      1  C   UNL d   1      -1.278  -1.869  -1.124  0.00  0.00     0.078 C 
ATOM      2  C1  UNL d   1      -0.772  -3.059  -0.365  0.00  0.00    -0.077 A 
ATOM      3  C2  UNL d   1      -0.223  -2.918   0.915  0.00  0.00    -0.001 A 
ATOM      4  C3  UNL d   1       0.253  -4.033   1.606  0.00  0.00     0.003 A 
ATOM      5  C4  UNL d   1       0.185  -5.298   1.025  0.00  0.00    -0.005 A 
ATOM      6  C5  UNL d   1      -0.358  -5.448  -0.249  0.00  0.00     0.003 A 
ATOM      7  C6  UNL d   1      -0.834  -4.334  -0.942  0.00  0.00    -0.001 A 
ENDROOT
TORSDOF 0
ENDMDL
