MODEL 1
REMARK minimizedAffinity 6.24353552
REMARK minimizedRMSD -1
REMARK  0 active torsions:
REMARK  status: ('A' for Active; 'I' for Inactive)
ROOT
ATOM      1  C   UNL d   1      -3.801   6.000  -1.838  0.00  0.00     0.078 C 
ATOM      2  C1  UNL d   1      -4.351   5.422  -0.567  0.00  0.00    -0.077 A 
ATOM      3  C2  UNL d   1      -5.459   5.999   0.066  0.00  0.00    -0.001 A 
ATOM      4  C3  UNL d   1      -5.954   5.456   1.253  0.00  0.00     0.003 A 
ATOM      5  C4  UNL d   1      -5.347   4.336   1.818  0.00  0.00    -0.005 A 
ATOM      6  C5  UNL d   1      -4.243   3.757   1.195  0.00  0.00     0.003 A 
ATOM      7  C6  UNL d   1      -3.746   4.298   0.008  0.00  0.00    -0.001 A 
ENDROOT
TORSDOF 0
ENDMDL
