MODEL 1
REMARK minimizedAffinity 12.0078592
REMARK minimizedRMSD -1
REMARK  0 active torsions:
REMARK  status: ('A' for Active; 'I' for Inactive)
ROOT
ATOM      1  C   UNL d   1      -0.412  -4.157   0.391  0.00  0.00     0.078 C 
ATOM      2  C1  UNL d   1      -0.979  -3.150  -0.565  0.00  0.00    -0.077 A 
ATOM      3  C2  UNL d   1      -0.687  -3.213  -1.934  0.00  0.00    -0.001 A 
ATOM      4  C3  UNL d   1      -1.214  -2.264  -2.811  0.00  0.00     0.003 A 
ATOM      5  C4  UNL d   1      -2.034  -1.245  -2.330  0.00  0.00    -0.005 A 
ATOM      6  C5  UNL d   1      -2.328  -1.173  -0.970  0.00  0.00     0.003 A 
ATOM      7  C6  UNL d   1      -1.802  -2.122  -0.091  0.00  0.00    -0.001 A 
ENDROOT
TORSDOF 0
ENDMDL
