MODEL 1
REMARK minimizedAffinity 14.6098976
REMARK minimizedRMSD -1
REMARK  0 active torsions:
REMARK  status: ('A' for Active; 'I' for Inactive)
ROOT
ATOM      1  C   UNL d   1      -3.259   2.458  -4.775  0.00  0.00     0.078 C 
ATOM      2  C1  UNL d   1      -4.101   3.686  -4.957  0.00  0.00    -0.077 A 
ATOM      3  C2  UNL d   1      -3.813   4.867  -4.263  0.00  0.00    -0.001 A 
ATOM      4  C3  UNL d   1      -4.611   5.999  -4.435  0.00  0.00     0.003 A 
ATOM      5  C4  UNL d   1      -5.703   5.961  -5.301  0.00  0.00    -0.005 A 
ATOM      6  C5  UNL d   1      -5.998   4.789  -5.994  0.00  0.00     0.003 A 
ATOM      7  C6  UNL d   1      -5.202   3.656  -5.823  0.00  0.00    -0.001 A 
ENDROOT
TORSDOF 0
ENDMDL
