MODEL 1
REMARK minimizedAffinity 12.0985031
REMARK minimizedRMSD -1
REMARK  0 active torsions:
REMARK  status: ('A' for Active; 'I' for Inactive)
ROOT
ATOM      1  C   UNL d   1      -3.266   1.483   6.000  0.00  0.00     0.078 C 
ATOM      2  C1  UNL d   1      -2.611   0.277   5.394  0.00  0.00    -0.077 A 
ATOM      3  C2  UNL d   1      -3.123  -0.314   4.233  0.00  0.00    -0.001 A 
ATOM      4  C3  UNL d   1      -2.509  -1.442   3.686  0.00  0.00     0.003 A 
ATOM      5  C4  UNL d   1      -1.381  -1.989   4.293  0.00  0.00    -0.005 A 
ATOM      6  C5  UNL d   1      -0.866  -1.408   5.451  0.00  0.00     0.003 A 
ATOM      7  C6  UNL d   1      -1.478  -0.280   5.999  0.00  0.00    -0.001 A 
ENDROOT
TORSDOF 0
ENDMDL
