MODEL 1
REMARK minimizedAffinity 15.3611574
REMARK minimizedRMSD -1
REMARK  0 active torsions:
REMARK  status: ('A' for Active; 'I' for Inactive)
ROOT
ATOM      1  C   UNL d   1      -2.970   0.144  -3.474  0.00  0.00     0.078 C 
ATOM      2  C1  UNL d   1      -2.506   1.267  -4.353  0.00  0.00    -0.077 A 
ATOM      3  C2  UNL d   1      -1.167   1.680  -4.350  0.00  0.00    -0.001 A 
ATOM      4  C3  UNL d   1      -0.751   2.733  -5.166  0.00  0.00     0.003 A 
ATOM      5  C4  UNL d   1      -1.667   3.383  -5.991  0.00  0.00    -0.005 A 
ATOM      6  C5  UNL d   1      -3.001   2.980  -6.000  0.00  0.00     0.003 A 
ATOM      7  C6  UNL d   1      -3.419   1.928  -5.184  0.00  0.00    -0.001 A 
ENDROOT
TORSDOF 0
ENDMDL
