MODEL 1
REMARK minimizedAffinity 10.5577459
REMARK minimizedRMSD -1
REMARK  0 active torsions:
REMARK  status: ('A' for Active; 'I' for Inactive)
ROOT
ATOM      1  C   UNL d   1      -2.053  -1.268  -3.023  0.00  0.00     0.078 C 
ATOM      2  C1  UNL d   1      -1.468  -2.287  -2.091  0.00  0.00    -0.077 A 
ATOM      3  C2  UNL d   1      -1.055  -3.540  -2.561  0.00  0.00    -0.001 A 
ATOM      4  C3  UNL d   1      -0.521  -4.483  -1.681  0.00  0.00     0.003 A 
ATOM      5  C4  UNL d   1      -0.396  -4.183  -0.326  0.00  0.00    -0.005 A 
ATOM      6  C5  UNL d   1      -0.806  -2.940   0.151  0.00  0.00     0.003 A 
ATOM      7  C6  UNL d   1      -1.341  -1.996  -0.727  0.00  0.00    -0.001 A 
ENDROOT
TORSDOF 0
ENDMDL
