MODEL 1
REMARK minimizedAffinity 8.77004433
REMARK minimizedRMSD -1
REMARK  0 active torsions:
REMARK  status: ('A' for Active; 'I' for Inactive)
ROOT
ATOM      1  C   UNL d   1       3.012   2.108   2.013  0.00  0.00     0.078 C 
ATOM      2  C1  UNL d   1       3.954   2.178   3.178  0.00  0.00    -0.077 A 
ATOM      3  C2  UNL d   1       5.135   1.425   3.196  0.00  0.00    -0.001 A 
ATOM      4  C3  UNL d   1       5.998   1.493   4.291  0.00  0.00     0.003 A 
ATOM      5  C4  UNL d   1       5.688   2.310   5.376  0.00  0.00    -0.005 A 
ATOM      6  C5  UNL d   1       4.514   3.061   5.368  0.00  0.00     0.003 A 
ATOM      7  C6  UNL d   1       3.650   2.995   4.274  0.00  0.00    -0.001 A 
ENDROOT
TORSDOF 0
ENDMDL
