MODEL 1
REMARK minimizedAffinity -2.6174798
REMARK minimizedRMSD -1
REMARK  1 active torsions:
REMARK  status: ('A' for Active; 'I' for Inactive)
REMARK    1  A    between atoms: C3_4  and  O_7 
ROOT
ATOM      1  C   UNL d   1      -0.916  -2.495   0.400  0.00  0.00    -0.033 A 
ATOM      2  C1  UNL d   1      -0.443  -1.204   0.154  0.00  0.00     0.039 A 
ATOM      3  C2  UNL d   1      -0.071  -0.829  -1.138  0.00  0.00    -0.080 A 
ATOM      4  C3  UNL d   1      -0.177  -1.753  -2.175  0.00  0.00     0.150 A 
ATOM      5  C4  UNL d   1      -0.650  -3.039  -1.938  0.00  0.00    -0.007 A 
ATOM      6  C5  UNL d   1      -1.021  -3.412  -0.646  0.00  0.00     0.039 A 
ENDROOT
BRANCH   4   7
ATOM      7  O   UNL d   1       0.179  -1.435  -3.452  0.00  0.00    -0.526 OA
ATOM      8  H5  UNL d   1       0.514  -0.523  -3.460  0.00  0.00     0.418 HD
ENDBRANCH   4   7
TORSDOF 1
ENDMDL
