MODEL 1
REMARK minimizedAffinity -3.99568176
REMARK minimizedRMSD -1
REMARK  1 active torsions:
REMARK  status: ('A' for Active; 'I' for Inactive)
REMARK    1  A    between atoms: C3_4  and  O_7 
ROOT
ATOM      1  C   UNL d   1      -0.476   0.014   0.951  0.00  0.00    -0.033 A 
ATOM      2  C1  UNL d   1       0.067   0.886   0.005  0.00  0.00     0.039 A 
ATOM      3  C2  UNL d   1       0.349   0.432  -1.285  0.00  0.00    -0.080 A 
ATOM      4  C3  UNL d   1       0.084  -0.894  -1.616  0.00  0.00     0.150 A 
ATOM      5  C4  UNL d   1      -0.460  -1.768  -0.679  0.00  0.00    -0.007 A 
ATOM      6  C5  UNL d   1      -0.741  -1.313   0.608  0.00  0.00     0.039 A 
ENDROOT
BRANCH   4   7
ATOM      7  O   UNL d   1       0.347  -1.385  -2.860  0.00  0.00    -0.526 OA
ATOM      8  H5  UNL d   1       0.747  -0.676  -3.392  0.00  0.00     0.418 HD
ENDBRANCH   4   7
TORSDOF 1
ENDMDL
