MODEL 1
REMARK minimizedAffinity -1.77079713
REMARK minimizedRMSD -1
REMARK  1 active torsions:
REMARK  status: ('A' for Active; 'I' for Inactive)
REMARK    1  A    between atoms: C3_4  and  O_7 
ROOT
ATOM      1  C   UNL d   1      -0.851  -1.958   0.775  0.00  0.00    -0.033 A 
ATOM      2  C1  UNL d   1      -0.342  -1.543  -0.457  0.00  0.00     0.039 A 
ATOM      3  C2  UNL d   1      -0.012  -0.202  -0.662  0.00  0.00    -0.080 A 
ATOM      4  C3  UNL d   1      -0.195   0.712   0.372  0.00  0.00     0.150 A 
ATOM      5  C4  UNL d   1      -0.698   0.305   1.603  0.00  0.00    -0.007 A 
ATOM      6  C5  UNL d   1      -1.028  -1.035   1.806  0.00  0.00     0.039 A 
ENDROOT
BRANCH   4   7
ATOM      7  O   UNL d   1       0.108   2.033   0.218  0.00  0.00    -0.526 OA
ATOM      8  H5  UNL d   1       0.419   2.173  -0.692  0.00  0.00     0.418 HD
ENDBRANCH   4   7
TORSDOF 1
ENDMDL
