MODEL 1
REMARK minimizedAffinity -4.07444
REMARK minimizedRMSD -1
REMARK  1 active torsions:
REMARK  status: ('A' for Active; 'I' for Inactive)
REMARK    1  A    between atoms: C3_4  and  O_7 
ROOT
ATOM      1  C   UNL d   1      -0.309  -3.738  -1.534  0.00  0.00    -0.033 A 
ATOM      2  C1  UNL d   1       0.221  -2.814  -2.437  0.00  0.00     0.039 A 
ATOM      3  C2  UNL d   1       0.653  -1.565  -1.987  0.00  0.00    -0.080 A 
ATOM      4  C3  UNL d   1       0.552  -1.254  -0.634  0.00  0.00     0.150 A 
ATOM      5  C4  UNL d   1       0.029  -2.171   0.272  0.00  0.00    -0.007 A 
ATOM      6  C5  UNL d   1      -0.403  -3.417  -0.179  0.00  0.00     0.039 A 
ENDROOT
BRANCH   4   7
ATOM      7  O   UNL d   1       0.957  -0.045  -0.149  0.00  0.00    -0.526 OA
ATOM      8  H5  UNL d   1       1.269   0.496  -0.893  0.00  0.00     0.418 HD
ENDBRANCH   4   7
TORSDOF 1
ENDMDL
