MODEL 1
REMARK minimizedAffinity -2.663867
REMARK minimizedRMSD -1
REMARK  1 active torsions:
REMARK  status: ('A' for Active; 'I' for Inactive)
REMARK    1  A    between atoms: C3_4  and  O_7 
ROOT
ATOM      1  C   UNL d   1      -0.660  -0.952   0.763  0.00  0.00    -0.033 A 
ATOM      2  C1  UNL d   1      -0.072  -0.419  -0.386  0.00  0.00     0.039 A 
ATOM      3  C2  UNL d   1       0.024  -1.191  -1.546  0.00  0.00    -0.080 A 
ATOM      4  C3  UNL d   1      -0.472  -2.492  -1.543  0.00  0.00     0.150 A 
ATOM      5  C4  UNL d   1      -1.062  -3.027  -0.404  0.00  0.00    -0.007 A 
ATOM      6  C5  UNL d   1      -1.156  -2.255   0.754  0.00  0.00     0.039 A 
ENDROOT
BRANCH   4   7
ATOM      7  O   UNL d   1      -0.396  -3.285  -2.649  0.00  0.00    -0.526 OA
ATOM      8  H5  UNL d   1       0.062  -2.792  -3.351  0.00  0.00     0.418 HD
ENDBRANCH   4   7
TORSDOF 1
ENDMDL
