MODEL 1
REMARK minimizedAffinity -4.14383554
REMARK minimizedRMSD -1
REMARK  1 active torsions:
REMARK  status: ('A' for Active; 'I' for Inactive)
REMARK    1  A    between atoms: C3_4  and  O_7 
ROOT
ATOM      1  C   UNL d   1      -1.638  -1.794   1.057  0.00  0.00    -0.033 A 
ATOM      2  C1  UNL d   1      -0.478  -1.917   0.290  0.00  0.00     0.039 A 
ATOM      3  C2  UNL d   1       0.306  -0.794   0.021  0.00  0.00    -0.080 A 
ATOM      4  C3  UNL d   1      -0.080   0.445   0.526  0.00  0.00     0.150 A 
ATOM      5  C4  UNL d   1      -1.232   0.574   1.295  0.00  0.00    -0.007 A 
ATOM      6  C5  UNL d   1      -2.014  -0.549   1.561  0.00  0.00     0.039 A 
ENDROOT
BRANCH   4   7
ATOM      7  O   UNL d   1       0.651   1.571   0.287  0.00  0.00    -0.526 OA
ATOM      8  H5  UNL d   1       1.403   1.335  -0.281  0.00  0.00     0.418 HD
ENDBRANCH   4   7
TORSDOF 1
ENDMDL
