MODEL 1
REMARK minimizedAffinity -0.581475019
REMARK minimizedRMSD -1
REMARK  1 active torsions:
REMARK  status: ('A' for Active; 'I' for Inactive)
REMARK    1  A    between atoms: C3_4  and  O_7 
ROOT
ATOM      1  C   UNL d   1      -1.309  -1.958   1.084  0.00  0.00    -0.033 A 
ATOM      2  C1  UNL d   1      -1.810  -0.824   1.726  0.00  0.00     0.039 A 
ATOM      3  C2  UNL d   1      -1.411   0.448   1.312  0.00  0.00    -0.080 A 
ATOM      4  C3  UNL d   1      -0.513   0.573   0.255  0.00  0.00     0.150 A 
ATOM      5  C4  UNL d   1      -0.013  -0.553  -0.391  0.00  0.00    -0.007 A 
ATOM      6  C5  UNL d   1      -0.411  -1.823   0.024  0.00  0.00     0.039 A 
ENDROOT
BRANCH   4   7
ATOM      7  O   UNL d   1      -0.091   1.793  -0.181  0.00  0.00    -0.526 OA
ATOM      8  H5  UNL d   1      -0.497   2.477   0.377  0.00  0.00     0.418 HD
ENDBRANCH   4   7
TORSDOF 1
ENDMDL
