MODEL 1
REMARK minimizedAffinity -2.95532084
REMARK minimizedRMSD -1
REMARK  1 active torsions:
REMARK  status: ('A' for Active; 'I' for Inactive)
REMARK    1  A    between atoms: C3_4  and  O_7 
ROOT
ATOM      1  C   UNL d   1      -0.951  -2.315   1.329  0.00  0.00    -0.033 A 
ATOM      2  C1  UNL d   1      -0.566  -2.383  -0.012  0.00  0.00     0.039 A 
ATOM      3  C2  UNL d   1      -0.254  -1.215  -0.710  0.00  0.00    -0.080 A 
ATOM      4  C3  UNL d   1      -0.330   0.012  -0.058  0.00  0.00     0.150 A 
ATOM      5  C4  UNL d   1      -0.709   0.087   1.278  0.00  0.00    -0.007 A 
ATOM      6  C5  UNL d   1      -1.021  -1.080   1.974  0.00  0.00     0.039 A 
ENDROOT
BRANCH   4   7
ATOM      7  O   UNL d   1      -0.039   1.180  -0.699  0.00  0.00    -0.526 OA
ATOM      8  H5  UNL d   1       0.179   0.976  -1.624  0.00  0.00     0.418 HD
ENDBRANCH   4   7
TORSDOF 1
ENDMDL
