MODEL 1
REMARK minimizedAffinity -2.85603619
REMARK minimizedRMSD -1
REMARK  1 active torsions:
REMARK  status: ('A' for Active; 'I' for Inactive)
REMARK    1  A    between atoms: C3_4  and  O_7 
ROOT
ATOM      1  C   UNL d   1      -0.057   0.842  -0.672  0.00  0.00    -0.033 A 
ATOM      2  C1  UNL d   1       0.155  -0.341  -1.383  0.00  0.00     0.039 A 
ATOM      3  C2  UNL d   1      -0.137  -1.573  -0.794  0.00  0.00    -0.080 A 
ATOM      4  C3  UNL d   1      -0.641  -1.607   0.504  0.00  0.00     0.150 A 
ATOM      5  C4  UNL d   1      -0.859  -0.432   1.215  0.00  0.00    -0.007 A 
ATOM      6  C5  UNL d   1      -0.566   0.797   0.626  0.00  0.00     0.039 A 
ENDROOT
BRANCH   4   7
ATOM      7  O   UNL d   1      -0.937  -2.786   1.122  0.00  0.00    -0.526 OA
ATOM      8  H5  UNL d   1      -0.709  -3.515   0.521  0.00  0.00     0.418 HD
ENDBRANCH   4   7
TORSDOF 1
ENDMDL
