MODEL 1
REMARK minimizedAffinity -2.3340292
REMARK minimizedRMSD -1
REMARK  1 active torsions:
REMARK  status: ('A' for Active; 'I' for Inactive)
REMARK    1  A    between atoms: C3_4  and  O_7 
ROOT
ATOM      1  C   UNL d   1      -0.035   1.240   0.241  0.00  0.00    -0.033 A 
ATOM      2  C1  UNL d   1      -0.697   0.943   1.434  0.00  0.00     0.039 A 
ATOM      3  C2  UNL d   1      -1.124  -0.361   1.691  0.00  0.00    -0.080 A 
ATOM      4  C3  UNL d   1      -0.883  -1.358   0.749  0.00  0.00     0.150 A 
ATOM      5  C4  UNL d   1      -0.221  -1.069  -0.439  0.00  0.00    -0.007 A 
ATOM      6  C5  UNL d   1       0.204   0.234  -0.695  0.00  0.00     0.039 A 
ENDROOT
BRANCH   4   7
ATOM      7  O   UNL d   1      -1.285  -2.644   0.954  0.00  0.00    -0.526 OA
ATOM      8  H5  UNL d   1      -1.754  -2.688   1.804  0.00  0.00     0.418 HD
ENDBRANCH   4   7
TORSDOF 1
ENDMDL
