MODEL 1
REMARK minimizedAffinity -2.83701611
REMARK minimizedRMSD -1
REMARK  1 active torsions:
REMARK  status: ('A' for Active; 'I' for Inactive)
REMARK    1  A    between atoms: C3_4  and  O_7 
ROOT
ATOM      1  C   UNL d   1      -0.856  -1.431   1.070  0.00  0.00    -0.033 A 
ATOM      2  C1  UNL d   1      -1.040  -2.668   0.449  0.00  0.00     0.039 A 
ATOM      3  C2  UNL d   1      -0.726  -2.828  -0.902  0.00  0.00    -0.080 A 
ATOM      4  C3  UNL d   1      -0.229  -1.744  -1.620  0.00  0.00     0.150 A 
ATOM      5  C4  UNL d   1      -0.039  -0.509  -1.007  0.00  0.00    -0.007 A 
ATOM      6  C5  UNL d   1      -0.355  -0.352   0.342  0.00  0.00     0.039 A 
ENDROOT
BRANCH   4   7
ATOM      7  O   UNL d   1       0.087  -1.849  -2.942  0.00  0.00    -0.526 OA
ATOM      8  H5  UNL d   1      -0.122  -2.751  -3.237  0.00  0.00     0.418 HD
ENDBRANCH   4   7
TORSDOF 1
ENDMDL
