MODEL 1
REMARK minimizedAffinity 0.0876535252
REMARK minimizedRMSD -1
REMARK  1 active torsions:
REMARK  status: ('A' for Active; 'I' for Inactive)
REMARK    1  A    between atoms: C3_4  and  O_7 
ROOT
ATOM      1  C   UNL d   1      -1.188  -1.892   1.738  0.00  0.00    -0.033 A 
ATOM      2  C1  UNL d   1      -1.105  -2.265   0.395  0.00  0.00     0.039 A 
ATOM      3  C2  UNL d   1      -0.747  -1.324  -0.573  0.00  0.00    -0.080 A 
ATOM      4  C3  UNL d   1      -0.474  -0.015  -0.184  0.00  0.00     0.150 A 
ATOM      5  C4  UNL d   1      -0.550   0.363   1.152  0.00  0.00    -0.007 A 
ATOM      6  C5  UNL d   1      -0.909  -0.578   2.117  0.00  0.00     0.039 A 
ENDROOT
BRANCH   4   7
ATOM      7  O   UNL d   1      -0.125   0.940  -1.093  0.00  0.00    -0.526 OA
ATOM      8  H5  UNL d   1      -0.141   0.542  -1.979  0.00  0.00     0.418 HD
ENDBRANCH   4   7
TORSDOF 1
ENDMDL
