MODEL 1
REMARK minimizedAffinity -4.51149607
REMARK minimizedRMSD -1
REMARK  1 active torsions:
REMARK  status: ('A' for Active; 'I' for Inactive)
REMARK    1  A    between atoms: C3_4  and  O_7 
ROOT
ATOM      1  C   UNL d   1      -0.677  -3.032  -1.155  0.00  0.00    -0.033 A 
ATOM      2  C1  UNL d   1      -0.111  -2.185  -2.110  0.00  0.00     0.039 A 
ATOM      3  C2  UNL d   1       0.169  -0.856  -1.788  0.00  0.00    -0.080 A 
ATOM      4  C3  UNL d   1      -0.119  -0.387  -0.509  0.00  0.00     0.150 A 
ATOM      5  C4  UNL d   1      -0.679  -1.226   0.448  0.00  0.00    -0.007 A 
ATOM      6  C5  UNL d   1      -0.959  -2.553   0.125  0.00  0.00     0.039 A 
ENDROOT
BRANCH   4   7
ATOM      7  O   UNL d   1       0.133   0.904  -0.150  0.00  0.00    -0.526 OA
ATOM      8  H5  UNL d   1       0.492   1.373  -0.921  0.00  0.00     0.418 HD
ENDBRANCH   4   7
TORSDOF 1
ENDMDL
