MODEL 1
REMARK minimizedAffinity 3.15155458
REMARK minimizedRMSD -1
REMARK  0 active torsions:
REMARK  status: ('A' for Active; 'I' for Inactive)
ROOT
ATOM      1  C1  DEN d   1       4.591  -0.312   1.838  0.00  0.00     0.130 A 
ATOM      2  C2  DEN d   1       4.723  -0.870   3.181  0.00  0.00    -0.031 A 
ATOM      3  C3  DEN d   1       3.389  -1.328   3.618  0.00  0.00     0.027 A 
ATOM      4  C4  DEN d   1       1.145  -1.233   2.350  0.00  0.00     0.027 A 
ATOM      5  C5  DEN d   1       0.531  -0.836   1.182  0.00  0.00    -0.003 A 
ATOM      6  C6  DEN d   1       1.216  -0.211   0.174  0.00  0.00     0.001 A 
ATOM      7  C7  DEN d   1       2.565  -0.005   0.295  0.00  0.00     0.017 A 
ATOM      8  C8  DEN d   1       3.189  -0.396   1.472  0.00  0.00    -0.094 A 
ATOM      9  C9  DEN d   1       2.482  -1.037   2.475  0.00  0.00    -0.072 A 
ENDROOT
TORSDOF 0
ENDMDL
