MODEL 1
REMARK minimizedAffinity 2.68177295
REMARK minimizedRMSD -1
REMARK  0 active torsions:
REMARK  status: ('A' for Active; 'I' for Inactive)
ROOT
ATOM      1  C1  DEN d   1      -4.309   1.696  -3.389  0.00  0.00     0.130 A 
ATOM      2  C2  DEN d   1      -4.447   0.600  -2.433  0.00  0.00    -0.031 A 
ATOM      3  C3  DEN d   1      -3.091   0.160  -2.045  0.00  0.00     0.027 A 
ATOM      4  C4  DEN d   1      -0.806   1.068  -2.823  0.00  0.00     0.027 A 
ATOM      5  C5  DEN d   1      -0.181   1.987  -3.637  0.00  0.00    -0.003 A 
ATOM      6  C6  DEN d   1      -0.882   2.843  -4.444  0.00  0.00     0.001 A 
ATOM      7  C7  DEN d   1      -2.252   2.829  -4.421  0.00  0.00     0.017 A 
ATOM      8  C8  DEN d   1      -2.889   1.900  -3.609  0.00  0.00    -0.094 A 
ATOM      9  C9  DEN d   1      -2.163   1.052  -2.791  0.00  0.00    -0.072 A 
ENDROOT
TORSDOF 0
ENDMDL
