MODEL 1
REMARK minimizedAffinity -3.76831794
REMARK minimizedRMSD -1
REMARK  0 active torsions:
REMARK  status: ('A' for Active; 'I' for Inactive)
ROOT
ATOM      1  C1  DEN d   1       0.535   0.451   1.071  0.00  0.00     0.130 A 
ATOM      2  C2  DEN d   1       1.224   0.567  -0.212  0.00  0.00    -0.031 A 
ATOM      3  C3  DEN d   1       2.255  -0.488  -0.273  0.00  0.00     0.027 A 
ATOM      4  C4  DEN d   1       2.847  -2.283   1.483  0.00  0.00     0.027 A 
ATOM      5  C5  DEN d   1       2.544  -2.771   2.735  0.00  0.00    -0.003 A 
ATOM      6  C6  DEN d   1       1.582  -2.202   3.527  0.00  0.00     0.001 A 
ATOM      7  C7  DEN d   1       0.857  -1.140   3.058  0.00  0.00     0.017 A 
ATOM      8  C8  DEN d   1       1.161  -0.638   1.799  0.00  0.00    -0.094 A 
ATOM      9  C9  DEN d   1       2.128  -1.234   1.008  0.00  0.00    -0.072 A 
ENDROOT
TORSDOF 0
ENDMDL
