MODEL 1
REMARK minimizedAffinity -2.06291103
REMARK minimizedRMSD -1
REMARK  0 active torsions:
REMARK  status: ('A' for Active; 'I' for Inactive)
ROOT
ATOM      1  C1  DEN d   1       3.557  -1.148   2.769  0.00  0.00     0.130 A 
ATOM      2  C2  DEN d   1       2.726  -1.149   3.970  0.00  0.00    -0.031 A 
ATOM      3  C3  DEN d   1       1.356  -0.761   3.578  0.00  0.00     0.027 A 
ATOM      4  C4  DEN d   1       0.445  -0.165   1.240  0.00  0.00     0.027 A 
ATOM      5  C5  DEN d   1       0.776  -0.013  -0.089  0.00  0.00    -0.003 A 
ATOM      6  C6  DEN d   1       2.054  -0.194  -0.548  0.00  0.00     0.001 A 
ATOM      7  C7  DEN d   1       3.039  -0.582   0.321  0.00  0.00     0.017 A 
ATOM      8  C8  DEN d   1       2.715  -0.730   1.663  0.00  0.00    -0.094 A 
ATOM      9  C9  DEN d   1       1.415  -0.555   2.106  0.00  0.00    -0.072 A 
ENDROOT
TORSDOF 0
ENDMDL
