MODEL 1
REMARK minimizedAffinity 0.150970772
REMARK minimizedRMSD -1
REMARK  0 active torsions:
REMARK  status: ('A' for Active; 'I' for Inactive)
ROOT
ATOM      1  C1  DEN d   1       1.053  -1.181  -0.019  0.00  0.00     0.130 A 
ATOM      2  C2  DEN d   1       1.560   0.188  -0.045  0.00  0.00    -0.031 A 
ATOM      3  C3  DEN d   1       0.440   1.095   0.278  0.00  0.00     0.027 A 
ATOM      4  C4  DEN d   1      -2.014   0.516   0.817  0.00  0.00     0.027 A 
ATOM      5  C5  DEN d   1      -2.922  -0.512   0.949  0.00  0.00    -0.003 A 
ATOM      6  C6  DEN d   1      -2.580  -1.821   0.735  0.00  0.00     0.001 A 
ATOM      7  C7  DEN d   1      -1.285  -2.141   0.422  0.00  0.00     0.017 A 
ATOM      8  C8  DEN d   1      -0.366  -1.110   0.281  0.00  0.00    -0.094 A 
ATOM      9  C9  DEN d   1      -0.729   0.206   0.513  0.00  0.00    -0.072 A 
ENDROOT
TORSDOF 0
ENDMDL
