MODEL 1
REMARK minimizedAffinity -4.02403164
REMARK minimizedRMSD -1
REMARK  0 active torsions:
REMARK  status: ('A' for Active; 'I' for Inactive)
ROOT
ATOM      1  C1  DEN d   1      -1.614  -5.546  -5.834  0.00  0.00     0.130 A 
ATOM      2  C2  DEN d   1      -0.236  -5.089  -5.996  0.00  0.00    -0.031 A 
ATOM      3  C3  DEN d   1       0.346  -4.908  -4.650  0.00  0.00     0.027 A 
ATOM      4  C4  DEN d   1      -0.745  -5.296  -2.345  0.00  0.00     0.027 A 
ATOM      5  C5  DEN d   1      -1.902  -5.673  -1.700  0.00  0.00    -0.003 A 
ATOM      6  C6  DEN d   1      -3.045  -5.999  -2.381  0.00  0.00     0.001 A 
ATOM      7  C7  DEN d   1      -3.042  -5.998  -3.751  0.00  0.00     0.017 A 
ATOM      8  C8  DEN d   1      -1.882  -5.611  -4.409  0.00  0.00    -0.094 A 
ATOM      9  C9  DEN d   1      -0.733  -5.297  -3.702  0.00  0.00    -0.072 A 
ENDROOT
TORSDOF 0
ENDMDL
