MODEL 1
REMARK minimizedAffinity 5.2576437
REMARK minimizedRMSD -1
REMARK  0 active torsions:
REMARK  status: ('A' for Active; 'I' for Inactive)
ROOT
ATOM      1  C1  DEN d   1      -1.062  -6.000  -5.795  0.00  0.00     0.130 A 
ATOM      2  C2  DEN d   1       0.299  -5.510  -6.000  0.00  0.00    -0.031 A 
ATOM      3  C3  DEN d   1       0.783  -4.957  -4.719  0.00  0.00     0.027 A 
ATOM      4  C4  DEN d   1      -0.433  -4.818  -2.449  0.00  0.00     0.027 A 
ATOM      5  C5  DEN d   1      -1.609  -5.093  -1.786  0.00  0.00    -0.003 A 
ATOM      6  C6  DEN d   1      -2.688  -5.654  -2.417  0.00  0.00     0.001 A 
ATOM      7  C7  DEN d   1      -2.597  -6.000  -3.739  0.00  0.00     0.017 A 
ATOM      8  C8  DEN d   1      -1.418  -5.718  -4.415  0.00  0.00    -0.094 A 
ATOM      9  C9  DEN d   1      -0.334  -5.162  -3.758  0.00  0.00    -0.072 A 
ENDROOT
TORSDOF 0
ENDMDL
