MODEL 1
REMARK minimizedAffinity -4.72293425
REMARK minimizedRMSD -1
REMARK  0 active torsions:
REMARK  status: ('A' for Active; 'I' for Inactive)
ROOT
ATOM      1  C1  DEN d   1      -3.041  -5.979   1.454  0.00  0.00     0.130 A 
ATOM      2  C2  DEN d   1      -4.039  -5.939   2.519  0.00  0.00    -0.031 A 
ATOM      3  C3  DEN d   1      -5.376  -5.929   1.892  0.00  0.00     0.027 A 
ATOM      4  C4  DEN d   1      -5.994  -5.974  -0.612  0.00  0.00     0.027 A 
ATOM      5  C5  DEN d   1      -5.488  -5.999  -1.893  0.00  0.00    -0.003 A 
ATOM      6  C6  DEN d   1      -4.142  -5.984  -2.146  0.00  0.00     0.001 A 
ATOM      7  C7  DEN d   1      -3.255  -5.989  -1.103  0.00  0.00     0.017 A 
ATOM      8  C8  DEN d   1      -3.757  -5.957   0.191  0.00  0.00    -0.094 A 
ATOM      9  C9  DEN d   1      -5.121  -5.985   0.427  0.00  0.00    -0.072 A 
ENDROOT
TORSDOF 0
ENDMDL
