MODEL 1
REMARK minimizedAffinity -0.269058079
REMARK minimizedRMSD -1
REMARK  0 active torsions:
REMARK  status: ('A' for Active; 'I' for Inactive)
ROOT
ATOM      1  C1  DEN d   1       0.158  -4.861  -3.743  0.00  0.00     0.130 A 
ATOM      2  C2  DEN d   1       0.832  -5.048  -5.025  0.00  0.00    -0.031 A 
ATOM      3  C3  DEN d   1      -0.166  -5.531  -6.000  0.00  0.00     0.027 A 
ATOM      4  C4  DEN d   1      -2.679  -6.000  -5.652  0.00  0.00     0.027 A 
ATOM      5  C5  DEN d   1      -3.704  -5.999  -4.733  0.00  0.00    -0.003 A 
ATOM      6  C6  DEN d   1      -3.508  -5.655  -3.421  0.00  0.00     0.001 A 
ATOM      7  C7  DEN d   1      -2.268  -5.252  -3.003  0.00  0.00     0.017 A 
ATOM      8  C8  DEN d   1      -1.227  -5.258  -3.923  0.00  0.00    -0.094 A 
ATOM      9  C9  DEN d   1      -1.448  -5.598  -5.247  0.00  0.00    -0.072 A 
ENDROOT
TORSDOF 0
ENDMDL
