MODEL 1
REMARK minimizedAffinity -3.49032855
REMARK minimizedRMSD -1
REMARK  0 active torsions:
REMARK  status: ('A' for Active; 'I' for Inactive)
ROOT
ATOM      1  C1  DEN d   1      -1.428  -5.711  -5.977  0.00  0.00     0.130 A 
ATOM      2  C2  DEN d   1       0.008  -5.448  -5.999  0.00  0.00    -0.031 A 
ATOM      3  C3  DEN d   1       0.478  -5.366  -4.601  0.00  0.00     0.027 A 
ATOM      4  C4  DEN d   1      -0.871  -5.624  -2.418  0.00  0.00     0.027 A 
ATOM      5  C5  DEN d   1      -2.125  -5.844  -1.893  0.00  0.00    -0.003 A 
ATOM      6  C6  DEN d   1      -3.231  -6.000  -2.685  0.00  0.00     0.001 A 
ATOM      7  C7  DEN d   1      -3.098  -5.983  -4.048  0.00  0.00     0.017 A 
ATOM      8  C8  DEN d   1      -1.838  -5.754  -4.585  0.00  0.00    -0.094 A 
ATOM      9  C9  DEN d   1      -0.729  -5.612  -3.768  0.00  0.00    -0.072 A 
ENDROOT
TORSDOF 0
ENDMDL
