MODEL 1
REMARK minimizedAffinity 2.73817062
REMARK minimizedRMSD -1
REMARK  0 active torsions:
REMARK  status: ('A' for Active; 'I' for Inactive)
ROOT
ATOM      1  C1  DEN d   1      -1.830  -5.978  -3.494  0.00  0.00     0.130 A 
ATOM      2  C2  DEN d   1      -2.687  -5.977  -4.677  0.00  0.00    -0.031 A 
ATOM      3  C3  DEN d   1      -1.817  -5.976  -5.870  0.00  0.00     0.027 A 
ATOM      4  C4  DEN d   1       0.759  -5.982  -6.000  0.00  0.00     0.027 A 
ATOM      5  C5  DEN d   1       1.921  -5.972  -5.259  0.00  0.00    -0.003 A 
ATOM      6  C6  DEN d   1       1.913  -5.929  -3.890  0.00  0.00     0.001 A 
ATOM      7  C7  DEN d   1       0.720  -5.941  -3.217  0.00  0.00     0.017 A 
ATOM      8  C8  DEN d   1      -0.455  -5.943  -3.957  0.00  0.00    -0.094 A 
ATOM      9  C9  DEN d   1      -0.427  -5.998  -5.340  0.00  0.00    -0.072 A 
ENDROOT
TORSDOF 0
ENDMDL
