MODEL 1
REMARK minimizedAffinity 3.47083879
REMARK minimizedRMSD -1
REMARK  0 active torsions:
REMARK  status: ('A' for Active; 'I' for Inactive)
ROOT
ATOM      1  C1  DEN d   1      -3.952   2.654  -3.630  0.00  0.00     0.130 A 
ATOM      2  C2  DEN d   1      -3.994   1.517  -2.714  0.00  0.00    -0.031 A 
ATOM      3  C3  DEN d   1      -2.609   1.212  -2.302  0.00  0.00     0.027 A 
ATOM      4  C4  DEN d   1      -0.417   2.386  -2.985  0.00  0.00     0.027 A 
ATOM      5  C5  DEN d   1       0.125   3.395  -3.751  0.00  0.00    -0.003 A 
ATOM      6  C6  DEN d   1      -0.644   4.199  -4.550  0.00  0.00     0.001 A 
ATOM      7  C7  DEN d   1      -2.005   4.037  -4.567  0.00  0.00     0.017 A 
ATOM      8  C8  DEN d   1      -2.557   3.017  -3.803  0.00  0.00    -0.094 A 
ATOM      9  C9  DEN d   1      -1.764   2.223  -2.992  0.00  0.00    -0.072 A 
ENDROOT
TORSDOF 0
ENDMDL
