MODEL 1
REMARK minimizedAffinity 1.15066361
REMARK minimizedRMSD -1
REMARK  0 active torsions:
REMARK  status: ('A' for Active; 'I' for Inactive)
ROOT
ATOM      1  C1  DEN d   1       0.197  -5.649  -4.517  0.00  0.00     0.130 A 
ATOM      2  C2  DEN d   1      -0.166  -5.818  -5.922  0.00  0.00    -0.031 A 
ATOM      3  C3  DEN d   1      -1.631  -5.988  -5.998  0.00  0.00     0.027 A 
ATOM      4  C4  DEN d   1      -3.364  -6.000  -4.088  0.00  0.00     0.027 A 
ATOM      5  C5  DEN d   1      -3.533  -5.904  -2.724  0.00  0.00    -0.003 A 
ATOM      6  C6  DEN d   1      -2.475  -5.752  -1.867  0.00  0.00     0.001 A 
ATOM      7  C7  DEN d   1      -1.205  -5.645  -2.368  0.00  0.00     0.017 A 
ATOM      8  C8  DEN d   1      -1.026  -5.748  -3.741  0.00  0.00    -0.094 A 
ATOM      9  C9  DEN d   1      -2.109  -5.890  -4.593  0.00  0.00    -0.072 A 
ENDROOT
TORSDOF 0
ENDMDL
