MODEL 1
REMARK minimizedAffinity -1.84584391
REMARK minimizedRMSD -1
REMARK  0 active torsions:
REMARK  status: ('A' for Active; 'I' for Inactive)
ROOT
ATOM      1  C1  DEN d   1       2.034  -0.290  -0.609  0.00  0.00     0.130 A 
ATOM      2  C2  DEN d   1       0.585  -0.114  -0.581  0.00  0.00    -0.031 A 
ATOM      3  C3  DEN d   1       0.120  -0.372   0.797  0.00  0.00     0.027 A 
ATOM      4  C4  DEN d   1       1.498  -1.021   2.879  0.00  0.00     0.027 A 
ATOM      5  C5  DEN d   1       2.763  -1.299   3.345  0.00  0.00    -0.003 A 
ATOM      6  C6  DEN d   1       3.861  -1.294   2.526  0.00  0.00     0.001 A 
ATOM      7  C7  DEN d   1       3.720  -0.961   1.205  0.00  0.00     0.017 A 
ATOM      8  C8  DEN d   1       2.446  -0.686   0.725  0.00  0.00    -0.094 A 
ATOM      9  C9  DEN d   1       1.351  -0.684   1.572  0.00  0.00    -0.072 A 
ENDROOT
TORSDOF 0
ENDMDL
