MODEL 1
REMARK minimizedAffinity -0.138097942
REMARK minimizedRMSD -1
REMARK  0 active torsions:
REMARK  status: ('A' for Active; 'I' for Inactive)
ROOT
ATOM      1  C1  DEN d   1      -0.522  -0.325   1.557  0.00  0.00     0.130 A 
ATOM      2  C2  DEN d   1      -0.958   0.046   0.214  0.00  0.00    -0.031 A 
ATOM      3  C3  DEN d   1       0.196  -0.096  -0.696  0.00  0.00     0.027 A 
ATOM      4  C4  DEN d   1       2.602  -0.855  -0.160  0.00  0.00     0.027 A 
ATOM      5  C5  DEN d   1       3.453  -1.263   0.844  0.00  0.00    -0.003 A 
ATOM      6  C6  DEN d   1       3.051  -1.354   2.150  0.00  0.00     0.001 A 
ATOM      7  C7  DEN d   1       1.751  -1.075   2.481  0.00  0.00     0.017 A 
ATOM      8  C8  DEN d   1       0.889  -0.656   1.476  0.00  0.00    -0.094 A 
ATOM      9  C9  DEN d   1       1.312  -0.582   0.160  0.00  0.00    -0.072 A 
ENDROOT
TORSDOF 0
ENDMDL
