MODEL 1
REMARK minimizedAffinity -3.17494321
REMARK minimizedRMSD -1
REMARK  1 active torsions:
REMARK  status: ('A' for Active; 'I' for Inactive)
REMARK    1  A    between atoms: C1_2  and  C2_3 
ROOT
ATOM      1  C2  UNL d   1      -0.491  -0.363   0.450  0.00  0.00    -0.073 A 
ATOM      2  C3  UNL d   1      -1.176  -1.373   1.136  0.00  0.00    -0.002 A 
ATOM      3  C4  UNL d   1      -0.472  -2.348   1.842  0.00  0.00     0.004 A 
ATOM      4  C5  UNL d   1       0.922  -2.321   1.877  0.00  0.00    -0.004 A 
ATOM      5  C6  UNL d   1       1.625  -1.313   1.208  0.00  0.00    -0.075 A 
ATOM      6  C7  UNL d   1       3.124  -1.271   1.234  0.00  0.00     0.076 C 
ATOM      7  C8  UNL d   1       0.910  -0.339   0.498  0.00  0.00     0.001 A 
ENDROOT
BRANCH   1   8
ATOM      8  C1  UNL d   1      -1.247   0.696  -0.309  0.00  0.00     0.053 C 
ATOM      9  C   UNL d   1      -1.870   0.149  -1.583  0.00  0.00     0.018 C 
ENDBRANCH   1   8
TORSDOF 1
ENDMDL
