MODEL 1
REMARK minimizedAffinity -5.37402105
REMARK minimizedRMSD -1
REMARK  1 active torsions:
REMARK  status: ('A' for Active; 'I' for Inactive)
REMARK    1  A    between atoms: C1_2  and  C2_3 
ROOT
ATOM      1  C2  UNL d   1       1.088  -1.463   1.262  0.00  0.00    -0.073 A 
ATOM      2  C3  UNL d   1       2.414  -1.288   1.675  0.00  0.00    -0.002 A 
ATOM      3  C4  UNL d   1       3.047  -0.056   1.509  0.00  0.00     0.004 A 
ATOM      4  C5  UNL d   1       2.361   1.015   0.935  0.00  0.00    -0.004 A 
ATOM      5  C6  UNL d   1       1.032   0.863   0.527  0.00  0.00    -0.075 A 
ATOM      6  C7  UNL d   1       0.281   2.004  -0.094  0.00  0.00     0.076 C 
ATOM      7  C8  UNL d   1       0.404  -0.378   0.694  0.00  0.00     0.001 A 
ENDROOT
BRANCH   1   8
ATOM      8  C1  UNL d   1       0.398  -2.790   1.445  0.00  0.00     0.053 C 
ATOM      9  C   UNL d   1      -1.113  -2.640   1.524  0.00  0.00     0.018 C 
ENDBRANCH   1   8
TORSDOF 1
ENDMDL
