MODEL 1
REMARK minimizedAffinity 8.13934803
REMARK minimizedRMSD -1
REMARK  1 active torsions:
REMARK  status: ('A' for Active; 'I' for Inactive)
REMARK    1  A    between atoms: C1_2  and  C2_3 
ROOT
ATOM      1  C2  UNL d   1       1.655   0.753   1.411  0.00  0.00    -0.073 A 
ATOM      2  C3  UNL d   1       1.940  -0.368   2.199  0.00  0.00    -0.002 A 
ATOM      3  C4  UNL d   1       2.588  -0.221   3.426  0.00  0.00     0.004 A 
ATOM      4  C5  UNL d   1       2.951   1.047   3.881  0.00  0.00    -0.004 A 
ATOM      5  C6  UNL d   1       2.664   2.180   3.114  0.00  0.00    -0.075 A 
ATOM      6  C7  UNL d   1       3.049   3.551   3.588  0.00  0.00     0.076 C 
ATOM      7  C8  UNL d   1       2.015   2.024   1.881  0.00  0.00     0.001 A 
ENDROOT
BRANCH   1   8
ATOM      8  C1  UNL d   1       0.949   0.600   0.089  0.00  0.00     0.053 C 
ATOM      9  C   UNL d   1       0.285  -0.761  -0.049  0.00  0.00     0.018 C 
ENDBRANCH   1   8
TORSDOF 1
ENDMDL
