MODEL 1
REMARK minimizedAffinity 6.34525776
REMARK minimizedRMSD -1
REMARK  1 active torsions:
REMARK  status: ('A' for Active; 'I' for Inactive)
REMARK    1  A    between atoms: C1_2  and  C2_3 
ROOT
ATOM      1  C2  UNL d   1       2.350  -2.066   3.212  0.00  0.00    -0.073 A 
ATOM      2  C3  UNL d   1       1.733  -2.629   4.335  0.00  0.00    -0.002 A 
ATOM      3  C4  UNL d   1       2.471  -3.405   5.230  0.00  0.00     0.004 A 
ATOM      4  C5  UNL d   1       3.832  -3.620   5.016  0.00  0.00    -0.004 A 
ATOM      5  C6  UNL d   1       4.469  -3.056   3.906  0.00  0.00    -0.075 A 
ATOM      6  C7  UNL d   1       5.932  -3.279   3.660  0.00  0.00     0.076 C 
ATOM      7  C8  UNL d   1       3.721  -2.280   3.010  0.00  0.00     0.001 A 
ENDROOT
BRANCH   1   8
ATOM      8  C1  UNL d   1       1.558  -1.222   2.247  0.00  0.00     0.053 C 
ATOM      9  C   UNL d   1       0.634  -2.063   1.380  0.00  0.00     0.018 C 
ENDBRANCH   1   8
TORSDOF 1
ENDMDL
