MODEL 1
REMARK minimizedAffinity 3.53851962
REMARK minimizedRMSD -1
REMARK  1 active torsions:
REMARK  status: ('A' for Active; 'I' for Inactive)
REMARK    1  A    between atoms: C1_2  and  C2_3 
ROOT
ATOM      1  C2  UNL d   1       2.207   0.946   2.148  0.00  0.00    -0.073 A 
ATOM      2  C3  UNL d   1       2.538   2.078   1.394  0.00  0.00    -0.002 A 
ATOM      3  C4  UNL d   1       1.816   2.392   0.242  0.00  0.00     0.004 A 
ATOM      4  C5  UNL d   1       0.754   1.584  -0.164  0.00  0.00    -0.004 A 
ATOM      5  C6  UNL d   1       0.401   0.455   0.583  0.00  0.00    -0.075 A 
ATOM      6  C7  UNL d   1      -0.737  -0.426   0.159  0.00  0.00     0.076 C 
ATOM      7  C8  UNL d   1       1.132   0.144   1.737  0.00  0.00     0.001 A 
ENDROOT
BRANCH   1   8
ATOM      8  C1  UNL d   1       2.980   0.606   3.396  0.00  0.00     0.053 C 
ATOM      9  C   UNL d   1       2.475  -0.671   4.049  0.00  0.00     0.018 C 
ENDBRANCH   1   8
TORSDOF 1
ENDMDL
