MODEL 1
REMARK minimizedAffinity -4.99983358
REMARK minimizedRMSD -1
REMARK  1 active torsions:
REMARK  status: ('A' for Active; 'I' for Inactive)
REMARK    1  A    between atoms: C1_2  and  C2_3 
ROOT
ATOM      1  C2  UNL d   1       3.008  -1.099   3.268  0.00  0.00    -0.073 A 
ATOM      2  C3  UNL d   1       3.582   0.063   2.741  0.00  0.00    -0.002 A 
ATOM      3  C4  UNL d   1       3.023   0.679   1.621  0.00  0.00     0.004 A 
ATOM      4  C5  UNL d   1       1.882   0.145   1.022  0.00  0.00    -0.004 A 
ATOM      5  C6  UNL d   1       1.287  -1.009   1.541  0.00  0.00    -0.075 A 
ATOM      6  C7  UNL d   1       0.061  -1.597   0.907  0.00  0.00     0.076 C 
ATOM      7  C8  UNL d   1       1.856  -1.624   2.665  0.00  0.00     0.001 A 
ENDROOT
BRANCH   1   8
ATOM      8  C1  UNL d   1       3.605  -1.765   4.481  0.00  0.00     0.053 C 
ATOM      9  C   UNL d   1       4.941  -2.422   4.172  0.00  0.00     0.018 C 
ENDBRANCH   1   8
TORSDOF 1
ENDMDL
