MODEL 1
REMARK minimizedAffinity -5.11467838
REMARK minimizedRMSD -1
REMARK  1 active torsions:
REMARK  status: ('A' for Active; 'I' for Inactive)
REMARK    1  A    between atoms: C3_4  and  O_7 
ROOT
ATOM      1  C   UNL d   1       5.432   1.148   1.721  0.00  0.00    -0.033 A 
ATOM      2  C1  UNL d   1       4.294   0.370   1.494  0.00  0.00     0.039 A 
ATOM      3  C2  UNL d   1       3.718   0.326   0.223  0.00  0.00    -0.080 A 
ATOM      4  C3  UNL d   1       4.289   1.063  -0.811  0.00  0.00     0.150 A 
ATOM      5  C4  UNL d   1       5.424   1.837  -0.594  0.00  0.00    -0.007 A 
ATOM      6  C5  UNL d   1       5.997   1.880   0.677  0.00  0.00     0.039 A 
ENDROOT
BRANCH   4   7
ATOM      7  O   UNL d   1       3.759   1.056  -2.068  0.00  0.00    -0.526 OA
ATOM      8  H5  UNL d   1       2.961   0.501  -2.062  0.00  0.00     0.418 HD
ENDBRANCH   4   7
TORSDOF 1
ENDMDL
