MODEL 1
REMARK minimizedAffinity -0.749686658
REMARK minimizedRMSD -1
REMARK  1 active torsions:
REMARK  status: ('A' for Active; 'I' for Inactive)
REMARK    1  A    between atoms: C3_4  and  O_7 
ROOT
ATOM      1  C   UNL d   1       3.506   0.058   1.605  0.00  0.00    -0.033 A 
ATOM      2  C1  UNL d   1       2.545   1.005   1.245  0.00  0.00     0.039 A 
ATOM      3  C2  UNL d   1       2.565   1.574  -0.030  0.00  0.00    -0.080 A 
ATOM      4  C3  UNL d   1       3.551   1.187  -0.934  0.00  0.00     0.150 A 
ATOM      5  C4  UNL d   1       4.509   0.242  -0.584  0.00  0.00    -0.007 A 
ATOM      6  C5  UNL d   1       4.487  -0.324   0.690  0.00  0.00     0.039 A 
ENDROOT
BRANCH   4   7
ATOM      7  O   UNL d   1       3.614   1.718  -2.188  0.00  0.00    -0.526 OA
ATOM      8  H5  UNL d   1       2.907   2.378  -2.279  0.00  0.00     0.418 HD
ENDBRANCH   4   7
TORSDOF 1
ENDMDL
