MODEL 1
REMARK minimizedAffinity -2.46850944
REMARK minimizedRMSD -1
REMARK  1 active torsions:
REMARK  status: ('A' for Active; 'I' for Inactive)
REMARK    1  A    between atoms: C3_4  and  O_7 
ROOT
ATOM      1  C   UNL d   1       3.572   0.661  -0.603  0.00  0.00    -0.033 A 
ATOM      2  C1  UNL d   1       4.570   0.938  -1.539  0.00  0.00     0.039 A 
ATOM      3  C2  UNL d   1       4.226   1.301  -2.842  0.00  0.00    -0.080 A 
ATOM      4  C3  UNL d   1       2.882   1.384  -3.196  0.00  0.00     0.150 A 
ATOM      5  C4  UNL d   1       1.882   1.113  -2.268  0.00  0.00    -0.007 A 
ATOM      6  C5  UNL d   1       2.228   0.750  -0.967  0.00  0.00     0.039 A 
ENDROOT
BRANCH   4   7
ATOM      7  O   UNL d   1       2.497   1.730  -4.458  0.00  0.00    -0.526 OA
ATOM      8  H5  UNL d   1       3.295   1.860  -4.998  0.00  0.00     0.418 HD
ENDBRANCH   4   7
TORSDOF 1
ENDMDL
