MODEL 1
REMARK minimizedAffinity 5.21933031
REMARK minimizedRMSD -1
REMARK  1 active torsions:
REMARK  status: ('A' for Active; 'I' for Inactive)
REMARK    1  A    between atoms: C3_4  and  O_7 
ROOT
ATOM      1  C   UNL d   1      -1.723  -2.628  -2.494  0.00  0.00    -0.033 A 
ATOM      2  C1  UNL d   1      -2.529  -2.636  -1.354  0.00  0.00     0.039 A 
ATOM      3  C2  UNL d   1      -3.863  -3.038  -1.442  0.00  0.00    -0.080 A 
ATOM      4  C3  UNL d   1      -4.378  -3.429  -2.675  0.00  0.00     0.150 A 
ATOM      5  C4  UNL d   1      -3.579  -3.428  -3.814  0.00  0.00    -0.007 A 
ATOM      6  C5  UNL d   1      -2.248  -3.025  -3.724  0.00  0.00     0.039 A 
ENDROOT
BRANCH   4   7
ATOM      7  O   UNL d   1      -5.675  -3.825  -2.812  0.00  0.00    -0.526 OA
ATOM      8  H5  UNL d   1      -6.113  -3.748  -1.948  0.00  0.00     0.418 HD
ENDBRANCH   4   7
TORSDOF 1
ENDMDL
