MODEL 1
REMARK minimizedAffinity -3.45506501
REMARK minimizedRMSD -1
REMARK  1 active torsions:
REMARK  status: ('A' for Active; 'I' for Inactive)
REMARK    1  A    between atoms: C3_4  and  O_7 
ROOT
ATOM      1  C   UNL d   1       4.859   0.262   1.200  0.00  0.00    -0.033 A 
ATOM      2  C1  UNL d   1       5.764   0.603   0.193  0.00  0.00     0.039 A 
ATOM      3  C2  UNL d   1       5.301   1.117  -1.020  0.00  0.00    -0.080 A 
ATOM      4  C3  UNL d   1       3.932   1.285  -1.212  0.00  0.00     0.150 A 
ATOM      5  C4  UNL d   1       3.025   0.950  -0.212  0.00  0.00    -0.007 A 
ATOM      6  C5  UNL d   1       3.490   0.436   0.998  0.00  0.00     0.039 A 
ENDROOT
BRANCH   4   7
ATOM      7  O   UNL d   1       3.432   1.778  -2.381  0.00  0.00    -0.526 OA
ATOM      8  H5  UNL d   1       4.173   1.938  -2.989  0.00  0.00     0.418 HD
ENDBRANCH   4   7
TORSDOF 1
ENDMDL
