MODEL 1
REMARK minimizedAffinity -0.431852371
REMARK minimizedRMSD -1
REMARK  1 active torsions:
REMARK  status: ('A' for Active; 'I' for Inactive)
REMARK    1  A    between atoms: C3_4  and  O_7 
ROOT
ATOM      1  C   UNL d   1       3.411   2.319   0.452  0.00  0.00    -0.033 A 
ATOM      2  C1  UNL d   1       2.967   1.003   0.306  0.00  0.00     0.039 A 
ATOM      3  C2  UNL d   1       3.775  -0.058   0.719  0.00  0.00    -0.080 A 
ATOM      4  C3  UNL d   1       5.022   0.209   1.276  0.00  0.00     0.150 A 
ATOM      5  C4  UNL d   1       5.469   1.518   1.429  0.00  0.00    -0.007 A 
ATOM      6  C5  UNL d   1       4.662   2.576   1.015  0.00  0.00     0.039 A 
ENDROOT
BRANCH   4   7
ATOM      7  O   UNL d   1       5.848  -0.794   1.690  0.00  0.00    -0.526 OA
ATOM      8  H5  UNL d   1       5.420  -1.644   1.496  0.00  0.00     0.418 HD
ENDBRANCH   4   7
TORSDOF 1
ENDMDL
