MODEL 1
REMARK minimizedAffinity 2.2268641
REMARK minimizedRMSD -1
REMARK  1 active torsions:
REMARK  status: ('A' for Active; 'I' for Inactive)
REMARK    1  A    between atoms: C3_4  and  O_7 
ROOT
ATOM      1  C   UNL d   1       4.086  -0.739   0.495  0.00  0.00    -0.033 A 
ATOM      2  C1  UNL d   1       5.336  -0.710   1.116  0.00  0.00     0.039 A 
ATOM      3  C2  UNL d   1       5.993   0.506   1.310  0.00  0.00    -0.080 A 
ATOM      4  C3  UNL d   1       5.390   1.685   0.880  0.00  0.00     0.150 A 
ATOM      5  C4  UNL d   1       4.143   1.664   0.264  0.00  0.00    -0.007 A 
ATOM      6  C5  UNL d   1       3.489   0.448   0.070  0.00  0.00     0.039 A 
ENDROOT
BRANCH   4   7
ATOM      7  O   UNL d   1       5.995   2.896   1.043  0.00  0.00    -0.526 OA
ATOM      8  H5  UNL d   1       6.862   2.753   1.456  0.00  0.00     0.418 HD
ENDBRANCH   4   7
TORSDOF 1
ENDMDL
