MODEL 1
REMARK minimizedAffinity 1.0894295
REMARK minimizedRMSD -1
REMARK  1 active torsions:
REMARK  status: ('A' for Active; 'I' for Inactive)
REMARK    1  A    between atoms: C3_4  and  O_7 
ROOT
ATOM      1  C   UNL d   1       2.469   2.017  -1.520  0.00  0.00    -0.033 A 
ATOM      2  C1  UNL d   1       3.710   1.498  -1.894  0.00  0.00     0.039 A 
ATOM      3  C2  UNL d   1       4.331   0.531  -1.101  0.00  0.00    -0.080 A 
ATOM      4  C3  UNL d   1       3.702   0.091   0.060  0.00  0.00     0.150 A 
ATOM      5  C4  UNL d   1       2.464   0.601   0.436  0.00  0.00    -0.007 A 
ATOM      6  C5  UNL d   1       1.845   1.567  -0.356  0.00  0.00     0.039 A 
ENDROOT
BRANCH   4   7
ATOM      7  O   UNL d   1       4.272  -0.847   0.868  0.00  0.00    -0.526 OA
ATOM      8  H5  UNL d   1       5.138  -1.087   0.498  0.00  0.00     0.418 HD
ENDBRANCH   4   7
TORSDOF 1
ENDMDL
