MODEL 1
REMARK minimizedAffinity 0.666009367
REMARK minimizedRMSD -1
REMARK  1 active torsions:
REMARK  status: ('A' for Active; 'I' for Inactive)
REMARK    1  A    between atoms: C3_4  and  O_7 
ROOT
ATOM      1  C   UNL d   1       2.408   1.898  -1.275  0.00  0.00    -0.033 A 
ATOM      2  C1  UNL d   1       3.574   1.346  -1.808  0.00  0.00     0.039 A 
ATOM      3  C2  UNL d   1       4.302   0.407  -1.075  0.00  0.00    -0.080 A 
ATOM      4  C3  UNL d   1       3.853   0.029   0.187  0.00  0.00     0.150 A 
ATOM      5  C4  UNL d   1       2.690   0.572   0.723  0.00  0.00    -0.007 A 
ATOM      6  C5  UNL d   1       1.965   1.510  -0.010  0.00  0.00     0.039 A 
ENDROOT
BRANCH   4   7
ATOM      7  O   UNL d   1       4.533  -0.881   0.942  0.00  0.00    -0.526 OA
ATOM      8  H5  UNL d   1       5.331  -1.148   0.457  0.00  0.00     0.418 HD
ENDBRANCH   4   7
TORSDOF 1
ENDMDL
