MODEL 1
REMARK minimizedAffinity 9.17508888
REMARK minimizedRMSD -1
REMARK  1 active torsions:
REMARK  status: ('A' for Active; 'I' for Inactive)
REMARK    1  A    between atoms: C3_4  and  O_7 
ROOT
ATOM      1  C   UNL d   1      -1.280  -3.016   0.408  0.00  0.00    -0.033 A 
ATOM      2  C1  UNL d   1      -0.362  -2.848  -0.630  0.00  0.00     0.039 A 
ATOM      3  C2  UNL d   1      -0.811  -2.644  -1.936  0.00  0.00    -0.080 A 
ATOM      4  C3  UNL d   1      -2.179  -2.610  -2.190  0.00  0.00     0.150 A 
ATOM      5  C4  UNL d   1      -3.100  -2.773  -1.161  0.00  0.00    -0.007 A 
ATOM      6  C5  UNL d   1      -2.649  -2.978   0.143  0.00  0.00     0.039 A 
ENDROOT
BRANCH   4   7
ATOM      7  O   UNL d   1      -2.666  -2.418  -3.450  0.00  0.00    -0.526 OA
ATOM      8  H5  UNL d   1      -1.915  -2.349  -4.062  0.00  0.00     0.418 HD
ENDBRANCH   4   7
TORSDOF 1
ENDMDL
