MODEL 1
REMARK minimizedAffinity 12.0554972
REMARK minimizedRMSD -1
REMARK  1 active torsions:
REMARK  status: ('A' for Active; 'I' for Inactive)
REMARK    1  A    between atoms: C3_4  and  O_7 
ROOT
ATOM      1  C   UNL d   1      -2.758   6.000  -1.873  0.00  0.00    -0.033 A 
ATOM      2  C1  UNL d   1      -1.894   5.072  -1.288  0.00  0.00     0.039 A 
ATOM      3  C2  UNL d   1      -2.383   4.144  -0.367  0.00  0.00    -0.080 A 
ATOM      4  C3  UNL d   1      -3.736   4.154  -0.039  0.00  0.00     0.150 A 
ATOM      5  C4  UNL d   1      -4.603   5.073  -0.621  0.00  0.00    -0.007 A 
ATOM      6  C5  UNL d   1      -4.113   6.000  -1.540  0.00  0.00     0.039 A 
ENDROOT
BRANCH   4   7
ATOM      7  O   UNL d   1      -4.258   3.271   0.858  0.00  0.00    -0.526 OA
ATOM      8  H5  UNL d   1      -3.537   2.716   1.200  0.00  0.00     0.418 HD
ENDBRANCH   4   7
TORSDOF 1
ENDMDL
