MODEL 1
REMARK minimizedAffinity 1.32332754
REMARK minimizedRMSD -1
REMARK  1 active torsions:
REMARK  status: ('A' for Active; 'I' for Inactive)
REMARK    1  A    between atoms: C3_4  and  O_7 
ROOT
ATOM      1  C   UNL d   1       2.956   1.893  -5.849  0.00  0.00    -0.033 A 
ATOM      2  C1  UNL d   1       1.822   2.419  -5.226  0.00  0.00     0.039 A 
ATOM      3  C2  UNL d   1       1.636   2.249  -3.853  0.00  0.00    -0.080 A 
ATOM      4  C3  UNL d   1       2.591   1.555  -3.114  0.00  0.00     0.150 A 
ATOM      5  C4  UNL d   1       3.724   1.032  -3.728  0.00  0.00    -0.007 A 
ATOM      6  C5  UNL d   1       3.908   1.201  -5.099  0.00  0.00     0.039 A 
ENDROOT
BRANCH   4   7
ATOM      7  O   UNL d   1       2.450   1.360  -1.772  0.00  0.00    -0.526 OA
ATOM      8  H5  UNL d   1       1.606   1.751  -1.491  0.00  0.00     0.418 HD
ENDBRANCH   4   7
TORSDOF 1
ENDMDL
