MODEL 1
REMARK minimizedAffinity 0.887759686
REMARK minimizedRMSD -1
REMARK  1 active torsions:
REMARK  status: ('A' for Active; 'I' for Inactive)
REMARK    1  A    between atoms: C3_4  and  O_7 
ROOT
ATOM      1  C   UNL d   1      -3.312  -3.786  -2.233  0.00  0.00    -0.033 A 
ATOM      2  C1  UNL d   1      -3.240  -4.728  -1.205  0.00  0.00     0.039 A 
ATOM      3  C2  UNL d   1      -2.384  -4.519  -0.122  0.00  0.00    -0.080 A 
ATOM      4  C3  UNL d   1      -1.608  -3.364  -0.078  0.00  0.00     0.150 A 
ATOM      5  C4  UNL d   1      -1.678  -2.419  -1.096  0.00  0.00    -0.007 A 
ATOM      6  C5  UNL d   1      -2.532  -2.630  -2.177  0.00  0.00     0.039 A 
ENDROOT
BRANCH   4   7
ATOM      7  O   UNL d   1      -0.755  -3.118   0.957  0.00  0.00    -0.526 OA
ATOM      8  H5  UNL d   1      -0.791  -3.870   1.571  0.00  0.00     0.418 HD
ENDBRANCH   4   7
TORSDOF 1
ENDMDL
