MODEL 1
REMARK minimizedAffinity 6.323699
REMARK minimizedRMSD -1
REMARK  1 active torsions:
REMARK  status: ('A' for Active; 'I' for Inactive)
REMARK    1  A    between atoms: C3_4  and  O_7 
ROOT
ATOM      1  C   UNL d   1      -2.904  -2.995  -1.100  0.00  0.00    -0.033 A 
ATOM      2  C1  UNL d   1      -3.546  -3.707  -2.115  0.00  0.00     0.039 A 
ATOM      3  C2  UNL d   1      -3.205  -3.483  -3.451  0.00  0.00    -0.080 A 
ATOM      4  C3  UNL d   1      -2.223  -2.546  -3.757  0.00  0.00     0.150 A 
ATOM      5  C4  UNL d   1      -1.577  -1.835  -2.751  0.00  0.00    -0.007 A 
ATOM      6  C5  UNL d   1      -1.919  -2.060  -1.418  0.00  0.00     0.039 A 
ENDROOT
BRANCH   4   7
ATOM      7  O   UNL d   1      -1.860  -2.289  -5.046  0.00  0.00    -0.526 OA
ATOM      8  H5  UNL d   1      -2.410  -2.833  -5.635  0.00  0.00     0.418 HD
ENDBRANCH   4   7
TORSDOF 1
ENDMDL
