MODEL 1
REMARK minimizedAffinity 8.66281033
REMARK minimizedRMSD -1
REMARK  1 active torsions:
REMARK  status: ('A' for Active; 'I' for Inactive)
REMARK    1  A    between atoms: C3_4  and  O_7 
ROOT
ATOM      1  C   UNL d   1       2.484   1.420  -1.024  0.00  0.00    -0.033 A 
ATOM      2  C1  UNL d   1       3.724   1.406  -1.667  0.00  0.00     0.039 A 
ATOM      3  C2  UNL d   1       4.741   0.567  -1.208  0.00  0.00    -0.080 A 
ATOM      4  C3  UNL d   1       4.505  -0.253  -0.108  0.00  0.00     0.150 A 
ATOM      5  C4  UNL d   1       3.272  -0.248   0.534  0.00  0.00    -0.007 A 
ATOM      6  C5  UNL d   1       2.258   0.591   0.075  0.00  0.00     0.039 A 
ENDROOT
BRANCH   4   7
ATOM      7  O   UNL d   1       5.469  -1.086   0.379  0.00  0.00    -0.526 OA
ATOM      8  H5  UNL d   1       6.277  -0.962  -0.146  0.00  0.00     0.418 HD
ENDBRANCH   4   7
TORSDOF 1
ENDMDL
