MODEL 1
REMARK minimizedAffinity -0.0311095528
REMARK minimizedRMSD -1
REMARK  1 active torsions:
REMARK  status: ('A' for Active; 'I' for Inactive)
REMARK    1  A    between atoms: C3_4  and  O_7 
ROOT
ATOM      1  C   UNL d   1      -3.235  -4.080  -2.793  0.00  0.00    -0.033 A 
ATOM      2  C1  UNL d   1      -3.487  -5.095  -1.867  0.00  0.00     0.039 A 
ATOM      3  C2  UNL d   1      -3.081  -4.947  -0.539  0.00  0.00    -0.080 A 
ATOM      4  C3  UNL d   1      -2.427  -3.781  -0.150  0.00  0.00     0.150 A 
ATOM      5  C4  UNL d   1      -2.177  -2.765  -1.066  0.00  0.00    -0.007 A 
ATOM      6  C5  UNL d   1      -2.582  -2.915  -2.392  0.00  0.00     0.039 A 
ENDROOT
BRANCH   4   7
ATOM      7  O   UNL d   1      -2.008  -3.594   1.133  0.00  0.00    -0.526 OA
ATOM      8  H5  UNL d   1      -2.223  -4.390   1.647  0.00  0.00     0.418 HD
ENDBRANCH   4   7
TORSDOF 1
ENDMDL
