MODEL 1
REMARK minimizedAffinity 7.9612608
REMARK minimizedRMSD -1
REMARK  2 active torsions:
REMARK  status: ('A' for Active; 'I' for Inactive)
REMARK    1  A    between atoms: C1_2  and  C2_3 
REMARK    2  A    between atoms: C2_3  and  C3_4 
ROOT
ATOM      1  C3  UNL d   1      -2.874  -4.058  -4.882  0.00  0.00    -0.075 A 
ATOM      2  C4  UNL d   1      -1.745  -3.506  -4.260  0.00  0.00     0.002 A 
ATOM      3  C5  UNL d   1      -1.083  -4.202  -3.248  0.00  0.00     0.002 A 
ATOM      4  C6  UNL d   1      -1.547  -5.449  -2.837  0.00  0.00    -0.004 A 
ATOM      5  C7  UNL d   1      -2.678  -6.000  -3.436  0.00  0.00     0.002 A 
ATOM      6  C8  UNL d   1      -3.339  -5.308  -4.453  0.00  0.00     0.002 A 
ENDROOT
BRANCH   1   7
ATOM      7  C2  UNL d   1      -3.578  -3.324  -5.999  0.00  0.00     0.056 C 
BRANCH   7   8
ATOM      8  C1  UNL d   1      -3.337  -1.811  -5.999  0.00  0.00     0.007 C 
ATOM      9  C   UNL d   1      -4.335  -1.044  -5.142  0.00  0.00     0.009 C 
ENDBRANCH   7   8
ENDBRANCH   1   7
TORSDOF 2
ENDMDL
