MODEL 1
REMARK minimizedAffinity 6.4323411
REMARK minimizedRMSD -1
REMARK  2 active torsions:
REMARK  status: ('A' for Active; 'I' for Inactive)
REMARK    1  A    between atoms: C1_2  and  C2_3 
REMARK    2  A    between atoms: C2_3  and  C3_4 
ROOT
ATOM      1  C3  UNL d   1       3.508  -0.032   0.703  0.00  0.00    -0.075 A 
ATOM      2  C4  UNL d   1       4.544   0.790   0.238  0.00  0.00     0.002 A 
ATOM      3  C5  UNL d   1       4.606   1.161  -1.105  0.00  0.00     0.002 A 
ATOM      4  C6  UNL d   1       3.640   0.708  -2.001  0.00  0.00    -0.004 A 
ATOM      5  C7  UNL d   1       2.615  -0.122  -1.554  0.00  0.00     0.002 A 
ATOM      6  C8  UNL d   1       2.548  -0.492  -0.209  0.00  0.00     0.002 A 
ENDROOT
BRANCH   1   7
ATOM      7  C2  UNL d   1       3.419  -0.414   2.161  0.00  0.00     0.056 C 
BRANCH   7   8
ATOM      8  C1  UNL d   1       4.450  -1.460   2.596  0.00  0.00     0.007 C 
ATOM      9  C   UNL d   1       5.075  -1.160   3.953  0.00  0.00     0.009 C 
ENDBRANCH   7   8
ENDBRANCH   1   7
TORSDOF 2
ENDMDL
