MODEL 1
REMARK minimizedAffinity 8.55472755
REMARK minimizedRMSD -1
REMARK  2 active torsions:
REMARK  status: ('A' for Active; 'I' for Inactive)
REMARK    1  A    between atoms: C1_2  and  C2_3 
REMARK    2  A    between atoms: C2_3  and  C3_4 
ROOT
ATOM      1  C3  UNL d   1       2.892   0.103   1.351  0.00  0.00    -0.075 A 
ATOM      2  C4  UNL d   1       3.060  -0.618   0.160  0.00  0.00     0.002 A 
ATOM      3  C5  UNL d   1       2.827  -0.012  -1.074  0.00  0.00     0.002 A 
ATOM      4  C6  UNL d   1       2.416   1.318  -1.134  0.00  0.00    -0.004 A 
ATOM      5  C7  UNL d   1       2.230   2.040   0.043  0.00  0.00     0.002 A 
ATOM      6  C8  UNL d   1       2.466   1.436   1.280  0.00  0.00     0.002 A 
ENDROOT
BRANCH   1   7
ATOM      7  C2  UNL d   1       3.170  -0.539   2.689  0.00  0.00     0.056 C 
BRANCH   7   8
ATOM      8  C1  UNL d   1       4.328  -1.542   2.671  0.00  0.00     0.007 C 
ATOM      9  C   UNL d   1       5.273  -1.390   3.856  0.00  0.00     0.009 C 
ENDBRANCH   7   8
ENDBRANCH   1   7
TORSDOF 2
ENDMDL
