MODEL 1
REMARK minimizedAffinity 8.28251934
REMARK minimizedRMSD -1
REMARK  2 active torsions:
REMARK  status: ('A' for Active; 'I' for Inactive)
REMARK    1  A    between atoms: C1_2  and  C2_3 
REMARK    2  A    between atoms: C2_3  and  C3_4 
ROOT
ATOM      1  C3  UNL d   1      -4.907   4.800   1.819  0.00  0.00    -0.075 A 
ATOM      2  C4  UNL d   1      -4.547   5.998   1.187  0.00  0.00     0.002 A 
ATOM      3  C5  UNL d   1      -3.832   5.980  -0.011  0.00  0.00     0.002 A 
ATOM      4  C6  UNL d   1      -3.460   4.767  -0.586  0.00  0.00    -0.004 A 
ATOM      5  C7  UNL d   1      -3.797   3.570   0.043  0.00  0.00     0.002 A 
ATOM      6  C8  UNL d   1      -4.516   3.585   1.239  0.00  0.00     0.002 A 
ENDROOT
BRANCH   1   7
ATOM      7  C2  UNL d   1      -5.705   4.812   3.101  0.00  0.00     0.056 C 
BRANCH   7   8
ATOM      8  C1  UNL d   1      -5.381   5.988   4.027  0.00  0.00     0.007 C 
ATOM      9  C   UNL d   1      -6.000   5.851   5.412  0.00  0.00     0.009 C 
ENDBRANCH   7   8
ENDBRANCH   1   7
TORSDOF 2
ENDMDL
