MODEL 1
REMARK minimizedAffinity 3.27045012
REMARK minimizedRMSD -1
REMARK  2 active torsions:
REMARK  status: ('A' for Active; 'I' for Inactive)
REMARK    1  A    between atoms: C1_2  and  C2_3 
REMARK    2  A    between atoms: C2_3  and  C3_4 
ROOT
ATOM      1  C3  UNL d   1       3.759   0.819  -1.954  0.00  0.00    -0.075 A 
ATOM      2  C4  UNL d   1       4.800   1.682  -1.582  0.00  0.00     0.002 A 
ATOM      3  C5  UNL d   1       5.053   1.949  -0.236  0.00  0.00     0.002 A 
ATOM      4  C6  UNL d   1       4.263   1.366   0.753  0.00  0.00    -0.004 A 
ATOM      5  C7  UNL d   1       3.216   0.520   0.395  0.00  0.00     0.002 A 
ATOM      6  C8  UNL d   1       2.964   0.248  -0.951  0.00  0.00     0.002 A 
ENDROOT
BRANCH   1   7
ATOM      7  C2  UNL d   1       3.500   0.502  -3.407  0.00  0.00     0.056 C 
BRANCH   7   8
ATOM      8  C1  UNL d   1       4.315  -0.679  -3.943  0.00  0.00     0.007 C 
ATOM      9  C   UNL d   1       5.264  -0.291  -5.070  0.00  0.00     0.009 C 
ENDBRANCH   7   8
ENDBRANCH   1   7
TORSDOF 2
ENDMDL
