MODEL 1
REMARK minimizedAffinity 13.2087402
REMARK minimizedRMSD -1
REMARK  2 active torsions:
REMARK  status: ('A' for Active; 'I' for Inactive)
REMARK    1  A    between atoms: C1_2  and  C2_3 
REMARK    2  A    between atoms: C2_3  and  C3_4 
ROOT
ATOM      1  C3  UNL d   1       5.114   2.239  -1.280  0.00  0.00    -0.075 A 
ATOM      2  C4  UNL d   1       4.008   1.513  -1.743  0.00  0.00     0.002 A 
ATOM      3  C5  UNL d   1       3.178   0.838  -0.847  0.00  0.00     0.002 A 
ATOM      4  C6  UNL d   1       3.449   0.872   0.519  0.00  0.00    -0.004 A 
ATOM      5  C7  UNL d   1       4.555   1.576   0.989  0.00  0.00     0.002 A 
ATOM      6  C8  UNL d   1       5.385   2.256   0.095  0.00  0.00     0.002 A 
ENDROOT
BRANCH   1   7
ATOM      7  C2  UNL d   1       5.999   2.996  -2.241  0.00  0.00     0.056 C 
BRANCH   7   8
ATOM      8  C1  UNL d   1       6.000   4.513  -2.026  0.00  0.00     0.007 C 
ATOM      9  C   UNL d   1       5.894   5.304  -3.323  0.00  0.00     0.009 C 
ENDBRANCH   7   8
ENDBRANCH   1   7
TORSDOF 2
ENDMDL
