MODEL 1
REMARK minimizedAffinity 11.6044254
REMARK minimizedRMSD -1
REMARK  2 active torsions:
REMARK  status: ('A' for Active; 'I' for Inactive)
REMARK    1  A    between atoms: C1_2  and  C2_3 
REMARK    2  A    between atoms: C2_3  and  C3_4 
ROOT
ATOM      1  C3  UNL d   1       3.512  -0.549   3.553  0.00  0.00    -0.075 A 
ATOM      2  C4  UNL d   1       4.713  -1.262   3.431  0.00  0.00     0.002 A 
ATOM      3  C5  UNL d   1       5.545  -1.443   4.537  0.00  0.00     0.002 A 
ATOM      4  C6  UNL d   1       5.192  -0.905   5.773  0.00  0.00    -0.004 A 
ATOM      5  C7  UNL d   1       4.009  -0.180   5.901  0.00  0.00     0.002 A 
ATOM      6  C8  UNL d   1       3.173  -0.002   4.798  0.00  0.00     0.002 A 
ENDROOT
BRANCH   1   7
ATOM      7  C2  UNL d   1       2.593  -0.375   2.367  0.00  0.00     0.056 C 
BRANCH   7   8
ATOM      8  C1  UNL d   1       3.154   0.537   1.271  0.00  0.00     0.007 C 
ATOM      9  C   UNL d   1       2.465   0.354  -0.074  0.00  0.00     0.009 C 
ENDBRANCH   7   8
ENDBRANCH   1   7
TORSDOF 2
ENDMDL
