MODEL 1
REMARK minimizedAffinity 6.45286798
REMARK minimizedRMSD -1
REMARK  2 active torsions:
REMARK  status: ('A' for Active; 'I' for Inactive)
REMARK    1  A    between atoms: C1_2  and  C2_3 
REMARK    2  A    between atoms: C2_3  and  C3_4 
ROOT
ATOM      1  C3  UNL d   1      -3.083   1.426   0.422  0.00  0.00    -0.075 A 
ATOM      2  C4  UNL d   1      -3.520   0.246  -0.197  0.00  0.00     0.002 A 
ATOM      3  C5  UNL d   1      -4.821  -0.219   0.001  0.00  0.00     0.002 A 
ATOM      4  C6  UNL d   1      -5.696   0.483   0.827  0.00  0.00    -0.004 A 
ATOM      5  C7  UNL d   1      -5.268   1.648   1.460  0.00  0.00     0.002 A 
ATOM      6  C8  UNL d   1      -3.968   2.117   1.260  0.00  0.00     0.002 A 
ENDROOT
BRANCH   1   7
ATOM      7  C2  UNL d   1      -1.686   1.949   0.189  0.00  0.00     0.056 C 
BRANCH   7   8
ATOM      8  C1  UNL d   1      -1.521   3.442   0.494  0.00  0.00     0.007 C 
ATOM      9  C   UNL d   1      -0.229   3.763   1.234  0.00  0.00     0.009 C 
ENDBRANCH   7   8
ENDBRANCH   1   7
TORSDOF 2
ENDMDL
