MODEL 1
REMARK minimizedAffinity 8.44017315
REMARK minimizedRMSD -1
REMARK  2 active torsions:
REMARK  status: ('A' for Active; 'I' for Inactive)
REMARK    1  A    between atoms: C1_2  and  C2_3 
REMARK    2  A    between atoms: C2_3  and  C3_4 
ROOT
ATOM      1  C3  UNL d   1       2.251   2.382   1.110  0.00  0.00    -0.075 A 
ATOM      2  C4  UNL d   1       1.276   2.884   0.236  0.00  0.00     0.002 A 
ATOM      3  C5  UNL d   1       0.346   3.826   0.678  0.00  0.00     0.002 A 
ATOM      4  C6  UNL d   1       0.372   4.268   1.999  0.00  0.00    -0.004 A 
ATOM      5  C7  UNL d   1       1.326   3.764   2.880  0.00  0.00     0.002 A 
ATOM      6  C8  UNL d   1       2.260   2.825   2.439  0.00  0.00     0.002 A 
ENDROOT
BRANCH   1   7
ATOM      7  C2  UNL d   1       3.278   1.385   0.630  0.00  0.00     0.056 C 
BRANCH   7   8
ATOM      8  C1  UNL d   1       2.891  -0.077   0.875  0.00  0.00     0.007 C 
ATOM      9  C   UNL d   1       3.145  -0.533   2.306  0.00  0.00     0.009 C 
ENDBRANCH   7   8
ENDBRANCH   1   7
TORSDOF 2
ENDMDL
