MODEL 1
REMARK minimizedAffinity 5.66064215
REMARK minimizedRMSD -1
REMARK  2 active torsions:
REMARK  status: ('A' for Active; 'I' for Inactive)
REMARK    1  A    between atoms: C1_2  and  C2_3 
REMARK    2  A    between atoms: C2_3  and  C3_4 
ROOT
ATOM      1  C3  UNL d   1       3.993   0.980  -0.456  0.00  0.00    -0.075 A 
ATOM      2  C4  UNL d   1       3.946   1.117  -1.851  0.00  0.00     0.002 A 
ATOM      3  C5  UNL d   1       4.923   1.850  -2.524  0.00  0.00     0.002 A 
ATOM      4  C6  UNL d   1       5.952   2.463  -1.812  0.00  0.00    -0.004 A 
ATOM      5  C7  UNL d   1       6.000   2.348  -0.425  0.00  0.00     0.002 A 
ATOM      6  C8  UNL d   1       5.026   1.611   0.251  0.00  0.00     0.002 A 
ENDROOT
BRANCH   1   7
ATOM      7  C2  UNL d   1       2.955   0.163   0.275  0.00  0.00     0.056 C 
BRANCH   7   8
ATOM      8  C1  UNL d   1       3.008   0.308   1.800  0.00  0.00     0.007 C 
ATOM      9  C   UNL d   1       3.549  -0.930   2.503  0.00  0.00     0.009 C 
ENDBRANCH   7   8
ENDBRANCH   1   7
TORSDOF 2
ENDMDL
