MODEL 1
REMARK minimizedAffinity -0.43676734
REMARK minimizedRMSD -1
REMARK  0 active torsions:
REMARK  status: ('A' for Active; 'I' for Inactive)
ROOT
ATOM      1  C1  BNZ d   1       4.813  -3.268  -5.836  0.00  0.00     0.000 A 
ATOM      2  C2  BNZ d   1       5.986  -3.958  -5.678  0.00  0.00     0.000 A 
ATOM      3  C3  BNZ d   1       5.998  -5.324  -5.673  0.00  0.00     0.000 A 
ATOM      4  C4  BNZ d   1       4.836  -5.999  -5.784  0.00  0.00     0.000 A 
ATOM      5  C5  BNZ d   1       3.644  -5.318  -5.935  0.00  0.00     0.000 A 
ATOM      6  C6  BNZ d   1       3.640  -3.942  -5.980  0.00  0.00     0.000 A 
ENDROOT
TORSDOF 0
ENDMDL
