MODEL 1
REMARK minimizedAffinity -1.73005474
REMARK minimizedRMSD -1
REMARK  0 active torsions:
REMARK  status: ('A' for Active; 'I' for Inactive)
ROOT
ATOM      1  C1  BNZ d   1       4.059  -3.855  -5.975  0.00  0.00     0.000 A 
ATOM      2  C2  BNZ d   1       3.957  -5.220  -5.996  0.00  0.00     0.000 A 
ATOM      3  C3  BNZ d   1       4.850  -6.000  -5.316  0.00  0.00     0.000 A 
ATOM      4  C4  BNZ d   1       5.866  -5.416  -4.648  0.00  0.00     0.000 A 
ATOM      5  C5  BNZ d   1       5.988  -4.041  -4.625  0.00  0.00     0.000 A 
ATOM      6  C6  BNZ d   1       5.065  -3.258  -5.279  0.00  0.00     0.000 A 
ENDROOT
TORSDOF 0
ENDMDL
