MODEL 1
REMARK minimizedAffinity -3.19818425
REMARK minimizedRMSD -1
REMARK  0 active torsions:
REMARK  status: ('A' for Active; 'I' for Inactive)
ROOT
ATOM      1  C1  BNZ d   1       6.000  -4.026  -4.497  0.00  0.00     0.000 A 
ATOM      2  C2  BNZ d   1       5.586  -2.969  -5.261  0.00  0.00     0.000 A 
ATOM      3  C3  BNZ d   1       4.435  -3.044  -5.996  0.00  0.00     0.000 A 
ATOM      4  C4  BNZ d   1       3.723  -4.190  -5.997  0.00  0.00     0.000 A 
ATOM      5  C5  BNZ d   1       4.133  -5.268  -5.238  0.00  0.00     0.000 A 
ATOM      6  C6  BNZ d   1       5.270  -5.175  -4.470  0.00  0.00     0.000 A 
ENDROOT
TORSDOF 0
ENDMDL
