MODEL 1
REMARK minimizedAffinity -1.07409942
REMARK minimizedRMSD -1
REMARK  0 active torsions:
REMARK  status: ('A' for Active; 'I' for Inactive)
ROOT
ATOM      1  C1  BNZ d   1       5.328  -3.484  -4.318  0.00  0.00     0.000 A 
ATOM      2  C2  BNZ d   1       4.617  -3.728  -5.463  0.00  0.00     0.000 A 
ATOM      3  C3  BNZ d   1       4.562  -4.984  -5.999  0.00  0.00     0.000 A 
ATOM      4  C4  BNZ d   1       5.250  -5.986  -5.413  0.00  0.00     0.000 A 
ATOM      5  C5  BNZ d   1       5.979  -5.754  -4.264  0.00  0.00     0.000 A 
ATOM      6  C6  BNZ d   1       6.000  -4.497  -3.705  0.00  0.00     0.000 A 
ENDROOT
TORSDOF 0
ENDMDL
