MODEL 1
REMARK minimizedAffinity -0.60896343
REMARK minimizedRMSD -1
REMARK  0 active torsions:
REMARK  status: ('A' for Active; 'I' for Inactive)
ROOT
ATOM      1  C1  BNZ d   1       4.912  -5.527  -5.999  0.00  0.00     0.000 A 
ATOM      2  C2  BNZ d   1       4.497  -4.222  -5.998  0.00  0.00     0.000 A 
ATOM      3  C3  BNZ d   1       4.847  -3.376  -4.983  0.00  0.00     0.000 A 
ATOM      4  C4  BNZ d   1       5.578  -3.846  -3.951  0.00  0.00     0.000 A 
ATOM      5  C5  BNZ d   1       5.996  -5.162  -3.933  0.00  0.00     0.000 A 
ATOM      6  C6  BNZ d   1       5.674  -6.000  -4.975  0.00  0.00     0.000 A 
ENDROOT
TORSDOF 0
ENDMDL
