MODEL 1
REMARK minimizedAffinity -2.20140409
REMARK minimizedRMSD -1
REMARK  0 active torsions:
REMARK  status: ('A' for Active; 'I' for Inactive)
ROOT
ATOM      1  C1  BNZ d   1       4.105  -3.720  -5.280  0.00  0.00     0.000 A 
ATOM      2  C2  BNZ d   1       5.177  -3.756  -4.430  0.00  0.00     0.000 A 
ATOM      3  C3  BNZ d   1       5.929  -4.891  -4.299  0.00  0.00     0.000 A 
ATOM      4  C4  BNZ d   1       5.583  -5.998  -4.987  0.00  0.00     0.000 A 
ATOM      5  C5  BNZ d   1       4.498  -5.980  -5.841  0.00  0.00     0.000 A 
ATOM      6  C6  BNZ d   1       3.768  -4.825  -6.000  0.00  0.00     0.000 A 
ENDROOT
TORSDOF 0
ENDMDL
