MODEL 1
REMARK minimizedAffinity -2.49627066
REMARK minimizedRMSD -1
REMARK  0 active torsions:
REMARK  status: ('A' for Active; 'I' for Inactive)
ROOT
ATOM      1  C1  BNZ d   1       5.566  -5.999  -4.844  0.00  0.00     0.000 A 
ATOM      2  C2  BNZ d   1       4.542  -6.000  -5.754  0.00  0.00     0.000 A 
ATOM      3  C3  BNZ d   1       3.823  -4.863  -6.000  0.00  0.00     0.000 A 
ATOM      4  C4  BNZ d   1       4.102  -3.740  -5.308  0.00  0.00     0.000 A 
ATOM      5  C5  BNZ d   1       5.125  -3.725  -4.381  0.00  0.00     0.000 A 
ATOM      6  C6  BNZ d   1       5.872  -4.861  -4.164  0.00  0.00     0.000 A 
ENDROOT
TORSDOF 0
ENDMDL
