MODEL 1
REMARK minimizedAffinity 1.65177953
REMARK minimizedRMSD -1
REMARK  0 active torsions:
REMARK  status: ('A' for Active; 'I' for Inactive)
ROOT
ATOM      1  C1  BNZ d   1       4.881  -5.527  -3.369  0.00  0.00     0.000 A 
ATOM      2  C2  BNZ d   1       3.660  -5.122  -3.837  0.00  0.00     0.000 A 
ATOM      3  C3  BNZ d   1       3.544  -4.516  -5.057  0.00  0.00     0.000 A 
ATOM      4  C4  BNZ d   1       4.652  -4.280  -5.788  0.00  0.00     0.000 A 
ATOM      5  C5  BNZ d   1       5.892  -4.675  -5.326  0.00  0.00     0.000 A 
ATOM      6  C6  BNZ d   1       6.000  -5.319  -4.115  0.00  0.00     0.000 A 
ENDROOT
TORSDOF 0
ENDMDL
