MODEL 1
REMARK minimizedAffinity 1.76499248
REMARK minimizedRMSD -1
REMARK  0 active torsions:
REMARK  status: ('A' for Active; 'I' for Inactive)
ROOT
ATOM      1  C1  BNZ d   1       0.892  -0.459   1.804  0.00  0.00     0.000 A 
ATOM      2  C2  BNZ d   1       0.594  -0.354   0.471  0.00  0.00     0.000 A 
ATOM      3  C3  BNZ d   1      -0.690  -0.138   0.056  0.00  0.00     0.000 A 
ATOM      4  C4  BNZ d   1      -1.680  -0.069   0.969  0.00  0.00     0.000 A 
ATOM      5  C5  BNZ d   1      -1.397  -0.183   2.316  0.00  0.00     0.000 A 
ATOM      6  C6  BNZ d   1      -0.098  -0.361   2.733  0.00  0.00     0.000 A 
ENDROOT
TORSDOF 0
ENDMDL
