MODEL 1
REMARK minimizedAffinity 1.263708
REMARK minimizedRMSD -1
REMARK  0 active torsions:
REMARK  status: ('A' for Active; 'I' for Inactive)
ROOT
ATOM      1  C1  BNZ d   1      -4.026  -3.600  -0.691  0.00  0.00     0.000 A 
ATOM      2  C2  BNZ d   1      -3.057  -2.708  -1.067  0.00  0.00     0.000 A 
ATOM      3  C3  BNZ d   1      -1.914  -3.134  -1.684  0.00  0.00     0.000 A 
ATOM      4  C4  BNZ d   1      -1.724  -4.454  -1.888  0.00  0.00     0.000 A 
ATOM      5  C5  BNZ d   1      -2.687  -5.367  -1.507  0.00  0.00     0.000 A 
ATOM      6  C6  BNZ d   1      -3.853  -4.931  -0.921  0.00  0.00     0.000 A 
ENDROOT
TORSDOF 0
ENDMDL
