MODEL 1
REMARK minimizedAffinity -2.15672588
REMARK minimizedRMSD -1
REMARK  0 active torsions:
REMARK  status: ('A' for Active; 'I' for Inactive)
ROOT
ATOM      1  C1  BNZ d   1       5.186  -3.370  -5.992  0.00  0.00     0.000 A 
ATOM      2  C2  BNZ d   1       5.999  -4.472  -6.000  0.00  0.00     0.000 A 
ATOM      3  C3  BNZ d   1       5.832  -5.472  -5.083  0.00  0.00     0.000 A 
ATOM      4  C4  BNZ d   1       4.878  -5.351  -4.137  0.00  0.00     0.000 A 
ATOM      5  C5  BNZ d   1       4.056  -4.243  -4.111  0.00  0.00     0.000 A 
ATOM      6  C6  BNZ d   1       4.202  -3.256  -5.058  0.00  0.00     0.000 A 
ENDROOT
TORSDOF 0
ENDMDL
