MODEL 1
REMARK minimizedAffinity -3.47070765
REMARK minimizedRMSD -1
REMARK  1 active torsions:
REMARK  status: ('A' for Active; 'I' for Inactive)
REMARK    1  A    between atoms: N_2  and  C1_3 
ROOT
ATOM      1  C1  UNL d   1      -3.242  -4.851  -5.444  0.00  0.00     0.143 A 
ATOM      2  C2  UNL d   1      -4.524  -5.299  -5.108  0.00  0.00    -0.057 A 
ATOM      3  C3  UNL d   1      -5.505  -4.413  -4.646  0.00  0.00     0.033 A 
ATOM      4  C4  UNL d   1      -5.211  -3.063  -4.485  0.00  0.00    -0.042 A 
ATOM      5  C5  UNL d   1      -3.936  -2.600  -4.788  0.00  0.00     0.033 A 
ATOM      6  C6  UNL d   1      -2.962  -3.488  -5.255  0.00  0.00    -0.057 A 
ENDROOT
BRANCH   1   7
ATOM      7  N   UNL d   1      -2.194  -5.698  -5.814  0.00  0.00    -0.732 N 
ATOM      8  C   UNL d   1      -1.127  -6.000  -4.884  0.00  0.00     0.284 C 
ATOM      9  H3  UNL d   1      -2.514  -6.498  -6.354  0.00  0.00     0.395 HD
ENDBRANCH   1   7
TORSDOF 1
ENDMDL
