MODEL 1
REMARK minimizedAffinity -3.75452995
REMARK minimizedRMSD -1
REMARK  1 active torsions:
REMARK  status: ('A' for Active; 'I' for Inactive)
REMARK    1  A    between atoms: N_2  and  C1_3 
ROOT
ATOM      1  C1  UNL d   1      -3.121  -4.751  -5.340  0.00  0.00     0.143 A 
ATOM      2  C2  UNL d   1      -3.817  -5.843  -4.812  0.00  0.00    -0.057 A 
ATOM      3  C3  UNL d   1      -5.175  -5.749  -4.484  0.00  0.00     0.033 A 
ATOM      4  C4  UNL d   1      -5.855  -4.547  -4.652  0.00  0.00    -0.042 A 
ATOM      5  C5  UNL d   1      -5.177  -3.441  -5.152  0.00  0.00     0.033 A 
ATOM      6  C6  UNL d   1      -3.822  -3.544  -5.483  0.00  0.00    -0.057 A 
ENDROOT
BRANCH   1   7
ATOM      7  N   UNL d   1      -1.747  -4.753  -5.593  0.00  0.00    -0.732 N 
ATOM      8  C   UNL d   1      -1.021  -6.000  -5.708  0.00  0.00     0.284 C 
ATOM      9  H3  UNL d   1      -1.476  -4.050  -6.277  0.00  0.00     0.395 HD
ENDBRANCH   1   7
TORSDOF 1
ENDMDL
