MODEL 1
REMARK minimizedAffinity -3.66947126
REMARK minimizedRMSD -1
REMARK  1 active torsions:
REMARK  status: ('A' for Active; 'I' for Inactive)
REMARK    1  A    between atoms: N_2  and  C1_3 
ROOT
ATOM      1  C1  UNL d   1      -3.213  -4.235  -5.253  0.00  0.00     0.143 A 
ATOM      2  C2  UNL d   1      -3.952  -5.387  -4.963  0.00  0.00    -0.057 A 
ATOM      3  C3  UNL d   1      -5.261  -5.305  -4.473  0.00  0.00     0.033 A 
ATOM      4  C4  UNL d   1      -5.845  -4.065  -4.237  0.00  0.00    -0.042 A 
ATOM      5  C5  UNL d   1      -5.120  -2.907  -4.494  0.00  0.00     0.033 A 
ATOM      6  C6  UNL d   1      -3.816  -2.996  -4.990  0.00  0.00    -0.057 A 
ENDROOT
BRANCH   1   7
ATOM      7  N   UNL d   1      -1.873  -4.250  -5.649  0.00  0.00    -0.732 N 
ATOM      8  C   UNL d   1      -1.221  -5.494  -5.999  0.00  0.00     0.284 C 
ATOM      9  H3  UNL d   1      -1.640  -3.472  -6.262  0.00  0.00     0.395 HD
ENDBRANCH   1   7
TORSDOF 1
ENDMDL
