MODEL 1
REMARK minimizedAffinity -1.94340801
REMARK minimizedRMSD -1
REMARK  1 active torsions:
REMARK  status: ('A' for Active; 'I' for Inactive)
REMARK    1  A    between atoms: N_2  and  C1_3 
ROOT
ATOM      1  C1  UNL d   1      -4.829  -4.653  -4.837  0.00  0.00     0.143 A 
ATOM      2  C2  UNL d   1      -5.431  -4.115  -3.695  0.00  0.00    -0.057 A 
ATOM      3  C3  UNL d   1      -6.000  -2.835  -3.708  0.00  0.00     0.033 A 
ATOM      4  C4  UNL d   1      -5.949  -2.057  -4.860  0.00  0.00    -0.042 A 
ATOM      5  C5  UNL d   1      -5.334  -2.562  -6.000  0.00  0.00     0.033 A 
ATOM      6  C6  UNL d   1      -4.774  -3.843  -5.982  0.00  0.00    -0.057 A 
ENDROOT
BRANCH   1   7
ATOM      7  N   UNL d   1      -4.160  -5.879  -4.859  0.00  0.00    -0.732 N 
ATOM      8  C   UNL d   1      -2.813  -5.993  -4.342  0.00  0.00     0.284 C 
ATOM      9  H3  UNL d   1      -4.767  -6.657  -4.613  0.00  0.00     0.395 HD
ENDBRANCH   1   7
TORSDOF 1
ENDMDL
