MODEL 1
REMARK minimizedAffinity -3.12416434
REMARK minimizedRMSD -1
REMARK  1 active torsions:
REMARK  status: ('A' for Active; 'I' for Inactive)
REMARK    1  A    between atoms: N_2  and  C1_3 
ROOT
ATOM      1  C1  UNL d   1      -3.515  -5.112  -5.387  0.00  0.00     0.143 A 
ATOM      2  C2  UNL d   1      -3.645  -3.804  -4.906  0.00  0.00    -0.057 A 
ATOM      3  C3  UNL d   1      -4.874  -3.136  -4.944  0.00  0.00     0.033 A 
ATOM      4  C4  UNL d   1      -5.993  -3.754  -5.492  0.00  0.00    -0.042 A 
ATOM      5  C5  UNL d   1      -5.881  -5.044  -5.999  0.00  0.00     0.033 A 
ATOM      6  C6  UNL d   1      -4.652  -5.709  -5.953  0.00  0.00    -0.057 A 
ENDROOT
BRANCH   1   7
ATOM      7  N   UNL d   1      -2.298  -5.794  -5.467  0.00  0.00    -0.732 N 
ATOM      8  C   UNL d   1      -1.121  -5.140  -5.997  0.00  0.00     0.284 C 
ATOM      9  H3  UNL d   1      -2.121  -6.370  -4.647  0.00  0.00     0.395 HD
ENDBRANCH   1   7
TORSDOF 1
ENDMDL
