MODEL 1
REMARK minimizedAffinity -3.58139443
REMARK minimizedRMSD -1
REMARK  1 active torsions:
REMARK  status: ('A' for Active; 'I' for Inactive)
REMARK    1  A    between atoms: N_2  and  C1_3 
ROOT
ATOM      1  C1  UNL d   1      -4.412  -3.234  -5.794  0.00  0.00     0.143 A 
ATOM      2  C2  UNL d   1      -3.032  -3.131  -6.000  0.00  0.00    -0.057 A 
ATOM      3  C3  UNL d   1      -2.202  -4.256  -5.930  0.00  0.00     0.033 A 
ATOM      4  C4  UNL d   1      -2.735  -5.503  -5.624  0.00  0.00    -0.042 A 
ATOM      5  C5  UNL d   1      -4.100  -5.625  -5.391  0.00  0.00     0.033 A 
ATOM      6  C6  UNL d   1      -4.925  -4.499  -5.469  0.00  0.00    -0.057 A 
ENDROOT
BRANCH   1   7
ATOM      7  N   UNL d   1      -5.276  -2.137  -5.752  0.00  0.00    -0.732 N 
ATOM      8  C   UNL d   1      -5.996  -1.811  -4.540  0.00  0.00     0.284 C 
ATOM      9  H3  UNL d   1      -4.901  -1.328  -6.244  0.00  0.00     0.395 HD
ENDBRANCH   1   7
TORSDOF 1
ENDMDL
