MODEL 1
REMARK minimizedAffinity -3.34694266
REMARK minimizedRMSD -1
REMARK  1 active torsions:
REMARK  status: ('A' for Active; 'I' for Inactive)
REMARK    1  A    between atoms: N_2  and  C1_3 
ROOT
ATOM      1  C1  UNL d   1      -5.078  -3.597  -5.500  0.00  0.00     0.143 A 
ATOM      2  C2  UNL d   1      -3.753  -4.036  -5.593  0.00  0.00    -0.057 A 
ATOM      3  C3  UNL d   1      -3.339  -5.227  -4.984  0.00  0.00     0.033 A 
ATOM      4  C4  UNL d   1      -4.239  -5.987  -4.245  0.00  0.00    -0.042 A 
ATOM      5  C5  UNL d   1      -5.555  -5.557  -4.118  0.00  0.00     0.033 A 
ATOM      6  C6  UNL d   1      -5.964  -4.370  -4.734  0.00  0.00    -0.057 A 
ENDROOT
BRANCH   1   7
ATOM      7  N   UNL d   1      -5.529  -2.372  -5.999  0.00  0.00    -0.732 N 
ATOM      8  C   UNL d   1      -5.997  -1.338  -5.102  0.00  0.00     0.284 C 
ATOM      9  H3  UNL d   1      -4.952  -2.030  -6.765  0.00  0.00     0.395 HD
ENDBRANCH   1   7
TORSDOF 1
ENDMDL
