MODEL 1
REMARK minimizedAffinity -2.71317196
REMARK minimizedRMSD -1
REMARK  1 active torsions:
REMARK  status: ('A' for Active; 'I' for Inactive)
REMARK    1  A    between atoms: N_2  and  C1_3 
ROOT
ATOM      1  C1  UNL d   1      -4.336  -4.213  -5.468  0.00  0.00     0.143 A 
ATOM      2  C2  UNL d   1      -5.174  -3.107  -5.654  0.00  0.00    -0.057 A 
ATOM      3  C3  UNL d   1      -4.903  -1.879  -5.038  0.00  0.00     0.033 A 
ATOM      4  C4  UNL d   1      -3.803  -1.743  -4.199  0.00  0.00    -0.042 A 
ATOM      5  C5  UNL d   1      -2.971  -2.835  -3.979  0.00  0.00     0.033 A 
ATOM      6  C6  UNL d   1      -3.242  -4.057  -4.602  0.00  0.00    -0.057 A 
ENDROOT
BRANCH   1   7
ATOM      7  N   UNL d   1      -4.606  -5.487  -5.973  0.00  0.00    -0.732 N 
ATOM      8  C   UNL d   1      -5.959  -5.998  -5.999  0.00  0.00     0.284 C 
ATOM      9  H3  UNL d   1      -4.067  -5.694  -6.811  0.00  0.00     0.395 HD
ENDBRANCH   1   7
TORSDOF 1
ENDMDL
