MODEL 1
REMARK minimizedAffinity -2.04644275
REMARK minimizedRMSD -1
REMARK  1 active torsions:
REMARK  status: ('A' for Active; 'I' for Inactive)
REMARK    1  A    between atoms: N_2  and  C1_3 
ROOT
ATOM      1  C1  UNL d   1      -5.318  -3.426  -5.102  0.00  0.00     0.143 A 
ATOM      2  C2  UNL d   1      -4.142  -3.753  -4.418  0.00  0.00    -0.057 A 
ATOM      3  C3  UNL d   1      -3.560  -5.020  -4.539  0.00  0.00     0.033 A 
ATOM      4  C4  UNL d   1      -4.161  -5.996  -5.327  0.00  0.00    -0.042 A 
ATOM      5  C5  UNL d   1      -5.344  -5.702  -5.996  0.00  0.00     0.033 A 
ATOM      6  C6  UNL d   1      -5.917  -4.432  -5.876  0.00  0.00    -0.057 A 
ENDROOT
BRANCH   1   7
ATOM      7  N   UNL d   1      -5.999  -2.216  -4.945  0.00  0.00    -0.732 N 
ATOM      8  C   UNL d   1      -5.995  -1.226  -6.000  0.00  0.00     0.284 C 
ATOM      9  H3  UNL d   1      -6.901  -2.335  -4.488  0.00  0.00     0.395 HD
ENDBRANCH   1   7
TORSDOF 1
ENDMDL
