MODEL 1
REMARK minimizedAffinity -3.21904898
REMARK minimizedRMSD -1
REMARK  1 active torsions:
REMARK  status: ('A' for Active; 'I' for Inactive)
REMARK    1  A    between atoms: N_2  and  C1_3 
ROOT
ATOM      1  C1  UNL d   1      -3.879  -4.571  -5.305  0.00  0.00     0.143 A 
ATOM      2  C2  UNL d   1      -3.326  -3.295  -5.154  0.00  0.00    -0.057 A 
ATOM      3  C3  UNL d   1      -4.091  -2.142  -5.371  0.00  0.00     0.033 A 
ATOM      4  C4  UNL d   1      -5.419  -2.246  -5.772  0.00  0.00    -0.042 A 
ATOM      5  C5  UNL d   1      -5.982  -3.505  -5.953  0.00  0.00     0.033 A 
ATOM      6  C6  UNL d   1      -5.215  -4.652  -5.728  0.00  0.00    -0.057 A 
ENDROOT
BRANCH   1   7
ATOM      7  N   UNL d   1      -3.144  -5.754  -5.199  0.00  0.00    -0.732 N 
ATOM      8  C   UNL d   1      -2.271  -5.981  -4.068  0.00  0.00     0.284 C 
ATOM      9  H3  UNL d   1      -3.680  -6.572  -5.481  0.00  0.00     0.395 HD
ENDBRANCH   1   7
TORSDOF 1
ENDMDL
