MODEL 1
REMARK minimizedAffinity -3.16645193
REMARK minimizedRMSD -1
REMARK  1 active torsions:
REMARK  status: ('A' for Active; 'I' for Inactive)
REMARK    1  A    between atoms: N_2  and  C1_3 
ROOT
ATOM      1  C1  UNL d   1      -3.547  -4.737  -5.057  0.00  0.00     0.143 A 
ATOM      2  C2  UNL d   1      -4.430  -5.151  -4.054  0.00  0.00    -0.057 A 
ATOM      3  C3  UNL d   1      -5.651  -4.499  -3.847  0.00  0.00     0.033 A 
ATOM      4  C4  UNL d   1      -5.999  -3.399  -4.624  0.00  0.00    -0.042 A 
ATOM      5  C5  UNL d   1      -5.126  -2.954  -5.610  0.00  0.00     0.033 A 
ATOM      6  C6  UNL d   1      -3.911  -3.614  -5.816  0.00  0.00    -0.057 A 
ENDROOT
BRANCH   1   7
ATOM      7  N   UNL d   1      -2.275  -5.282  -5.247  0.00  0.00    -0.732 N 
ATOM      8  C   UNL d   1      -1.270  -4.563  -6.000  0.00  0.00     0.284 C 
ATOM      9  H3  UNL d   1      -1.919  -5.740  -4.411  0.00  0.00     0.395 HD
ENDBRANCH   1   7
TORSDOF 1
ENDMDL
