MODEL 1
REMARK minimizedAffinity 1.23784447
REMARK minimizedRMSD -1
REMARK  1 active torsions:
REMARK  status: ('A' for Active; 'I' for Inactive)
REMARK    1  A    between atoms: N_2  and  C1_3 
ROOT
ATOM      1  C1  UNL d   1      -3.450  -3.470  -5.665  0.00  0.00     0.143 A 
ATOM      2  C2  UNL d   1      -2.073  -3.602  -5.454  0.00  0.00    -0.057 A 
ATOM      3  C3  UNL d   1      -1.445  -4.851  -5.519  0.00  0.00     0.033 A 
ATOM      4  C4  UNL d   1      -2.190  -5.999  -5.768  0.00  0.00    -0.042 A 
ATOM      5  C5  UNL d   1      -3.563  -5.895  -5.956  0.00  0.00     0.033 A 
ATOM      6  C6  UNL d   1      -4.184  -4.644  -5.896  0.00  0.00    -0.057 A 
ENDROOT
BRANCH   1   7
ATOM      7  N   UNL d   1      -4.149  -2.270  -5.516  0.00  0.00    -0.732 N 
ATOM      8  C   UNL d   1      -4.630  -1.853  -4.216  0.00  0.00     0.284 C 
ATOM      9  H3  UNL d   1      -3.750  -1.517  -6.073  0.00  0.00     0.395 HD
ENDBRANCH   1   7
TORSDOF 1
ENDMDL
