MODEL 1
REMARK minimizedAffinity -3.69912148
REMARK minimizedRMSD -1
REMARK  1 active torsions:
REMARK  status: ('A' for Active; 'I' for Inactive)
REMARK    1  A    between atoms: N_2  and  C1_3 
ROOT
ATOM      1  C1  UNL d   1      -2.897  -4.723  -5.568  0.00  0.00     0.143 A 
ATOM      2  C2  UNL d   1      -3.555  -3.664  -4.934  0.00  0.00    -0.057 A 
ATOM      3  C3  UNL d   1      -4.917  -3.739  -4.620  0.00  0.00     0.033 A 
ATOM      4  C4  UNL d   1      -5.655  -4.868  -4.960  0.00  0.00    -0.042 A 
ATOM      5  C5  UNL d   1      -5.028  -5.923  -5.612  0.00  0.00     0.033 A 
ATOM      6  C6  UNL d   1      -3.665  -5.845  -5.918  0.00  0.00    -0.057 A 
ENDROOT
BRANCH   1   7
ATOM      7  N   UNL d   1      -1.569  -4.670  -5.995  0.00  0.00    -0.732 N 
ATOM      8  C   UNL d   1      -0.747  -5.861  -6.000  0.00  0.00     0.284 C 
ATOM      9  H3  UNL d   1      -1.448  -4.078  -6.814  0.00  0.00     0.395 HD
ENDBRANCH   1   7
TORSDOF 1
ENDMDL
