MODEL 1
REMARK minimizedAffinity -2.701231
REMARK minimizedRMSD -1
REMARK  1 active torsions:
REMARK  status: ('A' for Active; 'I' for Inactive)
REMARK    1  A    between atoms: N_2  and  C1_3 
ROOT
ATOM      1  C1  UNL d   1      -3.442  -4.933  -5.548  0.00  0.00     0.143 A 
ATOM      2  C2  UNL d   1      -4.573  -5.663  -5.928  0.00  0.00    -0.057 A 
ATOM      3  C3  UNL d   1      -5.837  -5.063  -5.993  0.00  0.00     0.033 A 
ATOM      4  C4  UNL d   1      -5.996  -3.725  -5.649  0.00  0.00    -0.042 A 
ATOM      5  C5  UNL d   1      -4.890  -2.986  -5.244  0.00  0.00     0.033 A 
ATOM      6  C6  UNL d   1      -3.630  -3.590  -5.188  0.00  0.00    -0.057 A 
ENDROOT
BRANCH   1   7
ATOM      7  N   UNL d   1      -2.177  -5.497  -5.369  0.00  0.00    -0.732 N 
ATOM      8  C   UNL d   1      -1.013  -4.911  -5.999  0.00  0.00     0.284 C 
ATOM      9  H3  UNL d   1      -2.020  -5.805  -4.412  0.00  0.00     0.395 HD
ENDBRANCH   1   7
TORSDOF 1
ENDMDL
