MODEL 1
REMARK minimizedAffinity 0.46116057
REMARK minimizedRMSD -1
REMARK  0 active torsions:
REMARK  status: ('A' for Active; 'I' for Inactive)
ROOT
ATOM      1  C   UNL d   1      -2.191   1.789   1.780  0.00  0.00    -0.002 A 
ATOM      2  C1  UNL d   1      -2.094   2.307   0.496  0.00  0.00     0.010 A 
ATOM      3  C2  UNL d   1      -1.192   1.764  -0.422  0.00  0.00     0.041 A 
ATOM      4  C3  UNL d   1      -0.384   0.681  -0.025  0.00  0.00    -0.075 A 
ATOM      5  S   UNL d   1       0.790  -0.146  -0.979  0.00  0.00     0.015 SA
ATOM      6  C4  UNL d   1       1.189  -1.206   0.294  0.00  0.00     0.022 A 
ATOM      7  C5  UNL d   1       0.454  -0.949   1.428  0.00  0.00     0.026 A 
ATOM      8  C6  UNL d   1      -0.465   0.142   1.263  0.00  0.00    -0.082 A 
ATOM      9  C7  UNL d   1      -1.388   0.715   2.170  0.00  0.00     0.045 A 
ENDROOT
TORSDOF 0
ENDMDL
