MODEL 1
REMARK minimizedAffinity -4.88179207
REMARK minimizedRMSD -1
REMARK  0 active torsions:
REMARK  status: ('A' for Active; 'I' for Inactive)
ROOT
ATOM      1  C   UNL d   1      -1.780   1.501   2.128  0.00  0.00    -0.002 A 
ATOM      2  C1  UNL d   1      -1.448   0.173   2.357  0.00  0.00     0.010 A 
ATOM      3  C2  UNL d   1      -0.543  -0.486   1.522  0.00  0.00     0.041 A 
ATOM      4  C3  UNL d   1       0.028   0.218   0.444  0.00  0.00    -0.075 A 
ATOM      5  S   UNL d   1       1.160  -0.385  -0.708  0.00  0.00     0.015 SA
ATOM      6  C4  UNL d   1       1.230   1.106  -1.531  0.00  0.00     0.022 A 
ATOM      7  C5  UNL d   1       0.416   2.052  -0.954  0.00  0.00     0.026 A 
ATOM      8  C6  UNL d   1      -0.290   1.556   0.194  0.00  0.00    -0.082 A 
ATOM      9  C7  UNL d   1      -1.211   2.197   1.058  0.00  0.00     0.045 A 
ENDROOT
TORSDOF 0
ENDMDL
