MODEL 1
REMARK minimizedAffinity -1.90584803
REMARK minimizedRMSD -1
REMARK  0 active torsions:
REMARK  status: ('A' for Active; 'I' for Inactive)
ROOT
ATOM      1  C   UNL d   1       0.991  -5.556  -1.808  0.00  0.00    -0.002 A 
ATOM      2  C1  UNL d   1       1.800  -5.356  -0.698  0.00  0.00     0.010 A 
ATOM      3  C2  UNL d   1       2.098  -4.064  -0.260  0.00  0.00     0.041 A 
ATOM      4  C3  UNL d   1       1.561  -2.966  -0.960  0.00  0.00    -0.075 A 
ATOM      5  S   UNL d   1       1.789  -1.294  -0.605  0.00  0.00     0.015 SA
ATOM      6  C4  UNL d   1       0.817  -0.806  -1.917  0.00  0.00     0.022 A 
ATOM      7  C5  UNL d   1       0.323  -1.879  -2.620  0.00  0.00     0.026 A 
ATOM      8  C6  UNL d   1       0.743  -3.142  -2.080  0.00  0.00    -0.082 A 
ATOM      9  C7  UNL d   1       0.461  -4.464  -2.500  0.00  0.00     0.045 A 
ENDROOT
TORSDOF 0
ENDMDL
