MODEL 1
REMARK minimizedAffinity -4.21146297
REMARK minimizedRMSD -1
REMARK  0 active torsions:
REMARK  status: ('A' for Active; 'I' for Inactive)
ROOT
ATOM      1  C   UNL d   1      -1.225   4.174   0.637  0.00  0.00    -0.002 A 
ATOM      2  C1  UNL d   1      -0.319   3.854  -0.364  0.00  0.00     0.010 A 
ATOM      3  C2  UNL d   1       0.107   2.536  -0.542  0.00  0.00     0.041 A 
ATOM      4  C3  UNL d   1      -0.399   1.535   0.311  0.00  0.00    -0.075 A 
ATOM      5  S   UNL d   1      -0.020  -0.146   0.280  0.00  0.00     0.015 SA
ATOM      6  C4  UNL d   1      -1.053  -0.479   1.594  0.00  0.00     0.022 A 
ATOM      7  C5  UNL d   1      -1.678   0.653   2.058  0.00  0.00     0.026 A 
ATOM      8  C6  UNL d   1      -1.312   1.833   1.326  0.00  0.00    -0.082 A 
ATOM      9  C7  UNL d   1      -1.724   3.179   1.481  0.00  0.00     0.045 A 
ENDROOT
TORSDOF 0
ENDMDL
