MODEL 1
REMARK minimizedAffinity -0.306459814
REMARK minimizedRMSD -1
REMARK  0 active torsions:
REMARK  status: ('A' for Active; 'I' for Inactive)
ROOT
ATOM      1  C   UNL d   1      -0.026   3.362  -1.033  0.00  0.00    -0.002 A 
ATOM      2  C1  UNL d   1       0.550   2.192  -1.508  0.00  0.00     0.010 A 
ATOM      3  C2  UNL d   1       0.440   1.002  -0.786  0.00  0.00     0.041 A 
ATOM      4  C3  UNL d   1      -0.266   1.007   0.433  0.00  0.00    -0.075 A 
ATOM      5  S   UNL d   1      -0.530  -0.331   1.487  0.00  0.00     0.015 SA
ATOM      6  C4  UNL d   1      -1.414   0.618   2.592  0.00  0.00     0.022 A 
ATOM      7  C5  UNL d   1      -1.515   1.926   2.183  0.00  0.00     0.026 A 
ATOM      8  C6  UNL d   1      -0.856   2.172   0.931  0.00  0.00    -0.082 A 
ATOM      9  C7  UNL d   1      -0.726   3.363   0.176  0.00  0.00     0.045 A 
ENDROOT
TORSDOF 0
ENDMDL
