MODEL 1
REMARK minimizedAffinity 0.216584086
REMARK minimizedRMSD -1
REMARK  0 active torsions:
REMARK  status: ('A' for Active; 'I' for Inactive)
ROOT
ATOM      1  C   UNL d   1      -0.794   0.721   1.825  0.00  0.00    -0.002 A 
ATOM      2  C1  UNL d   1      -0.729  -0.649   2.030  0.00  0.00     0.010 A 
ATOM      3  C2  UNL d   1      -0.224  -1.493   1.039  0.00  0.00     0.041 A 
ATOM      4  C3  UNL d   1       0.221  -0.930  -0.173  0.00  0.00    -0.075 A 
ATOM      5  S   UNL d   1       0.879  -1.768  -1.529  0.00  0.00     0.015 SA
ATOM      6  C4  UNL d   1       1.090  -0.326  -2.412  0.00  0.00     0.022 A 
ATOM      7  C5  UNL d   1       0.674   0.777  -1.705  0.00  0.00     0.026 A 
ATOM      8  C6  UNL d   1       0.167   0.447  -0.403  0.00  0.00    -0.082 A 
ATOM      9  C7  UNL d   1      -0.351   1.276   0.621  0.00  0.00     0.045 A 
ENDROOT
TORSDOF 0
ENDMDL
