MODEL 1
REMARK minimizedAffinity -0.646062076
REMARK minimizedRMSD -1
REMARK  0 active torsions:
REMARK  status: ('A' for Active; 'I' for Inactive)
ROOT
ATOM      1  C   UNL d   1      -0.023   4.493   0.793  0.00  0.00    -0.002 A 
ATOM      2  C1  UNL d   1       0.544   4.103  -0.412  0.00  0.00     0.010 A 
ATOM      3  C2  UNL d   1       0.648   2.751  -0.743  0.00  0.00     0.041 A 
ATOM      4  C3  UNL d   1       0.167   1.788   0.165  0.00  0.00    -0.075 A 
ATOM      5  S   UNL d   1       0.188   0.075  -0.028  0.00  0.00     0.015 SA
ATOM      6  C4  UNL d   1      -0.556  -0.180   1.485  0.00  0.00     0.022 A 
ATOM      7  C5  UNL d   1      -0.820   1.002   2.135  0.00  0.00     0.026 A 
ATOM      8  C6  UNL d   1      -0.409   2.156   1.385  0.00  0.00    -0.082 A 
ATOM      9  C7  UNL d   1      -0.499   3.535   1.692  0.00  0.00     0.045 A 
ENDROOT
TORSDOF 0
ENDMDL
