MODEL 1
REMARK minimizedAffinity -0.410928547
REMARK minimizedRMSD -1
REMARK  0 active torsions:
REMARK  status: ('A' for Active; 'I' for Inactive)
ROOT
ATOM      1  C   UNL d   1      -0.827   1.465   2.090  0.00  0.00    -0.002 A 
ATOM      2  C1  UNL d   1      -1.808   1.684   1.132  0.00  0.00     0.010 A 
ATOM      3  C2  UNL d   1      -1.769   1.011  -0.091  0.00  0.00     0.041 A 
ATOM      4  C3  UNL d   1      -0.721   0.103  -0.336  0.00  0.00    -0.075 A 
ATOM      5  S   UNL d   1      -0.471  -0.836  -1.760  0.00  0.00     0.015 SA
ATOM      6  C4  UNL d   1       0.943  -1.551  -1.131  0.00  0.00     0.022 A 
ATOM      7  C5  UNL d   1       1.231  -1.096   0.134  0.00  0.00     0.026 A 
ATOM      8  C6  UNL d   1       0.277  -0.136   0.613  0.00  0.00    -0.082 A 
ATOM      9  C7  UNL d   1       0.211   0.563   1.842  0.00  0.00     0.045 A 
ENDROOT
TORSDOF 0
ENDMDL
