MODEL 1
REMARK minimizedAffinity -4.17424965
REMARK minimizedRMSD -1
REMARK  0 active torsions:
REMARK  status: ('A' for Active; 'I' for Inactive)
ROOT
ATOM      1  C1  BNZ d   1      -0.995   0.085   1.366  0.00  0.00     0.000 A 
ATOM      2  C2  BNZ d   1       0.017  -0.245   2.227  0.00  0.00     0.000 A 
ATOM      3  C3  BNZ d   1       1.260  -0.564   1.757  0.00  0.00     0.000 A 
ATOM      4  C4  BNZ d   1       1.479  -0.592   0.426  0.00  0.00     0.000 A 
ATOM      5  C5  BNZ d   1       0.466  -0.271  -0.455  0.00  0.00     0.000 A 
ATOM      6  C6  BNZ d   1      -0.773   0.087   0.023  0.00  0.00     0.000 A 
ENDROOT
TORSDOF 0
ENDMDL
