MODEL 1
REMARK minimizedAffinity -4.88865995
REMARK minimizedRMSD -1
REMARK  0 active torsions:
REMARK  status: ('A' for Active; 'I' for Inactive)
ROOT
ATOM      1  C1  BNZ d   1       1.899  -1.050   1.392  0.00  0.00     0.000 A 
ATOM      2  C2  BNZ d   1       1.112  -1.084   2.512  0.00  0.00     0.000 A 
ATOM      3  C3  BNZ d   1      -0.204  -0.720   2.454  0.00  0.00     0.000 A 
ATOM      4  C4  BNZ d   1      -0.720  -0.284   1.286  0.00  0.00     0.000 A 
ATOM      5  C5  BNZ d   1       0.063  -0.234   0.151  0.00  0.00     0.000 A 
ATOM      6  C6  BNZ d   1       1.377  -0.639   0.204  0.00  0.00     0.000 A 
ENDROOT
TORSDOF 0
ENDMDL
