MODEL 1
REMARK minimizedAffinity -4.12363577
REMARK minimizedRMSD -1
REMARK  0 active torsions:
REMARK  status: ('A' for Active; 'I' for Inactive)
ROOT
ATOM      1  C1  BNZ d   1      -0.273   2.315   0.410  0.00  0.00     0.000 A 
ATOM      2  C2  BNZ d   1      -0.150   2.679  -0.905  0.00  0.00     0.000 A 
ATOM      3  C3  BNZ d   1      -0.452   1.799  -1.906  0.00  0.00     0.000 A 
ATOM      4  C4  BNZ d   1      -0.837   0.545  -1.592  0.00  0.00     0.000 A 
ATOM      5  C5  BNZ d   1      -0.956   0.160  -0.271  0.00  0.00     0.000 A 
ATOM      6  C6  BNZ d   1      -0.689   1.061   0.734  0.00  0.00     0.000 A 
ENDROOT
TORSDOF 0
ENDMDL
