MODEL 1
REMARK minimizedAffinity -2.80855584
REMARK minimizedRMSD -1
REMARK  0 active torsions:
REMARK  status: ('A' for Active; 'I' for Inactive)
ROOT
ATOM      1  C1  BNZ d   1      -0.320   0.151   1.038  0.00  0.00     0.000 A 
ATOM      2  C2  BNZ d   1       0.592  -0.858   0.879  0.00  0.00     0.000 A 
ATOM      3  C3  BNZ d   1       1.114  -1.142  -0.351  0.00  0.00     0.000 A 
ATOM      4  C4  BNZ d   1       0.694  -0.445  -1.427  0.00  0.00     0.000 A 
ATOM      5  C5  BNZ d   1      -0.232   0.569  -1.285  0.00  0.00     0.000 A 
ATOM      6  C6  BNZ d   1      -0.726   0.878  -0.038  0.00  0.00     0.000 A 
ENDROOT
TORSDOF 0
ENDMDL
