MODEL 1
REMARK minimizedAffinity -1.22285593
REMARK minimizedRMSD -1
REMARK  0 active torsions:
REMARK  status: ('A' for Active; 'I' for Inactive)
ROOT
ATOM      1  C1  BNZ d   1      -0.687  -0.145  -1.172  0.00  0.00     0.000 A 
ATOM      2  C2  BNZ d   1      -1.180   0.774  -2.060  0.00  0.00     0.000 A 
ATOM      3  C3  BNZ d   1      -0.993   2.113  -1.858  0.00  0.00     0.000 A 
ATOM      4  C4  BNZ d   1      -0.349   2.533  -0.750  0.00  0.00     0.000 A 
ATOM      5  C5  BNZ d   1       0.146   1.620   0.160  0.00  0.00     0.000 A 
ATOM      6  C6  BNZ d   1      -0.010   0.271  -0.066  0.00  0.00     0.000 A 
ENDROOT
TORSDOF 0
ENDMDL
