MODEL 1
REMARK minimizedAffinity 0.567413151
REMARK minimizedRMSD -1
REMARK  0 active torsions:
REMARK  status: ('A' for Active; 'I' for Inactive)
ROOT
ATOM      1  C1  BNZ d   1       1.864   0.115   3.264  0.00  0.00     0.000 A 
ATOM      2  C2  BNZ d   1       0.526  -0.127   3.427  0.00  0.00     0.000 A 
ATOM      3  C3  BNZ d   1      -0.024  -1.315   3.033  0.00  0.00     0.000 A 
ATOM      4  C4  BNZ d   1       0.756  -2.243   2.442  0.00  0.00     0.000 A 
ATOM      5  C5  BNZ d   1       2.105  -2.010   2.262  0.00  0.00     0.000 A 
ATOM      6  C6  BNZ d   1       2.662  -0.829   2.694  0.00  0.00     0.000 A 
ENDROOT
TORSDOF 0
ENDMDL
