MODEL 1
REMARK minimizedAffinity 2.72578287
REMARK minimizedRMSD -1
REMARK  0 active torsions:
REMARK  status: ('A' for Active; 'I' for Inactive)
ROOT
ATOM      1  C1  BNZ d   1       1.236  -1.138   3.410  0.00  0.00     0.000 A 
ATOM      2  C2  BNZ d   1       2.162  -0.833   2.448  0.00  0.00     0.000 A 
ATOM      3  C3  BNZ d   1       1.832  -0.875   1.122  0.00  0.00     0.000 A 
ATOM      4  C4  BNZ d   1       0.592  -1.259   0.759  0.00  0.00     0.000 A 
ATOM      5  C5  BNZ d   1      -0.350  -1.578   1.717  0.00  0.00     0.000 A 
ATOM      6  C6  BNZ d   1      -0.026  -1.498   3.052  0.00  0.00     0.000 A 
ENDROOT
TORSDOF 0
ENDMDL
