MODEL 1
REMARK minimizedAffinity -0.583521903
REMARK minimizedRMSD -1
REMARK  0 active torsions:
REMARK  status: ('A' for Active; 'I' for Inactive)
ROOT
ATOM      1  C   UNL d   1       0.655  -3.362  -2.594  0.00  0.00     0.023 A 
ATOM      2  C1  UNL d   1      -0.150  -2.236  -2.769  0.00  0.00     0.003 A 
ATOM      3  C2  UNL d   1      -0.259  -1.289  -1.748  0.00  0.00     0.048 A 
ATOM      4  C3  UNL d   1       0.440  -1.474  -0.556  0.00  0.00     0.023 A 
ATOM      5  C4  UNL d   1       1.247  -2.599  -0.377  0.00  0.00     0.048 A 
ATOM      6  C5  UNL d   1       1.352  -3.543  -1.400  0.00  0.00     0.003 A 
ATOM      7  I   UNL d   1       0.279  -0.067   0.965  0.00  0.00    -0.146 I 
ENDROOT
TORSDOF 0
ENDMDL
