MODEL 1
REMARK minimizedAffinity -2.57779956
REMARK minimizedRMSD -1
REMARK  0 active torsions:
REMARK  status: ('A' for Active; 'I' for Inactive)
ROOT
ATOM      1  C   UNL d   1      -1.362   1.140   2.337  0.00  0.00     0.023 A 
ATOM      2  C1  UNL d   1      -1.463  -0.249   2.408  0.00  0.00     0.003 A 
ATOM      3  C2  UNL d   1      -0.906  -1.043   1.403  0.00  0.00     0.048 A 
ATOM      4  C3  UNL d   1      -0.250  -0.441   0.330  0.00  0.00     0.023 A 
ATOM      5  C4  UNL d   1      -0.146   0.949   0.256  0.00  0.00     0.048 A 
ATOM      6  C5  UNL d   1      -0.704   1.739   1.263  0.00  0.00     0.003 A 
ATOM      7  I   UNL d   1       0.579  -1.620  -1.167  0.00  0.00    -0.146 I 
ENDROOT
TORSDOF 0
ENDMDL
