MODEL 1
REMARK minimizedAffinity -2.66408944
REMARK minimizedRMSD -1
REMARK  0 active torsions:
REMARK  status: ('A' for Active; 'I' for Inactive)
ROOT
ATOM      1  C   UNL d   1       0.537   3.692  -0.315  0.00  0.00     0.023 A 
ATOM      2  C1  UNL d   1       0.866   2.515  -0.985  0.00  0.00     0.003 A 
ATOM      3  C2  UNL d   1       0.558   1.277  -0.418  0.00  0.00     0.048 A 
ATOM      4  C3  UNL d   1      -0.081   1.224   0.821  0.00  0.00     0.023 A 
ATOM      5  C4  UNL d   1      -0.413   2.400   1.495  0.00  0.00     0.048 A 
ATOM      6  C5  UNL d   1      -0.103   3.635   0.924  0.00  0.00     0.003 A 
ATOM      7  I   UNL d   1      -0.540  -0.618   1.668  0.00  0.00    -0.146 I 
ENDROOT
TORSDOF 0
ENDMDL
