MODEL 1
REMARK minimizedAffinity -2.25783205
REMARK minimizedRMSD -1
REMARK  0 active torsions:
REMARK  status: ('A' for Active; 'I' for Inactive)
ROOT
ATOM      1  C   UNL d   1      -0.753   3.137   1.556  0.00  0.00     0.023 A 
ATOM      2  C1  UNL d   1      -0.048   3.243   0.357  0.00  0.00     0.003 A 
ATOM      3  C2  UNL d   1       0.333   2.091  -0.334  0.00  0.00     0.048 A 
ATOM      4  C3  UNL d   1       0.003   0.837   0.177  0.00  0.00     0.023 A 
ATOM      5  C4  UNL d   1      -0.704   0.726   1.376  0.00  0.00     0.048 A 
ATOM      6  C5  UNL d   1      -1.081   1.880   2.064  0.00  0.00     0.003 A 
ATOM      7  I   UNL d   1       0.568  -0.879  -0.851  0.00  0.00    -0.146 I 
ENDROOT
TORSDOF 0
ENDMDL
