MODEL 1
REMARK minimizedAffinity -1.33139098
REMARK minimizedRMSD -1
REMARK  0 active torsions:
REMARK  status: ('A' for Active; 'I' for Inactive)
ROOT
ATOM      1  C   UNL d   1       0.595  -3.144  -2.820  0.00  0.00     0.023 A 
ATOM      2  C1  UNL d   1       0.257  -1.827  -3.133  0.00  0.00     0.003 A 
ATOM      3  C2  UNL d   1       0.129  -0.878  -2.117  0.00  0.00     0.048 A 
ATOM      4  C3  UNL d   1       0.341  -1.252  -0.790  0.00  0.00     0.023 A 
ATOM      5  C4  UNL d   1       0.680  -2.568  -0.473  0.00  0.00     0.048 A 
ATOM      6  C5  UNL d   1       0.806  -3.514  -1.492  0.00  0.00     0.003 A 
ATOM      7  I   UNL d   1       0.151   0.159   0.724  0.00  0.00    -0.146 I 
ENDROOT
TORSDOF 0
ENDMDL
