MODEL 1
REMARK minimizedAffinity -4.32628202
REMARK minimizedRMSD -1
REMARK  0 active torsions:
REMARK  status: ('A' for Active; 'I' for Inactive)
ROOT
ATOM      1  C   UNL d   1      -0.477   3.216   1.078  0.00  0.00     0.023 A 
ATOM      2  C1  UNL d   1       0.114   2.962  -0.160  0.00  0.00     0.003 A 
ATOM      3  C2  UNL d   1       0.335   1.647  -0.574  0.00  0.00     0.048 A 
ATOM      4  C3  UNL d   1      -0.039   0.590   0.255  0.00  0.00     0.023 A 
ATOM      5  C4  UNL d   1      -0.632   0.838   1.494  0.00  0.00     0.048 A 
ATOM      6  C5  UNL d   1      -0.850   2.155   1.904  0.00  0.00     0.003 A 
ATOM      7  I   UNL d   1       0.288  -1.369  -0.359  0.00  0.00    -0.146 I 
ENDROOT
TORSDOF 0
ENDMDL
