MODEL 1
REMARK minimizedAffinity -1.56442726
REMARK minimizedRMSD -1
REMARK  0 active torsions:
REMARK  status: ('A' for Active; 'I' for Inactive)
ROOT
ATOM      1  C   UNL d   1      -1.331   1.824   2.015  0.00  0.00     0.023 A 
ATOM      2  C1  UNL d   1      -0.613   2.301   0.918  0.00  0.00     0.003 A 
ATOM      3  C2  UNL d   1      -0.040   1.405   0.013  0.00  0.00     0.048 A 
ATOM      4  C3  UNL d   1      -0.190   0.033   0.210  0.00  0.00     0.023 A 
ATOM      5  C4  UNL d   1      -0.908  -0.450   1.305  0.00  0.00     0.048 A 
ATOM      6  C5  UNL d   1      -1.479   0.450   2.208  0.00  0.00     0.003 A 
ATOM      7  I   UNL d   1       0.662  -1.303  -1.135  0.00  0.00    -0.146 I 
ENDROOT
TORSDOF 0
ENDMDL
