MODEL 1
REMARK minimizedAffinity -2.94041753
REMARK minimizedRMSD -1
REMARK  0 active torsions:
REMARK  status: ('A' for Active; 'I' for Inactive)
ROOT
ATOM      1  C   UNL d   1      -0.477  -0.989   1.231  0.00  0.00     0.023 A 
ATOM      2  C1  UNL d   1       0.340  -0.715   0.133  0.00  0.00     0.003 A 
ATOM      3  C2  UNL d   1       0.520   0.603  -0.293  0.00  0.00     0.048 A 
ATOM      4  C3  UNL d   1      -0.118   1.642   0.384  0.00  0.00     0.023 A 
ATOM      5  C4  UNL d   1      -0.935   1.373   1.483  0.00  0.00     0.048 A 
ATOM      6  C5  UNL d   1      -1.113   0.054   1.905  0.00  0.00     0.003 A 
ATOM      7  I   UNL d   1       0.150   3.604  -0.248  0.00  0.00    -0.146 I 
ENDROOT
TORSDOF 0
ENDMDL
