MODEL 1
REMARK minimizedAffinity -1.65920675
REMARK minimizedRMSD -1
REMARK  0 active torsions:
REMARK  status: ('A' for Active; 'I' for Inactive)
ROOT
ATOM      1  C   UNL d   1       0.054  -0.763   1.128  0.00  0.00     0.023 A 
ATOM      2  C1  UNL d   1      -0.583  -0.020   2.122  0.00  0.00     0.003 A 
ATOM      3  C2  UNL d   1      -0.590   1.375   2.056  0.00  0.00     0.048 A 
ATOM      4  C3  UNL d   1       0.041   2.020   0.993  0.00  0.00     0.023 A 
ATOM      5  C4  UNL d   1       0.678   1.280  -0.004  0.00  0.00     0.048 A 
ATOM      6  C5  UNL d   1       0.684  -0.114   0.066  0.00  0.00     0.003 A 
ATOM      7  I   UNL d   1       0.031   4.096   0.892  0.00  0.00    -0.146 I 
ENDROOT
TORSDOF 0
ENDMDL
