MODEL 1
REMARK minimizedAffinity -2.27675581
REMARK minimizedRMSD -1
REMARK  0 active torsions:
REMARK  status: ('A' for Active; 'I' for Inactive)
ROOT
ATOM      1  C   UNL d   1      -0.508   3.339   1.199  0.00  0.00     0.023 A 
ATOM      2  C1  UNL d   1       0.208   3.247   0.005  0.00  0.00     0.003 A 
ATOM      3  C2  UNL d   1       0.617   2.000  -0.471  0.00  0.00     0.048 A 
ATOM      4  C3  UNL d   1       0.305   0.848   0.250  0.00  0.00     0.023 A 
ATOM      5  C4  UNL d   1      -0.413   0.935   1.444  0.00  0.00     0.048 A 
ATOM      6  C5  UNL d   1      -0.818   2.184   1.918  0.00  0.00     0.003 A 
ATOM      7  I   UNL d   1       0.911  -1.009  -0.458  0.00  0.00    -0.146 I 
ENDROOT
TORSDOF 0
ENDMDL
