MODEL 1
REMARK minimizedAffinity -4.16262817
REMARK minimizedRMSD -1
REMARK  0 active torsions:
REMARK  status: ('A' for Active; 'I' for Inactive)
ROOT
ATOM      1  C   UNL d   1       0.665  -2.862  -2.384  0.00  0.00     0.023 A 
ATOM      2  C1  UNL d   1      -0.632  -2.372  -2.224  0.00  0.00     0.003 A 
ATOM      3  C2  UNL d   1      -0.961  -1.621  -1.094  0.00  0.00     0.048 A 
ATOM      4  C3  UNL d   1       0.011  -1.364  -0.127  0.00  0.00     0.023 A 
ATOM      5  C4  UNL d   1       1.309  -1.851  -0.284  0.00  0.00     0.048 A 
ATOM      6  C5  UNL d   1       1.634  -2.602  -1.415  0.00  0.00     0.003 A 
ATOM      7  I   UNL d   1      -0.477  -0.246   1.556  0.00  0.00    -0.146 I 
ENDROOT
TORSDOF 0
ENDMDL
