MODEL 1
REMARK minimizedAffinity -2.75721312
REMARK minimizedRMSD -1
REMARK  0 active torsions:
REMARK  status: ('A' for Active; 'I' for Inactive)
ROOT
ATOM      1  C   UNL d   1       0.578  -3.307  -2.663  0.00  0.00     0.023 A 
ATOM      2  C1  UNL d   1      -0.520  -2.447  -2.637  0.00  0.00     0.003 A 
ATOM      3  C2  UNL d   1      -0.619  -1.468  -1.646  0.00  0.00     0.048 A 
ATOM      4  C3  UNL d   1       0.385  -1.353  -0.685  0.00  0.00     0.023 A 
ATOM      5  C4  UNL d   1       1.486  -2.210  -0.707  0.00  0.00     0.048 A 
ATOM      6  C5  UNL d   1       1.580  -3.188  -1.699  0.00  0.00     0.003 A 
ATOM      7  I   UNL d   1       0.240   0.103   0.791  0.00  0.00    -0.146 I 
ENDROOT
TORSDOF 0
ENDMDL
