MODEL 1
REMARK minimizedAffinity -1.47475636
REMARK minimizedRMSD -1
REMARK  0 active torsions:
REMARK  status: ('A' for Active; 'I' for Inactive)
ROOT
ATOM      1  C   UNL d   1      -0.420   4.432   0.346  0.00  0.00     0.023 A 
ATOM      2  C1  UNL d   1       0.203   3.776  -0.716  0.00  0.00     0.003 A 
ATOM      3  C2  UNL d   1       0.342   2.386  -0.695  0.00  0.00     0.048 A 
ATOM      4  C3  UNL d   1      -0.146   1.659   0.391  0.00  0.00     0.023 A 
ATOM      5  C4  UNL d   1      -0.771   2.312   1.455  0.00  0.00     0.048 A 
ATOM      6  C5  UNL d   1      -0.906   3.701   1.430  0.00  0.00     0.003 A 
ATOM      7  I   UNL d   1       0.059  -0.409   0.424  0.00  0.00    -0.146 I 
ENDROOT
TORSDOF 0
ENDMDL
