MODEL 1
REMARK minimizedAffinity 1.32493281
REMARK minimizedRMSD -1
REMARK  0 active torsions:
REMARK  status: ('A' for Active; 'I' for Inactive)
ROOT
ATOM      1  C1  BNZ d   1      -0.969   0.787   3.349  0.00  0.00     0.000 A 
ATOM      2  C2  BNZ d   1      -1.076   1.849   2.491  0.00  0.00     0.000 A 
ATOM      3  C3  BNZ d   1      -0.272   1.942   1.389  0.00  0.00     0.000 A 
ATOM      4  C4  BNZ d   1       0.663   0.996   1.169  0.00  0.00     0.000 A 
ATOM      5  C5  BNZ d   1       0.789  -0.076   2.029  0.00  0.00     0.000 A 
ATOM      6  C6  BNZ d   1      -0.048  -0.187   3.116  0.00  0.00     0.000 A 
ENDROOT
TORSDOF 0
ENDMDL
