MODEL 1
REMARK minimizedAffinity 0.797921121
REMARK minimizedRMSD -1
REMARK  0 active torsions:
REMARK  status: ('A' for Active; 'I' for Inactive)
ROOT
ATOM      1  C1  BNZ d   1      -1.278  -0.624  -2.385  0.00  0.00     0.000 A 
ATOM      2  C2  BNZ d   1      -0.689   0.253  -1.514  0.00  0.00     0.000 A 
ATOM      3  C3  BNZ d   1      -0.346   1.514  -1.914  0.00  0.00     0.000 A 
ATOM      4  C4  BNZ d   1      -0.556   1.883  -3.194  0.00  0.00     0.000 A 
ATOM      5  C5  BNZ d   1      -1.140   1.007  -4.088  0.00  0.00     0.000 A 
ATOM      6  C6  BNZ d   1      -1.520  -0.248  -3.671  0.00  0.00     0.000 A 
ENDROOT
TORSDOF 0
ENDMDL
