MODEL 1
REMARK minimizedAffinity 6.29158115
REMARK minimizedRMSD -1
REMARK  0 active torsions:
REMARK  status: ('A' for Active; 'I' for Inactive)
ROOT
ATOM      1  C1  BNZ d   1       0.196   2.458   0.894  0.00  0.00     0.000 A 
ATOM      2  C2  BNZ d   1       1.358   3.175   0.787  0.00  0.00     0.000 A 
ATOM      3  C3  BNZ d   1       1.504   4.129  -0.181  0.00  0.00     0.000 A 
ATOM      4  C4  BNZ d   1       0.507   4.336  -1.065  0.00  0.00     0.000 A 
ATOM      5  C5  BNZ d   1      -0.667   3.614  -0.976  0.00  0.00     0.000 A 
ATOM      6  C6  BNZ d   1      -0.826   2.682   0.024  0.00  0.00     0.000 A 
ENDROOT
TORSDOF 0
ENDMDL
