MODEL 1
REMARK minimizedAffinity 2.6203351
REMARK minimizedRMSD -1
REMARK  0 active torsions:
REMARK  status: ('A' for Active; 'I' for Inactive)
ROOT
ATOM      1  C1  BNZ d   1      -1.202  -2.262  -5.977  0.00  0.00     0.000 A 
ATOM      2  C2  BNZ d   1      -2.453  -2.819  -6.000  0.00  0.00     0.000 A 
ATOM      3  C3  BNZ d   1      -2.615  -4.177  -5.989  0.00  0.00     0.000 A 
ATOM      4  C4  BNZ d   1      -1.527  -4.974  -5.996  0.00  0.00     0.000 A 
ATOM      5  C5  BNZ d   1      -0.259  -4.428  -5.982  0.00  0.00     0.000 A 
ATOM      6  C6  BNZ d   1      -0.101  -3.061  -5.953  0.00  0.00     0.000 A 
ENDROOT
TORSDOF 0
ENDMDL
