MODEL 1
REMARK minimizedAffinity 1.78796899
REMARK minimizedRMSD -1
REMARK  0 active torsions:
REMARK  status: ('A' for Active; 'I' for Inactive)
ROOT
ATOM      1  C1  BNZ d   1      -0.761   4.238   0.002  0.00  0.00     0.000 A 
ATOM      2  C2  BNZ d   1      -0.788   3.999  -1.346  0.00  0.00     0.000 A 
ATOM      3  C3  BNZ d   1      -0.598   2.738  -1.837  0.00  0.00     0.000 A 
ATOM      4  C4  BNZ d   1      -0.343   1.726  -0.983  0.00  0.00     0.000 A 
ATOM      5  C5  BNZ d   1      -0.304   1.952   0.378  0.00  0.00     0.000 A 
ATOM      6  C6  BNZ d   1      -0.534   3.216   0.871  0.00  0.00     0.000 A 
ENDROOT
TORSDOF 0
ENDMDL
