MODEL 1
REMARK minimizedAffinity 0.430781484
REMARK minimizedRMSD -1
REMARK  0 active torsions:
REMARK  status: ('A' for Active; 'I' for Inactive)
ROOT
ATOM      1  C1  BNZ d   1      -0.303   1.044   0.019  0.00  0.00     0.000 A 
ATOM      2  C2  BNZ d   1      -0.081   1.693   1.205  0.00  0.00     0.000 A 
ATOM      3  C3  BNZ d   1      -0.128   3.057   1.276  0.00  0.00     0.000 A 
ATOM      4  C4  BNZ d   1      -0.355   3.772   0.155  0.00  0.00     0.000 A 
ATOM      5  C5  BNZ d   1      -0.571   3.133  -1.050  0.00  0.00     0.000 A 
ATOM      6  C6  BNZ d   1      -0.562   1.758  -1.110  0.00  0.00     0.000 A 
ENDROOT
TORSDOF 0
ENDMDL
