MODEL 1
REMARK minimizedAffinity 0.798284352
REMARK minimizedRMSD -1
REMARK  0 active torsions:
REMARK  status: ('A' for Active; 'I' for Inactive)
ROOT
ATOM      1  C1  BNZ d   1      -0.781   3.424   0.866  0.00  0.00     0.000 A 
ATOM      2  C2  BNZ d   1      -0.878   3.314  -0.495  0.00  0.00     0.000 A 
ATOM      3  C3  BNZ d   1      -0.680   2.112  -1.116  0.00  0.00     0.000 A 
ATOM      4  C4  BNZ d   1      -0.346   1.033  -0.380  0.00  0.00     0.000 A 
ATOM      5  C5  BNZ d   1      -0.235   1.130   0.993  0.00  0.00     0.000 A 
ATOM      6  C6  BNZ d   1      -0.474   2.333   1.618  0.00  0.00     0.000 A 
ENDROOT
TORSDOF 0
ENDMDL
