MODEL 1
REMARK minimizedAffinity 5.21185875
REMARK minimizedRMSD -1
REMARK  0 active torsions:
REMARK  status: ('A' for Active; 'I' for Inactive)
ROOT
ATOM      1  C1  BNZ d   1      -4.304   4.885  -4.885  0.00  0.00     0.000 A 
ATOM      2  C2  BNZ d   1      -4.860   3.778  -4.301  0.00  0.00     0.000 A 
ATOM      3  C3  BNZ d   1      -5.194   3.779  -2.976  0.00  0.00     0.000 A 
ATOM      4  C4  BNZ d   1      -4.934   4.871  -2.227  0.00  0.00     0.000 A 
ATOM      5  C5  BNZ d   1      -4.364   5.991  -2.799  0.00  0.00     0.000 A 
ATOM      6  C6  BNZ d   1      -4.066   6.000  -4.142  0.00  0.00     0.000 A 
ENDROOT
TORSDOF 0
ENDMDL
