MODEL 1
REMARK minimizedAffinity -0.662387133
REMARK minimizedRMSD -1
REMARK  0 active torsions:
REMARK  status: ('A' for Active; 'I' for Inactive)
ROOT
ATOM      1  C1  BNZ d   1      -1.306   2.672   0.834  0.00  0.00     0.000 A 
ATOM      2  C2  BNZ d   1      -1.007   3.904   1.353  0.00  0.00     0.000 A 
ATOM      3  C3  BNZ d   1       0.287   4.259   1.613  0.00  0.00     0.000 A 
ATOM      4  C4  BNZ d   1       1.276   3.369   1.391  0.00  0.00     0.000 A 
ATOM      5  C5  BNZ d   1       0.990   2.120   0.877  0.00  0.00     0.000 A 
ATOM      6  C6  BNZ d   1      -0.310   1.780   0.581  0.00  0.00     0.000 A 
ENDROOT
TORSDOF 0
ENDMDL
