MODEL 1
REMARK minimizedAffinity 14.2277985
REMARK minimizedRMSD -1
REMARK  0 active torsions:
REMARK  status: ('A' for Active; 'I' for Inactive)
ROOT
ATOM      1  N1  IND d   1      -4.834   3.704   2.392  0.00  0.00    -0.196 N 
ATOM      2  C2  IND d   1      -5.023   4.799   1.596  0.00  0.00     0.054 A 
ATOM      3  C3  IND d   1      -5.489   5.837   2.327  0.00  0.00    -0.031 A 
ATOM      4  C4  IND d   1      -5.918   5.991   4.861  0.00  0.00     0.051 A 
ATOM      5  C5  IND d   1      -5.925   5.236   6.000  0.00  0.00    -0.031 A 
ATOM      6  C6  IND d   1      -5.559   3.905   5.995  0.00  0.00     0.015 A 
ATOM      7  C7  IND d   1      -5.159   3.281   4.848  0.00  0.00    -0.016 A 
ATOM      8  C8  IND d   1      -5.157   4.042   3.688  0.00  0.00    -0.047 A 
ATOM      9  C9  IND d   1      -5.568   5.382   3.679  0.00  0.00    -0.096 A 
ATOM     10  HN1 IND d   1      -4.559   2.933   2.128  0.00  0.00     0.298 HD
ENDROOT
TORSDOF 0
ENDMDL
