MODEL 1
REMARK minimizedAffinity 15.9605446
REMARK minimizedRMSD -1
REMARK  0 active torsions:
REMARK  status: ('A' for Active; 'I' for Inactive)
ROOT
ATOM      1  N1  IND d   1       2.349   1.468  -0.974  0.00  0.00    -0.196 N 
ATOM      2  C2  IND d   1       2.743   2.001   0.222  0.00  0.00     0.054 A 
ATOM      3  C3  IND d   1       2.989   1.017   1.116  0.00  0.00    -0.031 A 
ATOM      4  C4  IND d   1       2.910  -1.537   0.802  0.00  0.00     0.051 A 
ATOM      5  C5  IND d   1       2.568  -2.500  -0.105  0.00  0.00    -0.031 A 
ATOM      6  C6  IND d   1       2.130  -2.184  -1.375  0.00  0.00     0.015 A 
ATOM      7  C7  IND d   1       2.027  -0.886  -1.790  0.00  0.00    -0.016 A 
ATOM      8  C8  IND d   1       2.366   0.095  -0.869  0.00  0.00    -0.047 A 
ATOM      9  C9  IND d   1       2.771  -0.219   0.435  0.00  0.00    -0.096 A 
ATOM     10  HN1 IND d   1       2.127   1.916  -1.673  0.00  0.00     0.298 HD
ENDROOT
TORSDOF 0
ENDMDL
