MODEL 1
REMARK minimizedAffinity 3.99646187
REMARK minimizedRMSD -1
REMARK  0 active torsions:
REMARK  status: ('A' for Active; 'I' for Inactive)
ROOT
ATOM      1  N1  IND d   1      -6.000   2.140  -3.366  0.00  0.00    -0.196 N 
ATOM      2  C2  IND d   1      -5.966   1.023  -4.154  0.00  0.00     0.054 A 
ATOM      3  C3  IND d   1      -5.322   0.018  -3.518  0.00  0.00    -0.031 A 
ATOM      4  C4  IND d   1      -4.334  -0.046  -1.141  0.00  0.00     0.051 A 
ATOM      5  C5  IND d   1      -4.092   0.745  -0.054  0.00  0.00    -0.031 A 
ATOM      6  C6  IND d   1      -4.483   2.068  -0.013  0.00  0.00     0.015 A 
ATOM      7  C7  IND d   1      -5.144   2.648  -1.058  0.00  0.00    -0.016 A 
ATOM      8  C8  IND d   1      -5.386   1.849  -2.167  0.00  0.00    -0.047 A 
ATOM      9  C9  IND d   1      -4.954   0.518  -2.231  0.00  0.00    -0.096 A 
ATOM     10  HN1 IND d   1      -6.346   2.896  -3.583  0.00  0.00     0.298 HD
ENDROOT
TORSDOF 0
ENDMDL
