MODEL 1
REMARK minimizedAffinity 12.5145845
REMARK minimizedRMSD -1
REMARK  0 active torsions:
REMARK  status: ('A' for Active; 'I' for Inactive)
ROOT
ATOM      1  N1  IND d   1      -5.480   2.821   1.496  0.00  0.00    -0.196 N 
ATOM      2  C2  IND d   1      -4.370   2.658   0.714  0.00  0.00     0.054 A 
ATOM      3  C3  IND d   1      -3.383   3.488   1.119  0.00  0.00    -0.031 A 
ATOM      4  C4  IND d   1      -3.334   5.125   3.105  0.00  0.00     0.051 A 
ATOM      5  C5  IND d   1      -4.125   5.649   4.088  0.00  0.00    -0.031 A 
ATOM      6  C6  IND d   1      -5.434   5.248   4.263  0.00  0.00     0.015 A 
ATOM      7  C7  IND d   1      -5.999   4.294   3.464  0.00  0.00    -0.016 A 
ATOM      8  C8  IND d   1      -5.201   3.765   2.461  0.00  0.00    -0.047 A 
ATOM      9  C9  IND d   1      -3.886   4.199   2.252  0.00  0.00    -0.096 A 
ATOM     10  HN1 IND d   1      -6.226   2.405   1.402  0.00  0.00     0.298 HD
ENDROOT
TORSDOF 0
ENDMDL
