MODEL 1
REMARK minimizedAffinity 7.02547598
REMARK minimizedRMSD -1
REMARK  0 active torsions:
REMARK  status: ('A' for Active; 'I' for Inactive)
ROOT
ATOM      1  N1  IND d   1       3.289   1.917  -2.402  0.00  0.00    -0.196 N 
ATOM      2  C2  IND d   1       4.320   2.788  -2.180  0.00  0.00     0.054 A 
ATOM      3  C3  IND d   1       4.876   2.559  -0.969  0.00  0.00    -0.031 A 
ATOM      4  C4  IND d   1       4.322   0.743   0.769  0.00  0.00     0.051 A 
ATOM      5  C5  IND d   1       3.435  -0.263   1.030  0.00  0.00    -0.031 A 
ATOM      6  C6  IND d   1       2.435  -0.603   0.141  0.00  0.00     0.015 A 
ATOM      7  C7  IND d   1       2.292   0.047  -1.052  0.00  0.00    -0.016 A 
ATOM      8  C8  IND d   1       3.187   1.074  -1.318  0.00  0.00    -0.047 A 
ATOM      9  C9  IND d   1       4.177   1.451  -0.401  0.00  0.00    -0.096 A 
ATOM     10  HN1 IND d   1       2.790   1.899  -3.102  0.00  0.00     0.298 HD
ENDROOT
TORSDOF 0
ENDMDL
