MODEL 1
REMARK minimizedAffinity 1.67382896
REMARK minimizedRMSD -1
REMARK  0 active torsions:
REMARK  status: ('A' for Active; 'I' for Inactive)
ROOT
ATOM      1  N1  IND d   1       2.107  -1.677  -1.144  0.00  0.00    -0.196 N 
ATOM      2  C2  IND d   1       2.033  -2.431  -0.006  0.00  0.00     0.054 A 
ATOM      3  C3  IND d   1       2.479  -1.724   1.057  0.00  0.00    -0.031 A 
ATOM      4  C4  IND d   1       3.281   0.720   1.175  0.00  0.00     0.051 A 
ATOM      5  C5  IND d   1       3.561   1.801   0.387  0.00  0.00    -0.031 A 
ATOM      6  C6  IND d   1       3.363   1.779  -0.978  0.00  0.00     0.015 A 
ATOM      7  C7  IND d   1       2.866   0.673  -1.608  0.00  0.00    -0.016 A 
ATOM      8  C8  IND d   1       2.588  -0.429  -0.812  0.00  0.00    -0.047 A 
ATOM      9  C9  IND d   1       2.826  -0.427   0.568  0.00  0.00    -0.096 A 
ATOM     10  HN1 IND d   1       1.890  -1.938  -1.934  0.00  0.00     0.298 HD
ENDROOT
TORSDOF 0
ENDMDL
