MODEL 1
REMARK minimizedAffinity 17.6239147
REMARK minimizedRMSD -1
REMARK  0 active torsions:
REMARK  status: ('A' for Active; 'I' for Inactive)
ROOT
ATOM      1  N1  IND d   1       4.046   0.913  -2.787  0.00  0.00    -0.196 N 
ATOM      2  C2  IND d   1       4.615   2.155  -2.754  0.00  0.00     0.054 A 
ATOM      3  C3  IND d   1       4.339   2.768  -1.581  0.00  0.00    -0.031 A 
ATOM      4  C4  IND d   1       3.055   1.879   0.466  0.00  0.00     0.051 A 
ATOM      5  C5  IND d   1       2.318   0.811   0.895  0.00  0.00    -0.031 A 
ATOM      6  C6  IND d   1       2.118  -0.301   0.103  0.00  0.00     0.015 A 
ATOM      7  C7  IND d   1       2.659  -0.392  -1.148  0.00  0.00    -0.016 A 
ATOM      8  C8  IND d   1       3.402   0.694  -1.589  0.00  0.00    -0.047 A 
ATOM      9  C9  IND d   1       3.573   1.843  -0.807  0.00  0.00    -0.096 A 
ATOM     10  HN1 IND d   1       4.084   0.361  -3.446  0.00  0.00     0.298 HD
ENDROOT
TORSDOF 0
ENDMDL
