MODEL 1
REMARK minimizedAffinity 1.81381273
REMARK minimizedRMSD -1
REMARK  0 active torsions:
REMARK  status: ('A' for Active; 'I' for Inactive)
ROOT
ATOM      1  N1  IND d   1      -5.848   2.599   3.019  0.00  0.00    -0.196 N 
ATOM      2  C2  IND d   1      -5.694   3.154   1.779  0.00  0.00     0.054 A 
ATOM      3  C3  IND d   1      -5.621   4.501   1.872  0.00  0.00    -0.031 A 
ATOM      4  C4  IND d   1      -5.632   5.999   3.966  0.00  0.00     0.051 A 
ATOM      5  C5  IND d   1      -5.789   5.952   5.322  0.00  0.00    -0.031 A 
ATOM      6  C6  IND d   1      -5.975   4.762   5.995  0.00  0.00     0.015 A 
ATOM      7  C7  IND d   1      -6.000   3.567   5.333  0.00  0.00    -0.016 A 
ATOM      8  C8  IND d   1      -5.847   3.610   3.955  0.00  0.00    -0.047 A 
ATOM      9  C9  IND d   1      -5.700   4.819   3.262  0.00  0.00    -0.096 A 
ATOM     10  HN1 IND d   1      -5.932   1.760   3.186  0.00  0.00     0.298 HD
ENDROOT
TORSDOF 0
ENDMDL
