MODEL 1
REMARK minimizedAffinity 0.777634084
REMARK minimizedRMSD -1
REMARK  0 active torsions:
REMARK  status: ('A' for Active; 'I' for Inactive)
ROOT
ATOM      1  N1  IND d   1       1.496   1.734   5.026  0.00  0.00    -0.196 N 
ATOM      2  C2  IND d   1       1.025   1.576   3.753  0.00  0.00     0.054 A 
ATOM      3  C3  IND d   1       1.807   2.244   2.876  0.00  0.00    -0.031 A 
ATOM      4  C4  IND d   1       3.969   3.577   3.298  0.00  0.00     0.051 A 
ATOM      5  C5  IND d   1       4.774   4.033   4.304  0.00  0.00    -0.031 A 
ATOM      6  C6  IND d   1       4.524   3.737   5.628  0.00  0.00     0.015 A 
ATOM      7  C7  IND d   1       3.462   2.962   5.997  0.00  0.00    -0.016 A 
ATOM      8  C8  IND d   1       2.638   2.503   4.979  0.00  0.00    -0.047 A 
ATOM      9  C9  IND d   1       2.862   2.835   3.637  0.00  0.00    -0.096 A 
ATOM     10  HN1 IND d   1       1.139   1.407   5.737  0.00  0.00     0.298 HD
ENDROOT
TORSDOF 0
ENDMDL
