MODEL 1
REMARK minimizedAffinity -3.80206251
REMARK minimizedRMSD -1
REMARK  0 active torsions:
REMARK  status: ('A' for Active; 'I' for Inactive)
ROOT
ATOM      1  N1  IND d   1       0.641  -5.998  -0.334  0.00  0.00    -0.196 N 
ATOM      2  C2  IND d   1       1.951  -5.846   0.023  0.00  0.00     0.054 A 
ATOM      3  C3  IND d   1       2.361  -4.580  -0.217  0.00  0.00    -0.031 A 
ATOM      4  C4  IND d   1       1.020  -2.567  -1.099  0.00  0.00     0.051 A 
ATOM      5  C5  IND d   1      -0.206  -2.224  -1.597  0.00  0.00    -0.031 A 
ATOM      6  C6  IND d   1      -1.233  -3.139  -1.699  0.00  0.00     0.015 A 
ATOM      7  C7  IND d   1      -1.076  -4.434  -1.295  0.00  0.00    -0.016 A 
ATOM      8  C8  IND d   1       0.169  -4.788  -0.795  0.00  0.00    -0.047 A 
ATOM      9  C9  IND d   1       1.229  -3.874  -0.728  0.00  0.00    -0.096 A 
ATOM     10  HN1 IND d   1       0.187  -6.726  -0.281  0.00  0.00     0.298 HD
ENDROOT
TORSDOF 0
ENDMDL
