MODEL 1
REMARK minimizedAffinity 1.62770915
REMARK minimizedRMSD -1
REMARK  0 active torsions:
REMARK  status: ('A' for Active; 'I' for Inactive)
ROOT
ATOM      1  N1  IND d   1       0.377   1.952   2.181  0.00  0.00    -0.196 N 
ATOM      2  C2  IND d   1       0.138   3.261   1.867  0.00  0.00     0.054 A 
ATOM      3  C3  IND d   1      -0.048   3.398   0.535  0.00  0.00    -0.031 A 
ATOM      4  C4  IND d   1      -0.107   1.597  -1.303  0.00  0.00     0.051 A 
ATOM      5  C5  IND d   1       0.093   0.261  -1.509  0.00  0.00    -0.031 A 
ATOM      6  C6  IND d   1       0.402  -0.598  -0.474  0.00  0.00     0.015 A 
ATOM      7  C7  IND d   1       0.511  -0.152   0.813  0.00  0.00    -0.016 A 
ATOM      8  C8  IND d   1       0.315   1.205   1.025  0.00  0.00    -0.047 A 
ATOM      9  C9  IND d   1       0.044   2.089  -0.028  0.00  0.00    -0.096 A 
ATOM     10  HN1 IND d   1       0.538   1.646   2.968  0.00  0.00     0.298 HD
ENDROOT
TORSDOF 0
ENDMDL
