MODEL 1
REMARK minimizedAffinity -5.22001314
REMARK minimizedRMSD -1
REMARK  0 active torsions:
REMARK  status: ('A' for Active; 'I' for Inactive)
ROOT
ATOM      1  N1  IND d   1       0.839   0.480  -1.873  0.00  0.00    -0.196 N 
ATOM      2  C2  IND d   1       0.129   1.339  -2.665  0.00  0.00     0.054 A 
ATOM      3  C3  IND d   1      -0.820   1.972  -1.940  0.00  0.00    -0.031 A 
ATOM      4  C4  IND d   1      -1.319   1.827   0.582  0.00  0.00     0.051 A 
ATOM      5  C5  IND d   1      -0.959   1.152   1.714  0.00  0.00    -0.031 A 
ATOM      6  C6  IND d   1       0.040   0.201   1.709  0.00  0.00     0.015 A 
ATOM      7  C7  IND d   1       0.728  -0.104   0.568  0.00  0.00    -0.016 A 
ATOM      8  C8  IND d   1       0.361   0.575  -0.585  0.00  0.00    -0.047 A 
ATOM      9  C9  IND d   1      -0.681   1.511  -0.595  0.00  0.00    -0.096 A 
ATOM     10  HN1 IND d   1       1.477  -0.033  -2.136  0.00  0.00     0.298 HD
ENDROOT
TORSDOF 0
ENDMDL
