MODEL 1
REMARK minimizedAffinity -5.00720882
REMARK minimizedRMSD -1
REMARK  0 active torsions:
REMARK  status: ('A' for Active; 'I' for Inactive)
ROOT
ATOM      1  N1  IND d   1       0.204   0.223  -0.832  0.00  0.00    -0.196 N 
ATOM      2  C2  IND d   1       0.684  -0.638   0.114  0.00  0.00     0.054 A 
ATOM      3  C3  IND d   1       0.579  -0.090   1.346  0.00  0.00    -0.031 A 
ATOM      4  C4  IND d   1      -0.443   2.165   2.050  0.00  0.00     0.051 A 
ATOM      5  C5  IND d   1      -0.978   3.313   1.536  0.00  0.00    -0.031 A 
ATOM      6  C6  IND d   1      -1.151   3.492   0.178  0.00  0.00     0.015 A 
ATOM      7  C7  IND d   1      -0.806   2.521  -0.718  0.00  0.00    -0.016 A 
ATOM      8  C8  IND d   1      -0.257   1.357  -0.200  0.00  0.00    -0.047 A 
ATOM      9  C9  IND d   1      -0.039   1.187   1.173  0.00  0.00    -0.096 A 
ATOM     10  HN1 IND d   1       0.192   0.081  -1.680  0.00  0.00     0.298 HD
ENDROOT
TORSDOF 0
ENDMDL
