MODEL 1
REMARK minimizedAffinity -4.42093277
REMARK minimizedRMSD -1
REMARK  0 active torsions:
REMARK  status: ('A' for Active; 'I' for Inactive)
ROOT
ATOM      1  N1  IND d   1       0.325   0.519   1.616  0.00  0.00    -0.196 N 
ATOM      2  C2  IND d   1      -0.187   1.669   2.148  0.00  0.00     0.054 A 
ATOM      3  C3  IND d   1      -0.496   2.545   1.167  0.00  0.00    -0.031 A 
ATOM      4  C4  IND d   1      -0.338   2.262  -1.387  0.00  0.00     0.051 A 
ATOM      5  C5  IND d   1       0.103   1.399  -2.350  0.00  0.00    -0.031 A 
ATOM      6  C6  IND d   1       0.650   0.172  -2.034  0.00  0.00     0.015 A 
ATOM      7  C7  IND d   1       0.766  -0.244  -0.738  0.00  0.00    -0.016 A 
ATOM      8  C8  IND d   1       0.325   0.633   0.243  0.00  0.00    -0.047 A 
ATOM      9  C9  IND d   1      -0.192   1.897  -0.070  0.00  0.00    -0.096 A 
ATOM     10  HN1 IND d   1       0.601  -0.162   2.063  0.00  0.00     0.298 HD
ENDROOT
TORSDOF 0
ENDMDL
