MODEL 1
REMARK minimizedAffinity -3.50790119
REMARK minimizedRMSD -1
REMARK  0 active torsions:
REMARK  status: ('A' for Active; 'I' for Inactive)
ROOT
ATOM      1  N1  IND d   1      -0.174   0.079  -0.692  0.00  0.00    -0.196 N 
ATOM      2  C2  IND d   1       0.363  -0.774   0.232  0.00  0.00     0.054 A 
ATOM      3  C3  IND d   1       0.341  -0.211   1.461  0.00  0.00    -0.031 A 
ATOM      4  C4  IND d   1      -0.623   2.057   2.204  0.00  0.00     0.051 A 
ATOM      5  C5  IND d   1      -1.184   3.203   1.712  0.00  0.00    -0.031 A 
ATOM      6  C6  IND d   1      -1.445   3.367   0.367  0.00  0.00     0.015 A 
ATOM      7  C7  IND d   1      -1.163   2.384  -0.539  0.00  0.00    -0.016 A 
ATOM      8  C8  IND d   1      -0.587   1.223  -0.044  0.00  0.00    -0.047 A 
ATOM      9  C9  IND d   1      -0.281   1.067   1.314  0.00  0.00    -0.096 A 
ATOM     10  HN1 IND d   1      -0.242  -0.073  -1.535  0.00  0.00     0.298 HD
ENDROOT
TORSDOF 0
ENDMDL
