MODEL 1
REMARK minimizedAffinity -0.863333642
REMARK minimizedRMSD -1
REMARK  0 active torsions:
REMARK  status: ('A' for Active; 'I' for Inactive)
ROOT
ATOM      1  C   UNL d   1      -1.019  -2.411   2.922  0.00  0.00     0.077 C 
ATOM      2  C1  UNL d   1      -0.152  -1.395   2.241  0.00  0.00    -0.074 A 
ATOM      3  C2  UNL d   1       1.094  -1.042   2.771  0.00  0.00    -0.005 A 
ATOM      4  C3  UNL d   1       1.894  -0.102   2.121  0.00  0.00     0.006 A 
ATOM      5  C4  UNL d   1       1.457   0.494   0.937  0.00  0.00    -0.005 A 
ATOM      6  C5  UNL d   1       0.215   0.153   0.392  0.00  0.00    -0.074 A 
ATOM      7  C6  UNL d   1      -0.265   0.776  -0.885  0.00  0.00     0.077 C 
ATOM      8  C7  UNL d   1      -0.580  -0.798   1.047  0.00  0.00    -0.001 A 
ENDROOT
TORSDOF 0
ENDMDL
