MODEL 1
REMARK minimizedAffinity -4.34392691
REMARK minimizedRMSD -1
REMARK  0 active torsions:
REMARK  status: ('A' for Active; 'I' for Inactive)
ROOT
ATOM      1  C   UNL d   1       1.980  -0.760   2.563  0.00  0.00     0.077 C 
ATOM      2  C1  UNL d   1       0.697  -0.652   1.795  0.00  0.00    -0.074 A 
ATOM      3  C2  UNL d   1      -0.539  -0.726   2.445  0.00  0.00    -0.005 A 
ATOM      4  C3  UNL d   1      -1.724  -0.614   1.718  0.00  0.00     0.006 A 
ATOM      5  C4  UNL d   1      -1.686  -0.426   0.336  0.00  0.00    -0.005 A 
ATOM      6  C5  UNL d   1      -0.459  -0.349  -0.332  0.00  0.00    -0.074 A 
ATOM      7  C6  UNL d   1      -0.400  -0.138  -1.815  0.00  0.00     0.077 C 
ATOM      8  C7  UNL d   1       0.727  -0.456   0.407  0.00  0.00    -0.001 A 
ENDROOT
TORSDOF 0
ENDMDL
