MODEL 1
REMARK minimizedAffinity -3.44421244
REMARK minimizedRMSD -1
REMARK  0 active torsions:
REMARK  status: ('A' for Active; 'I' for Inactive)
ROOT
ATOM      1  C   UNL d   1      -1.469  -2.803   3.114  0.00  0.00     0.077 C 
ATOM      2  C1  UNL d   1      -0.673  -1.716   2.456  0.00  0.00    -0.074 A 
ATOM      3  C2  UNL d   1       0.627  -1.421   2.880  0.00  0.00    -0.005 A 
ATOM      4  C3  UNL d   1       1.359  -0.413   2.252  0.00  0.00     0.006 A 
ATOM      5  C4  UNL d   1       0.801   0.308   1.197  0.00  0.00    -0.005 A 
ATOM      6  C5  UNL d   1      -0.497   0.026   0.759  0.00  0.00    -0.074 A 
ATOM      7  C6  UNL d   1      -1.109   0.785  -0.381  0.00  0.00     0.077 C 
ATOM      8  C7  UNL d   1      -1.224  -0.992   1.390  0.00  0.00    -0.001 A 
ENDROOT
TORSDOF 0
ENDMDL
