MODEL 1
REMARK minimizedAffinity -2.43138957
REMARK minimizedRMSD -1
REMARK  0 active torsions:
REMARK  status: ('A' for Active; 'I' for Inactive)
ROOT
ATOM      1  C   UNL d   1      -0.216   5.627   4.889  0.00  0.00     0.077 C 
ATOM      2  C1  UNL d   1       1.276   5.764   4.830  0.00  0.00    -0.074 A 
ATOM      3  C2  UNL d   1       2.035   5.873   6.000  0.00  0.00    -0.005 A 
ATOM      4  C3  UNL d   1       3.423   5.991   5.929  0.00  0.00     0.006 A 
ATOM      5  C4  UNL d   1       4.065   6.000   4.691  0.00  0.00    -0.005 A 
ATOM      6  C5  UNL d   1       3.323   5.891   3.510  0.00  0.00    -0.074 A 
ATOM      7  C6  UNL d   1       3.999   5.889   2.171  0.00  0.00     0.077 C 
ATOM      8  C7  UNL d   1       1.930   5.767   3.589  0.00  0.00    -0.001 A 
ENDROOT
TORSDOF 0
ENDMDL
