MODEL 1
REMARK minimizedAffinity -5.36970806
REMARK minimizedRMSD -1
REMARK  0 active torsions:
REMARK  status: ('A' for Active; 'I' for Inactive)
ROOT
ATOM      1  C   UNL d   1      -3.086   2.615  -2.013  0.00  0.00     0.077 C 
ATOM      2  C1  UNL d   1      -1.654   2.188  -1.886  0.00  0.00    -0.074 A 
ATOM      3  C2  UNL d   1      -0.672   2.698  -2.742  0.00  0.00    -0.005 A 
ATOM      4  C3  UNL d   1       0.657   2.298  -2.606  0.00  0.00     0.006 A 
ATOM      5  C4  UNL d   1       1.018   1.385  -1.614  0.00  0.00    -0.005 A 
ATOM      6  C5  UNL d   1       0.051   0.865  -0.749  0.00  0.00    -0.074 A 
ATOM      7  C6  UNL d   1       0.423  -0.110   0.329  0.00  0.00     0.077 C 
ATOM      8  C7  UNL d   1      -1.282   1.277  -0.887  0.00  0.00    -0.001 A 
ENDROOT
TORSDOF 0
ENDMDL
