MODEL 1
REMARK minimizedAffinity -2.75357127
REMARK minimizedRMSD -1
REMARK  0 active torsions:
REMARK  status: ('A' for Active; 'I' for Inactive)
ROOT
ATOM      1  C   UNL d   1       1.741  -0.719   3.163  0.00  0.00     0.077 C 
ATOM      2  C1  UNL d   1       0.625  -0.562   2.173  0.00  0.00    -0.074 A 
ATOM      3  C2  UNL d   1      -0.704  -0.465   2.596  0.00  0.00    -0.005 A 
ATOM      4  C3  UNL d   1      -1.730  -0.310   1.664  0.00  0.00     0.006 A 
ATOM      5  C4  UNL d   1      -1.437  -0.251   0.301  0.00  0.00    -0.005 A 
ATOM      6  C5  UNL d   1      -0.114  -0.345  -0.141  0.00  0.00    -0.074 A 
ATOM      7  C6  UNL d   1       0.219  -0.273  -1.602  0.00  0.00     0.077 C 
ATOM      8  C7  UNL d   1       0.912  -0.494   0.802  0.00  0.00    -0.001 A 
ENDROOT
TORSDOF 0
ENDMDL
