MODEL 1
REMARK minimizedAffinity 0.828554213
REMARK minimizedRMSD -1
REMARK  0 active torsions:
REMARK  status: ('A' for Active; 'I' for Inactive)
ROOT
ATOM      1  C   UNL d   1       0.852  -1.157  -1.604  0.00  0.00     0.077 C 
ATOM      2  C1  UNL d   1       1.310  -1.177  -0.176  0.00  0.00    -0.074 A 
ATOM      3  C2  UNL d   1       2.664  -1.323   0.142  0.00  0.00    -0.005 A 
ATOM      4  C3  UNL d   1       3.076  -1.330   1.475  0.00  0.00     0.006 A 
ATOM      5  C4  UNL d   1       2.140  -1.191   2.500  0.00  0.00    -0.005 A 
ATOM      6  C5  UNL d   1       0.782  -1.043   2.201  0.00  0.00    -0.074 A 
ATOM      7  C6  UNL d   1      -0.236  -0.883   3.291  0.00  0.00     0.077 C 
ATOM      8  C7  UNL d   1       0.377  -1.030   0.859  0.00  0.00    -0.001 A 
ENDROOT
TORSDOF 0
ENDMDL
