MODEL 1
REMARK minimizedAffinity -5.21539545
REMARK minimizedRMSD -1
REMARK  0 active torsions:
REMARK  status: ('A' for Active; 'I' for Inactive)
ROOT
ATOM      1  C   UNL d   1      -1.679  -1.666   3.040  0.00  0.00     0.077 C 
ATOM      2  C1  UNL d   1      -0.683  -1.041   2.108  0.00  0.00    -0.074 A 
ATOM      3  C2  UNL d   1       0.683  -1.044   2.409  0.00  0.00    -0.005 A 
ATOM      4  C3  UNL d   1       1.598  -0.468   1.528  0.00  0.00     0.006 A 
ATOM      5  C4  UNL d   1       1.158   0.116   0.340  0.00  0.00    -0.005 A 
ATOM      6  C5  UNL d   1      -0.204   0.127   0.022  0.00  0.00    -0.074 A 
ATOM      7  C6  UNL d   1      -0.693   0.742  -1.256  0.00  0.00     0.077 C 
ATOM      8  C7  UNL d   1      -1.117  -0.460   0.908  0.00  0.00    -0.001 A 
ENDROOT
TORSDOF 0
ENDMDL
