MODEL 1
REMARK minimizedAffinity -2.54472518
REMARK minimizedRMSD -1
REMARK  0 active torsions:
REMARK  status: ('A' for Active; 'I' for Inactive)
ROOT
ATOM      1  C   UNL d   1      -0.985   1.109  -1.913  0.00  0.00     0.077 C 
ATOM      2  C1  UNL d   1      -0.279   0.162  -0.989  0.00  0.00    -0.074 A 
ATOM      3  C2  UNL d   1       0.875  -0.514  -1.397  0.00  0.00    -0.005 A 
ATOM      4  C3  UNL d   1       1.527  -1.384  -0.523  0.00  0.00     0.006 A 
ATOM      5  C4  UNL d   1       1.031  -1.587   0.766  0.00  0.00    -0.005 A 
ATOM      6  C5  UNL d   1      -0.121  -0.919   1.192  0.00  0.00    -0.074 A 
ATOM      7  C6  UNL d   1      -0.662  -1.118   2.576  0.00  0.00     0.077 C 
ATOM      8  C7  UNL d   1      -0.766  -0.041   0.310  0.00  0.00    -0.001 A 
ENDROOT
TORSDOF 0
ENDMDL
