MODEL 1
REMARK minimizedAffinity 6.64457083
REMARK minimizedRMSD -1
REMARK  1 active torsions:
REMARK  status: ('A' for Active; 'I' for Inactive)
REMARK    1  A    between atoms: C1_2  and  C2_3 
ROOT
ATOM      1  C2  UNL d   1       1.734   0.935   1.848  0.00  0.00    -0.077 A 
ATOM      2  C3  UNL d   1       1.803   1.820   0.763  0.00  0.00     0.002 A 
ATOM      3  C4  UNL d   1       2.707   1.595  -0.277  0.00  0.00     0.002 A 
ATOM      4  C5  UNL d   1       3.546   0.483  -0.244  0.00  0.00    -0.004 A 
ATOM      5  C6  UNL d   1       3.487  -0.402   0.832  0.00  0.00     0.002 A 
ATOM      6  C7  UNL d   1       2.585  -0.178   1.873  0.00  0.00     0.002 A 
ENDROOT
BRANCH   1   7
ATOM      7  C1  UNL d   1       0.725   1.150   2.946  0.00  0.00     0.055 C 
ATOM      8  C   UNL d   1       0.986   0.224   4.125  0.00  0.00     0.019 C 
ENDBRANCH   1   7
TORSDOF 1
ENDMDL
