MODEL 1
REMARK minimizedAffinity 14.5750437
REMARK minimizedRMSD -1
REMARK  1 active torsions:
REMARK  status: ('A' for Active; 'I' for Inactive)
REMARK    1  A    between atoms: C1_2  and  C2_3 
ROOT
ATOM      1  C2  UNL d   1       2.960   0.404   0.603  0.00  0.00    -0.077 A 
ATOM      2  C3  UNL d   1       2.007   0.324   1.629  0.00  0.00     0.002 A 
ATOM      3  C4  UNL d   1       1.125   1.382   1.857  0.00  0.00     0.002 A 
ATOM      4  C5  UNL d   1       1.183   2.524   1.061  0.00  0.00    -0.004 A 
ATOM      5  C6  UNL d   1       2.128   2.614   0.040  0.00  0.00     0.002 A 
ATOM      6  C7  UNL d   1       3.012   1.558  -0.189  0.00  0.00     0.002 A 
ENDROOT
BRANCH   1   7
ATOM      7  C1  UNL d   1       3.880  -0.755   0.324  0.00  0.00     0.055 C 
ATOM      8  C   UNL d   1       5.018  -0.348  -0.601  0.00  0.00     0.019 C 
ENDBRANCH   1   7
TORSDOF 1
ENDMDL
