MODEL 1
REMARK minimizedAffinity 2.08274627
REMARK minimizedRMSD -1
REMARK  1 active torsions:
REMARK  status: ('A' for Active; 'I' for Inactive)
REMARK    1  A    between atoms: C1_2  and  C2_3 
ROOT
ATOM      1  C2  UNL d   1       3.513   1.154  -1.616  0.00  0.00    -0.077 A 
ATOM      2  C3  UNL d   1       4.424   0.366  -0.900  0.00  0.00     0.002 A 
ATOM      3  C4  UNL d   1       4.093  -0.125   0.364  0.00  0.00     0.002 A 
ATOM      4  C5  UNL d   1       2.848   0.162   0.921  0.00  0.00    -0.004 A 
ATOM      5  C6  UNL d   1       1.935   0.947   0.217  0.00  0.00     0.002 A 
ATOM      6  C7  UNL d   1       2.266   1.440  -1.046  0.00  0.00     0.002 A 
ENDROOT
BRANCH   1   7
ATOM      7  C1  UNL d   1       3.850   1.644  -3.000  0.00  0.00     0.055 C 
ATOM      8  C   UNL d   1       2.593   1.987  -3.787  0.00  0.00     0.019 C 
ENDBRANCH   1   7
TORSDOF 1
ENDMDL
