MODEL 1
REMARK minimizedAffinity 15.7825489
REMARK minimizedRMSD -1
REMARK  1 active torsions:
REMARK  status: ('A' for Active; 'I' for Inactive)
REMARK    1  A    between atoms: C1_2  and  C2_3 
ROOT
ATOM      1  C2  UNL d   1      -3.999  -3.820  -1.891  0.00  0.00    -0.077 A 
ATOM      2  C3  UNL d   1      -5.006  -3.565  -2.834  0.00  0.00     0.002 A 
ATOM      3  C4  UNL d   1      -6.000  -4.514  -3.079  0.00  0.00     0.002 A 
ATOM      4  C5  UNL d   1      -6.000  -5.722  -2.385  0.00  0.00    -0.004 A 
ATOM      5  C6  UNL d   1      -5.002  -5.986  -1.447  0.00  0.00     0.002 A 
ATOM      6  C7  UNL d   1      -4.007  -5.039  -1.201  0.00  0.00     0.002 A 
ENDROOT
BRANCH   1   7
ATOM      7  C1  UNL d   1      -2.954  -2.778  -1.589  0.00  0.00     0.055 C 
ATOM      8  C   UNL d   1      -3.001  -2.354  -0.128  0.00  0.00     0.019 C 
ENDBRANCH   1   7
TORSDOF 1
ENDMDL
