MODEL 1
REMARK minimizedAffinity 3.76435137
REMARK minimizedRMSD -1
REMARK  1 active torsions:
REMARK  status: ('A' for Active; 'I' for Inactive)
REMARK    1  A    between atoms: C1_2  and  C2_3 
ROOT
ATOM      1  C2  UNL d   1      -1.698  -3.535   1.150  0.00  0.00    -0.077 A 
ATOM      2  C3  UNL d   1      -0.899  -4.423   1.884  0.00  0.00     0.002 A 
ATOM      3  C4  UNL d   1      -1.414  -5.649   2.310  0.00  0.00     0.002 A 
ATOM      4  C5  UNL d   1      -2.726  -6.000   2.002  0.00  0.00    -0.004 A 
ATOM      5  C6  UNL d   1      -3.529  -5.123   1.274  0.00  0.00     0.002 A 
ATOM      6  C7  UNL d   1      -3.017  -3.896   0.849  0.00  0.00     0.002 A 
ENDROOT
BRANCH   1   7
ATOM      7  C1  UNL d   1      -1.129  -2.233   0.648  0.00  0.00     0.055 C 
ATOM      8  C   UNL d   1       0.392  -2.264   0.630  0.00  0.00     0.019 C 
ENDBRANCH   1   7
TORSDOF 1
ENDMDL
