MODEL 1
REMARK minimizedAffinity 16.7164555
REMARK minimizedRMSD -1
REMARK  1 active torsions:
REMARK  status: ('A' for Active; 'I' for Inactive)
REMARK    1  A    between atoms: C1_2  and  C2_3 
ROOT
ATOM      1  C2  UNL d   1      -2.036  -3.470  -3.828  0.00  0.00    -0.077 A 
ATOM      2  C3  UNL d   1      -1.828  -2.164  -3.362  0.00  0.00     0.002 A 
ATOM      3  C4  UNL d   1      -2.183  -1.815  -2.057  0.00  0.00     0.002 A 
ATOM      4  C5  UNL d   1      -2.743  -2.766  -1.207  0.00  0.00    -0.004 A 
ATOM      5  C6  UNL d   1      -2.955  -4.067  -1.662  0.00  0.00     0.002 A 
ATOM      6  C7  UNL d   1      -2.603  -4.417  -2.966  0.00  0.00     0.002 A 
ENDROOT
BRANCH   1   7
ATOM      7  C1  UNL d   1      -1.609  -3.861  -5.218  0.00  0.00     0.055 C 
ATOM      8  C   UNL d   1      -1.098  -2.660  -6.000  0.00  0.00     0.019 C 
ENDBRANCH   1   7
TORSDOF 1
ENDMDL
