MODEL 1
REMARK minimizedAffinity 6.44223309
REMARK minimizedRMSD -1
REMARK  1 active torsions:
REMARK  status: ('A' for Active; 'I' for Inactive)
REMARK    1  A    between atoms: C1_2  and  C2_3 
ROOT
ATOM      1  C2  UNL d   1      -1.766  -2.932   0.444  0.00  0.00    -0.077 A 
ATOM      2  C3  UNL d   1      -0.573  -2.705  -0.255  0.00  0.00     0.002 A 
ATOM      3  C4  UNL d   1      -0.595  -2.469  -1.631  0.00  0.00     0.002 A 
ATOM      4  C5  UNL d   1      -1.807  -2.455  -2.318  0.00  0.00    -0.004 A 
ATOM      5  C6  UNL d   1      -2.999  -2.682  -1.632  0.00  0.00     0.002 A 
ATOM      6  C7  UNL d   1      -2.979  -2.919  -0.257  0.00  0.00     0.002 A 
ENDROOT
BRANCH   1   7
ATOM      7  C1  UNL d   1      -1.750  -3.138   1.936  0.00  0.00     0.055 C 
ATOM      8  C   UNL d   1      -1.942  -4.604   2.296  0.00  0.00     0.019 C 
ENDBRANCH   1   7
TORSDOF 1
ENDMDL
