MODEL 1
REMARK minimizedAffinity 1.09429264
REMARK minimizedRMSD -1
REMARK  1 active torsions:
REMARK  status: ('A' for Active; 'I' for Inactive)
REMARK    1  A    between atoms: C1_2  and  C2_3 
ROOT
ATOM      1  C2  UNL d   1      -2.380  -3.713   0.439  0.00  0.00    -0.077 A 
ATOM      2  C3  UNL d   1      -1.398  -3.800   1.436  0.00  0.00     0.002 A 
ATOM      3  C4  UNL d   1      -1.326  -4.926   2.258  0.00  0.00     0.002 A 
ATOM      4  C5  UNL d   1      -2.229  -5.973   2.091  0.00  0.00    -0.004 A 
ATOM      5  C6  UNL d   1      -3.211  -5.895   1.104  0.00  0.00     0.002 A 
ATOM      6  C7  UNL d   1      -3.286  -4.770   0.281  0.00  0.00     0.002 A 
ENDROOT
BRANCH   1   7
ATOM      7  C1  UNL d   1      -2.430  -2.522  -0.482  0.00  0.00     0.055 C 
ATOM      8  C   UNL d   1      -2.729  -2.941  -1.914  0.00  0.00     0.019 C 
ENDBRANCH   1   7
TORSDOF 1
ENDMDL
