MODEL 1
REMARK minimizedAffinity 9.84564114
REMARK minimizedRMSD -1
REMARK  1 active torsions:
REMARK  status: ('A' for Active; 'I' for Inactive)
REMARK    1  A    between atoms: C1_2  and  C2_3 
ROOT
ATOM      1  C2  UNL d   1      -3.079  -3.662   0.639  0.00  0.00    -0.077 A 
ATOM      2  C3  UNL d   1      -1.891  -3.648   1.384  0.00  0.00     0.002 A 
ATOM      3  C4  UNL d   1      -1.527  -4.753   2.154  0.00  0.00     0.002 A 
ATOM      4  C5  UNL d   1      -2.343  -5.883   2.185  0.00  0.00    -0.004 A 
ATOM      5  C6  UNL d   1      -3.527  -5.906   1.449  0.00  0.00     0.002 A 
ATOM      6  C7  UNL d   1      -3.893  -4.801   0.679  0.00  0.00     0.002 A 
ENDROOT
BRANCH   1   7
ATOM      7  C1  UNL d   1      -3.449  -2.490  -0.232  0.00  0.00     0.055 C 
ATOM      8  C   UNL d   1      -2.727  -2.545  -1.570  0.00  0.00     0.019 C 
ENDBRANCH   1   7
TORSDOF 1
ENDMDL
