MODEL 1
REMARK minimizedAffinity -1.6025213
REMARK minimizedRMSD -1
REMARK  1 active torsions:
REMARK  status: ('A' for Active; 'I' for Inactive)
REMARK    1  A    between atoms: C1_2  and  C2_3 
ROOT
ATOM      1  C2  UNL d   1      -4.739   5.448  -1.141  0.00  0.00    -0.077 A 
ATOM      2  C3  UNL d   1      -3.488   5.426  -0.508  0.00  0.00     0.002 A 
ATOM      3  C4  UNL d   1      -2.325   5.688  -1.234  0.00  0.00     0.002 A 
ATOM      4  C5  UNL d   1      -2.402   5.978  -2.595  0.00  0.00    -0.004 A 
ATOM      5  C6  UNL d   1      -3.641   6.000  -3.234  0.00  0.00     0.002 A 
ATOM      6  C7  UNL d   1      -4.805   5.737  -2.510  0.00  0.00     0.002 A 
ENDROOT
BRANCH   1   7
ATOM      7  C1  UNL d   1      -5.999   5.214  -0.349  0.00  0.00     0.055 C 
ATOM      8  C   UNL d   1      -5.974   5.973   0.970  0.00  0.00     0.019 C 
ENDBRANCH   1   7
TORSDOF 1
ENDMDL
