MODEL 1
REMARK minimizedAffinity 13.1489172
REMARK minimizedRMSD -1
REMARK  1 active torsions:
REMARK  status: ('A' for Active; 'I' for Inactive)
REMARK    1  A    between atoms: C1_2  and  C2_3 
ROOT
ATOM      1  C2  UNL d   1      -1.834  -3.562   1.492  0.00  0.00    -0.077 A 
ATOM      2  C3  UNL d   1      -1.377  -3.613   2.816  0.00  0.00     0.002 A 
ATOM      3  C4  UNL d   1      -1.525  -4.779   3.569  0.00  0.00     0.002 A 
ATOM      4  C5  UNL d   1      -2.126  -5.903   3.006  0.00  0.00    -0.004 A 
ATOM      5  C6  UNL d   1      -2.585  -5.861   1.690  0.00  0.00     0.002 A 
ATOM      6  C7  UNL d   1      -2.439  -4.696   0.936  0.00  0.00     0.002 A 
ENDROOT
BRANCH   1   7
ATOM      7  C1  UNL d   1      -1.631  -2.321   0.662  0.00  0.00     0.055 C 
ATOM      8  C   UNL d   1      -2.209  -2.489  -0.736  0.00  0.00     0.019 C 
ENDBRANCH   1   7
TORSDOF 1
ENDMDL
