MODEL 1
REMARK minimizedAffinity 1.73225081
REMARK minimizedRMSD -1
REMARK  1 active torsions:
REMARK  status: ('A' for Active; 'I' for Inactive)
REMARK    1  A    between atoms: C1_2  and  C2_3 
ROOT
ATOM      1  C2  UNL d   1       0.981   1.801   1.549  0.00  0.00    -0.077 A 
ATOM      2  C3  UNL d   1       0.470   0.520   1.802  0.00  0.00     0.002 A 
ATOM      3  C4  UNL d   1      -0.886   0.343   2.083  0.00  0.00     0.002 A 
ATOM      4  C5  UNL d   1      -1.743   1.441   2.110  0.00  0.00    -0.004 A 
ATOM      5  C6  UNL d   1      -1.244   2.719   1.862  0.00  0.00     0.002 A 
ATOM      6  C7  UNL d   1       0.111   2.898   1.582  0.00  0.00     0.002 A 
ENDROOT
BRANCH   1   7
ATOM      7  C1  UNL d   1       2.433   1.988   1.198  0.00  0.00     0.055 C 
ATOM      8  C   UNL d   1       3.059   0.686   0.718  0.00  0.00     0.019 C 
ENDBRANCH   1   7
TORSDOF 1
ENDMDL
