MODEL 1
REMARK minimizedAffinity 0.294735193
REMARK minimizedRMSD -1
REMARK  1 active torsions:
REMARK  status: ('A' for Active; 'I' for Inactive)
REMARK    1  A    between atoms: C1_2  and  C2_3 
ROOT
ATOM      1  C2  UNL d   1      -3.795   1.758   4.066  0.00  0.00    -0.077 A 
ATOM      2  C3  UNL d   1      -2.993   2.848   3.696  0.00  0.00     0.002 A 
ATOM      3  C4  UNL d   1      -1.851   2.652   2.917  0.00  0.00     0.002 A 
ATOM      4  C5  UNL d   1      -1.503   1.370   2.498  0.00  0.00    -0.004 A 
ATOM      5  C6  UNL d   1      -2.293   0.280   2.861  0.00  0.00     0.002 A 
ATOM      6  C7  UNL d   1      -3.434   0.473   3.641  0.00  0.00     0.002 A 
ENDROOT
BRANCH   1   7
ATOM      7  C1  UNL d   1      -5.054   1.973   4.864  0.00  0.00     0.055 C 
ATOM      8  C   UNL d   1      -4.828   2.964   5.998  0.00  0.00     0.019 C 
ENDBRANCH   1   7
TORSDOF 1
ENDMDL
