MODEL 1
REMARK minimizedAffinity 5.77847862
REMARK minimizedRMSD -1
REMARK  1 active torsions:
REMARK  status: ('A' for Active; 'I' for Inactive)
REMARK    1  A    between atoms: C1_2  and  C2_3 
ROOT
ATOM      1  C2  UNL d   1       1.419   1.468   1.546  0.00  0.00    -0.077 A 
ATOM      2  C3  UNL d   1       0.724   0.338   2.000  0.00  0.00     0.002 A 
ATOM      3  C4  UNL d   1      -0.632   0.426   2.321  0.00  0.00     0.002 A 
ATOM      4  C5  UNL d   1      -1.304   1.639   2.189  0.00  0.00    -0.004 A 
ATOM      5  C6  UNL d   1      -0.621   2.769   1.740  0.00  0.00     0.002 A 
ATOM      6  C7  UNL d   1       0.735   2.683   1.420  0.00  0.00     0.002 A 
ENDROOT
BRANCH   1   7
ATOM      7  C1  UNL d   1       2.870   1.364   1.152  0.00  0.00     0.055 C 
ATOM      8  C   UNL d   1       3.031   0.644  -0.179  0.00  0.00     0.019 C 
ENDBRANCH   1   7
TORSDOF 1
ENDMDL
