MODEL 1
REMARK minimizedAffinity -3.90771866
REMARK minimizedRMSD -1
REMARK  2 active torsions:
REMARK  status: ('A' for Active; 'I' for Inactive)
REMARK    1  A    between atoms: C2'_3  and  C1'_4 
REMARK    2  A    between atoms: C1'_4  and  C1_5 
ROOT
ATOM      1  C1  I4B d   1      -0.065   0.877  -0.783  0.00  0.00    -0.075 A 
ATOM      2  C2  I4B d   1      -0.377  -0.153  -1.636  0.00  0.00     0.003 A 
ATOM      3  C3  I4B d   1       0.604  -0.673  -2.514  0.00  0.00     0.002 A 
ATOM      4  C4  I4B d   1       1.861  -0.105  -2.541  0.00  0.00    -0.004 A 
ATOM      5  C5  I4B d   1       2.183   0.923  -1.660  0.00  0.00     0.002 A 
ATOM      6  C6  I4B d   1       1.217   1.410  -0.767  0.00  0.00     0.003 A 
ENDROOT
BRANCH   1   7
ATOM      7  C1' I4B d   1      -1.135   1.424   0.107  0.00  0.00     0.060 C 
BRANCH   7   8
ATOM      8  C2' I4B d   1      -1.648   0.291   0.973  0.00  0.00    -0.013 C 
ATOM      9  C4' I4B d   1      -0.544  -0.296   1.812  0.00  0.00     0.013 C 
ATOM     10  C3' I4B d   1      -2.754   0.827   1.831  0.00  0.00     0.013 C 
ENDBRANCH   7   8
ENDBRANCH   1   7
TORSDOF 2
ENDMDL
