MODEL 1
REMARK minimizedAffinity -4.09934044
REMARK minimizedRMSD -1
REMARK  2 active torsions:
REMARK  status: ('A' for Active; 'I' for Inactive)
REMARK    1  A    between atoms: C2'_3  and  C1'_4 
REMARK    2  A    between atoms: C1'_4  and  C1_5 
ROOT
ATOM      1  C1  I4B d   1      -0.033   0.242   0.310  0.00  0.00    -0.075 A 
ATOM      2  C2  I4B d   1       0.744   1.275  -0.152  0.00  0.00     0.003 A 
ATOM      3  C3  I4B d   1       1.471   1.135  -1.359  0.00  0.00     0.002 A 
ATOM      4  C4  I4B d   1       1.432  -0.064  -2.041  0.00  0.00    -0.004 A 
ATOM      5  C5  I4B d   1       0.625  -1.102  -1.583  0.00  0.00     0.002 A 
ATOM      6  C6  I4B d   1      -0.122  -0.944  -0.407  0.00  0.00     0.003 A 
ENDROOT
BRANCH   1   7
ATOM      7  C1' I4B d   1      -0.761   0.412   1.606  0.00  0.00     0.060 C 
BRANCH   7   8
ATOM      8  C2' I4B d   1      -2.247   0.372   1.315  0.00  0.00    -0.013 C 
ATOM      9  C4' I4B d   1      -2.913  -0.771   2.034  0.00  0.00     0.013 C 
ATOM     10  C3' I4B d   1      -2.835   1.689   1.728  0.00  0.00     0.013 C 
ENDBRANCH   7   8
ENDBRANCH   1   7
TORSDOF 2
ENDMDL
