MODEL 1
REMARK minimizedAffinity -3.04943395
REMARK minimizedRMSD -1
REMARK  2 active torsions:
REMARK  status: ('A' for Active; 'I' for Inactive)
REMARK    1  A    between atoms: C2'_3  and  C1'_4 
REMARK    2  A    between atoms: C1'_4  and  C1_5 
ROOT
ATOM      1  C1  I4B d   1      -0.539   0.344   0.643  0.00  0.00    -0.075 A 
ATOM      2  C2  I4B d   1      -0.474  -0.803  -0.108  0.00  0.00     0.003 A 
ATOM      3  C3  I4B d   1       0.443  -0.902  -1.182  0.00  0.00     0.002 A 
ATOM      4  C4  I4B d   1       1.236   0.182  -1.500  0.00  0.00    -0.004 A 
ATOM      5  C5  I4B d   1       1.186   1.336  -0.724  0.00  0.00     0.002 A 
ATOM      6  C6  I4B d   1       0.302   1.414   0.362  0.00  0.00     0.003 A 
ENDROOT
BRANCH   1   7
ATOM      7  C1' I4B d   1      -1.542   0.426   1.749  0.00  0.00     0.060 C 
BRANCH   7   8
ATOM      8  C2' I4B d   1      -2.907   0.640   1.127  0.00  0.00    -0.013 C 
ATOM      9  C4' I4B d   1      -3.797  -0.556   1.342  0.00  0.00     0.013 C 
ATOM     10  C3' I4B d   1      -3.504   1.875   1.732  0.00  0.00     0.013 C 
ENDBRANCH   7   8
ENDBRANCH   1   7
TORSDOF 2
ENDMDL
