MODEL 1
REMARK minimizedAffinity -5.06888485
REMARK minimizedRMSD -1
REMARK  2 active torsions:
REMARK  status: ('A' for Active; 'I' for Inactive)
REMARK    1  A    between atoms: C2'_3  and  C1'_4 
REMARK    2  A    between atoms: C1'_4  and  C1_5 
ROOT
ATOM      1  C1  I4B d   1      -0.238  -0.619   0.200  0.00  0.00    -0.075 A 
ATOM      2  C2  I4B d   1      -0.284  -1.463  -0.882  0.00  0.00     0.003 A 
ATOM      3  C3  I4B d   1       0.452  -1.160  -2.053  0.00  0.00     0.002 A 
ATOM      4  C4  I4B d   1       1.175   0.013  -2.117  0.00  0.00    -0.004 A 
ATOM      5  C5  I4B d   1       1.240   0.855  -1.011  0.00  0.00     0.002 A 
ATOM      6  C6  I4B d   1       0.539   0.531   0.160  0.00  0.00     0.003 A 
ENDROOT
BRANCH   1   7
ATOM      7  C1' I4B d   1      -1.053  -0.953   1.409  0.00  0.00     0.060 C 
BRANCH   7   8
ATOM      8  C2' I4B d   1      -2.381  -0.232   1.290  0.00  0.00    -0.013 C 
ATOM      9  C4' I4B d   1      -3.518  -1.207   1.129  0.00  0.00     0.013 C 
ATOM     10  C3' I4B d   1      -2.561   0.613   2.515  0.00  0.00     0.013 C 
ENDBRANCH   7   8
ENDBRANCH   1   7
TORSDOF 2
ENDMDL
