MODEL 1
REMARK minimizedAffinity -1.26230645
REMARK minimizedRMSD -1
REMARK  2 active torsions:
REMARK  status: ('A' for Active; 'I' for Inactive)
REMARK    1  A    between atoms: C2'_3  and  C1'_4 
REMARK    2  A    between atoms: C1'_4  and  C1_5 
ROOT
ATOM      1  C1  I4B d   1      -0.341  -0.285   0.135  0.00  0.00    -0.075 A 
ATOM      2  C2  I4B d   1      -0.106  -1.428   0.857  0.00  0.00     0.003 A 
ATOM      3  C3  I4B d   1       0.231  -2.633   0.195  0.00  0.00     0.002 A 
ATOM      4  C4  I4B d   1       0.272  -2.663  -1.184  0.00  0.00    -0.004 A 
ATOM      5  C5  I4B d   1       0.057  -1.497  -1.914  0.00  0.00     0.002 A 
ATOM      6  C6  I4B d   1      -0.239  -0.298  -1.250  0.00  0.00     0.003 A 
ENDROOT
BRANCH   1   7
ATOM      7  C1' I4B d   1      -0.726   0.963   0.864  0.00  0.00     0.060 C 
BRANCH   7   8
ATOM      8  C2' I4B d   1      -1.766   0.594   1.902  0.00  0.00    -0.013 C 
ATOM      9  C4' I4B d   1      -1.935   1.691   2.920  0.00  0.00     0.013 C 
ATOM     10  C3' I4B d   1      -3.055   0.316   1.188  0.00  0.00     0.013 C 
ENDBRANCH   7   8
ENDBRANCH   1   7
TORSDOF 2
ENDMDL
