MODEL 1
REMARK minimizedAffinity -2.32569909
REMARK minimizedRMSD -1
REMARK  2 active torsions:
REMARK  status: ('A' for Active; 'I' for Inactive)
REMARK    1  A    between atoms: C2'_3  and  C1'_4 
REMARK    2  A    between atoms: C1'_4  and  C1_5 
ROOT
ATOM      1  C1  I4B d   1      -0.527   0.195   0.621  0.00  0.00    -0.075 A 
ATOM      2  C2  I4B d   1      -0.398  -1.022  -0.001  0.00  0.00     0.003 A 
ATOM      3  C3  I4B d   1       0.565  -1.201  -1.024  0.00  0.00     0.002 A 
ATOM      4  C4  I4B d   1       1.338  -0.130  -1.424  0.00  0.00    -0.004 A 
ATOM      5  C5  I4B d   1       1.222   1.096  -0.776  0.00  0.00     0.002 A 
ATOM      6  C6  I4B d   1       0.292   1.257   0.262  0.00  0.00     0.003 A 
ENDROOT
BRANCH   1   7
ATOM      7  C1' I4B d   1      -1.577   0.358   1.674  0.00  0.00     0.060 C 
BRANCH   7   8
ATOM      8  C2' I4B d   1      -2.905   0.579   0.978  0.00  0.00    -0.013 C 
ATOM      9  C4' I4B d   1      -3.605  -0.728   0.711  0.00  0.00     0.013 C 
ATOM     10  C3' I4B d   1      -3.740   1.472   1.847  0.00  0.00     0.013 C 
ENDBRANCH   7   8
ENDBRANCH   1   7
TORSDOF 2
ENDMDL
