MODEL 1
REMARK minimizedAffinity -4.37685299
REMARK minimizedRMSD -1
REMARK  2 active torsions:
REMARK  status: ('A' for Active; 'I' for Inactive)
REMARK    1  A    between atoms: C2'_3  and  C1'_4 
REMARK    2  A    between atoms: C1'_4  and  C1_5 
ROOT
ATOM      1  C1  I4B d   1      -0.722   0.074   0.887  0.00  0.00    -0.075 A 
ATOM      2  C2  I4B d   1      -0.690  -1.017   0.056  0.00  0.00     0.003 A 
ATOM      3  C3  I4B d   1       0.181  -1.037  -1.061  0.00  0.00     0.002 A 
ATOM      4  C4  I4B d   1       0.959   0.069  -1.336  0.00  0.00    -0.004 A 
ATOM      5  C5  I4B d   1       0.942   1.165  -0.479  0.00  0.00     0.002 A 
ATOM      6  C6  I4B d   1       0.105   1.164   0.647  0.00  0.00     0.003 A 
ENDROOT
BRANCH   1   7
ATOM      7  C1' I4B d   1      -1.677   0.075   2.038  0.00  0.00     0.060 C 
BRANCH   7   8
ATOM      8  C2' I4B d   1      -3.084   0.047   1.478  0.00  0.00    -0.013 C 
ATOM      9  C4' I4B d   1      -3.961  -0.901   2.253  0.00  0.00     0.013 C 
ATOM     10  C3' I4B d   1      -3.628   1.444   1.518  0.00  0.00     0.013 C 
ENDBRANCH   7   8
ENDBRANCH   1   7
TORSDOF 2
ENDMDL
