MODEL 1
REMARK minimizedAffinity -2.84851432
REMARK minimizedRMSD -1
REMARK  2 active torsions:
REMARK  status: ('A' for Active; 'I' for Inactive)
REMARK    1  A    between atoms: C2'_3  and  C1'_4 
REMARK    2  A    between atoms: C1'_4  and  C1_5 
ROOT
ATOM      1  C1  I4B d   1      -0.396   0.002  -0.100  0.00  0.00    -0.075 A 
ATOM      2  C2  I4B d   1      -0.236  -1.000  -1.025  0.00  0.00     0.003 A 
ATOM      3  C3  I4B d   1       0.587  -0.797  -2.160  0.00  0.00     0.002 A 
ATOM      4  C4  I4B d   1       1.186   0.431  -2.355  0.00  0.00    -0.004 A 
ATOM      5  C5  I4B d   1       1.041   1.437  -1.404  0.00  0.00     0.002 A 
ATOM      6  C6  I4B d   1       0.255   1.218  -0.263  0.00  0.00     0.003 A 
ENDROOT
BRANCH   1   7
ATOM      7  C1' I4B d   1      -1.298  -0.235   1.069  0.00  0.00     0.060 C 
BRANCH   7   8
ATOM      8  C2' I4B d   1      -2.709   0.124   0.650  0.00  0.00    -0.013 C 
ATOM      9  C4' I4B d   1      -3.565  -1.106   0.507  0.00  0.00     0.013 C 
ATOM     10  C3' I4B d   1      -3.273   1.060   1.677  0.00  0.00     0.013 C 
ENDBRANCH   7   8
ENDBRANCH   1   7
TORSDOF 2
ENDMDL
