MODEL 1
REMARK minimizedAffinity -3.7182157
REMARK minimizedRMSD -1
REMARK  2 active torsions:
REMARK  status: ('A' for Active; 'I' for Inactive)
REMARK    1  A    between atoms: C2'_3  and  C1'_4 
REMARK    2  A    between atoms: C1'_4  and  C1_5 
ROOT
ATOM      1  C1  I4B d   1      -0.136   0.070   0.030  0.00  0.00    -0.075 A 
ATOM      2  C2  I4B d   1      -0.344  -0.654  -1.118  0.00  0.00     0.003 A 
ATOM      3  C3  I4B d   1       0.413  -0.376  -2.282  0.00  0.00     0.002 A 
ATOM      4  C4  I4B d   1       1.325   0.660  -2.269  0.00  0.00    -0.004 A 
ATOM      5  C5  I4B d   1       1.550   1.377  -1.097  0.00  0.00     0.002 A 
ATOM      6  C6  I4B d   1       0.824   1.072   0.063  0.00  0.00     0.003 A 
ENDROOT
BRANCH   1   7
ATOM      7  C1' I4B d   1      -0.977  -0.228   1.231  0.00  0.00     0.060 C 
BRANCH   7   8
ATOM      8  C2' I4B d   1      -2.282   0.527   1.086  0.00  0.00    -0.013 C 
ATOM      9  C4' I4B d   1      -3.387  -0.380   0.613  0.00  0.00     0.013 C 
ATOM     10  C3' I4B d   1      -2.614   1.137   2.415  0.00  0.00     0.013 C 
ENDBRANCH   7   8
ENDBRANCH   1   7
TORSDOF 2
ENDMDL
