MODEL 1
REMARK minimizedAffinity -3.40439963
REMARK minimizedRMSD -1
REMARK  1 active torsions:
REMARK  status: ('A' for Active; 'I' for Inactive)
REMARK    1  A    between atoms: C3_4  and  O_7 
ROOT
ATOM      1  C   UNL d   1      -0.146   0.690  -1.399  0.00  0.00    -0.033 A 
ATOM      2  C1  UNL d   1       0.442  -0.303  -2.186  0.00  0.00     0.039 A 
ATOM      3  C2  UNL d   1       0.696  -1.565  -1.645  0.00  0.00    -0.080 A 
ATOM      4  C3  UNL d   1       0.358  -1.821  -0.320  0.00  0.00     0.150 A 
ATOM      5  C4  UNL d   1      -0.231  -0.838   0.469  0.00  0.00    -0.007 A 
ATOM      6  C5  UNL d   1      -0.483   0.422  -0.072  0.00  0.00     0.039 A 
ENDROOT
BRANCH   4   7
ATOM      7  O   UNL d   1       0.591  -3.036   0.253  0.00  0.00    -0.526 OA
ATOM      8  H5  UNL d   1       1.028  -3.606  -0.401  0.00  0.00     0.418 HD
ENDBRANCH   4   7
TORSDOF 1
ENDMDL
