MODEL 1
REMARK minimizedAffinity -4.29823828
REMARK minimizedRMSD -1
REMARK  1 active torsions:
REMARK  status: ('A' for Active; 'I' for Inactive)
REMARK    1  A    between atoms: C3_4  and  O_7 
ROOT
ATOM      1  C   UNL d   1       0.644  -1.275   0.148  0.00  0.00    -0.033 A 
ATOM      2  C1  UNL d   1       0.386  -2.647   0.194  0.00  0.00     0.039 A 
ATOM      3  C2  UNL d   1      -0.744  -3.124   0.861  0.00  0.00    -0.080 A 
ATOM      4  C3  UNL d   1      -1.607  -2.221   1.476  0.00  0.00     0.150 A 
ATOM      5  C4  UNL d   1      -1.358  -0.853   1.430  0.00  0.00    -0.007 A 
ATOM      6  C5  UNL d   1      -0.229  -0.378   0.764  0.00  0.00     0.039 A 
ENDROOT
BRANCH   4   7
ATOM      7  O   UNL d   1      -2.720  -2.639   2.143  0.00  0.00    -0.526 OA
ATOM      8  H5  UNL d   1      -2.748  -3.610   2.116  0.00  0.00     0.418 HD
ENDBRANCH   4   7
TORSDOF 1
ENDMDL
