MODEL 1
REMARK minimizedAffinity -4.74951267
REMARK minimizedRMSD -1
REMARK  1 active torsions:
REMARK  status: ('A' for Active; 'I' for Inactive)
REMARK    1  A    between atoms: C3_4  and  O_7 
ROOT
ATOM      1  C   UNL d   1      -0.583  -2.973   0.399  0.00  0.00    -0.033 A 
ATOM      2  C1  UNL d   1      -1.530  -2.018   0.775  0.00  0.00     0.039 A 
ATOM      3  C2  UNL d   1      -1.226  -0.659   0.687  0.00  0.00    -0.080 A 
ATOM      4  C3  UNL d   1       0.026  -0.267   0.221  0.00  0.00     0.150 A 
ATOM      5  C4  UNL d   1       0.973  -1.213  -0.159  0.00  0.00    -0.007 A 
ATOM      6  C5  UNL d   1       0.668  -2.570  -0.069  0.00  0.00     0.039 A 
ENDROOT
BRANCH   4   7
ATOM      7  O   UNL d   1       0.370   1.048   0.123  0.00  0.00    -0.526 OA
ATOM      8  H5  UNL d   1      -0.372   1.586   0.447  0.00  0.00     0.418 HD
ENDBRANCH   4   7
TORSDOF 1
ENDMDL
