MODEL 1
REMARK minimizedAffinity -5.15352011
REMARK minimizedRMSD -1
REMARK  1 active torsions:
REMARK  status: ('A' for Active; 'I' for Inactive)
REMARK    1  A    between atoms: C3_4  and  O_7 
ROOT
ATOM      1  C   UNL d   1       0.464  -1.360  -0.661  0.00  0.00    -0.033 A 
ATOM      2  C1  UNL d   1      -0.018  -0.357   0.182  0.00  0.00     0.039 A 
ATOM      3  C2  UNL d   1      -0.840  -0.687   1.262  0.00  0.00    -0.080 A 
ATOM      4  C3  UNL d   1      -1.171  -2.020   1.487  0.00  0.00     0.150 A 
ATOM      5  C4  UNL d   1      -0.691  -3.024   0.652  0.00  0.00    -0.007 A 
ATOM      6  C5  UNL d   1       0.129  -2.693  -0.425  0.00  0.00     0.039 A 
ENDROOT
BRANCH   4   7
ATOM      7  O   UNL d   1      -1.974  -2.390   2.524  0.00  0.00    -0.526 OA
ATOM      8  H5  UNL d   1      -2.254  -1.588   2.998  0.00  0.00     0.418 HD
ENDBRANCH   4   7
TORSDOF 1
ENDMDL
