MODEL 1
REMARK minimizedAffinity -5.11955595
REMARK minimizedRMSD -1
REMARK  1 active torsions:
REMARK  status: ('A' for Active; 'I' for Inactive)
REMARK    1  A    between atoms: C3_4  and  O_7 
ROOT
ATOM      1  C   UNL d   1       0.375  -1.725  -0.314  0.00  0.00    -0.033 A 
ATOM      2  C1  UNL d   1       0.594  -0.537   0.386  0.00  0.00     0.039 A 
ATOM      3  C2  UNL d   1      -0.238  -0.189   1.452  0.00  0.00    -0.080 A 
ATOM      4  C3  UNL d   1      -1.284  -1.037   1.807  0.00  0.00     0.150 A 
ATOM      5  C4  UNL d   1      -1.505  -2.224   1.117  0.00  0.00    -0.007 A 
ATOM      6  C5  UNL d   1      -0.674  -2.569   0.052  0.00  0.00     0.039 A 
ENDROOT
BRANCH   4   7
ATOM      7  O   UNL d   1      -2.125  -0.738   2.837  0.00  0.00    -0.526 OA
ATOM      8  H5  UNL d   1      -1.869   0.126   3.203  0.00  0.00     0.418 HD
ENDBRANCH   4   7
TORSDOF 1
ENDMDL
