MODEL 1
REMARK minimizedAffinity -1.64724827
REMARK minimizedRMSD -1
REMARK  1 active torsions:
REMARK  status: ('A' for Active; 'I' for Inactive)
REMARK    1  A    between atoms: C3_4  and  O_7 
ROOT
ATOM      1  C   UNL d   1      -0.410   3.422   1.345  0.00  0.00    -0.033 A 
ATOM      2  C1  UNL d   1       0.642   4.231   1.779  0.00  0.00     0.039 A 
ATOM      3  C2  UNL d   1       1.897   4.130   1.175  0.00  0.00    -0.080 A 
ATOM      4  C3  UNL d   1       2.086   3.220   0.139  0.00  0.00     0.150 A 
ATOM      5  C4  UNL d   1       1.041   2.414  -0.301  0.00  0.00    -0.007 A 
ATOM      6  C5  UNL d   1      -0.211   2.515   0.304  0.00  0.00     0.039 A 
ENDROOT
BRANCH   4   7
ATOM      7  O   UNL d   1       3.294   3.083  -0.478  0.00  0.00    -0.526 OA
ATOM      8  H5  UNL d   1       3.928   3.683  -0.050  0.00  0.00     0.418 HD
ENDBRANCH   4   7
TORSDOF 1
ENDMDL
