MODEL 1
REMARK minimizedAffinity -4.25873661
REMARK minimizedRMSD -1
REMARK  1 active torsions:
REMARK  status: ('A' for Active; 'I' for Inactive)
REMARK    1  A    between atoms: C3_4  and  O_7 
ROOT
ATOM      1  C   UNL d   1      -0.416   0.242  -0.054  0.00  0.00    -0.033 A 
ATOM      2  C1  UNL d   1       0.554  -0.504  -0.725  0.00  0.00     0.039 A 
ATOM      3  C2  UNL d   1       0.661  -1.878  -0.499  0.00  0.00    -0.080 A 
ATOM      4  C3  UNL d   1      -0.208  -2.492   0.398  0.00  0.00     0.150 A 
ATOM      5  C4  UNL d   1      -1.180  -1.756   1.067  0.00  0.00    -0.007 A 
ATOM      6  C5  UNL d   1      -1.284  -0.384   0.841  0.00  0.00     0.039 A 
ENDROOT
BRANCH   4   7
ATOM      7  O   UNL d   1      -0.139  -3.830   0.654  0.00  0.00    -0.526 OA
ATOM      8  H5  UNL d   1       0.597  -4.204   0.142  0.00  0.00     0.418 HD
ENDBRANCH   4   7
TORSDOF 1
ENDMDL
