MODEL 1
REMARK minimizedAffinity -5.16419697
REMARK minimizedRMSD -1
REMARK  1 active torsions:
REMARK  status: ('A' for Active; 'I' for Inactive)
REMARK    1  A    between atoms: C3_4  and  O_7 
ROOT
ATOM      1  C   UNL d   1      -0.748   0.019   0.681  0.00  0.00    -0.033 A 
ATOM      2  C1  UNL d   1      -1.732  -0.833   1.188  0.00  0.00     0.039 A 
ATOM      3  C2  UNL d   1      -1.636  -2.211   0.984  0.00  0.00    -0.080 A 
ATOM      4  C3  UNL d   1      -0.554  -2.724   0.274  0.00  0.00     0.150 A 
ATOM      5  C4  UNL d   1       0.431  -1.881  -0.230  0.00  0.00    -0.007 A 
ATOM      6  C5  UNL d   1       0.334  -0.505  -0.027  0.00  0.00     0.039 A 
ENDROOT
BRANCH   4   7
ATOM      7  O   UNL d   1      -0.421  -4.061   0.046  0.00  0.00    -0.526 OA
ATOM      8  H5  UNL d   1      -1.190  -4.517   0.427  0.00  0.00     0.418 HD
ENDBRANCH   4   7
TORSDOF 1
ENDMDL
