MODEL 1
REMARK minimizedAffinity -4.67045546
REMARK minimizedRMSD -1
REMARK  1 active torsions:
REMARK  status: ('A' for Active; 'I' for Inactive)
REMARK    1  A    between atoms: C3_4  and  O_7 
ROOT
ATOM      1  C   UNL d   1       1.057  -1.420  -0.500  0.00  0.00    -0.033 A 
ATOM      2  C1  UNL d   1       0.916  -2.699   0.041  0.00  0.00     0.039 A 
ATOM      3  C2  UNL d   1      -0.132  -2.974   0.922  0.00  0.00    -0.080 A 
ATOM      4  C3  UNL d   1      -1.030  -1.963   1.253  0.00  0.00     0.150 A 
ATOM      5  C4  UNL d   1      -0.897  -0.688   0.714  0.00  0.00    -0.007 A 
ATOM      6  C5  UNL d   1       0.150  -0.414  -0.165  0.00  0.00     0.039 A 
ENDROOT
BRANCH   4   7
ATOM      7  O   UNL d   1      -2.065  -2.183   2.113  0.00  0.00    -0.526 OA
ATOM      8  H5  UNL d   1      -2.014  -3.101   2.427  0.00  0.00     0.418 HD
ENDBRANCH   4   7
TORSDOF 1
ENDMDL
