MODEL 1
REMARK minimizedAffinity -3.62693262
REMARK minimizedRMSD -1
REMARK  1 active torsions:
REMARK  status: ('A' for Active; 'I' for Inactive)
REMARK    1  A    between atoms: C3_4  and  O_7 
ROOT
ATOM      1  C   UNL d   1      -0.786  -0.415   0.250  0.00  0.00    -0.033 A 
ATOM      2  C1  UNL d   1      -1.709  -1.354   0.715  0.00  0.00     0.039 A 
ATOM      3  C2  UNL d   1      -1.293  -2.649   1.030  0.00  0.00    -0.080 A 
ATOM      4  C3  UNL d   1       0.047  -2.992   0.876  0.00  0.00     0.150 A 
ATOM      5  C4  UNL d   1       0.973  -2.061   0.417  0.00  0.00    -0.007 A 
ATOM      6  C5  UNL d   1       0.556  -0.769   0.102  0.00  0.00     0.039 A 
ENDROOT
BRANCH   4   7
ATOM      7  O   UNL d   1       0.500  -4.245   1.166  0.00  0.00    -0.526 OA
ATOM      8  H5  UNL d   1      -0.256  -4.788   1.445  0.00  0.00     0.418 HD
ENDBRANCH   4   7
TORSDOF 1
ENDMDL
