MODEL 1
REMARK minimizedAffinity -4.67513609
REMARK minimizedRMSD -1
REMARK  1 active torsions:
REMARK  status: ('A' for Active; 'I' for Inactive)
REMARK    1  A    between atoms: C3_4  and  O_7 
ROOT
ATOM      1  C   UNL d   1      -0.658  -3.092  -1.067  0.00  0.00    -0.033 A 
ATOM      2  C1  UNL d   1      -0.096  -2.151  -1.932  0.00  0.00     0.039 A 
ATOM      3  C2  UNL d   1       0.043  -0.822  -1.527  0.00  0.00    -0.080 A 
ATOM      4  C3  UNL d   1      -0.382  -0.448  -0.255  0.00  0.00     0.150 A 
ATOM      5  C4  UNL d   1      -0.939  -1.381   0.614  0.00  0.00    -0.007 A 
ATOM      6  C5  UNL d   1      -1.078  -2.707   0.207  0.00  0.00     0.039 A 
ENDROOT
BRANCH   4   7
ATOM      7  O   UNL d   1      -0.271   0.838   0.184  0.00  0.00    -0.526 OA
ATOM      8  H5  UNL d   1       0.104   1.376  -0.533  0.00  0.00     0.418 HD
ENDBRANCH   4   7
TORSDOF 1
ENDMDL
