MODEL 1
REMARK minimizedAffinity -4.9645009
REMARK minimizedRMSD -1
REMARK  1 active torsions:
REMARK  status: ('A' for Active; 'I' for Inactive)
REMARK    1  A    between atoms: C3_4  and  O_7 
ROOT
ATOM      1  C   UNL d   1       0.398   0.222  -0.395  0.00  0.00    -0.033 A 
ATOM      2  C1  UNL d   1       0.919  -0.674  -1.331  0.00  0.00     0.039 A 
ATOM      3  C2  UNL d   1       0.787  -2.050  -1.132  0.00  0.00    -0.080 A 
ATOM      4  C3  UNL d   1       0.133  -2.516   0.005  0.00  0.00     0.150 A 
ATOM      5  C4  UNL d   1      -0.392  -1.629   0.940  0.00  0.00    -0.007 A 
ATOM      6  C5  UNL d   1      -0.259  -0.256   0.739  0.00  0.00     0.039 A 
ENDROOT
BRANCH   4   7
ATOM      7  O   UNL d   1      -0.015  -3.850   0.246  0.00  0.00    -0.526 OA
ATOM      8  H5  UNL d   1       0.422  -4.342  -0.469  0.00  0.00     0.418 HD
ENDBRANCH   4   7
TORSDOF 1
ENDMDL
