MODEL 1
REMARK minimizedAffinity -4.22336578
REMARK minimizedRMSD -1
REMARK  1 active torsions:
REMARK  status: ('A' for Active; 'I' for Inactive)
REMARK    1  A    between atoms: C3_4  and  O_7 
ROOT
ATOM      1  C   UNL d   1       0.170  -2.618   1.190  0.00  0.00    -0.033 A 
ATOM      2  C1  UNL d   1      -0.814  -1.698   1.556  0.00  0.00     0.039 A 
ATOM      3  C2  UNL d   1      -0.879  -0.454   0.926  0.00  0.00    -0.080 A 
ATOM      4  C3  UNL d   1       0.043  -0.144  -0.069  0.00  0.00     0.150 A 
ATOM      5  C4  UNL d   1       1.024  -1.057  -0.442  0.00  0.00    -0.007 A 
ATOM      6  C5  UNL d   1       1.089  -2.298   0.189  0.00  0.00     0.039 A 
ENDROOT
BRANCH   4   7
ATOM      7  O   UNL d   1       0.022   1.060  -0.710  0.00  0.00    -0.526 OA
ATOM      8  H5  UNL d   1      -0.690   1.599  -0.329  0.00  0.00     0.418 HD
ENDBRANCH   4   7
TORSDOF 1
ENDMDL
