MODEL 1
REMARK minimizedAffinity -4.61916542
REMARK minimizedRMSD -1
REMARK  1 active torsions:
REMARK  status: ('A' for Active; 'I' for Inactive)
REMARK    1  A    between atoms: N_2  and  C1_3 
ROOT
ATOM      1  C1  UNL d   1       0.834   0.585  -0.663  0.00  0.00     0.143 A 
ATOM      2  C2  UNL d   1       1.722  -0.495  -0.634  0.00  0.00    -0.057 A 
ATOM      3  C3  UNL d   1       2.852  -0.528  -1.459  0.00  0.00     0.033 A 
ATOM      4  C4  UNL d   1       3.099   0.509  -2.352  0.00  0.00    -0.042 A 
ATOM      5  C5  UNL d   1       2.217   1.581  -2.416  0.00  0.00     0.033 A 
ATOM      6  C6  UNL d   1       1.093   1.612  -1.585  0.00  0.00    -0.057 A 
ENDROOT
BRANCH   1   7
ATOM      7  N   UNL d   1      -0.360   0.631   0.062  0.00  0.00    -0.732 N 
ATOM      8  C   UNL d   1      -1.100  -0.582   0.340  0.00  0.00     0.284 C 
ATOM      9  H3  UNL d   1      -0.315   1.279   0.844  0.00  0.00     0.395 HD
ENDBRANCH   1   7
TORSDOF 1
ENDMDL
