MODEL 1
REMARK minimizedAffinity -4.10887098
REMARK minimizedRMSD -1
REMARK  1 active torsions:
REMARK  status: ('A' for Active; 'I' for Inactive)
REMARK    1  A    between atoms: N_2  and  C1_3 
ROOT
ATOM      1  C1  UNL d   1       1.123   0.510  -0.682  0.00  0.00     0.143 A 
ATOM      2  C2  UNL d   1       1.794  -0.631  -1.135  0.00  0.00    -0.057 A 
ATOM      3  C3  UNL d   1       2.347  -0.686  -2.419  0.00  0.00     0.033 A 
ATOM      4  C4  UNL d   1       2.214   0.393  -3.287  0.00  0.00    -0.042 A 
ATOM      5  C5  UNL d   1       1.530   1.528  -2.867  0.00  0.00     0.033 A 
ATOM      6  C6  UNL d   1       0.985   1.579  -1.581  0.00  0.00    -0.057 A 
ENDROOT
BRANCH   1   7
ATOM      7  N   UNL d   1       0.466   0.589   0.549  0.00  0.00    -0.732 N 
ATOM      8  C   UNL d   1      -0.938   0.253   0.657  0.00  0.00     0.284 C 
ATOM      9  H3  UNL d   1       1.036   0.244   1.317  0.00  0.00     0.395 HD
ENDBRANCH   1   7
TORSDOF 1
ENDMDL
