MODEL 1
REMARK minimizedAffinity -5.1542635
REMARK minimizedRMSD -1
REMARK  1 active torsions:
REMARK  status: ('A' for Active; 'I' for Inactive)
REMARK    1  A    between atoms: N_2  and  C1_3 
ROOT
ATOM      1  C1  UNL d   1       0.544   0.677  -0.544  0.00  0.00     0.143 A 
ATOM      2  C2  UNL d   1       1.256  -0.508  -0.330  0.00  0.00    -0.057 A 
ATOM      3  C3  UNL d   1       2.371  -0.835  -1.110  0.00  0.00     0.033 A 
ATOM      4  C4  UNL d   1       2.777   0.005  -2.141  0.00  0.00    -0.042 A 
ATOM      5  C5  UNL d   1       2.069   1.176  -2.388  0.00  0.00     0.033 A 
ATOM      6  C6  UNL d   1       0.960   1.501  -1.601  0.00  0.00    -0.057 A 
ENDROOT
BRANCH   1   7
ATOM      7  N   UNL d   1      -0.632   1.011   0.134  0.00  0.00    -0.732 N 
ATOM      8  C   UNL d   1      -1.508  -0.022   0.643  0.00  0.00     0.284 C 
ATOM      9  H3  UNL d   1      -0.505   1.798   0.766  0.00  0.00     0.395 HD
ENDBRANCH   1   7
TORSDOF 1
ENDMDL
