MODEL 1
REMARK minimizedAffinity -3.06452036
REMARK minimizedRMSD -1
REMARK  1 active torsions:
REMARK  status: ('A' for Active; 'I' for Inactive)
REMARK    1  A    between atoms: N_2  and  C1_3 
ROOT
ATOM      1  C1  UNL d   1       1.796  -0.767  -0.602  0.00  0.00     0.143 A 
ATOM      2  C2  UNL d   1       0.943  -1.769  -0.126  0.00  0.00    -0.057 A 
ATOM      3  C3  UNL d   1      -0.373  -1.481   0.255  0.00  0.00     0.033 A 
ATOM      4  C4  UNL d   1      -0.852  -0.177   0.195  0.00  0.00    -0.042 A 
ATOM      5  C5  UNL d   1      -0.015   0.839  -0.251  0.00  0.00     0.033 A 
ATOM      6  C6  UNL d   1       1.297   0.545  -0.637  0.00  0.00    -0.057 A 
ENDROOT
BRANCH   1   7
ATOM      7  N   UNL d   1       3.144  -0.972  -0.903  0.00  0.00    -0.732 N 
ATOM      8  C   UNL d   1       3.749  -0.331  -2.051  0.00  0.00     0.284 C 
ATOM      9  H3  UNL d   1       3.732  -0.975  -0.072  0.00  0.00     0.395 HD
ENDBRANCH   1   7
TORSDOF 1
ENDMDL
