MODEL 1
REMARK minimizedAffinity -1.8847537
REMARK minimizedRMSD -1
REMARK  1 active torsions:
REMARK  status: ('A' for Active; 'I' for Inactive)
REMARK    1  A    between atoms: N_2  and  C1_3 
ROOT
ATOM      1  C1  UNL d   1       0.484  -0.495  -0.158  0.00  0.00     0.143 A 
ATOM      2  C2  UNL d   1       0.740  -1.203  -1.337  0.00  0.00    -0.057 A 
ATOM      3  C3  UNL d   1       2.041  -1.337  -1.836  0.00  0.00     0.033 A 
ATOM      4  C4  UNL d   1       3.110  -0.739  -1.177  0.00  0.00    -0.042 A 
ATOM      5  C5  UNL d   1       2.877  -0.010  -0.016  0.00  0.00     0.033 A 
ATOM      6  C6  UNL d   1       1.575   0.115   0.480  0.00  0.00    -0.057 A 
ENDROOT
BRANCH   1   7
ATOM      7  N   UNL d   1      -0.798  -0.243   0.335  0.00  0.00    -0.732 N 
ATOM      8  C   UNL d   1      -0.981   0.419   1.609  0.00  0.00     0.284 C 
ATOM      9  H3  UNL d   1      -1.439   0.069  -0.391  0.00  0.00     0.395 HD
ENDBRANCH   1   7
TORSDOF 1
ENDMDL
