MODEL 1
REMARK minimizedAffinity -3.59849024
REMARK minimizedRMSD -1
REMARK  1 active torsions:
REMARK  status: ('A' for Active; 'I' for Inactive)
REMARK    1  A    between atoms: N_2  and  C1_3 
ROOT
ATOM      1  C1  UNL d   1      -0.447   0.139   0.349  0.00  0.00     0.143 A 
ATOM      2  C2  UNL d   1       0.705   0.826  -0.049  0.00  0.00    -0.057 A 
ATOM      3  C3  UNL d   1       1.804   0.148  -0.591  0.00  0.00     0.033 A 
ATOM      4  C4  UNL d   1       1.781  -1.237  -0.717  0.00  0.00    -0.042 A 
ATOM      5  C5  UNL d   1       0.656  -1.943  -0.304  0.00  0.00     0.033 A 
ATOM      6  C6  UNL d   1      -0.440  -1.259   0.229  0.00  0.00    -0.057 A 
ENDROOT
BRANCH   1   7
ATOM      7  N   UNL d   1      -1.533   0.746   0.985  0.00  0.00    -0.732 N 
ATOM      8  C   UNL d   1      -1.458   1.113   2.382  0.00  0.00     0.284 C 
ATOM      9  H3  UNL d   1      -1.990   1.439   0.397  0.00  0.00     0.395 HD
ENDBRANCH   1   7
TORSDOF 1
ENDMDL
