MODEL 1
REMARK minimizedAffinity -1.11388898
REMARK minimizedRMSD -1
REMARK  1 active torsions:
REMARK  status: ('A' for Active; 'I' for Inactive)
REMARK    1  A    between atoms: N_2  and  C1_3 
ROOT
ATOM      1  C1  UNL d   1       0.736   0.635  -1.142  0.00  0.00     0.143 A 
ATOM      2  C2  UNL d   1       1.140  -0.643  -0.741  0.00  0.00    -0.057 A 
ATOM      3  C3  UNL d   1       2.098  -1.363  -1.465  0.00  0.00     0.033 A 
ATOM      4  C4  UNL d   1       2.649  -0.827  -2.624  0.00  0.00    -0.042 A 
ATOM      5  C5  UNL d   1       2.245   0.432  -3.056  0.00  0.00     0.033 A 
ATOM      6  C6  UNL d   1       1.292   1.148  -2.324  0.00  0.00    -0.057 A 
ENDROOT
BRANCH   1   7
ATOM      7  N   UNL d   1      -0.283   1.360  -0.520  0.00  0.00    -0.732 N 
ATOM      8  C   UNL d   1      -1.319   0.681   0.230  0.00  0.00     0.284 C 
ATOM      9  H3  UNL d   1       0.058   2.211  -0.080  0.00  0.00     0.395 HD
ENDBRANCH   1   7
TORSDOF 1
ENDMDL
