MODEL 1
REMARK minimizedAffinity -4.81216049
REMARK minimizedRMSD -1
REMARK  1 active torsions:
REMARK  status: ('A' for Active; 'I' for Inactive)
REMARK    1  A    between atoms: N_2  and  C1_3 
ROOT
ATOM      1  C1  UNL d   1       1.155   0.266  -0.812  0.00  0.00     0.143 A 
ATOM      2  C2  UNL d   1       2.237  -0.597  -1.016  0.00  0.00    -0.057 A 
ATOM      3  C3  UNL d   1       3.265  -0.274  -1.911  0.00  0.00     0.033 A 
ATOM      4  C4  UNL d   1       3.213   0.908  -2.642  0.00  0.00    -0.042 A 
ATOM      5  C5  UNL d   1       2.134   1.769  -2.474  0.00  0.00     0.033 A 
ATOM      6  C6  UNL d   1       1.114   1.444  -1.574  0.00  0.00    -0.057 A 
ENDROOT
BRANCH   1   7
ATOM      7  N   UNL d   1       0.054  -0.043  -0.010  0.00  0.00    -0.732 N 
ATOM      8  C   UNL d   1      -0.301  -1.421   0.255  0.00  0.00     0.284 C 
ATOM      9  H3  UNL d   1      -0.022   0.569   0.799  0.00  0.00     0.395 HD
ENDBRANCH   1   7
TORSDOF 1
ENDMDL
