MODEL 1
REMARK minimizedAffinity -2.60133505
REMARK minimizedRMSD -1
REMARK  1 active torsions:
REMARK  status: ('A' for Active; 'I' for Inactive)
REMARK    1  A    between atoms: N_2  and  C1_3 
ROOT
ATOM      1  C1  UNL d   1      -0.707   0.545   0.128  0.00  0.00     0.143 A 
ATOM      2  C2  UNL d   1      -0.697   1.562  -0.833  0.00  0.00    -0.057 A 
ATOM      3  C3  UNL d   1       0.443   1.822  -1.603  0.00  0.00     0.033 A 
ATOM      4  C4  UNL d   1       1.606   1.086  -1.406  0.00  0.00    -0.042 A 
ATOM      5  C5  UNL d   1       1.627   0.087  -0.439  0.00  0.00     0.033 A 
ATOM      6  C6  UNL d   1       0.484  -0.172   0.323  0.00  0.00    -0.057 A 
ENDROOT
BRANCH   1   7
ATOM      7  N   UNL d   1      -1.776   0.304   0.994  0.00  0.00    -0.732 N 
ATOM      8  C   UNL d   1      -1.904   1.042   2.232  0.00  0.00     0.284 C 
ATOM      9  H3  UNL d   1      -2.654   0.168   0.498  0.00  0.00     0.395 HD
ENDBRANCH   1   7
TORSDOF 1
ENDMDL
