MODEL 1
REMARK minimizedAffinity -4.8068614
REMARK minimizedRMSD -1
REMARK  1 active torsions:
REMARK  status: ('A' for Active; 'I' for Inactive)
REMARK    1  A    between atoms: N_2  and  C1_3 
ROOT
ATOM      1  C1  UNL d   1       0.239   0.456  -0.800  0.00  0.00     0.143 A 
ATOM      2  C2  UNL d   1       0.742  -0.848  -0.748  0.00  0.00    -0.057 A 
ATOM      3  C3  UNL d   1       1.965  -1.179  -1.346  0.00  0.00     0.033 A 
ATOM      4  C4  UNL d   1       2.694  -0.214  -2.033  0.00  0.00    -0.042 A 
ATOM      5  C5  UNL d   1       2.201   1.083  -2.119  0.00  0.00     0.033 A 
ATOM      6  C6  UNL d   1       0.983   1.409  -1.515  0.00  0.00    -0.057 A 
ENDROOT
BRANCH   1   7
ATOM      7  N   UNL d   1      -1.016   0.826  -0.311  0.00  0.00    -0.732 N 
ATOM      8  C   UNL d   1      -1.420   0.463   1.030  0.00  0.00     0.284 C 
ATOM      9  H3  UNL d   1      -1.276   1.771  -0.582  0.00  0.00     0.395 HD
ENDBRANCH   1   7
TORSDOF 1
ENDMDL
