MODEL 1
REMARK minimizedAffinity -2.19975972
REMARK minimizedRMSD -1
REMARK  1 active torsions:
REMARK  status: ('A' for Active; 'I' for Inactive)
REMARK    1  A    between atoms: N_2  and  C1_3 
ROOT
ATOM      1  C1  UNL d   1      -0.774   0.168   0.518  0.00  0.00     0.143 A 
ATOM      2  C2  UNL d   1       0.238   0.706  -0.285  0.00  0.00    -0.057 A 
ATOM      3  C3  UNL d   1       1.267  -0.097  -0.791  0.00  0.00     0.033 A 
ATOM      4  C4  UNL d   1       1.318  -1.452  -0.479  0.00  0.00    -0.042 A 
ATOM      5  C5  UNL d   1       0.337  -2.003   0.338  0.00  0.00     0.033 A 
ATOM      6  C6  UNL d   1      -0.692  -1.197   0.835  0.00  0.00    -0.057 A 
ENDROOT
BRANCH   1   7
ATOM      7  N   UNL d   1      -1.768   0.933   1.132  0.00  0.00    -0.732 N 
ATOM      8  C   UNL d   1      -1.659   1.301   2.528  0.00  0.00     0.284 C 
ATOM      9  H3  UNL d   1      -2.111   1.679   0.532  0.00  0.00     0.395 HD
ENDBRANCH   1   7
TORSDOF 1
ENDMDL
