MODEL 1
REMARK minimizedAffinity -3.61524725
REMARK minimizedRMSD -1
REMARK  1 active torsions:
REMARK  status: ('A' for Active; 'I' for Inactive)
REMARK    1  A    between atoms: N_2  and  C1_3 
ROOT
ATOM      1  C1  UNL d   1       1.989  -0.917  -0.320  0.00  0.00     0.143 A 
ATOM      2  C2  UNL d   1       1.162   0.189  -0.103  0.00  0.00    -0.057 A 
ATOM      3  C3  UNL d   1      -0.196   0.032   0.201  0.00  0.00     0.033 A 
ATOM      4  C4  UNL d   1      -0.758  -1.239   0.265  0.00  0.00    -0.042 A 
ATOM      5  C5  UNL d   1       0.040  -2.352   0.028  0.00  0.00     0.033 A 
ATOM      6  C6  UNL d   1       1.397  -2.189  -0.268  0.00  0.00    -0.057 A 
ENDROOT
BRANCH   1   7
ATOM      7  N   UNL d   1       3.324  -0.824  -0.723  0.00  0.00    -0.732 N 
ATOM      8  C   UNL d   1       3.663  -0.339  -2.044  0.00  0.00     0.284 C 
ATOM      9  H3  UNL d   1       3.929  -0.473   0.016  0.00  0.00     0.395 HD
ENDBRANCH   1   7
TORSDOF 1
ENDMDL
