MODEL 1
REMARK minimizedAffinity 1.71246099
REMARK minimizedRMSD -1
REMARK  0 active torsions:
REMARK  status: ('A' for Active; 'I' for Inactive)
ROOT
ATOM      1  C   UNL d   1      -2.210   3.361  -2.045  0.00  0.00     0.023 A 
ATOM      2  C1  UNL d   1      -1.981   3.887  -3.316  0.00  0.00     0.003 A 
ATOM      3  C2  UNL d   1      -2.357   3.165  -4.451  0.00  0.00     0.048 A 
ATOM      4  C3  UNL d   1      -2.962   1.917  -4.306  0.00  0.00     0.023 A 
ATOM      5  C4  UNL d   1      -3.194   1.386  -3.036  0.00  0.00     0.048 A 
ATOM      6  C5  UNL d   1      -2.815   2.112  -1.905  0.00  0.00     0.003 A 
ATOM      7  I   UNL d   1      -3.523   0.840  -5.993  0.00  0.00    -0.146 I 
ENDROOT
TORSDOF 0
ENDMDL
