MODEL 1
REMARK minimizedAffinity -0.323045582
REMARK minimizedRMSD -1
REMARK  0 active torsions:
REMARK  status: ('A' for Active; 'I' for Inactive)
ROOT
ATOM      1  C   UNL d   1      -1.683  -2.105   3.473  0.00  0.00     0.023 A 
ATOM      2  C1  UNL d   1      -1.595  -3.489   3.625  0.00  0.00     0.003 A 
ATOM      3  C2  UNL d   1      -0.466  -4.172   3.168  0.00  0.00     0.048 A 
ATOM      4  C3  UNL d   1       0.571  -3.465   2.561  0.00  0.00     0.023 A 
ATOM      5  C4  UNL d   1       0.487  -2.081   2.407  0.00  0.00     0.048 A 
ATOM      6  C5  UNL d   1      -0.644  -1.402   2.865  0.00  0.00     0.003 A 
ATOM      7  I   UNL d   1       2.253  -4.480   1.880  0.00  0.00    -0.146 I 
ENDROOT
TORSDOF 0
ENDMDL
