MODEL 1
REMARK minimizedAffinity 1.52811921
REMARK minimizedRMSD -1
REMARK  0 active torsions:
REMARK  status: ('A' for Active; 'I' for Inactive)
ROOT
ATOM      1  C   UNL d   1      -0.572  -0.595   0.810  0.00  0.00     0.023 A 
ATOM      2  C1  UNL d   1       0.414  -1.006  -0.088  0.00  0.00     0.003 A 
ATOM      3  C2  UNL d   1       1.265  -2.062   0.243  0.00  0.00     0.048 A 
ATOM      4  C3  UNL d   1       1.124  -2.704   1.473  0.00  0.00     0.023 A 
ATOM      5  C4  UNL d   1       0.139  -2.297   2.374  0.00  0.00     0.048 A 
ATOM      6  C5  UNL d   1      -0.709  -1.239   2.039  0.00  0.00     0.003 A 
ATOM      7  I   UNL d   1       2.389  -4.277   1.968  0.00  0.00    -0.146 I 
ENDROOT
TORSDOF 0
ENDMDL
