MODEL 1
REMARK minimizedAffinity -0.423972011
REMARK minimizedRMSD -1
REMARK  0 active torsions:
REMARK  status: ('A' for Active; 'I' for Inactive)
ROOT
ATOM      1  C   UNL d   1      -1.017  -1.485   2.251  0.00  0.00     0.023 A 
ATOM      2  C1  UNL d   1      -1.434  -0.397   1.484  0.00  0.00     0.003 A 
ATOM      3  C2  UNL d   1      -0.708  -0.018   0.354  0.00  0.00     0.048 A 
ATOM      4  C3  UNL d   1       0.435  -0.732  -0.005  0.00  0.00     0.023 A 
ATOM      5  C4  UNL d   1       0.856  -1.822   0.758  0.00  0.00     0.048 A 
ATOM      6  C5  UNL d   1       0.127  -2.196   1.889  0.00  0.00     0.003 A 
ATOM      7  I   UNL d   1       1.517  -0.171  -1.688  0.00  0.00    -0.146 I 
ENDROOT
TORSDOF 0
ENDMDL
