MODEL 1
REMARK minimizedAffinity -2.32952952
REMARK minimizedRMSD -1
REMARK  0 active torsions:
REMARK  status: ('A' for Active; 'I' for Inactive)
ROOT
ATOM      1  C   UNL d   1       0.568  -2.567   2.525  0.00  0.00     0.023 A 
ATOM      2  C1  UNL d   1       1.241  -3.086   1.419  0.00  0.00     0.003 A 
ATOM      3  C2  UNL d   1       1.088  -2.491   0.165  0.00  0.00     0.048 A 
ATOM      4  C3  UNL d   1       0.262  -1.377   0.024  0.00  0.00     0.023 A 
ATOM      5  C4  UNL d   1      -0.413  -0.854   1.129  0.00  0.00     0.048 A 
ATOM      6  C5  UNL d   1      -0.258  -1.452   2.380  0.00  0.00     0.003 A 
ATOM      7  I   UNL d   1       0.032  -0.490  -1.841  0.00  0.00    -0.146 I 
ENDROOT
TORSDOF 0
ENDMDL
