MODEL 1
REMARK minimizedAffinity 1.70771706
REMARK minimizedRMSD -1
REMARK  0 active torsions:
REMARK  status: ('A' for Active; 'I' for Inactive)
ROOT
ATOM      1  C   UNL d   1      -0.290   5.917   5.917  0.00  0.00     0.023 A 
ATOM      2  C1  UNL d   1      -0.995   5.326   4.868  0.00  0.00     0.003 A 
ATOM      3  C2  UNL d   1      -0.310   4.818   3.763  0.00  0.00     0.048 A 
ATOM      4  C3  UNL d   1       1.081   4.903   3.713  0.00  0.00     0.023 A 
ATOM      5  C4  UNL d   1       1.791   5.492   4.761  0.00  0.00     0.048 A 
ATOM      6  C5  UNL d   1       1.101   6.000   5.864  0.00  0.00     0.003 A 
ATOM      7  I   UNL d   1       2.105   4.148   2.069  0.00  0.00    -0.146 I 
ENDROOT
TORSDOF 0
ENDMDL
