MODEL 1
REMARK minimizedAffinity 5.21085835
REMARK minimizedRMSD -1
REMARK  0 active torsions:
REMARK  status: ('A' for Active; 'I' for Inactive)
ROOT
ATOM      1  C   UNL d   1      -3.079  -0.378   2.459  0.00  0.00     0.023 A 
ATOM      2  C1  UNL d   1      -1.830   0.130   2.817  0.00  0.00     0.003 A 
ATOM      3  C2  UNL d   1      -0.764   0.064   1.918  0.00  0.00     0.048 A 
ATOM      4  C3  UNL d   1      -0.953  -0.511   0.662  0.00  0.00     0.023 A 
ATOM      5  C4  UNL d   1      -2.201  -1.020   0.298  0.00  0.00     0.048 A 
ATOM      6  C5  UNL d   1      -3.264  -0.952   1.201  0.00  0.00     0.003 A 
ATOM      7  I   UNL d   1       0.632  -0.611  -0.679  0.00  0.00    -0.146 I 
ENDROOT
TORSDOF 0
ENDMDL
