MODEL 1
REMARK minimizedAffinity 1.54335737
REMARK minimizedRMSD -1
REMARK  0 active torsions:
REMARK  status: ('A' for Active; 'I' for Inactive)
ROOT
ATOM      1  C   UNL d   1      -2.309  -0.148   1.868  0.00  0.00     0.023 A 
ATOM      2  C1  UNL d   1      -1.181  -0.698   2.477  0.00  0.00     0.003 A 
ATOM      3  C2  UNL d   1      -0.015  -0.902   1.736  0.00  0.00     0.048 A 
ATOM      4  C3  UNL d   1       0.016  -0.553   0.387  0.00  0.00     0.023 A 
ATOM      5  C4  UNL d   1      -1.110  -0.001  -0.227  0.00  0.00     0.048 A 
ATOM      6  C5  UNL d   1      -2.273   0.200   0.518  0.00  0.00     0.003 A 
ATOM      7  I   UNL d   1       1.750  -0.856  -0.719  0.00  0.00    -0.146 I 
ENDROOT
TORSDOF 0
ENDMDL
