MODEL 1
REMARK minimizedAffinity 5.38050079
REMARK minimizedRMSD -1
REMARK  0 active torsions:
REMARK  status: ('A' for Active; 'I' for Inactive)
ROOT
ATOM      1  C   UNL d   1      -1.300   5.664  -4.362  0.00  0.00     0.172 C 
ATOM      2  N   UNL d   1       0.095   5.761  -4.723  0.00  0.00    -0.070 N 
ATOM      3  C1  UNL d   1       1.152   5.670  -3.857  0.00  0.00    -0.004 A 
ATOM      4  C2  UNL d   1       2.311   5.812  -4.589  0.00  0.00    -0.047 A 
ATOM      5  C3  UNL d   1       1.938   5.997  -5.941  0.00  0.00    -0.047 A 
ATOM      6  C4  UNL d   1       0.560   5.961  -5.996  0.00  0.00    -0.004 A 
ENDROOT
TORSDOF 0
ENDMDL
