MODEL 1
REMARK minimizedAffinity 5.5704031
REMARK minimizedRMSD -1
REMARK  0 active torsions:
REMARK  status: ('A' for Active; 'I' for Inactive)
ROOT
ATOM      1  C   UNL d   1      -0.292   3.979  -4.009  0.00  0.00     0.172 C 
ATOM      2  N   UNL d   1      -0.397   3.594  -2.621  0.00  0.00    -0.070 N 
ATOM      3  C1  UNL d   1      -1.563   3.356  -1.945  0.00  0.00    -0.004 A 
ATOM      4  C2  UNL d   1      -1.238   3.016  -0.650  0.00  0.00    -0.047 A 
ATOM      5  C3  UNL d   1       0.172   3.052  -0.543  0.00  0.00    -0.047 A 
ATOM      6  C4  UNL d   1       0.668   3.414  -1.778  0.00  0.00    -0.004 A 
ENDROOT
TORSDOF 0
ENDMDL
