MODEL 1
REMARK minimizedAffinity 10.3640938
REMARK minimizedRMSD -1
REMARK  0 active torsions:
REMARK  status: ('A' for Active; 'I' for Inactive)
ROOT
ATOM      1  C   UNL d   1       2.729   5.993  -3.825  0.00  0.00     0.172 C 
ATOM      2  N   UNL d   1       1.376   5.757  -4.271  0.00  0.00    -0.070 N 
ATOM      3  C1  UNL d   1       0.897   5.997  -5.531  0.00  0.00    -0.004 A 
ATOM      4  C2  UNL d   1      -0.434   5.642  -5.552  0.00  0.00    -0.047 A 
ATOM      5  C3  UNL d   1      -0.768   5.174  -4.259  0.00  0.00    -0.047 A 
ATOM      6  C4  UNL d   1       0.371   5.256  -3.486  0.00  0.00    -0.004 A 
ENDROOT
TORSDOF 0
ENDMDL
