MODEL 1
REMARK minimizedAffinity 7.70183086
REMARK minimizedRMSD -1
REMARK  0 active torsions:
REMARK  status: ('A' for Active; 'I' for Inactive)
ROOT
ATOM      1  C   UNL d   1       0.740   3.471  -0.894  0.00  0.00     0.172 C 
ATOM      2  N   UNL d   1      -0.017   2.838   0.160  0.00  0.00    -0.070 N 
ATOM      3  C1  UNL d   1      -1.382   2.783   0.241  0.00  0.00    -0.004 A 
ATOM      4  C2  UNL d   1      -1.710   2.095   1.389  0.00  0.00    -0.047 A 
ATOM      5  C3  UNL d   1      -0.499   1.724   2.021  0.00  0.00    -0.047 A 
ATOM      6  C4  UNL d   1       0.533   2.196   1.239  0.00  0.00    -0.004 A 
ENDROOT
TORSDOF 0
ENDMDL
