MODEL 1
REMARK minimizedAffinity 9.33579254
REMARK minimizedRMSD -1
REMARK  0 active torsions:
REMARK  status: ('A' for Active; 'I' for Inactive)
ROOT
ATOM      1  C   UNL d   1      -2.408   2.693  -3.411  0.00  0.00     0.172 C 
ATOM      2  N   UNL d   1      -1.243   2.908  -2.585  0.00  0.00    -0.070 N 
ATOM      3  C1  UNL d   1      -1.122   2.556  -1.267  0.00  0.00    -0.004 A 
ATOM      4  C2  UNL d   1       0.135   2.929  -0.844  0.00  0.00    -0.047 A 
ATOM      5  C3  UNL d   1       0.793   3.526  -1.946  0.00  0.00    -0.047 A 
ATOM      6  C4  UNL d   1      -0.083   3.500  -3.011  0.00  0.00    -0.004 A 
ENDROOT
TORSDOF 0
ENDMDL
