MODEL 1
REMARK minimizedAffinity 9.64673615
REMARK minimizedRMSD -1
REMARK  0 active torsions:
REMARK  status: ('A' for Active; 'I' for Inactive)
ROOT
ATOM      1  C   UNL d   1      -5.872   5.985  -1.039  0.00  0.00     0.172 C 
ATOM      2  N   UNL d   1      -5.257   5.989   0.267  0.00  0.00    -0.070 N 
ATOM      3  C1  UNL d   1      -3.910   5.994   0.515  0.00  0.00    -0.004 A 
ATOM      4  C2  UNL d   1      -3.732   5.998   1.882  0.00  0.00    -0.047 A 
ATOM      5  C3  UNL d   1      -5.017   5.995   2.476  0.00  0.00    -0.047 A 
ATOM      6  C4  UNL d   1      -5.942   5.990   1.454  0.00  0.00    -0.004 A 
ENDROOT
TORSDOF 0
ENDMDL
