MODEL 1
REMARK minimizedAffinity 4.89749384
REMARK minimizedRMSD -1
REMARK  0 active torsions:
REMARK  status: ('A' for Active; 'I' for Inactive)
ROOT
ATOM      1  C   UNL d   1       1.324  -2.895  -2.338  0.00  0.00     0.172 C 
ATOM      2  N   UNL d   1       1.432  -2.467  -3.713  0.00  0.00    -0.070 N 
ATOM      3  C1  UNL d   1       2.028  -1.313  -4.145  0.00  0.00    -0.004 A 
ATOM      4  C2  UNL d   1       1.923  -1.272  -5.519  0.00  0.00    -0.047 A 
ATOM      5  C3  UNL d   1       1.239  -2.442  -5.926  0.00  0.00    -0.047 A 
ATOM      6  C4  UNL d   1       0.946  -3.164  -4.788  0.00  0.00    -0.004 A 
ENDROOT
TORSDOF 0
ENDMDL
