MODEL 1
REMARK minimizedAffinity 9.9530468
REMARK minimizedRMSD -1
REMARK  0 active torsions:
REMARK  status: ('A' for Active; 'I' for Inactive)
ROOT
ATOM      1  C   UNL d   1      -5.378   5.827  -0.314  0.00  0.00     0.172 C 
ATOM      2  N   UNL d   1      -5.078   5.891   1.097  0.00  0.00    -0.070 N 
ATOM      3  C1  UNL d   1      -6.000   5.903   2.110  0.00  0.00    -0.004 A 
ATOM      4  C2  UNL d   1      -5.314   5.969   3.304  0.00  0.00    -0.047 A 
ATOM      5  C3  UNL d   1      -3.933   5.999   2.998  0.00  0.00    -0.047 A 
ATOM      6  C4  UNL d   1      -3.815   5.949   1.625  0.00  0.00    -0.004 A 
ENDROOT
TORSDOF 0
ENDMDL
