MODEL 1
REMARK minimizedAffinity 7.01896048
REMARK minimizedRMSD -1
REMARK  0 active torsions:
REMARK  status: ('A' for Active; 'I' for Inactive)
ROOT
ATOM      1  C   UNL d   1       1.442  -2.982  -2.435  0.00  0.00     0.172 C 
ATOM      2  N   UNL d   1       1.489  -2.543  -3.810  0.00  0.00    -0.070 N 
ATOM      3  C1  UNL d   1       0.846  -3.140  -4.861  0.00  0.00    -0.004 A 
ATOM      4  C2  UNL d   1       1.142  -2.422  -5.999  0.00  0.00    -0.047 A 
ATOM      5  C3  UNL d   1       1.995  -1.359  -5.620  0.00  0.00    -0.047 A 
ATOM      6  C4  UNL d   1       2.193  -1.457  -4.259  0.00  0.00    -0.004 A 
ENDROOT
TORSDOF 0
ENDMDL
