MODEL 1
REMARK minimizedAffinity 5.8131423
REMARK minimizedRMSD -1
REMARK  0 active torsions:
REMARK  status: ('A' for Active; 'I' for Inactive)
ROOT
ATOM      1  C   UNL d   1       1.158  -2.992  -2.404  0.00  0.00     0.172 C 
ATOM      2  N   UNL d   1       1.344  -2.609  -3.784  0.00  0.00    -0.070 N 
ATOM      3  C1  UNL d   1       2.135  -1.584  -4.229  0.00  0.00    -0.004 A 
ATOM      4  C2  UNL d   1       2.043  -1.545  -5.603  0.00  0.00    -0.047 A 
ATOM      5  C3  UNL d   1       1.166  -2.583  -5.998  0.00  0.00    -0.047 A 
ATOM      6  C4  UNL d   1       0.748  -3.226  -4.852  0.00  0.00    -0.004 A 
ENDROOT
TORSDOF 0
ENDMDL
