MODEL 1
REMARK minimizedAffinity 2.85937309
REMARK minimizedRMSD -1
REMARK  0 active torsions:
REMARK  status: ('A' for Active; 'I' for Inactive)
ROOT
ATOM      1  C   UNL d   1      -5.280   5.992   3.913  0.00  0.00     0.172 C 
ATOM      2  N   UNL d   1      -4.862   5.989   2.530  0.00  0.00    -0.070 N 
ATOM      3  C1  UNL d   1      -5.695   5.974   1.444  0.00  0.00    -0.004 A 
ATOM      4  C2  UNL d   1      -4.912   5.977   0.311  0.00  0.00    -0.047 A 
ATOM      5  C3  UNL d   1      -3.560   5.993   0.730  0.00  0.00    -0.047 A 
ATOM      6  C4  UNL d   1      -3.558   6.000   2.109  0.00  0.00    -0.004 A 
ENDROOT
TORSDOF 0
ENDMDL
