MODEL 1
REMARK minimizedAffinity 7.01103258
REMARK minimizedRMSD -1
REMARK  0 active torsions:
REMARK  status: ('A' for Active; 'I' for Inactive)
ROOT
ATOM      1  C   UNL d   1       4.512  -2.956  -5.612  0.00  0.00     0.172 C 
ATOM      2  N   UNL d   1       3.209  -2.354  -5.768  0.00  0.00    -0.070 N 
ATOM      3  C1  UNL d   1       2.022  -3.030  -5.850  0.00  0.00    -0.004 A 
ATOM      4  C2  UNL d   1       1.015  -2.100  -5.993  0.00  0.00    -0.047 A 
ATOM      5  C3  UNL d   1       1.619  -0.820  -5.999  0.00  0.00    -0.047 A 
ATOM      6  C4  UNL d   1       2.978  -1.007  -5.858  0.00  0.00    -0.004 A 
ENDROOT
TORSDOF 0
ENDMDL
