MODEL 1
REMARK minimizedAffinity 6.007936
REMARK minimizedRMSD -1
REMARK  0 active torsions:
REMARK  status: ('A' for Active; 'I' for Inactive)
ROOT
ATOM      1  C   UNL d   1       4.478  -2.635  -5.953  0.00  0.00     0.172 C 
ATOM      2  N   UNL d   1       3.103  -2.194  -5.972  0.00  0.00    -0.070 N 
ATOM      3  C1  UNL d   1       2.683  -0.891  -5.982  0.00  0.00    -0.004 A 
ATOM      4  C2  UNL d   1       1.305  -0.892  -6.000  0.00  0.00    -0.047 A 
ATOM      5  C3  UNL d   1       0.882  -2.243  -6.000  0.00  0.00    -0.047 A 
ATOM      6  C4  UNL d   1       2.016  -3.027  -5.982  0.00  0.00    -0.004 A 
ENDROOT
TORSDOF 0
ENDMDL
