MODEL 1
REMARK minimizedAffinity 4.66262102
REMARK minimizedRMSD -1
REMARK  0 active torsions:
REMARK  status: ('A' for Active; 'I' for Inactive)
ROOT
ATOM      1  C   UNL d   1      -1.483   1.691   0.379  0.00  0.00     0.172 C 
ATOM      2  N   UNL d   1      -0.784   2.664  -0.427  0.00  0.00    -0.070 N 
ATOM      3  C1  UNL d   1      -1.347   3.453  -1.394  0.00  0.00    -0.004 A 
ATOM      4  C2  UNL d   1      -0.352   4.243  -1.928  0.00  0.00    -0.047 A 
ATOM      5  C3  UNL d   1       0.852   3.917  -1.259  0.00  0.00    -0.047 A 
ATOM      6  C4  UNL d   1       0.555   2.937  -0.335  0.00  0.00    -0.004 A 
ENDROOT
TORSDOF 0
ENDMDL
