MODEL 1
REMARK minimizedAffinity 6.36121559
REMARK minimizedRMSD -1
REMARK  0 active torsions:
REMARK  status: ('A' for Active; 'I' for Inactive)
ROOT
ATOM      1  C   UNL d   1       1.471  -2.676  -2.548  0.00  0.00     0.172 C 
ATOM      2  N   UNL d   1       1.689  -2.571  -1.124  0.00  0.00    -0.070 N 
ATOM      3  C1  UNL d   1       1.829  -1.403  -0.422  0.00  0.00    -0.004 A 
ATOM      4  C2  UNL d   1       2.019  -1.729   0.903  0.00  0.00    -0.047 A 
ATOM      5  C3  UNL d   1       1.995  -3.140   1.001  0.00  0.00    -0.047 A 
ATOM      6  C4  UNL d   1       1.789  -3.636  -0.269  0.00  0.00    -0.004 A 
ENDROOT
TORSDOF 0
ENDMDL
