MODEL 1
REMARK minimizedAffinity 4.1946435
REMARK minimizedRMSD -1
REMARK  0 active torsions:
REMARK  status: ('A' for Active; 'I' for Inactive)
ROOT
ATOM      1  C   UNL d   1      -0.342   1.992   0.667  0.00  0.00     0.172 C 
ATOM      2  N   UNL d   1      -0.112   3.203  -0.085  0.00  0.00    -0.070 N 
ATOM      3  C1  UNL d   1       0.300   3.267  -1.389  0.00  0.00    -0.004 A 
ATOM      4  C2  UNL d   1       0.400   4.597  -1.736  0.00  0.00    -0.047 A 
ATOM      5  C3  UNL d   1       0.036   5.359  -0.600  0.00  0.00    -0.047 A 
ATOM      6  C4  UNL d   1      -0.277   4.471   0.407  0.00  0.00    -0.004 A 
ENDROOT
TORSDOF 0
ENDMDL
