MODEL 1
REMARK minimizedAffinity 9.72484016
REMARK minimizedRMSD -1
REMARK  0 active torsions:
REMARK  status: ('A' for Active; 'I' for Inactive)
ROOT
ATOM      1  C   UNL d   1       1.471  -1.902   0.523  0.00  0.00     0.172 C 
ATOM      2  N   UNL d   1       1.316  -2.817  -0.584  0.00  0.00    -0.070 N 
ATOM      3  C1  UNL d   1       0.777  -2.509  -1.804  0.00  0.00    -0.004 A 
ATOM      4  C2  UNL d   1       0.809  -3.648  -2.580  0.00  0.00    -0.047 A 
ATOM      5  C3  UNL d   1       1.387  -4.676  -1.798  0.00  0.00    -0.047 A 
ATOM      6  C4  UNL d   1       1.692  -4.134  -0.567  0.00  0.00    -0.004 A 
ENDROOT
TORSDOF 0
ENDMDL
