MODEL 1
REMARK minimizedAffinity 6.8231473
REMARK minimizedRMSD -1
REMARK  0 active torsions:
REMARK  status: ('A' for Active; 'I' for Inactive)
ROOT
ATOM      1  C   UNL d   1      -1.056   3.865  -3.250  0.00  0.00     0.172 C 
ATOM      2  N   UNL d   1      -0.458   4.028  -1.946  0.00  0.00    -0.070 N 
ATOM      3  C1  UNL d   1       0.035   5.198  -1.434  0.00  0.00    -0.004 A 
ATOM      4  C2  UNL d   1       0.516   4.936  -0.170  0.00  0.00    -0.047 A 
ATOM      5  C3  UNL d   1       0.306   3.561   0.087  0.00  0.00    -0.047 A 
ATOM      6  C4  UNL d   1      -0.299   3.022  -1.029  0.00  0.00    -0.004 A 
ENDROOT
TORSDOF 0
ENDMDL
