MODEL 1
REMARK minimizedAffinity 15.878212
REMARK minimizedRMSD -1
REMARK  0 active torsions:
REMARK  status: ('A' for Active; 'I' for Inactive)
ROOT
ATOM      1  O1  BZF d   1      -2.851   5.755  -2.965  0.00  0.00    -0.204 OA
ATOM      2  C2  BZF d   1      -3.265   5.529  -1.667  0.00  0.00     0.174 A 
ATOM      3  C3  BZF d   1      -2.206   5.383  -0.845  0.00  0.00    -0.012 A 
ATOM      4  C3A BZF d   1      -1.058   5.619  -1.666  0.00  0.00    -0.107 A 
ATOM      5  C4  BZF d   1       0.285   5.632  -1.419  0.00  0.00     0.055 A 
ATOM      6  C5  BZF d   1       1.145   5.824  -2.455  0.00  0.00    -0.016 A 
ATOM      7  C6  BZF d   1       0.697   6.000  -3.747  0.00  0.00     0.022 A 
ATOM      8  C7  BZF d   1      -0.627   5.999  -4.040  0.00  0.00     0.029 A 
ATOM      9  C7A BZF d   1      -1.499   5.839  -2.991  0.00  0.00     0.058 A 
ENDROOT
TORSDOF 0
ENDMDL
