MODEL 1
REMARK minimizedAffinity 20.063303
REMARK minimizedRMSD -1
REMARK  0 active torsions:
REMARK  status: ('A' for Active; 'I' for Inactive)
ROOT
ATOM      1  O1  BZF d   1       1.723   4.746   0.135  0.00  0.00    -0.204 OA
ATOM      2  C2  BZF d   1       0.682   3.941  -0.286  0.00  0.00     0.174 A 
ATOM      3  C3  BZF d   1       0.606   2.826   0.468  0.00  0.00    -0.012 A 
ATOM      4  C3A BZF d   1       1.608   2.984   1.477  0.00  0.00    -0.107 A 
ATOM      5  C4  BZF d   1       2.008   2.214   2.532  0.00  0.00     0.055 A 
ATOM      6  C5  BZF d   1       3.065   2.621   3.283  0.00  0.00    -0.016 A 
ATOM      7  C6  BZF d   1       3.747   3.787   3.005  0.00  0.00     0.022 A 
ATOM      8  C7  BZF d   1       3.384   4.586   1.972  0.00  0.00     0.029 A 
ATOM      9  C7A BZF d   1       2.295   4.195   1.232  0.00  0.00     0.058 A 
ENDROOT
TORSDOF 0
ENDMDL
