MODEL 1
REMARK minimizedAffinity 8.87363052
REMARK minimizedRMSD -1
REMARK  0 active torsions:
REMARK  status: ('A' for Active; 'I' for Inactive)
ROOT
ATOM      1  O1  BZF d   1      -0.409  -4.084  -2.101  0.00  0.00    -0.204 OA
ATOM      2  C2  BZF d   1       0.802  -4.750  -2.086  0.00  0.00     0.174 A 
ATOM      3  C3  BZF d   1       1.819  -3.890  -1.880  0.00  0.00    -0.012 A 
ATOM      4  C3A BZF d   1       1.199  -2.618  -1.666  0.00  0.00    -0.107 A 
ATOM      5  C4  BZF d   1       1.684  -1.371  -1.395  0.00  0.00     0.055 A 
ATOM      6  C5  BZF d   1       0.817  -0.327  -1.316  0.00  0.00    -0.016 A 
ATOM      7  C6  BZF d   1      -0.539  -0.494  -1.508  0.00  0.00     0.022 A 
ATOM      8  C7  BZF d   1      -1.068  -1.714  -1.774  0.00  0.00     0.029 A 
ATOM      9  C7A BZF d   1      -0.198  -2.775  -1.822  0.00  0.00     0.058 A 
ENDROOT
TORSDOF 0
ENDMDL
