MODEL 1
REMARK minimizedAffinity 17.4713726
REMARK minimizedRMSD -1
REMARK  0 active torsions:
REMARK  status: ('A' for Active; 'I' for Inactive)
ROOT
ATOM      1  O1  BZF d   1       2.391   1.723   4.908  0.00  0.00    -0.204 OA
ATOM      2  C2  BZF d   1       3.620   1.848   4.288  0.00  0.00     0.174 A 
ATOM      3  C3  BZF d   1       3.989   0.683   3.718  0.00  0.00    -0.012 A 
ATOM      4  C3A BZF d   1       2.883  -0.201   3.919  0.00  0.00    -0.107 A 
ATOM      5  C4  BZF d   1       2.641  -1.498   3.565  0.00  0.00     0.055 A 
ATOM      6  C5  BZF d   1       1.491  -2.092   3.979  0.00  0.00    -0.016 A 
ATOM      7  C6  BZF d   1       0.564  -1.423   4.750  0.00  0.00     0.022 A 
ATOM      8  C7  BZF d   1       0.757  -0.134   5.122  0.00  0.00     0.029 A 
ATOM      9  C7A BZF d   1       1.903   0.480   4.678  0.00  0.00     0.058 A 
ENDROOT
TORSDOF 0
ENDMDL
