MODEL 1
REMARK minimizedAffinity 11.125453
REMARK minimizedRMSD -1
REMARK  0 active torsions:
REMARK  status: ('A' for Active; 'I' for Inactive)
ROOT
ATOM      1  O1  BZF d   1       2.958   4.988   2.151  0.00  0.00    -0.204 OA
ATOM      2  C2  BZF d   1       3.128   3.862   2.934  0.00  0.00     0.174 A 
ATOM      3  C3  BZF d   1       2.166   2.952   2.679  0.00  0.00    -0.012 A 
ATOM      4  C3A BZF d   1       1.397   3.507   1.608  0.00  0.00    -0.107 A 
ATOM      5  C4  BZF d   1       0.313   3.067   0.904  0.00  0.00     0.055 A 
ATOM      6  C5  BZF d   1      -0.243   3.882  -0.030  0.00  0.00    -0.016 A 
ATOM      7  C6  BZF d   1       0.254   5.144  -0.282  0.00  0.00     0.022 A 
ATOM      8  C7  BZF d   1       1.330   5.623   0.388  0.00  0.00     0.029 A 
ATOM      9  C7A BZF d   1       1.915   4.789   1.309  0.00  0.00     0.058 A 
ENDROOT
TORSDOF 0
ENDMDL
