MODEL 1
REMARK minimizedAffinity 9.93669796
REMARK minimizedRMSD -1
REMARK  0 active torsions:
REMARK  status: ('A' for Active; 'I' for Inactive)
ROOT
ATOM      1  O1  BZF d   1       2.614   4.194   2.385  0.00  0.00    -0.204 OA
ATOM      2  C2  BZF d   1       3.224   5.406   2.123  0.00  0.00     0.174 A 
ATOM      3  C3  BZF d   1       2.665   6.000   1.049  0.00  0.00    -0.012 A 
ATOM      4  C3A BZF d   1       1.581   5.147   0.668  0.00  0.00    -0.107 A 
ATOM      5  C4  BZF d   1       0.640   5.209  -0.320  0.00  0.00     0.055 A 
ATOM      6  C5  BZF d   1      -0.232   4.177  -0.466  0.00  0.00    -0.016 A 
ATOM      7  C6  BZF d   1      -0.189   3.068   0.353  0.00  0.00     0.022 A 
ATOM      8  C7  BZF d   1       0.723   2.964   1.350  0.00  0.00     0.029 A 
ATOM      9  C7A BZF d   1       1.585   4.019   1.521  0.00  0.00     0.058 A 
ENDROOT
TORSDOF 0
ENDMDL
