MODEL 1
REMARK minimizedAffinity 5.79892397
REMARK minimizedRMSD -1
REMARK  0 active torsions:
REMARK  status: ('A' for Active; 'I' for Inactive)
ROOT
ATOM      1  O1  BZF d   1       5.523  -2.541  -3.425  0.00  0.00    -0.204 OA
ATOM      2  C2  BZF d   1       6.000  -1.764  -2.387  0.00  0.00     0.174 A 
ATOM      3  C3  BZF d   1       5.972  -2.449  -1.225  0.00  0.00    -0.012 A 
ATOM      4  C3A BZF d   1       5.531  -3.765  -1.574  0.00  0.00    -0.107 A 
ATOM      5  C4  BZF d   1       5.318  -4.905  -0.854  0.00  0.00     0.055 A 
ATOM      6  C5  BZF d   1       4.817  -6.000  -1.483  0.00  0.00    -0.016 A 
ATOM      7  C6  BZF d   1       4.513  -5.988  -2.829  0.00  0.00     0.022 A 
ATOM      8  C7  BZF d   1       4.712  -4.881  -3.586  0.00  0.00     0.029 A 
ATOM      9  C7A BZF d   1       5.249  -3.784  -2.959  0.00  0.00     0.058 A 
ENDROOT
TORSDOF 0
ENDMDL
