MODEL 1
REMARK minimizedAffinity 16.2203007
REMARK minimizedRMSD -1
REMARK  0 active torsions:
REMARK  status: ('A' for Active; 'I' for Inactive)
ROOT
ATOM      1  O1  BZF d   1       2.748   3.845   2.181  0.00  0.00    -0.204 OA
ATOM      2  C2  BZF d   1       3.415   5.049   2.293  0.00  0.00     0.174 A 
ATOM      3  C3  BZF d   1       2.859   5.981   1.492  0.00  0.00    -0.012 A 
ATOM      4  C3A BZF d   1       1.720   5.343   0.908  0.00  0.00    -0.107 A 
ATOM      5  C4  BZF d   1       0.755   5.759   0.036  0.00  0.00     0.055 A 
ATOM      6  C5  BZF d   1      -0.177   4.868  -0.393  0.00  0.00    -0.016 A 
ATOM      7  C6  BZF d   1      -0.171   3.553   0.024  0.00  0.00     0.022 A 
ATOM      8  C7  BZF d   1       0.763   3.095   0.893  0.00  0.00     0.029 A 
ATOM      9  C7A BZF d   1       1.686   4.001   1.354  0.00  0.00     0.058 A 
ENDROOT
TORSDOF 0
ENDMDL
