MODEL 1
REMARK minimizedAffinity 19.1515179
REMARK minimizedRMSD -1
REMARK  0 active torsions:
REMARK  status: ('A' for Active; 'I' for Inactive)
ROOT
ATOM      1  O1  BZF d   1       5.662  -4.005  -3.974  0.00  0.00    -0.204 OA
ATOM      2  C2  BZF d   1       5.803  -2.968  -4.876  0.00  0.00     0.174 A 
ATOM      3  C3  BZF d   1       5.893  -1.785  -4.235  0.00  0.00    -0.012 A 
ATOM      4  C3A BZF d   1       5.895  -2.111  -2.842  0.00  0.00    -0.107 A 
ATOM      5  C4  BZF d   1       5.979  -1.362  -1.702  0.00  0.00     0.055 A 
ATOM      6  C5  BZF d   1       5.879  -1.981  -0.497  0.00  0.00    -0.016 A 
ATOM      7  C6  BZF d   1       5.689  -3.344  -0.393  0.00  0.00     0.022 A 
ATOM      8  C7  BZF d   1       5.605  -4.129  -1.495  0.00  0.00     0.029 A 
ATOM      9  C7A BZF d   1       5.739  -3.511  -2.715  0.00  0.00     0.058 A 
ENDROOT
TORSDOF 0
ENDMDL
