MODEL 1
REMARK minimizedAffinity -2.07081103
REMARK minimizedRMSD -1
REMARK  1 active torsions:
REMARK  status: ('A' for Active; 'I' for Inactive)
REMARK    1  A    between atoms: C3_4  and  O_7 
ROOT
ATOM      1  C   UNL d   1      -0.974  -2.352   0.654  0.00  0.00    -0.033 A 
ATOM      2  C1  UNL d   1      -0.802  -1.875  -0.647  0.00  0.00     0.039 A 
ATOM      3  C2  UNL d   1      -0.259  -0.607  -0.861  0.00  0.00    -0.080 A 
ATOM      4  C3  UNL d   1       0.109   0.173   0.232  0.00  0.00     0.150 A 
ATOM      5  C4  UNL d   1      -0.057  -0.298   1.531  0.00  0.00    -0.007 A 
ATOM      6  C5  UNL d   1      -0.600  -1.564   1.743  0.00  0.00     0.039 A 
ENDROOT
BRANCH   4   7
ATOM      7  O   UNL d   1       0.638   1.419   0.074  0.00  0.00    -0.526 OA
ATOM      8  H5  UNL d   1       0.667   1.622  -0.876  0.00  0.00     0.418 HD
ENDBRANCH   4   7
TORSDOF 1
ENDMDL
