MODEL 1
REMARK minimizedAffinity -1.87214804
REMARK minimizedRMSD -1
REMARK  1 active torsions:
REMARK  status: ('A' for Active; 'I' for Inactive)
REMARK    1  A    between atoms: C3_4  and  O_7 
ROOT
ATOM      1  C   UNL d   1       2.225   3.556   0.476  0.00  0.00    -0.033 A 
ATOM      2  C1  UNL d   1       2.313   2.550  -0.488  0.00  0.00     0.039 A 
ATOM      3  C2  UNL d   1       1.459   1.448  -0.430  0.00  0.00    -0.080 A 
ATOM      4  C3  UNL d   1       0.521   1.364   0.595  0.00  0.00     0.150 A 
ATOM      5  C4  UNL d   1       0.424   2.364   1.557  0.00  0.00    -0.007 A 
ATOM      6  C5  UNL d   1       1.279   3.464   1.498  0.00  0.00     0.039 A 
ENDROOT
BRANCH   4   7
ATOM      7  O   UNL d   1      -0.332   0.305   0.696  0.00  0.00    -0.526 OA
ATOM      8  H5  UNL d   1      -0.131  -0.321  -0.019  0.00  0.00     0.418 HD
ENDBRANCH   4   7
TORSDOF 1
ENDMDL
