MODEL 1
REMARK minimizedAffinity -1.23696959
REMARK minimizedRMSD -1
REMARK  1 active torsions:
REMARK  status: ('A' for Active; 'I' for Inactive)
REMARK    1  A    between atoms: C3_4  and  O_7 
ROOT
ATOM      1  C   UNL d   1       2.211   4.364   0.551  0.00  0.00    -0.033 A 
ATOM      2  C1  UNL d   1       1.132   4.000   1.359  0.00  0.00     0.039 A 
ATOM      3  C2  UNL d   1       0.277   2.969   0.964  0.00  0.00    -0.080 A 
ATOM      4  C3  UNL d   1       0.512   2.311  -0.241  0.00  0.00     0.150 A 
ATOM      5  C4  UNL d   1       1.587   2.666  -1.049  0.00  0.00    -0.007 A 
ATOM      6  C5  UNL d   1       2.439   3.696  -0.653  0.00  0.00     0.039 A 
ENDROOT
BRANCH   4   7
ATOM      7  O   UNL d   1      -0.298   1.303  -0.671  0.00  0.00    -0.526 OA
ATOM      8  H5  UNL d   1      -1.015   1.186  -0.025  0.00  0.00     0.418 HD
ENDBRANCH   4   7
TORSDOF 1
ENDMDL
