MODEL 1
REMARK minimizedAffinity -1.00878644
REMARK minimizedRMSD -1
REMARK  1 active torsions:
REMARK  status: ('A' for Active; 'I' for Inactive)
REMARK    1  A    between atoms: C3_4  and  O_7 
ROOT
ATOM      1  C   UNL d   1      -0.144   0.214   0.082  0.00  0.00    -0.033 A 
ATOM      2  C1  UNL d   1       0.950   0.318   0.943  0.00  0.00     0.039 A 
ATOM      3  C2  UNL d   1       1.657   1.519   1.035  0.00  0.00    -0.080 A 
ATOM      4  C3  UNL d   1       1.259   2.607   0.263  0.00  0.00     0.150 A 
ATOM      5  C4  UNL d   1       0.167   2.512  -0.594  0.00  0.00    -0.007 A 
ATOM      6  C5  UNL d   1      -0.537   1.311  -0.685  0.00  0.00     0.039 A 
ENDROOT
BRANCH   4   7
ATOM      7  O   UNL d   1       1.920   3.798   0.315  0.00  0.00    -0.526 OA
ATOM      8  H5  UNL d   1       2.669   3.707   0.928  0.00  0.00     0.418 HD
ENDBRANCH   4   7
TORSDOF 1
ENDMDL
