MODEL 1
REMARK minimizedAffinity -3.370471
REMARK minimizedRMSD -1
REMARK  1 active torsions:
REMARK  status: ('A' for Active; 'I' for Inactive)
REMARK    1  A    between atoms: C3_4  and  O_7 
ROOT
ATOM      1  C   UNL d   1      -0.802  -0.466   1.496  0.00  0.00    -0.033 A 
ATOM      2  C1  UNL d   1      -0.259   0.433   0.576  0.00  0.00     0.039 A 
ATOM      3  C2  UNL d   1       0.022   0.017  -0.727  0.00  0.00    -0.080 A 
ATOM      4  C3  UNL d   1      -0.244  -1.298  -1.097  0.00  0.00     0.150 A 
ATOM      5  C4  UNL d   1      -0.789  -2.198  -0.186  0.00  0.00    -0.007 A 
ATOM      6  C5  UNL d   1      -1.068  -1.781   1.114  0.00  0.00     0.039 A 
ENDROOT
BRANCH   4   7
ATOM      7  O   UNL d   1       0.018  -1.752  -2.355  0.00  0.00    -0.526 OA
ATOM      8  H5  UNL d   1       0.418  -1.028  -2.866  0.00  0.00     0.418 HD
ENDBRANCH   4   7
TORSDOF 1
ENDMDL
