MODEL 1
REMARK minimizedAffinity -2.88500571
REMARK minimizedRMSD -1
REMARK  1 active torsions:
REMARK  status: ('A' for Active; 'I' for Inactive)
REMARK    1  A    between atoms: C3_4  and  O_7 
ROOT
ATOM      1  C   UNL d   1      -0.836  -1.922   1.550  0.00  0.00    -0.033 A 
ATOM      2  C1  UNL d   1      -0.984  -1.466   0.238  0.00  0.00     0.039 A 
ATOM      3  C2  UNL d   1      -0.293  -0.332  -0.191  0.00  0.00    -0.080 A 
ATOM      4  C3  UNL d   1       0.543   0.336   0.699  0.00  0.00     0.150 A 
ATOM      5  C4  UNL d   1       0.698  -0.114   2.006  0.00  0.00    -0.007 A 
ATOM      6  C5  UNL d   1       0.006  -1.246   2.433  0.00  0.00     0.039 A 
ENDROOT
BRANCH   4   7
ATOM      7  O   UNL d   1       1.235   1.451   0.327  0.00  0.00    -0.526 OA
ATOM      8  H5  UNL d   1       1.007   1.661  -0.594  0.00  0.00     0.418 HD
ENDBRANCH   4   7
TORSDOF 1
ENDMDL
