MODEL 1
REMARK minimizedAffinity -4.20186138
REMARK minimizedRMSD -1
REMARK  1 active torsions:
REMARK  status: ('A' for Active; 'I' for Inactive)
REMARK    1  A    between atoms: C3_4  and  O_7 
ROOT
ATOM      1  C   UNL d   1       0.940   3.053   0.017  0.00  0.00    -0.033 A 
ATOM      2  C1  UNL d   1       1.788   2.080   0.549  0.00  0.00     0.039 A 
ATOM      3  C2  UNL d   1       1.369   0.750   0.620  0.00  0.00    -0.080 A 
ATOM      4  C3  UNL d   1       0.103   0.406   0.155  0.00  0.00     0.150 A 
ATOM      5  C4  UNL d   1      -0.746   1.370  -0.379  0.00  0.00    -0.007 A 
ATOM      6  C5  UNL d   1      -0.327   2.698  -0.448  0.00  0.00     0.039 A 
ENDROOT
BRANCH   4   7
ATOM      7  O   UNL d   1      -0.352  -0.878   0.208  0.00  0.00    -0.526 OA
ATOM      8  H5  UNL d   1       0.330  -1.429   0.628  0.00  0.00     0.418 HD
ENDBRANCH   4   7
TORSDOF 1
ENDMDL
