MODEL 1
REMARK minimizedAffinity -3.43303418
REMARK minimizedRMSD -1
REMARK  1 active torsions:
REMARK  status: ('A' for Active; 'I' for Inactive)
REMARK    1  A    between atoms: C3_4  and  O_7 
ROOT
ATOM      1  C   UNL d   1       0.074  -0.476   0.426  0.00  0.00    -0.033 A 
ATOM      2  C1  UNL d   1      -0.560   0.603  -0.194  0.00  0.00     0.039 A 
ATOM      3  C2  UNL d   1       0.030   1.868  -0.170  0.00  0.00    -0.080 A 
ATOM      4  C3  UNL d   1       1.252   2.040   0.473  0.00  0.00     0.150 A 
ATOM      5  C4  UNL d   1       1.891   0.969   1.089  0.00  0.00    -0.007 A 
ATOM      6  C5  UNL d   1       1.300  -0.294   1.066  0.00  0.00     0.039 A 
ENDROOT
BRANCH   4   7
ATOM      7  O   UNL d   1       1.865   3.257   0.526  0.00  0.00    -0.526 OA
ATOM      8  H5  UNL d   1       1.294   3.908   0.084  0.00  0.00     0.418 HD
ENDBRANCH   4   7
TORSDOF 1
ENDMDL
