MODEL 1
REMARK minimizedAffinity -3.97177315
REMARK minimizedRMSD -1
REMARK  1 active torsions:
REMARK  status: ('A' for Active; 'I' for Inactive)
REMARK    1  A    between atoms: C3_4  and  O_7 
ROOT
ATOM      1  C   UNL d   1      -0.443   0.214   0.014  0.00  0.00    -0.033 A 
ATOM      2  C1  UNL d   1      -0.548   1.510  -0.495  0.00  0.00     0.039 A 
ATOM      3  C2  UNL d   1       0.242   2.534   0.029  0.00  0.00    -0.080 A 
ATOM      4  C3  UNL d   1       1.134   2.250   1.060  0.00  0.00     0.150 A 
ATOM      5  C4  UNL d   1       1.247   0.960   1.569  0.00  0.00    -0.007 A 
ATOM      6  C5  UNL d   1       0.456  -0.061   1.045  0.00  0.00     0.039 A 
ENDROOT
BRANCH   4   7
ATOM      7  O   UNL d   1       1.923   3.218   1.607  0.00  0.00    -0.526 OA
ATOM      8  H5  UNL d   1       1.716   4.064   1.175  0.00  0.00     0.418 HD
ENDBRANCH   4   7
TORSDOF 1
ENDMDL
