MODEL 1
REMARK minimizedAffinity -3.21502542
REMARK minimizedRMSD -1
REMARK  1 active torsions:
REMARK  status: ('A' for Active; 'I' for Inactive)
REMARK    1  A    between atoms: C3_4  and  O_7 
ROOT
ATOM      1  C   UNL d   1       0.419   1.781   0.254  0.00  0.00    -0.033 A 
ATOM      2  C1  UNL d   1       0.778   1.300   1.515  0.00  0.00     0.039 A 
ATOM      3  C2  UNL d   1       0.302   0.062   1.953  0.00  0.00    -0.080 A 
ATOM      4  C3  UNL d   1      -0.530  -0.683   1.122  0.00  0.00     0.150 A 
ATOM      5  C4  UNL d   1      -0.888  -0.211  -0.136  0.00  0.00    -0.007 A 
ATOM      6  C5  UNL d   1      -0.413   1.025  -0.572  0.00  0.00     0.039 A 
ENDROOT
BRANCH   4   7
ATOM      7  O   UNL d   1      -1.022  -1.894   1.508  0.00  0.00    -0.526 OA
ATOM      8  H5  UNL d   1      -0.714  -2.078   2.411  0.00  0.00     0.418 HD
ENDBRANCH   4   7
TORSDOF 1
ENDMDL
