MODEL 1
REMARK minimizedAffinity -2.95016193
REMARK minimizedRMSD -1
REMARK  1 active torsions:
REMARK  status: ('A' for Active; 'I' for Inactive)
REMARK    1  A    between atoms: C3_4  and  O_7 
ROOT
ATOM      1  C   UNL d   1      -1.577  -1.681   0.901  0.00  0.00    -0.033 A 
ATOM      2  C1  UNL d   1      -2.087  -0.382   0.949  0.00  0.00     0.039 A 
ATOM      3  C2  UNL d   1      -1.272   0.703   0.620  0.00  0.00    -0.080 A 
ATOM      4  C3  UNL d   1       0.049   0.476   0.243  0.00  0.00     0.150 A 
ATOM      5  C4  UNL d   1       0.562  -0.816   0.188  0.00  0.00    -0.007 A 
ATOM      6  C5  UNL d   1      -0.252  -1.898   0.519  0.00  0.00     0.039 A 
ENDROOT
BRANCH   4   7
ATOM      7  O   UNL d   1       0.883   1.503  -0.083  0.00  0.00    -0.526 OA
ATOM      8  H5  UNL d   1       0.400   2.339   0.028  0.00  0.00     0.418 HD
ENDBRANCH   4   7
TORSDOF 1
ENDMDL
