MODEL 1
REMARK minimizedAffinity -3.35635519
REMARK minimizedRMSD -1
REMARK  1 active torsions:
REMARK  status: ('A' for Active; 'I' for Inactive)
REMARK    1  A    between atoms: C3_4  and  O_7 
ROOT
ATOM      1  C   UNL d   1      -1.459  -0.350   1.200  0.00  0.00    -0.033 A 
ATOM      2  C1  UNL d   1      -1.758   0.690   0.318  0.00  0.00     0.039 A 
ATOM      3  C2  UNL d   1      -0.748   1.546  -0.124  0.00  0.00    -0.080 A 
ATOM      4  C3  UNL d   1       0.557   1.351   0.322  0.00  0.00     0.150 A 
ATOM      5  C4  UNL d   1       0.863   0.314   1.197  0.00  0.00    -0.007 A 
ATOM      6  C5  UNL d   1      -0.148  -0.539   1.639  0.00  0.00     0.039 A 
ENDROOT
BRANCH   4   7
ATOM      7  O   UNL d   1       1.576   2.163  -0.078  0.00  0.00    -0.526 OA
ATOM      8  H5  UNL d   1       1.211   2.851  -0.659  0.00  0.00     0.418 HD
ENDBRANCH   4   7
TORSDOF 1
ENDMDL
