MODEL 1
REMARK minimizedAffinity -2.26004982
REMARK minimizedRMSD -1
REMARK  1 active torsions:
REMARK  status: ('A' for Active; 'I' for Inactive)
REMARK    1  A    between atoms: C3_4  and  O_7 
ROOT
ATOM      1  C   UNL d   1      -0.908  -0.955   1.455  0.00  0.00    -0.033 A 
ATOM      2  C1  UNL d   1      -1.130  -2.219   0.905  0.00  0.00     0.039 A 
ATOM      3  C2  UNL d   1      -0.864  -2.451  -0.446  0.00  0.00    -0.080 A 
ATOM      4  C3  UNL d   1      -0.376  -1.413  -1.234  0.00  0.00     0.150 A 
ATOM      5  C4  UNL d   1      -0.149  -0.152  -0.692  0.00  0.00    -0.007 A 
ATOM      6  C5  UNL d   1      -0.416   0.078   0.657  0.00  0.00     0.039 A 
ENDROOT
BRANCH   4   7
ATOM      7  O   UNL d   1      -0.106  -1.590  -2.559  0.00  0.00    -0.526 OA
ATOM      8  H5  UNL d   1      -0.338  -2.502  -2.801  0.00  0.00     0.418 HD
ENDBRANCH   4   7
TORSDOF 1
ENDMDL
