MODEL 1
REMARK minimizedAffinity -3.69955993
REMARK minimizedRMSD -1
REMARK  1 active torsions:
REMARK  status: ('A' for Active; 'I' for Inactive)
REMARK    1  A    between atoms: C3_4  and  O_7 
ROOT
ATOM      1  C   UNL d   1       0.469   1.725  -0.204  0.00  0.00    -0.033 A 
ATOM      2  C1  UNL d   1       0.976   1.224   0.996  0.00  0.00     0.039 A 
ATOM      3  C2  UNL d   1       0.604  -0.048   1.437  0.00  0.00    -0.080 A 
ATOM      4  C3  UNL d   1      -0.273  -0.808   0.668  0.00  0.00     0.150 A 
ATOM      5  C4  UNL d   1      -0.779  -0.317  -0.531  0.00  0.00    -0.007 A 
ATOM      6  C5  UNL d   1      -0.408   0.954  -0.969  0.00  0.00     0.039 A 
ENDROOT
BRANCH   4   7
ATOM      7  O   UNL d   1      -0.668  -2.053   1.059  0.00  0.00    -0.526 OA
ATOM      8  H5  UNL d   1      -0.261  -2.248   1.919  0.00  0.00     0.418 HD
ENDBRANCH   4   7
TORSDOF 1
ENDMDL
