MODEL 1
REMARK minimizedAffinity 16.503149
REMARK minimizedRMSD -1
REMARK  0 active torsions:
REMARK  status: ('A' for Active; 'I' for Inactive)
ROOT
ATOM      1  C4' PXY d   1       3.384  -1.730  -3.825  0.00  0.00     0.077 C 
ATOM      2  C1' PXY d   1       5.999   3.181  -5.396  0.00  0.00     0.077 C 
ATOM      3  C1  PXY d   1       5.304   1.900  -4.978  0.00  0.00    -0.082 A 
ATOM      4  C2  PXY d   1       5.998   0.776  -4.894  0.00  0.00     0.003 A 
ATOM      5  C3  PXY d   1       5.379  -0.397  -4.549  0.00  0.00     0.003 A 
ATOM      6  C4  PXY d   1       4.046  -0.411  -4.234  0.00  0.00    -0.082 A 
ATOM      7  C5  PXY d   1       3.334   0.733  -4.306  0.00  0.00     0.003 A 
ATOM      8  C6  PXY d   1       3.972   1.906  -4.699  0.00  0.00     0.003 A 
ENDROOT
TORSDOF 0
ENDMDL
