MODEL 1
REMARK minimizedAffinity 16.1159706
REMARK minimizedRMSD -1
REMARK  0 active torsions:
REMARK  status: ('A' for Active; 'I' for Inactive)
ROOT
ATOM      1  C4' PXY d   1      -1.595  -2.821   2.630  0.00  0.00     0.077 C 
ATOM      2  C1' PXY d   1      -2.983  -3.098  -2.975  0.00  0.00     0.077 C 
ATOM      3  C1  PXY d   1      -2.607  -3.029  -1.508  0.00  0.00    -0.082 A 
ATOM      4  C2  PXY d   1      -3.554  -3.094  -0.586  0.00  0.00     0.003 A 
ATOM      5  C3  PXY d   1      -3.235  -3.002   0.744  0.00  0.00     0.003 A 
ATOM      6  C4  PXY d   1      -1.928  -2.895   1.137  0.00  0.00    -0.082 A 
ATOM      7  C5  PXY d   1      -0.955  -2.839   0.203  0.00  0.00     0.003 A 
ATOM      8  C6  PXY d   1      -1.303  -2.893  -1.143  0.00  0.00     0.003 A 
ENDROOT
TORSDOF 0
ENDMDL
