MODEL 1
REMARK minimizedAffinity 10.6991558
REMARK minimizedRMSD -1
REMARK  0 active torsions:
REMARK  status: ('A' for Active; 'I' for Inactive)
ROOT
ATOM      1  C4' PXY d   1      -1.906  -0.552   4.913  0.00  0.00     0.077 C 
ATOM      2  C1' PXY d   1      -5.992   3.530   5.153  0.00  0.00     0.077 C 
ATOM      3  C1  PXY d   1      -4.917   2.464   5.079  0.00  0.00    -0.082 A 
ATOM      4  C2  PXY d   1      -5.057   1.344   5.769  0.00  0.00     0.003 A 
ATOM      5  C3  PXY d   1      -4.079   0.383   5.738  0.00  0.00     0.003 A 
ATOM      6  C4  PXY d   1      -2.971   0.547   4.951  0.00  0.00    -0.082 A 
ATOM      7  C5  PXY d   1      -2.826   1.683   4.235  0.00  0.00     0.003 A 
ATOM      8  C6  PXY d   1      -3.810   2.663   4.313  0.00  0.00     0.003 A 
ENDROOT
TORSDOF 0
ENDMDL
