MODEL 1
REMARK minimizedAffinity 8.83654881
REMARK minimizedRMSD -1
REMARK  0 active torsions:
REMARK  status: ('A' for Active; 'I' for Inactive)
ROOT
ATOM      1  C4' PXY d   1      -3.759  -3.626   6.000  0.00  0.00     0.077 C 
ATOM      2  C1' PXY d   1      -2.267   1.764   4.537  0.00  0.00     0.077 C 
ATOM      3  C1  PXY d   1      -2.666   0.356   4.931  0.00  0.00    -0.082 A 
ATOM      4  C2  PXY d   1      -1.896  -0.663   4.583  0.00  0.00     0.003 A 
ATOM      5  C3  PXY d   1      -2.257  -1.946   4.903  0.00  0.00     0.003 A 
ATOM      6  C4  PXY d   1      -3.391  -2.185   5.632  0.00  0.00    -0.082 A 
ATOM      7  C5  PXY d   1      -4.176  -1.151   6.000  0.00  0.00     0.003 A 
ATOM      8  C6  PXY d   1      -3.813   0.141   5.630  0.00  0.00     0.003 A 
ENDROOT
TORSDOF 0
ENDMDL
