MODEL 1
REMARK minimizedAffinity 9.31175518
REMARK minimizedRMSD -1
REMARK  0 active torsions:
REMARK  status: ('A' for Active; 'I' for Inactive)
ROOT
ATOM      1  C4' PXY d   1      -4.742  -4.320   5.972  0.00  0.00     0.077 C 
ATOM      2  C1' PXY d   1      -2.894   1.157   5.997  0.00  0.00     0.077 C 
ATOM      3  C1  PXY d   1      -3.368  -0.283   5.985  0.00  0.00    -0.082 A 
ATOM      4  C2  PXY d   1      -4.664  -0.545   5.978  0.00  0.00     0.003 A 
ATOM      5  C3  PXY d   1      -5.110  -1.842   5.999  0.00  0.00     0.003 A 
ATOM      6  C4  PXY d   1      -4.219  -2.881   5.975  0.00  0.00    -0.082 A 
ATOM      7  C5  PXY d   1      -2.894  -2.621   5.972  0.00  0.00     0.003 A 
ATOM      8  C6  PXY d   1      -2.462  -1.298   5.991  0.00  0.00     0.003 A 
ENDROOT
TORSDOF 0
ENDMDL
