MODEL 1
REMARK minimizedAffinity 23.3264751
REMARK minimizedRMSD -1
REMARK  0 active torsions:
REMARK  status: ('A' for Active; 'I' for Inactive)
ROOT
ATOM      1  C4' PXY d   1       1.033   4.788   0.851  0.00  0.00     0.077 C 
ATOM      2  C1' PXY d   1      -3.407   1.087   0.875  0.00  0.00     0.077 C 
ATOM      3  C1  PXY d   1      -2.244   2.060   0.881  0.00  0.00    -0.082 A 
ATOM      4  C2  PXY d   1      -1.881   2.651  -0.245  0.00  0.00     0.003 A 
ATOM      5  C3  PXY d   1      -0.811   3.510  -0.263  0.00  0.00     0.003 A 
ATOM      6  C4  PXY d   1      -0.141   3.806   0.893  0.00  0.00    -0.082 A 
ATOM      7  C5  PXY d   1      -0.513   3.215   2.048  0.00  0.00     0.003 A 
ATOM      8  C6  PXY d   1      -1.575   2.315   2.038  0.00  0.00     0.003 A 
ENDROOT
TORSDOF 0
ENDMDL
