MODEL 1
REMARK minimizedAffinity 7.11462831
REMARK minimizedRMSD -1
REMARK  0 active torsions:
REMARK  status: ('A' for Active; 'I' for Inactive)
ROOT
ATOM      1  C4' PXY d   1       4.541  -5.955  -5.999  0.00  0.00     0.077 C 
ATOM      2  C1' PXY d   1       4.583  -0.479  -4.151  0.00  0.00     0.077 C 
ATOM      3  C1  PXY d   1       4.563  -1.918  -4.627  0.00  0.00    -0.082 A 
ATOM      4  C2  PXY d   1       5.637  -2.431  -5.205  0.00  0.00     0.003 A 
ATOM      5  C3  PXY d   1       5.625  -3.720  -5.671  0.00  0.00     0.003 A 
ATOM      6  C4  PXY d   1       4.520  -4.510  -5.495  0.00  0.00    -0.082 A 
ATOM      7  C5  PXY d   1       3.424  -3.997  -4.896  0.00  0.00     0.003 A 
ATOM      8  C6  PXY d   1       3.442  -2.673  -4.468  0.00  0.00     0.003 A 
ENDROOT
TORSDOF 0
ENDMDL
