MODEL 1
REMARK minimizedAffinity 12.8545475
REMARK minimizedRMSD -1
REMARK  0 active torsions:
REMARK  status: ('A' for Active; 'I' for Inactive)
ROOT
ATOM      1  C4' PXY d   1       5.872  -5.513   5.919  0.00  0.00     0.077 C 
ATOM      2  C1' PXY d   1       2.004  -1.218   5.997  0.00  0.00     0.077 C 
ATOM      3  C1  PXY d   1       3.027  -2.336   5.971  0.00  0.00    -0.082 A 
ATOM      4  C2  PXY d   1       2.620  -3.595   5.990  0.00  0.00     0.003 A 
ATOM      5  C3  PXY d   1       3.533  -4.619   5.999  0.00  0.00     0.003 A 
ATOM      6  C4  PXY d   1       4.874  -4.352   5.935  0.00  0.00    -0.082 A 
ATOM      7  C5  PXY d   1       5.297  -3.070   5.904  0.00  0.00     0.003 A 
ATOM      8  C6  PXY d   1       4.356  -2.045   5.937  0.00  0.00     0.003 A 
ENDROOT
TORSDOF 0
ENDMDL
