MODEL 1
REMARK minimizedAffinity 13.3850641
REMARK minimizedRMSD -1
REMARK  0 active torsions:
REMARK  status: ('A' for Active; 'I' for Inactive)
ROOT
ATOM      1  C4' PXY d   1      -1.744   1.076   3.414  0.00  0.00     0.077 C 
ATOM      2  C1' PXY d   1      -4.061  -3.546   6.000  0.00  0.00     0.077 C 
ATOM      3  C1  PXY d   1      -3.445  -2.342   5.316  0.00  0.00    -0.082 A 
ATOM      4  C2  PXY d   1      -3.547  -1.147   5.876  0.00  0.00     0.003 A 
ATOM      5  C3  PXY d   1      -3.024  -0.043   5.255  0.00  0.00     0.003 A 
ATOM      6  C4  PXY d   1      -2.342  -0.170   4.074  0.00  0.00    -0.082 A 
ATOM      7  C5  PXY d   1      -2.225  -1.386   3.501  0.00  0.00     0.003 A 
ATOM      8  C6  PXY d   1      -2.799  -2.489   4.127  0.00  0.00     0.003 A 
ENDROOT
TORSDOF 0
ENDMDL
