MODEL 1
REMARK minimizedAffinity 6.58493948
REMARK minimizedRMSD -1
REMARK  0 active torsions:
REMARK  status: ('A' for Active; 'I' for Inactive)
ROOT
ATOM      1  C4' PXY d   1       5.983  -5.883   5.983  0.00  0.00     0.077 C 
ATOM      2  C1' PXY d   1       3.410  -1.157   3.874  0.00  0.00     0.077 C 
ATOM      3  C1  PXY d   1       4.096  -2.390   4.426  0.00  0.00    -0.082 A 
ATOM      4  C2  PXY d   1       3.509  -3.571   4.314  0.00  0.00     0.003 A 
ATOM      5  C3  PXY d   1       4.101  -4.692   4.836  0.00  0.00     0.003 A 
ATOM      6  C4  PXY d   1       5.331  -4.612   5.432  0.00  0.00    -0.082 A 
ATOM      7  C5  PXY d   1       5.942  -3.413   5.540  0.00  0.00     0.003 A 
ATOM      8  C6  PXY d   1       5.305  -2.281   5.040  0.00  0.00     0.003 A 
ENDROOT
TORSDOF 0
ENDMDL
