MODEL 1
REMARK minimizedAffinity 10.3483667
REMARK minimizedRMSD -1
REMARK  0 active torsions:
REMARK  status: ('A' for Active; 'I' for Inactive)
ROOT
ATOM      1  C4' PXY d   1       5.997  -5.826  -5.999  0.00  0.00     0.077 C 
ATOM      2  C1' PXY d   1       4.139  -0.932  -3.546  0.00  0.00     0.077 C 
ATOM      3  C1  PXY d   1       4.615  -2.216  -4.196  0.00  0.00    -0.082 A 
ATOM      4  C2  PXY d   1       5.527  -2.957  -3.589  0.00  0.00     0.003 A 
ATOM      5  C3  PXY d   1       5.993  -4.105  -4.177  0.00  0.00     0.003 A 
ATOM      6  C4  PXY d   1       5.480  -4.526  -5.375  0.00  0.00    -0.082 A 
ATOM      7  C5  PXY d   1       4.541  -3.781  -5.996  0.00  0.00     0.003 A 
ATOM      8  C6  PXY d   1       4.112  -2.598  -5.401  0.00  0.00     0.003 A 
ENDROOT
TORSDOF 0
ENDMDL
