MODEL 1
REMARK minimizedAffinity -0.902686775
REMARK minimizedRMSD -1
REMARK  0 active torsions:
REMARK  status: ('A' for Active; 'I' for Inactive)
ROOT
ATOM      1  C4' PXY d   1       1.294  -1.603   5.999  0.00  0.00     0.077 C 
ATOM      2  C1' PXY d   1       6.000  -4.680   4.655  0.00  0.00     0.077 C 
ATOM      3  C1  PXY d   1       4.773  -3.863   5.012  0.00  0.00    -0.082 A 
ATOM      4  C2  PXY d   1       3.620  -4.475   5.227  0.00  0.00     0.003 A 
ATOM      5  C3  PXY d   1       2.494  -3.749   5.519  0.00  0.00     0.003 A 
ATOM      6  C4  PXY d   1       2.561  -2.388   5.645  0.00  0.00    -0.082 A 
ATOM      7  C5  PXY d   1       3.736  -1.757   5.438  0.00  0.00     0.003 A 
ATOM      8  C6  PXY d   1       4.858  -2.508   5.102  0.00  0.00     0.003 A 
ENDROOT
TORSDOF 0
ENDMDL
