MODEL 1
REMARK minimizedAffinity 0.716666877
REMARK minimizedRMSD -1
REMARK  0 active torsions:
REMARK  status: ('A' for Active; 'I' for Inactive)
ROOT
ATOM      1  C4' PXY d   1       5.766  -6.000  -5.957  0.00  0.00     0.077 C 
ATOM      2  C1' PXY d   1       4.581  -0.970  -3.366  0.00  0.00     0.077 C 
ATOM      3  C1  PXY d   1       4.881  -2.288  -4.052  0.00  0.00    -0.082 A 
ATOM      4  C2  PXY d   1       5.693  -3.158  -3.473  0.00  0.00     0.003 A 
ATOM      5  C3  PXY d   1       6.000  -4.341  -4.094  0.00  0.00     0.003 A 
ATOM      6  C4  PXY d   1       5.428  -4.661  -5.296  0.00  0.00    -0.082 A 
ATOM      7  C5  PXY d   1       4.590  -3.784  -5.889  0.00  0.00     0.003 A 
ATOM      8  C6  PXY d   1       4.324  -2.570  -5.261  0.00  0.00     0.003 A 
ENDROOT
TORSDOF 0
ENDMDL
