MODEL 1
REMARK minimizedAffinity 11.3266306
REMARK minimizedRMSD -1
REMARK  0 active torsions:
REMARK  status: ('A' for Active; 'I' for Inactive)
ROOT
ATOM      1  C4' PXY d   1       2.103  -0.699   5.737  0.00  0.00     0.077 C 
ATOM      2  C1' PXY d   1       5.998  -4.962   6.000  0.00  0.00     0.077 C 
ATOM      3  C1  PXY d   1       4.985  -3.836   5.937  0.00  0.00    -0.082 A 
ATOM      4  C2  PXY d   1       3.699  -4.120   5.813  0.00  0.00     0.003 A 
ATOM      5  C3  PXY d   1       2.772  -3.113   5.722  0.00  0.00     0.003 A 
ATOM      6  C4  PXY d   1       3.161  -1.804   5.814  0.00  0.00    -0.082 A 
ATOM      7  C5  PXY d   1       4.470  -1.506   5.952  0.00  0.00     0.003 A 
ATOM      8  C6  PXY d   1       5.399  -2.541   6.000  0.00  0.00     0.003 A 
ENDROOT
TORSDOF 0
ENDMDL
