MODEL 1
REMARK minimizedAffinity 3.52811432
REMARK minimizedRMSD -1
REMARK  0 active torsions:
REMARK  status: ('A' for Active; 'I' for Inactive)
ROOT
ATOM      1  C4' PXY d   1       4.893  -0.695  -3.625  0.00  0.00     0.077 C 
ATOM      2  C1' PXY d   1       4.889  -5.965  -6.000  0.00  0.00     0.077 C 
ATOM      3  C1  PXY d   1       4.877  -4.582  -5.379  0.00  0.00    -0.082 A 
ATOM      4  C2  PXY d   1       5.979  -3.851  -5.390  0.00  0.00     0.003 A 
ATOM      5  C3  PXY d   1       5.995  -2.611  -4.804  0.00  0.00     0.003 A 
ATOM      6  C4  PXY d   1       4.856  -2.093  -4.249  0.00  0.00    -0.082 A 
ATOM      7  C5  PXY d   1       3.725  -2.829  -4.243  0.00  0.00     0.003 A 
ATOM      8  C6  PXY d   1       3.740  -4.101  -4.806  0.00  0.00     0.003 A 
ENDROOT
TORSDOF 0
ENDMDL
