MODEL 1
REMARK minimizedAffinity 0.566906631
REMARK minimizedRMSD -1
REMARK  0 active torsions:
REMARK  status: ('A' for Active; 'I' for Inactive)
ROOT
ATOM      1  C4' PXY d   1       4.874   2.334  -5.997  0.00  0.00     0.077 C 
ATOM      2  C1' PXY d   1       4.890   5.988  -1.518  0.00  0.00     0.077 C 
ATOM      3  C1  PXY d   1       4.873   5.028  -2.691  0.00  0.00    -0.082 A 
ATOM      4  C2  PXY d   1       5.991   4.422  -3.056  0.00  0.00     0.003 A 
ATOM      5  C3  PXY d   1       6.000   3.575  -4.135  0.00  0.00     0.003 A 
ATOM      6  C4  PXY d   1       4.842   3.305  -4.813  0.00  0.00    -0.082 A 
ATOM      7  C5  PXY d   1       3.695   3.911  -4.440  0.00  0.00     0.003 A 
ATOM      8  C6  PXY d   1       3.715   4.799  -3.369  0.00  0.00     0.003 A 
ENDROOT
TORSDOF 0
ENDMDL
