MODEL 1
REMARK minimizedAffinity 2.11424851
REMARK minimizedRMSD -1
REMARK  0 active torsions:
REMARK  status: ('A' for Active; 'I' for Inactive)
ROOT
ATOM      1  C4' PXY d   1       4.827   2.634  -5.651  0.00  0.00     0.077 C 
ATOM      2  C1' PXY d   1       4.936   5.998  -0.951  0.00  0.00     0.077 C 
ATOM      3  C1  PXY d   1       4.895   5.114  -2.182  0.00  0.00    -0.082 A 
ATOM      4  C2  PXY d   1       5.999   4.511  -2.592  0.00  0.00     0.003 A 
ATOM      5  C3  PXY d   1       5.986   3.734  -3.721  0.00  0.00     0.003 A 
ATOM      6  C4  PXY d   1       4.820   3.528  -4.408  0.00  0.00    -0.082 A 
ATOM      7  C5  PXY d   1       3.687   4.131  -3.989  0.00  0.00     0.003 A 
ATOM      8  C6  PXY d   1       3.729   4.949  -2.864  0.00  0.00     0.003 A 
ENDROOT
TORSDOF 0
ENDMDL
