MODEL 1
REMARK minimizedAffinity 1.25005567
REMARK minimizedRMSD -1
REMARK  0 active torsions:
REMARK  status: ('A' for Active; 'I' for Inactive)
ROOT
ATOM      1  C4' PXY d   1       0.763  -4.372  -4.899  0.00  0.00     0.077 C 
ATOM      2  C1' PXY d   1      -1.436  -2.340   0.046  0.00  0.00     0.077 C 
ATOM      3  C1  PXY d   1      -0.860  -2.861  -1.256  0.00  0.00    -0.082 A 
ATOM      4  C2  PXY d   1      -0.961  -4.147  -1.548  0.00  0.00     0.003 A 
ATOM      5  C3  PXY d   1      -0.418  -4.641  -2.706  0.00  0.00     0.003 A 
ATOM      6  C4  PXY d   1       0.188  -3.800  -3.600  0.00  0.00    -0.082 A 
ATOM      7  C5  PXY d   1       0.286  -2.484  -3.315  0.00  0.00     0.003 A 
ATOM      8  C6  PXY d   1      -0.236  -2.010  -2.115  0.00  0.00     0.003 A 
ENDROOT
TORSDOF 0
ENDMDL
