MODEL 1
REMARK minimizedAffinity -1.14161623
REMARK minimizedRMSD -1
REMARK  0 active torsions:
REMARK  status: ('A' for Active; 'I' for Inactive)
ROOT
ATOM      1  C4' PXY d   1      -2.717   0.437   1.573  0.00  0.00     0.077 C 
ATOM      2  C1' PXY d   1       2.028   0.387  -1.729  0.00  0.00     0.077 C 
ATOM      3  C1  PXY d   1       0.783   0.387  -0.863  0.00  0.00    -0.082 A 
ATOM      4  C2  PXY d   1      -0.025   1.434  -0.880  0.00  0.00     0.003 A 
ATOM      5  C3  PXY d   1      -1.137   1.465  -0.079  0.00  0.00     0.003 A 
ATOM      6  C4  PXY d   1      -1.454   0.389   0.707  0.00  0.00    -0.082 A 
ATOM      7  C5  PXY d   1      -0.640  -0.688   0.722  0.00  0.00     0.003 A 
ATOM      8  C6  PXY d   1       0.506  -0.681  -0.068  0.00  0.00     0.003 A 
ENDROOT
TORSDOF 0
ENDMDL
