MODEL 1
REMARK minimizedAffinity 7.46200705
REMARK minimizedRMSD -1
REMARK  0 active torsions:
REMARK  status: ('A' for Active; 'I' for Inactive)
ROOT
ATOM      1  C4' PXY d   1      -1.840  -2.173  -1.904  0.00  0.00     0.077 C 
ATOM      2  C1' PXY d   1      -3.257  -6.000  -5.999  0.00  0.00     0.077 C 
ATOM      3  C1  PXY d   1      -2.897  -4.997  -4.919  0.00  0.00    -0.082 A 
ATOM      4  C2  PXY d   1      -1.965  -4.088  -5.155  0.00  0.00     0.003 A 
ATOM      5  C3  PXY d   1      -1.605  -3.195  -4.180  0.00  0.00     0.003 A 
ATOM      6  C4  PXY d   1      -2.243  -3.198  -2.968  0.00  0.00    -0.082 A 
ATOM      7  C5  PXY d   1      -3.202  -4.116  -2.723  0.00  0.00     0.003 A 
ATOM      8  C6  PXY d   1      -3.524  -5.040  -3.712  0.00  0.00     0.003 A 
ENDROOT
TORSDOF 0
ENDMDL
