MODEL 1
REMARK minimizedAffinity -0.37784645
REMARK minimizedRMSD -1
REMARK  1 active torsions:
REMARK  status: ('A' for Active; 'I' for Inactive)
REMARK    1  A    between atoms: N_2  and  C1_3 
ROOT
ATOM      1  C1  UNL d   1       0.754  -0.485  -1.634  0.00  0.00     0.143 A 
ATOM      2  C2  UNL d   1       0.010  -0.449  -2.819  0.00  0.00    -0.057 A 
ATOM      3  C3  UNL d   1       0.557   0.060  -4.004  0.00  0.00     0.033 A 
ATOM      4  C4  UNL d   1       1.851   0.570  -4.017  0.00  0.00    -0.042 A 
ATOM      5  C5  UNL d   1       2.599   0.567  -2.845  0.00  0.00     0.033 A 
ATOM      6  C6  UNL d   1       2.051   0.051  -1.667  0.00  0.00    -0.057 A 
ENDROOT
BRANCH   1   7
ATOM      7  N   UNL d   1       0.233  -0.887  -0.402  0.00  0.00    -0.732 N 
ATOM      8  C   UNL d   1      -1.110  -0.516  -0.013  0.00  0.00     0.284 C 
ATOM      9  H3  UNL d   1       0.485  -1.845  -0.168  0.00  0.00     0.395 HD
ENDBRANCH   1   7
TORSDOF 1
ENDMDL
