MODEL 1
REMARK minimizedAffinity -4.17365932
REMARK minimizedRMSD -1
REMARK  1 active torsions:
REMARK  status: ('A' for Active; 'I' for Inactive)
REMARK    1  A    between atoms: N_2  and  C1_3 
ROOT
ATOM      1  C1  UNL d   1       0.090   0.033  -0.088  0.00  0.00     0.143 A 
ATOM      2  C2  UNL d   1      -1.293   0.005   0.118  0.00  0.00    -0.057 A 
ATOM      3  C3  UNL d   1      -1.872   0.606   1.242  0.00  0.00     0.033 A 
ATOM      4  C4  UNL d   1      -1.072   1.222   2.199  0.00  0.00    -0.042 A 
ATOM      5  C5  UNL d   1       0.308   1.240   2.027  0.00  0.00     0.033 A 
ATOM      6  C6  UNL d   1       0.879   0.644   0.899  0.00  0.00    -0.057 A 
ENDROOT
BRANCH   1   7
ATOM      7  N   UNL d   1       0.734  -0.631  -1.135  0.00  0.00    -0.732 N 
ATOM      8  C   UNL d   1       0.667  -0.117  -2.486  0.00  0.00     0.284 C 
ATOM      9  H3  UNL d   1       1.652  -0.980  -0.867  0.00  0.00     0.395 HD
ENDBRANCH   1   7
TORSDOF 1
ENDMDL
