MODEL 1
REMARK minimizedAffinity -1.73049581
REMARK minimizedRMSD -1
REMARK  1 active torsions:
REMARK  status: ('A' for Active; 'I' for Inactive)
REMARK    1  A    between atoms: N_2  and  C1_3 
ROOT
ATOM      1  C1  UNL d   1       0.382   0.790   1.338  0.00  0.00     0.143 A 
ATOM      2  C2  UNL d   1       1.534  -0.004   1.370  0.00  0.00    -0.057 A 
ATOM      3  C3  UNL d   1       1.883  -0.820   0.287  0.00  0.00     0.033 A 
ATOM      4  C4  UNL d   1       1.068  -0.880  -0.838  0.00  0.00    -0.042 A 
ATOM      5  C5  UNL d   1      -0.095  -0.118  -0.882  0.00  0.00     0.033 A 
ATOM      6  C6  UNL d   1      -0.435   0.700   0.200  0.00  0.00    -0.057 A 
ENDROOT
BRANCH   1   7
ATOM      7  N   UNL d   1      -0.071   1.547   2.421  0.00  0.00    -0.732 N 
ATOM      8  C   UNL d   1      -1.032   0.999   3.353  0.00  0.00     0.284 C 
ATOM      9  H3  UNL d   1       0.675   2.082   2.860  0.00  0.00     0.395 HD
ENDBRANCH   1   7
TORSDOF 1
ENDMDL
