MODEL 1
REMARK minimizedAffinity -2.48581123
REMARK minimizedRMSD -1
REMARK  1 active torsions:
REMARK  status: ('A' for Active; 'I' for Inactive)
REMARK    1  A    between atoms: N_2  and  C1_3 
ROOT
ATOM      1  C1  UNL d   1      -0.080   0.738   0.906  0.00  0.00     0.143 A 
ATOM      2  C2  UNL d   1       1.246   0.300   0.814  0.00  0.00    -0.057 A 
ATOM      3  C3  UNL d   1       1.690  -0.443  -0.286  0.00  0.00     0.033 A 
ATOM      4  C4  UNL d   1       0.806  -0.788  -1.303  0.00  0.00    -0.042 A 
ATOM      5  C5  UNL d   1      -0.522  -0.385  -1.220  0.00  0.00     0.033 A 
ATOM      6  C6  UNL d   1      -0.958   0.362  -0.122  0.00  0.00    -0.057 A 
ENDROOT
BRANCH   1   7
ATOM      7  N   UNL d   1      -0.606   1.395   2.021  0.00  0.00    -0.732 N 
ATOM      8  C   UNL d   1      -1.569   0.738   2.878  0.00  0.00     0.284 C 
ATOM      9  H3  UNL d   1       0.097   1.934   2.522  0.00  0.00     0.395 HD
ENDBRANCH   1   7
TORSDOF 1
ENDMDL
