MODEL 1
REMARK minimizedAffinity -2.69639015
REMARK minimizedRMSD -1
REMARK  1 active torsions:
REMARK  status: ('A' for Active; 'I' for Inactive)
REMARK    1  A    between atoms: N_2  and  C1_3 
ROOT
ATOM      1  C1  UNL d   1      -0.627   0.218   1.147  0.00  0.00     0.143 A 
ATOM      2  C2  UNL d   1       0.559   0.031   1.866  0.00  0.00    -0.057 A 
ATOM      3  C3  UNL d   1       1.670  -0.592   1.285  0.00  0.00     0.033 A 
ATOM      4  C4  UNL d   1       1.604  -1.068  -0.021  0.00  0.00    -0.042 A 
ATOM      5  C5  UNL d   1       0.428  -0.915  -0.746  0.00  0.00     0.033 A 
ATOM      6  C6  UNL d   1      -0.676  -0.286  -0.162  0.00  0.00    -0.057 A 
ENDROOT
BRANCH   1   7
ATOM      7  N   UNL d   1      -1.798   0.742   1.700  0.00  0.00    -0.732 N 
ATOM      8  C   UNL d   1      -3.087   0.448   1.112  0.00  0.00     0.284 C 
ATOM      9  H3  UNL d   1      -1.790   0.720   2.718  0.00  0.00     0.395 HD
ENDBRANCH   1   7
TORSDOF 1
ENDMDL
