MODEL 1
REMARK minimizedAffinity -2.35934162
REMARK minimizedRMSD -1
REMARK  1 active torsions:
REMARK  status: ('A' for Active; 'I' for Inactive)
REMARK    1  A    between atoms: N_2  and  C1_3 
ROOT
ATOM      1  C1  UNL d   1      -2.029   0.094   2.179  0.00  0.00     0.143 A 
ATOM      2  C2  UNL d   1      -1.109   0.744   3.009  0.00  0.00    -0.057 A 
ATOM      3  C3  UNL d   1       0.101   1.237   2.506  0.00  0.00     0.033 A 
ATOM      4  C4  UNL d   1       0.426   1.064   1.165  0.00  0.00    -0.042 A 
ATOM      5  C5  UNL d   1      -0.463   0.399   0.326  0.00  0.00     0.033 A 
ATOM      6  C6  UNL d   1      -1.672  -0.085   0.833  0.00  0.00    -0.057 A 
ENDROOT
BRANCH   1   7
ATOM      7  N   UNL d   1      -3.204  -0.505   2.639  0.00  0.00    -0.732 N 
ATOM      8  C   UNL d   1      -3.180  -1.389   3.785  0.00  0.00     0.284 C 
ATOM      9  H3  UNL d   1      -3.997   0.131   2.622  0.00  0.00     0.395 HD
ENDBRANCH   1   7
TORSDOF 1
ENDMDL
