MODEL 1
REMARK minimizedAffinity -4.71438122
REMARK minimizedRMSD -1
REMARK  1 active torsions:
REMARK  status: ('A' for Active; 'I' for Inactive)
REMARK    1  A    between atoms: N_2  and  C1_3 
ROOT
ATOM      1  C1  UNL d   1      -0.199   0.225  -0.050  0.00  0.00     0.143 A 
ATOM      2  C2  UNL d   1      -1.512  -0.033   0.359  0.00  0.00    -0.057 A 
ATOM      3  C3  UNL d   1      -1.993   0.430   1.589  0.00  0.00     0.033 A 
ATOM      4  C4  UNL d   1      -1.159   1.138   2.448  0.00  0.00    -0.042 A 
ATOM      5  C5  UNL d   1       0.157   1.385   2.073  0.00  0.00     0.033 A 
ATOM      6  C6  UNL d   1       0.631   0.925   0.841  0.00  0.00    -0.057 A 
ENDROOT
BRANCH   1   7
ATOM      7  N   UNL d   1       0.369  -0.293  -1.217  0.00  0.00    -0.732 N 
ATOM      8  C   UNL d   1       0.903   0.590  -2.231  0.00  0.00     0.284 C 
ATOM      9  H3  UNL d   1       0.940  -1.116  -1.038  0.00  0.00     0.395 HD
ENDBRANCH   1   7
TORSDOF 1
ENDMDL
