MODEL 1
REMARK minimizedAffinity 1.55550039
REMARK minimizedRMSD -1
REMARK  1 active torsions:
REMARK  status: ('A' for Active; 'I' for Inactive)
REMARK    1  A    between atoms: N_2  and  C1_3 
ROOT
ATOM      1  C1  UNL d   1      -3.750   1.607   3.371  0.00  0.00     0.143 A 
ATOM      2  C2  UNL d   1      -2.689   2.225   2.701  0.00  0.00    -0.057 A 
ATOM      3  C3  UNL d   1      -1.666   1.473   2.111  0.00  0.00     0.033 A 
ATOM      4  C4  UNL d   1      -1.671   0.086   2.205  0.00  0.00    -0.042 A 
ATOM      5  C5  UNL d   1      -2.703  -0.549   2.887  0.00  0.00     0.033 A 
ATOM      6  C6  UNL d   1      -3.725   0.207   3.469  0.00  0.00    -0.057 A 
ENDROOT
BRANCH   1   7
ATOM      7  N   UNL d   1      -4.744   2.303   4.063  0.00  0.00    -0.732 N 
ATOM      8  C   UNL d   1      -4.945   2.086   5.479  0.00  0.00     0.284 C 
ATOM      9  H3  UNL d   1      -4.806   3.278   3.778  0.00  0.00     0.395 HD
ENDBRANCH   1   7
TORSDOF 1
ENDMDL
