MODEL 1
REMARK minimizedAffinity 0.312502325
REMARK minimizedRMSD -1
REMARK  1 active torsions:
REMARK  status: ('A' for Active; 'I' for Inactive)
REMARK    1  A    between atoms: N_2  and  C1_3 
ROOT
ATOM      1  C1  UNL d   1      -1.990   1.744   2.113  0.00  0.00     0.143 A 
ATOM      2  C2  UNL d   1      -0.806   2.361   1.695  0.00  0.00    -0.057 A 
ATOM      3  C3  UNL d   1       0.242   1.619   1.137  0.00  0.00     0.033 A 
ATOM      4  C4  UNL d   1       0.135   0.237   1.013  0.00  0.00    -0.042 A 
ATOM      5  C5  UNL d   1      -1.023  -0.400   1.444  0.00  0.00     0.033 A 
ATOM      6  C6  UNL d   1      -2.068   0.348   1.995  0.00  0.00    -0.057 A 
ENDROOT
BRANCH   1   7
ATOM      7  N   UNL d   1      -3.027   2.414   2.766  0.00  0.00    -0.732 N 
ATOM      8  C   UNL d   1      -4.023   1.678   3.516  0.00  0.00     0.284 C 
ATOM      9  H3  UNL d   1      -2.713   3.269   3.220  0.00  0.00     0.395 HD
ENDBRANCH   1   7
TORSDOF 1
ENDMDL
