MODEL 1
REMARK minimizedAffinity -4.40551567
REMARK minimizedRMSD -1
REMARK  1 active torsions:
REMARK  status: ('A' for Active; 'I' for Inactive)
REMARK    1  A    between atoms: N_2  and  C1_3 
ROOT
ATOM      1  C1  UNL d   1      -0.186   1.934   1.419  0.00  0.00     0.143 A 
ATOM      2  C2  UNL d   1      -1.387   1.682   2.091  0.00  0.00    -0.057 A 
ATOM      3  C3  UNL d   1      -1.895   0.383   2.209  0.00  0.00     0.033 A 
ATOM      4  C4  UNL d   1      -1.222  -0.688   1.630  0.00  0.00    -0.042 A 
ATOM      5  C5  UNL d   1      -0.040  -0.459   0.936  0.00  0.00     0.033 A 
ATOM      6  C6  UNL d   1       0.466   0.840   0.827  0.00  0.00    -0.057 A 
ENDROOT
BRANCH   1   7
ATOM      7  N   UNL d   1       0.320   3.214   1.182  0.00  0.00    -0.732 N 
ATOM      8  C   UNL d   1       1.722   3.409   0.882  0.00  0.00     0.284 C 
ATOM      9  H3  UNL d   1      -0.308   3.782   0.619  0.00  0.00     0.395 HD
ENDBRANCH   1   7
TORSDOF 1
ENDMDL
