MODEL 1
REMARK minimizedAffinity 0.998387933
REMARK minimizedRMSD -1
REMARK  1 active torsions:
REMARK  status: ('A' for Active; 'I' for Inactive)
REMARK    1  A    between atoms: N_2  and  C1_3 
ROOT
ATOM      1  C1  UNL d   1      -1.492   1.930   1.905  0.00  0.00     0.143 A 
ATOM      2  C2  UNL d   1      -0.333   2.331   1.232  0.00  0.00    -0.057 A 
ATOM      3  C3  UNL d   1       0.634   1.400   0.835  0.00  0.00     0.033 A 
ATOM      4  C4  UNL d   1       0.473   0.051   1.130  0.00  0.00    -0.042 A 
ATOM      5  C5  UNL d   1      -0.660  -0.367   1.820  0.00  0.00     0.033 A 
ATOM      6  C6  UNL d   1      -1.625   0.566   2.209  0.00  0.00    -0.057 A 
ENDROOT
BRANCH   1   7
ATOM      7  N   UNL d   1      -2.443   2.818   2.413  0.00  0.00    -0.732 N 
ATOM      8  C   UNL d   1      -3.413   2.379   3.393  0.00  0.00     0.284 C 
ATOM      9  H3  UNL d   1      -2.054   3.740   2.598  0.00  0.00     0.395 HD
ENDBRANCH   1   7
TORSDOF 1
ENDMDL
