MODEL 1
REMARK minimizedAffinity -2.49060106
REMARK minimizedRMSD -1
REMARK  1 active torsions:
REMARK  status: ('A' for Active; 'I' for Inactive)
REMARK    1  A    between atoms: N_2  and  C1_3 
ROOT
ATOM      1  C1  UNL d   1      -0.965   1.946   2.003  0.00  0.00     0.143 A 
ATOM      2  C2  UNL d   1       0.407   2.217   1.974  0.00  0.00    -0.057 A 
ATOM      3  C3  UNL d   1       1.300   1.373   1.303  0.00  0.00     0.033 A 
ATOM      4  C4  UNL d   1       0.838   0.222   0.671  0.00  0.00    -0.042 A 
ATOM      5  C5  UNL d   1      -0.518  -0.080   0.709  0.00  0.00     0.033 A 
ATOM      6  C6  UNL d   1      -1.406   0.770   1.375  0.00  0.00    -0.057 A 
ENDROOT
BRANCH   1   7
ATOM      7  N   UNL d   1      -1.890   2.693   2.735  0.00  0.00    -0.732 N 
ATOM      8  C   UNL d   1      -2.921   2.036   3.509  0.00  0.00     0.284 C 
ATOM      9  H3  UNL d   1      -1.463   3.489   3.204  0.00  0.00     0.395 HD
ENDBRANCH   1   7
TORSDOF 1
ENDMDL
