MODEL 1
REMARK minimizedAffinity 5.57276201
REMARK minimizedRMSD -1
REMARK  1 active torsions:
REMARK  status: ('A' for Active; 'I' for Inactive)
REMARK    1  A    between atoms: N_2  and  C1_3 
ROOT
ATOM      1  C1  UNL d   1      -3.928  -2.732  -3.162  0.00  0.00     0.143 A 
ATOM      2  C2  UNL d   1      -3.856  -1.440  -2.632  0.00  0.00    -0.057 A 
ATOM      3  C3  UNL d   1      -3.750  -1.226  -1.252  0.00  0.00     0.033 A 
ATOM      4  C4  UNL d   1      -3.743  -2.305  -0.374  0.00  0.00    -0.042 A 
ATOM      5  C5  UNL d   1      -3.839  -3.597  -0.877  0.00  0.00     0.033 A 
ATOM      6  C6  UNL d   1      -3.938  -3.804  -2.256  0.00  0.00    -0.057 A 
ENDROOT
BRANCH   1   7
ATOM      7  N   UNL d   1      -4.133  -3.007  -4.517  0.00  0.00    -0.732 N 
ATOM      8  C   UNL d   1      -3.028  -3.395  -5.366  0.00  0.00     0.284 C 
ATOM      9  H3  UNL d   1      -4.988  -3.533  -4.681  0.00  0.00     0.395 HD
ENDBRANCH   1   7
TORSDOF 1
ENDMDL
