MODEL 1
REMARK minimizedAffinity 1.89283442
REMARK minimizedRMSD -1
REMARK  1 active torsions:
REMARK  status: ('A' for Active; 'I' for Inactive)
REMARK    1  A    between atoms: N_2  and  C1_3 
ROOT
ATOM      1  C1  UNL d   1      -0.850   1.490   1.580  0.00  0.00     0.143 A 
ATOM      2  C2  UNL d   1       0.094   1.483   0.547  0.00  0.00    -0.057 A 
ATOM      3  C3  UNL d   1       0.810   0.323   0.225  0.00  0.00     0.033 A 
ATOM      4  C4  UNL d   1       0.615  -0.846   0.953  0.00  0.00    -0.042 A 
ATOM      5  C5  UNL d   1      -0.300  -0.856   1.999  0.00  0.00     0.033 A 
ATOM      6  C6  UNL d   1      -1.017   0.303   2.311  0.00  0.00    -0.057 A 
ENDROOT
BRANCH   1   7
ATOM      7  N   UNL d   1      -1.521   2.636   2.012  0.00  0.00    -0.732 N 
ATOM      8  C   UNL d   1      -2.640   2.534   2.924  0.00  0.00     0.284 C 
ATOM      9  H3  UNL d   1      -0.887   3.404   2.216  0.00  0.00     0.395 HD
ENDBRANCH   1   7
TORSDOF 1
ENDMDL
