MODEL 1
REMARK minimizedAffinity -2.63621736
REMARK minimizedRMSD -1
REMARK  1 active torsions:
REMARK  status: ('A' for Active; 'I' for Inactive)
REMARK    1  A    between atoms: N_2  and  C1_3 
ROOT
ATOM      1  C1  UNL d   1       0.552   2.513   0.673  0.00  0.00     0.143 A 
ATOM      2  C2  UNL d   1      -0.619   3.227   0.948  0.00  0.00    -0.057 A 
ATOM      3  C3  UNL d   1      -1.753   2.592   1.468  0.00  0.00     0.033 A 
ATOM      4  C4  UNL d   1      -1.745   1.220   1.696  0.00  0.00    -0.042 A 
ATOM      5  C5  UNL d   1      -0.601   0.485   1.408  0.00  0.00     0.033 A 
ATOM      6  C6  UNL d   1       0.531   1.127   0.895  0.00  0.00    -0.057 A 
ENDROOT
BRANCH   1   7
ATOM      7  N   UNL d   1       1.678   3.070   0.064  0.00  0.00    -0.732 N 
ATOM      8  C   UNL d   1       2.330   4.228   0.637  0.00  0.00     0.284 C 
ATOM      9  H3  UNL d   1       2.320   2.362  -0.287  0.00  0.00     0.395 HD
ENDBRANCH   1   7
TORSDOF 1
ENDMDL
