MODEL 1
REMARK minimizedAffinity -0.980365098
REMARK minimizedRMSD -1
REMARK  1 active torsions:
REMARK  status: ('A' for Active; 'I' for Inactive)
REMARK    1  A    between atoms: N_2  and  C1_3 
ROOT
ATOM      1  C1  UNL d   1      -2.251   0.955   2.134  0.00  0.00     0.143 A 
ATOM      2  C2  UNL d   1      -1.604   2.185   2.295  0.00  0.00    -0.057 A 
ATOM      3  C3  UNL d   1      -0.387   2.453   1.657  0.00  0.00     0.033 A 
ATOM      4  C4  UNL d   1       0.221   1.483   0.867  0.00  0.00    -0.042 A 
ATOM      5  C5  UNL d   1      -0.392   0.244   0.713  0.00  0.00     0.033 A 
ATOM      6  C6  UNL d   1      -1.611  -0.016   1.348  0.00  0.00    -0.057 A 
ENDROOT
BRANCH   1   7
ATOM      7  N   UNL d   1      -3.413   0.592   2.820  0.00  0.00    -0.732 N 
ATOM      8  C   UNL d   1      -4.275   1.602   3.395  0.00  0.00     0.284 C 
ATOM      9  H3  UNL d   1      -3.910  -0.170   2.365  0.00  0.00     0.395 HD
ENDBRANCH   1   7
TORSDOF 1
ENDMDL
