MODEL 1
REMARK minimizedAffinity 14.991148
REMARK minimizedRMSD -1
REMARK  0 active torsions:
REMARK  status: ('A' for Active; 'I' for Inactive)
ROOT
ATOM      1  C   UNL d   1      -4.511   6.000   1.327  0.00  0.00     0.023 A 
ATOM      2  C1  UNL d   1      -3.229   5.960   0.778  0.00  0.00     0.003 A 
ATOM      3  C2  UNL d   1      -2.659   4.736   0.422  0.00  0.00     0.048 A 
ATOM      4  C3  UNL d   1      -3.376   3.556   0.616  0.00  0.00     0.023 A 
ATOM      5  C4  UNL d   1      -4.660   3.592   1.164  0.00  0.00     0.048 A 
ATOM      6  C5  UNL d   1      -5.225   4.818   1.519  0.00  0.00     0.003 A 
ATOM      7  I   UNL d   1      -2.530   1.733   0.086  0.00  0.00    -0.146 I 
ENDROOT
TORSDOF 0
ENDMDL
