MODEL 1
REMARK minimizedAffinity 17.8291092
REMARK minimizedRMSD -1
REMARK  0 active torsions:
REMARK  status: ('A' for Active; 'I' for Inactive)
ROOT
ATOM      1  C   UNL d   1      -4.304   5.676   1.136  0.00  0.00     0.023 A 
ATOM      2  C1  UNL d   1      -4.622   4.348   1.422  0.00  0.00     0.003 A 
ATOM      3  C2  UNL d   1      -3.677   3.342   1.213  0.00  0.00     0.048 A 
ATOM      4  C3  UNL d   1      -2.415   3.670   0.719  0.00  0.00     0.023 A 
ATOM      5  C4  UNL d   1      -2.092   4.997   0.432  0.00  0.00     0.048 A 
ATOM      6  C5  UNL d   1      -3.040   6.000   0.641  0.00  0.00     0.003 A 
ATOM      7  I   UNL d   1      -1.007   2.173   0.408  0.00  0.00    -0.146 I 
ENDROOT
TORSDOF 0
ENDMDL
