MODEL 1
REMARK minimizedAffinity 11.9157753
REMARK minimizedRMSD -1
REMARK  0 active torsions:
REMARK  status: ('A' for Active; 'I' for Inactive)
ROOT
ATOM      1  C   UNL d   1      -1.565   2.725  -0.790  0.00  0.00     0.023 A 
ATOM      2  C1  UNL d   1      -2.217   2.437   0.408  0.00  0.00     0.003 A 
ATOM      3  C2  UNL d   1      -1.477   2.147   1.556  0.00  0.00     0.048 A 
ATOM      4  C3  UNL d   1      -0.084   2.147   1.498  0.00  0.00     0.023 A 
ATOM      5  C4  UNL d   1       0.574   2.436   0.301  0.00  0.00     0.048 A 
ATOM      6  C5  UNL d   1      -0.171   2.724  -0.844  0.00  0.00     0.003 A 
ATOM      7  I   UNL d   1       1.021   1.716   3.205  0.00  0.00    -0.146 I 
ENDROOT
TORSDOF 0
ENDMDL
