MODEL 1
REMARK minimizedAffinity 24.4365234
REMARK minimizedRMSD -1
REMARK  0 active torsions:
REMARK  status: ('A' for Active; 'I' for Inactive)
ROOT
ATOM      1  C   UNL d   1       6.000  -4.565   0.659  0.00  0.00     0.023 A 
ATOM      2  C1  UNL d   1       4.996  -3.628   0.903  0.00  0.00     0.003 A 
ATOM      3  C2  UNL d   1       3.780  -3.711   0.221  0.00  0.00     0.048 A 
ATOM      4  C3  UNL d   1       3.575  -4.735  -0.704  0.00  0.00     0.023 A 
ATOM      5  C4  UNL d   1       4.577  -5.675  -0.951  0.00  0.00     0.048 A 
ATOM      6  C5  UNL d   1       5.791  -5.587  -0.267  0.00  0.00     0.003 A 
ATOM      7  I   UNL d   1       1.767  -4.861  -1.721  0.00  0.00    -0.146 I 
ENDROOT
TORSDOF 0
ENDMDL
