MODEL 1
REMARK minimizedAffinity 8.67494869
REMARK minimizedRMSD -1
REMARK  0 active torsions:
REMARK  status: ('A' for Active; 'I' for Inactive)
ROOT
ATOM      1  C   UNL d   1      -3.143  -1.961   5.566  0.00  0.00     0.023 A 
ATOM      2  C1  UNL d   1      -4.473  -1.926   5.987  0.00  0.00     0.003 A 
ATOM      3  C2  UNL d   1      -5.293  -3.041   5.808  0.00  0.00     0.048 A 
ATOM      4  C3  UNL d   1      -4.778  -4.189   5.207  0.00  0.00     0.023 A 
ATOM      5  C4  UNL d   1      -3.448  -4.230   4.785  0.00  0.00     0.048 A 
ATOM      6  C5  UNL d   1      -2.632  -3.112   4.966  0.00  0.00     0.003 A 
ATOM      7  I   UNL d   1      -5.998  -5.851   4.940  0.00  0.00    -0.146 I 
ENDROOT
TORSDOF 0
ENDMDL
