MODEL 1
REMARK minimizedAffinity -2.42325902
REMARK minimizedRMSD -1
REMARK  0 active torsions:
REMARK  status: ('A' for Active; 'I' for Inactive)
ROOT
ATOM      1  C   UNL d   1      -2.085   5.334  -4.534  0.00  0.00     0.023 A 
ATOM      2  C1  UNL d   1      -1.908   4.187  -3.759  0.00  0.00     0.003 A 
ATOM      3  C2  UNL d   1      -2.798   3.118  -3.878  0.00  0.00     0.048 A 
ATOM      4  C3  UNL d   1      -3.863   3.201  -4.774  0.00  0.00     0.023 A 
ATOM      5  C4  UNL d   1      -4.044   4.346  -5.553  0.00  0.00     0.048 A 
ATOM      6  C5  UNL d   1      -3.152   5.413  -5.430  0.00  0.00     0.003 A 
ATOM      7  I   UNL d   1      -5.189   1.611  -4.953  0.00  0.00    -0.146 I 
ENDROOT
TORSDOF 0
ENDMDL
