MODEL 1
REMARK minimizedAffinity 6.57952499
REMARK minimizedRMSD -1
REMARK  0 active torsions:
REMARK  status: ('A' for Active; 'I' for Inactive)
ROOT
ATOM      1  C   UNL d   1      -5.994  -3.897   5.017  0.00  0.00     0.023 A 
ATOM      2  C1  UNL d   1      -5.141  -4.516   4.103  0.00  0.00     0.003 A 
ATOM      3  C2  UNL d   1      -3.771  -4.249   4.132  0.00  0.00     0.048 A 
ATOM      4  C3  UNL d   1      -3.259  -3.363   5.079  0.00  0.00     0.023 A 
ATOM      5  C4  UNL d   1      -4.108  -2.743   5.997  0.00  0.00     0.048 A 
ATOM      6  C5  UNL d   1      -5.477  -3.012   5.964  0.00  0.00     0.003 A 
ATOM      7  I   UNL d   1      -1.220  -2.965   5.125  0.00  0.00    -0.146 I 
ENDROOT
TORSDOF 0
ENDMDL
