MODEL 1
REMARK minimizedAffinity 14.7668819
REMARK minimizedRMSD -1
REMARK  0 active torsions:
REMARK  status: ('A' for Active; 'I' for Inactive)
ROOT
ATOM      1  C   UNL d   1      -1.472   6.000  -5.246  0.00  0.00     0.023 A 
ATOM      2  C1  UNL d   1      -2.633   5.688  -5.955  0.00  0.00     0.003 A 
ATOM      3  C2  UNL d   1      -3.306   4.491  -5.703  0.00  0.00     0.048 A 
ATOM      4  C3  UNL d   1      -2.813   3.611  -4.739  0.00  0.00     0.023 A 
ATOM      5  C4  UNL d   1      -1.653   3.919  -4.027  0.00  0.00     0.048 A 
ATOM      6  C5  UNL d   1      -0.983   5.117  -4.284  0.00  0.00     0.003 A 
ATOM      7  I   UNL d   1      -3.814   1.828  -4.361  0.00  0.00    -0.146 I 
ENDROOT
TORSDOF 0
ENDMDL
