MODEL 1
REMARK minimizedAffinity 10.3935328
REMARK minimizedRMSD -1
REMARK  0 active torsions:
REMARK  status: ('A' for Active; 'I' for Inactive)
ROOT
ATOM      1  C   UNL d   1      -1.859   6.000  -4.853  0.00  0.00     0.023 A 
ATOM      2  C1  UNL d   1      -1.539   5.043  -3.890  0.00  0.00     0.003 A 
ATOM      3  C2  UNL d   1      -2.254   3.846  -3.827  0.00  0.00     0.048 A 
ATOM      4  C3  UNL d   1      -3.289   3.611  -4.732  0.00  0.00     0.023 A 
ATOM      5  C4  UNL d   1      -3.613   4.564  -5.698  0.00  0.00     0.048 A 
ATOM      6  C5  UNL d   1      -2.895   5.760  -5.757  0.00  0.00     0.003 A 
ATOM      7  I   UNL d   1      -4.355   1.829  -4.641  0.00  0.00    -0.146 I 
ENDROOT
TORSDOF 0
ENDMDL
