MODEL 1
REMARK minimizedAffinity 1.2796396
REMARK minimizedRMSD -1
REMARK  0 active torsions:
REMARK  status: ('A' for Active; 'I' for Inactive)
ROOT
ATOM      1  C   UNL d   1      -2.177   5.999  -5.240  0.00  0.00     0.023 A 
ATOM      2  C1  UNL d   1      -3.352   5.923  -5.987  0.00  0.00     0.003 A 
ATOM      3  C2  UNL d   1      -4.098   4.742  -6.000  0.00  0.00     0.048 A 
ATOM      4  C3  UNL d   1      -3.663   3.642  -5.262  0.00  0.00     0.023 A 
ATOM      5  C4  UNL d   1      -2.488   3.714  -4.512  0.00  0.00     0.048 A 
ATOM      6  C5  UNL d   1      -1.745   4.896  -4.503  0.00  0.00     0.003 A 
ATOM      7  I   UNL d   1      -4.771   1.883  -5.278  0.00  0.00    -0.146 I 
ENDROOT
TORSDOF 0
ENDMDL
