MODEL 1
REMARK minimizedAffinity 19.1141663
REMARK minimizedRMSD -1
REMARK  0 active torsions:
REMARK  status: ('A' for Active; 'I' for Inactive)
ROOT
ATOM      1  C   UNL d   1       1.916  -6.000  -2.282  0.00  0.00     0.023 A 
ATOM      2  C1  UNL d   1       0.934  -5.013  -2.190  0.00  0.00     0.003 A 
ATOM      3  C2  UNL d   1       1.180  -3.847  -1.464  0.00  0.00     0.048 A 
ATOM      4  C3  UNL d   1       2.411  -3.672  -0.832  0.00  0.00     0.023 A 
ATOM      5  C4  UNL d   1       3.397  -4.656  -0.922  0.00  0.00     0.048 A 
ATOM      6  C5  UNL d   1       3.146  -5.821  -1.649  0.00  0.00     0.003 A 
ATOM      7  I   UNL d   1       2.780  -1.936   0.250  0.00  0.00    -0.146 I 
ENDROOT
TORSDOF 0
ENDMDL
