MODEL 1
REMARK minimizedAffinity 15.4355011
REMARK minimizedRMSD -1
REMARK  0 active torsions:
REMARK  status: ('A' for Active; 'I' for Inactive)
ROOT
ATOM      1  C   UNL d   1       1.214   2.689   3.081  0.00  0.00     0.023 A 
ATOM      2  C1  UNL d   1       0.702   2.992   1.819  0.00  0.00     0.003 A 
ATOM      3  C2  UNL d   1      -0.606   2.630   1.490  0.00  0.00     0.048 A 
ATOM      4  C3  UNL d   1      -1.397   1.968   2.428  0.00  0.00     0.023 A 
ATOM      5  C4  UNL d   1      -0.889   1.663   3.692  0.00  0.00     0.048 A 
ATOM      6  C5  UNL d   1       0.420   2.026   4.016  0.00  0.00     0.003 A 
ATOM      7  I   UNL d   1      -3.344   1.429   1.941  0.00  0.00    -0.146 I 
ENDROOT
TORSDOF 0
ENDMDL
