MODEL 1
REMARK minimizedAffinity 19.0935917
REMARK minimizedRMSD -1
REMARK  0 active torsions:
REMARK  status: ('A' for Active; 'I' for Inactive)
ROOT
ATOM      1  C   UNL d   1      -4.552   5.264  -1.255  0.00  0.00     0.023 A 
ATOM      2  C1  UNL d   1      -5.787   5.722  -0.797  0.00  0.00     0.003 A 
ATOM      3  C2  UNL d   1      -5.994   5.930   0.568  0.00  0.00     0.048 A 
ATOM      4  C3  UNL d   1      -4.961   5.677   1.470  0.00  0.00     0.023 A 
ATOM      5  C4  UNL d   1      -3.723   5.219   1.016  0.00  0.00     0.048 A 
ATOM      6  C5  UNL d   1      -3.521   5.013  -0.350  0.00  0.00     0.003 A 
ATOM      7  I   UNL d   1      -5.266   5.985   3.503  0.00  0.00    -0.146 I 
ENDROOT
TORSDOF 0
ENDMDL
