MODEL 1
REMARK minimizedAffinity 9.10641289
REMARK minimizedRMSD -1
REMARK  0 active torsions:
REMARK  status: ('A' for Active; 'I' for Inactive)
ROOT
ATOM      1  C   UNL d   1      -5.888  -5.170   3.283  0.00  0.00     0.023 A 
ATOM      2  C1  UNL d   1      -5.841  -3.835   3.686  0.00  0.00     0.003 A 
ATOM      3  C2  UNL d   1      -5.873  -2.815   2.732  0.00  0.00     0.048 A 
ATOM      4  C3  UNL d   1      -5.952  -3.137   1.378  0.00  0.00     0.023 A 
ATOM      5  C4  UNL d   1      -6.000  -4.471   0.970  0.00  0.00     0.048 A 
ATOM      6  C5  UNL d   1      -5.967  -5.487   1.927  0.00  0.00     0.003 A 
ATOM      7  I   UNL d   1      -6.000  -1.620  -0.043  0.00  0.00    -0.146 I 
ENDROOT
TORSDOF 0
ENDMDL
