MODEL 1
REMARK minimizedAffinity 15.7510643
REMARK minimizedRMSD -1
REMARK  0 active torsions:
REMARK  status: ('A' for Active; 'I' for Inactive)
ROOT
ATOM      1  C   UNL d   1      -0.811   2.504  -1.194  0.00  0.00     0.023 A 
ATOM      2  C1  UNL d   1      -1.643   1.864  -0.275  0.00  0.00     0.003 A 
ATOM      3  C2  UNL d   1      -1.161   1.534   0.993  0.00  0.00     0.048 A 
ATOM      4  C3  UNL d   1       0.153   1.849   1.337  0.00  0.00     0.023 A 
ATOM      5  C4  UNL d   1       0.989   2.490   0.421  0.00  0.00     0.048 A 
ATOM      6  C5  UNL d   1       0.503   2.817  -0.846  0.00  0.00     0.003 A 
ATOM      7  I   UNL d   1       0.873   1.359   3.224  0.00  0.00    -0.146 I 
ENDROOT
TORSDOF 0
ENDMDL
