MODEL 1
REMARK minimizedAffinity 3.5779357
REMARK minimizedRMSD -1
REMARK  0 active torsions:
REMARK  status: ('A' for Active; 'I' for Inactive)
ROOT
ATOM      1  C   UNL d   1      -5.875  -5.145   4.194  0.00  0.00     0.023 A 
ATOM      2  C1  UNL d   1      -5.852  -6.000   3.092  0.00  0.00     0.003 A 
ATOM      3  C2  UNL d   1      -5.888  -5.475   1.798  0.00  0.00     0.048 A 
ATOM      4  C3  UNL d   1      -5.946  -4.094   1.614  0.00  0.00     0.023 A 
ATOM      5  C4  UNL d   1      -5.967  -3.235   2.714  0.00  0.00     0.048 A 
ATOM      6  C5  UNL d   1      -5.932  -3.764   4.005  0.00  0.00     0.003 A 
ATOM      7  I   UNL d   1      -5.999  -3.310  -0.310  0.00  0.00    -0.146 I 
ENDROOT
TORSDOF 0
ENDMDL
