MODEL 1
REMARK minimizedAffinity 15.0653105
REMARK minimizedRMSD -1
REMARK  0 active torsions:
REMARK  status: ('A' for Active; 'I' for Inactive)
ROOT
ATOM      1  C   UNL d   1      -6.000  -3.907   5.320  0.00  0.00     0.023 A 
ATOM      2  C1  UNL d   1      -5.232  -4.714   4.481  0.00  0.00     0.003 A 
ATOM      3  C2  UNL d   1      -3.869  -4.458   4.319  0.00  0.00     0.048 A 
ATOM      4  C3  UNL d   1      -3.280  -3.394   5.001  0.00  0.00     0.023 A 
ATOM      5  C4  UNL d   1      -4.044  -2.584   5.842  0.00  0.00     0.048 A 
ATOM      6  C5  UNL d   1      -5.407  -2.843   6.000  0.00  0.00     0.003 A 
ATOM      7  I   UNL d   1      -1.251  -3.011   4.763  0.00  0.00    -0.146 I 
ENDROOT
TORSDOF 0
ENDMDL
