MODEL 1
REMARK minimizedAffinity -3.93132639
REMARK minimizedRMSD -1
REMARK  3 active torsions:
REMARK  status: ('A' for Active; 'I' for Inactive)
REMARK    1  A    between atoms: C3'_2  and  C2'_3 
REMARK    2  A    between atoms: C2'_3  and  C1'_4 
REMARK    3  A    between atoms: C1'_4  and  C1_5 
ROOT
ATOM      1  C1  N4B d   1      -0.194   5.837  -4.624  0.00  0.00    -0.075 A 
ATOM      2  C2  N4B d   1      -1.591   6.000  -4.756  0.00  0.00     0.002 A 
ATOM      3  C3  N4B d   1      -2.390   5.995  -3.639  0.00  0.00     0.002 A 
ATOM      4  C4  N4B d   1      -1.820   5.811  -2.388  0.00  0.00    -0.004 A 
ATOM      5  C5  N4B d   1      -0.468   5.680  -2.268  0.00  0.00     0.002 A 
ATOM      6  C6  N4B d   1       0.348   5.687  -3.381  0.00  0.00     0.002 A 
ENDROOT
BRANCH   1   7
ATOM      7  C1' N4B d   1       0.711   5.750  -5.823  0.00  0.00     0.057 C 
BRANCH   7   8
ATOM      8  C2' N4B d   1       1.693   4.598  -5.626  0.00  0.00     0.009 C 
BRANCH   8   9
ATOM      9  C3' N4B d   1       3.123   5.012  -5.925  0.00  0.00     0.004 C 
ATOM     10  C4' N4B d   1       3.661   6.000  -4.933  0.00  0.00     0.003 C 
ENDBRANCH   8   9
ENDBRANCH   7   8
ENDBRANCH   1   7
TORSDOF 3
ENDMDL
