MODEL 1
REMARK minimizedAffinity 0.128632531
REMARK minimizedRMSD -1
REMARK  3 active torsions:
REMARK  status: ('A' for Active; 'I' for Inactive)
REMARK    1  A    between atoms: C3'_2  and  C2'_3 
REMARK    2  A    between atoms: C2'_3  and  C1'_4 
REMARK    3  A    between atoms: C1'_4  and  C1_5 
ROOT
ATOM      1  C1  N4B d   1       0.389   0.569  -0.567  0.00  0.00    -0.075 A 
ATOM      2  C2  N4B d   1       1.288   1.560  -1.017  0.00  0.00     0.002 A 
ATOM      3  C3  N4B d   1       1.734   2.527  -0.150  0.00  0.00     0.002 A 
ATOM      4  C4  N4B d   1       1.282   2.535   1.161  0.00  0.00    -0.004 A 
ATOM      5  C5  N4B d   1       0.434   1.559   1.595  0.00  0.00     0.002 A 
ATOM      6  C6  N4B d   1      -0.020   0.578   0.735  0.00  0.00     0.002 A 
ENDROOT
BRANCH   1   7
ATOM      7  C1' N4B d   1      -0.193  -0.459  -1.499  0.00  0.00     0.057 C 
BRANCH   7   8
ATOM      8  C2' N4B d   1      -1.679  -0.174  -1.693  0.00  0.00     0.009 C 
BRANCH   8   9
ATOM      9  C3' N4B d   1      -2.310  -1.112  -2.707  0.00  0.00     0.004 C 
ATOM     10  C4' N4B d   1      -2.197  -0.606  -4.115  0.00  0.00     0.003 C 
ENDBRANCH   8   9
ENDBRANCH   7   8
ENDBRANCH   1   7
TORSDOF 3
ENDMDL
