MODEL 1
REMARK minimizedAffinity -2.02859926
REMARK minimizedRMSD -1
REMARK  3 active torsions:
REMARK  status: ('A' for Active; 'I' for Inactive)
REMARK    1  A    between atoms: C3'_2  and  C2'_3 
REMARK    2  A    between atoms: C2'_3  and  C1'_4 
REMARK    3  A    between atoms: C1'_4  and  C1_5 
ROOT
ATOM      1  C1  N4B d   1      -1.913   5.916  -3.735  0.00  0.00    -0.075 A 
ATOM      2  C2  N4B d   1      -3.321   5.952  -3.621  0.00  0.00     0.002 A 
ATOM      3  C3  N4B d   1      -3.908   6.000  -2.381  0.00  0.00     0.002 A 
ATOM      4  C4  N4B d   1      -3.113   5.995  -1.245  0.00  0.00    -0.004 A 
ATOM      5  C5  N4B d   1      -1.754   5.986  -1.364  0.00  0.00     0.002 A 
ATOM      6  C6  N4B d   1      -1.150   5.942  -2.604  0.00  0.00     0.002 A 
ENDROOT
BRANCH   1   7
ATOM      7  C1' N4B d   1      -1.227   5.776  -5.066  0.00  0.00     0.057 C 
BRANCH   7   8
ATOM      8  C2' N4B d   1      -0.782   4.329  -5.251  0.00  0.00     0.009 C 
BRANCH   8   9
ATOM      9  C3' N4B d   1       0.729   4.186  -5.187  0.00  0.00     0.004 C 
ATOM     10  C4' N4B d   1       1.445   5.224  -5.999  0.00  0.00     0.003 C 
ENDBRANCH   8   9
ENDBRANCH   7   8
ENDBRANCH   1   7
TORSDOF 3
ENDMDL
