MODEL 1
REMARK minimizedAffinity 7.75611162
REMARK minimizedRMSD -1
REMARK  3 active torsions:
REMARK  status: ('A' for Active; 'I' for Inactive)
REMARK    1  A    between atoms: C3'_2  and  C2'_3 
REMARK    2  A    between atoms: C2'_3  and  C1'_4 
REMARK    3  A    between atoms: C1'_4  and  C1_5 
ROOT
ATOM      1  C1  N4B d   1      -1.993  -0.085  -1.103  0.00  0.00    -0.075 A 
ATOM      2  C2  N4B d   1      -1.514  -0.039  -2.431  0.00  0.00     0.002 A 
ATOM      3  C3  N4B d   1      -2.064  -0.857  -3.388  0.00  0.00     0.002 A 
ATOM      4  C4  N4B d   1      -3.076  -1.738  -3.038  0.00  0.00    -0.004 A 
ATOM      5  C5  N4B d   1      -3.550  -1.758  -1.759  0.00  0.00     0.002 A 
ATOM      6  C6  N4B d   1      -3.010  -0.939  -0.788  0.00  0.00     0.002 A 
ENDROOT
BRANCH   1   7
ATOM      7  C1' N4B d   1      -1.365   0.727  -0.004  0.00  0.00     0.057 C 
BRANCH   7   8
ATOM      8  C2' N4B d   1       0.131   0.433   0.044  0.00  0.00     0.009 C 
BRANCH   8   9
ATOM      9  C3' N4B d   1       0.889   1.475   0.849  0.00  0.00     0.004 C 
ATOM     10  C4' N4B d   1       1.393   2.607   0.004  0.00  0.00     0.003 C 
ENDBRANCH   8   9
ENDBRANCH   7   8
ENDBRANCH   1   7
TORSDOF 3
ENDMDL
