MODEL 1
REMARK minimizedAffinity 6.62666798
REMARK minimizedRMSD -1
REMARK  3 active torsions:
REMARK  status: ('A' for Active; 'I' for Inactive)
REMARK    1  A    between atoms: C3'_2  and  C2'_3 
REMARK    2  A    between atoms: C2'_3  and  C1'_4 
REMARK    3  A    between atoms: C1'_4  and  C1_5 
ROOT
ATOM      1  C1  N4B d   1      -1.510   5.915  -2.391  0.00  0.00    -0.075 A 
ATOM      2  C2  N4B d   1      -1.673   5.950  -3.794  0.00  0.00     0.002 A 
ATOM      3  C3  N4B d   1      -2.933   5.999  -4.337  0.00  0.00     0.002 A 
ATOM      4  C4  N4B d   1      -4.040   5.995  -3.503  0.00  0.00    -0.004 A 
ATOM      5  C5  N4B d   1      -3.874   5.987  -2.149  0.00  0.00     0.002 A 
ATOM      6  C6  N4B d   1      -2.613   5.942  -1.588  0.00  0.00     0.002 A 
ENDROOT
BRANCH   1   7
ATOM      7  C1' N4B d   1      -0.155   5.775  -1.752  0.00  0.00     0.057 C 
BRANCH   7   8
ATOM      8  C2' N4B d   1      -0.146   4.533  -0.866  0.00  0.00     0.009 C 
BRANCH   8   9
ATOM      9  C3' N4B d   1       1.125   3.719  -1.041  0.00  0.00     0.004 C 
ATOM     10  C4' N4B d   1       1.549   3.025   0.219  0.00  0.00     0.003 C 
ENDBRANCH   8   9
ENDBRANCH   7   8
ENDBRANCH   1   7
TORSDOF 3
ENDMDL
