MODEL 1
REMARK minimizedAffinity 4.73846292
REMARK minimizedRMSD -1
REMARK  3 active torsions:
REMARK  status: ('A' for Active; 'I' for Inactive)
REMARK    1  A    between atoms: C3'_2  and  C2'_3 
REMARK    2  A    between atoms: C2'_3  and  C1'_4 
REMARK    3  A    between atoms: C1'_4  and  C1_5 
ROOT
ATOM      1  C1  N4B d   1       0.522   0.191   0.444  0.00  0.00    -0.075 A 
ATOM      2  C2  N4B d   1       0.783   1.074   1.515  0.00  0.00     0.002 A 
ATOM      3  C3  N4B d   1       1.129   2.378   1.260  0.00  0.00     0.002 A 
ATOM      4  C4  N4B d   1       1.238   2.815  -0.052  0.00  0.00    -0.004 A 
ATOM      5  C5  N4B d   1       0.959   1.963  -1.079  0.00  0.00     0.002 A 
ATOM      6  C6  N4B d   1       0.606   0.650  -0.838  0.00  0.00     0.002 A 
ENDROOT
BRANCH   1   7
ATOM      7  C1' N4B d   1       0.223  -1.266   0.671  0.00  0.00     0.057 C 
BRANCH   7   8
ATOM      8  C2' N4B d   1      -1.002  -1.392   1.572  0.00  0.00     0.009 C 
BRANCH   8   9
ATOM      9  C3' N4B d   1      -1.243  -2.828   2.006  0.00  0.00     0.004 C 
ATOM     10  C4' N4B d   1      -1.661  -2.938   3.442  0.00  0.00     0.003 C 
ENDBRANCH   8   9
ENDBRANCH   7   8
ENDBRANCH   1   7
TORSDOF 3
ENDMDL
