MODEL 1
REMARK minimizedAffinity 6.32696724
REMARK minimizedRMSD -1
REMARK  0 active torsions:
REMARK  status: ('A' for Active; 'I' for Inactive)
ROOT
ATOM      1  C1  BNZ d   1       0.517  -2.875  -0.456  0.00  0.00     0.000 A 
ATOM      2  C2  BNZ d   1      -0.477  -3.816  -0.461  0.00  0.00     0.000 A 
ATOM      3  C3  BNZ d   1      -1.792  -3.444  -0.499  0.00  0.00     0.000 A 
ATOM      4  C4  BNZ d   1      -2.112  -2.134  -0.492  0.00  0.00     0.000 A 
ATOM      5  C5  BNZ d   1      -1.120  -1.173  -0.478  0.00  0.00     0.000 A 
ATOM      6  C6  BNZ d   1       0.203  -1.551  -0.479  0.00  0.00     0.000 A 
ENDROOT
TORSDOF 0
ENDMDL
