MODEL 1
REMARK minimizedAffinity -0.177327707
REMARK minimizedRMSD -1
REMARK  0 active torsions:
REMARK  status: ('A' for Active; 'I' for Inactive)
ROOT
ATOM      1  C1  BNZ d   1       4.064  -1.352   3.809  0.00  0.00     0.000 A 
ATOM      2  C2  BNZ d   1       5.405  -1.630   3.821  0.00  0.00     0.000 A 
ATOM      3  C3  BNZ d   1       5.985  -2.230   4.904  0.00  0.00     0.000 A 
ATOM      4  C4  BNZ d   1       5.233  -2.513   5.987  0.00  0.00     0.000 A 
ATOM      5  C5  BNZ d   1       3.882  -2.230   5.994  0.00  0.00     0.000 A 
ATOM      6  C6  BNZ d   1       3.294  -1.662   4.887  0.00  0.00     0.000 A 
ENDROOT
TORSDOF 0
ENDMDL
