MODEL 1
REMARK minimizedAffinity 6.38946533
REMARK minimizedRMSD -1
REMARK  0 active torsions:
REMARK  status: ('A' for Active; 'I' for Inactive)
ROOT
ATOM      1  C1  BNZ d   1       4.813   5.964  -3.264  0.00  0.00     0.000 A 
ATOM      2  C2  BNZ d   1       3.635   5.909  -3.960  0.00  0.00     0.000 A 
ATOM      3  C3  BNZ d   1       3.630   5.874  -5.326  0.00  0.00     0.000 A 
ATOM      4  C4  BNZ d   1       4.799   5.933  -5.995  0.00  0.00     0.000 A 
ATOM      5  C5  BNZ d   1       5.995   5.997  -5.308  0.00  0.00     0.000 A 
ATOM      6  C6  BNZ d   1       5.998   5.994  -3.932  0.00  0.00     0.000 A 
ENDROOT
TORSDOF 0
ENDMDL
