MODEL 1
REMARK minimizedAffinity 1.12132835
REMARK minimizedRMSD -1
REMARK  0 active torsions:
REMARK  status: ('A' for Active; 'I' for Inactive)
ROOT
ATOM      1  C1  BNZ d   1       1.937  -2.061   4.045  0.00  0.00     0.000 A 
ATOM      2  C2  BNZ d   1       2.837  -2.754   4.810  0.00  0.00     0.000 A 
ATOM      3  C3  BNZ d   1       4.179  -2.515   4.699  0.00  0.00     0.000 A 
ATOM      4  C4  BNZ d   1       4.620  -1.615   3.798  0.00  0.00     0.000 A 
ATOM      5  C5  BNZ d   1       3.725  -0.915   3.013  0.00  0.00     0.000 A 
ATOM      6  C6  BNZ d   1       2.373  -1.130   3.154  0.00  0.00     0.000 A 
ENDROOT
TORSDOF 0
ENDMDL
