MODEL 1
REMARK minimizedAffinity 1.85768914
REMARK minimizedRMSD -1
REMARK  0 active torsions:
REMARK  status: ('A' for Active; 'I' for Inactive)
ROOT
ATOM      1  C1  BNZ d   1       2.817  -0.272   3.507  0.00  0.00     0.000 A 
ATOM      2  C2  BNZ d   1       3.511   0.862   3.179  0.00  0.00     0.000 A 
ATOM      3  C3  BNZ d   1       3.150   1.615   2.097  0.00  0.00     0.000 A 
ATOM      4  C4  BNZ d   1       2.123   1.212   1.322  0.00  0.00     0.000 A 
ATOM      5  C5  BNZ d   1       1.419   0.066   1.634  0.00  0.00     0.000 A 
ATOM      6  C6  BNZ d   1       1.760  -0.668   2.747  0.00  0.00     0.000 A 
ENDROOT
TORSDOF 0
ENDMDL
