MODEL 1
REMARK minimizedAffinity 0.226787239
REMARK minimizedRMSD -1
REMARK  0 active torsions:
REMARK  status: ('A' for Active; 'I' for Inactive)
ROOT
ATOM      1  C1  BNZ d   1       1.730  -3.078   4.643  0.00  0.00     0.000 A 
ATOM      2  C2  BNZ d   1       1.624  -1.713   4.614  0.00  0.00     0.000 A 
ATOM      3  C3  BNZ d   1       1.915  -1.012   3.477  0.00  0.00     0.000 A 
ATOM      4  C4  BNZ d   1       2.349  -1.673   2.384  0.00  0.00     0.000 A 
ATOM      5  C5  BNZ d   1       2.470  -3.048   2.400  0.00  0.00     0.000 A 
ATOM      6  C6  BNZ d   1       2.139  -3.753   3.535  0.00  0.00     0.000 A 
ENDROOT
TORSDOF 0
ENDMDL
