MODEL 1
REMARK minimizedAffinity 9.61643124
REMARK minimizedRMSD -1
REMARK  0 active torsions:
REMARK  status: ('A' for Active; 'I' for Inactive)
ROOT
ATOM      1  C1  BNZ d   1      -0.037  -0.044   1.742  0.00  0.00     0.000 A 
ATOM      2  C2  BNZ d   1       1.296  -0.324   1.888  0.00  0.00     0.000 A 
ATOM      3  C3  BNZ d   1       2.224   0.680   1.908  0.00  0.00     0.000 A 
ATOM      4  C4  BNZ d   1       1.823   1.957   1.741  0.00  0.00     0.000 A 
ATOM      5  C5  BNZ d   1       0.484   2.254   1.582  0.00  0.00     0.000 A 
ATOM      6  C6  BNZ d   1      -0.451   1.245   1.602  0.00  0.00     0.000 A 
ENDROOT
TORSDOF 0
ENDMDL
