MODEL 1
REMARK minimizedAffinity 2.40271258
REMARK minimizedRMSD -1
REMARK  0 active torsions:
REMARK  status: ('A' for Active; 'I' for Inactive)
ROOT
ATOM      1  C1  BNZ d   1       1.858  -2.546   5.256  0.00  0.00     0.000 A 
ATOM      2  C2  BNZ d   1       0.691  -3.166   5.614  0.00  0.00     0.000 A 
ATOM      3  C3  BNZ d   1       0.685  -4.478   6.000  0.00  0.00     0.000 A 
ATOM      4  C4  BNZ d   1       1.838  -5.177   5.989  0.00  0.00     0.000 A 
ATOM      5  C5  BNZ d   1       3.022  -4.568   5.621  0.00  0.00     0.000 A 
ATOM      6  C6  BNZ d   1       3.030  -3.237   5.270  0.00  0.00     0.000 A 
ENDROOT
TORSDOF 0
ENDMDL
