MODEL 1
REMARK minimizedAffinity -0.303075939
REMARK minimizedRMSD -1
REMARK  0 active torsions:
REMARK  status: ('A' for Active; 'I' for Inactive)
ROOT
ATOM      1  C1  BNZ d   1       2.489  -1.362   2.073  0.00  0.00     0.000 A 
ATOM      2  C2  BNZ d   1       1.866  -0.876   3.192  0.00  0.00     0.000 A 
ATOM      3  C3  BNZ d   1       1.605  -1.691   4.257  0.00  0.00     0.000 A 
ATOM      4  C4  BNZ d   1       1.930  -2.998   4.188  0.00  0.00     0.000 A 
ATOM      5  C5  BNZ d   1       2.550  -3.505   3.063  0.00  0.00     0.000 A 
ATOM      6  C6  BNZ d   1       2.846  -2.673   2.008  0.00  0.00     0.000 A 
ENDROOT
TORSDOF 0
ENDMDL
