MODEL 1
REMARK minimizedAffinity 7.09527111
REMARK minimizedRMSD -1
REMARK  0 active torsions:
REMARK  status: ('A' for Active; 'I' for Inactive)
ROOT
ATOM      1  C   UNL d   1       1.722   0.865  -0.494  0.00  0.00     0.172 C 
ATOM      2  N   UNL d   1       1.372   1.811   0.538  0.00  0.00    -0.070 N 
ATOM      3  C1  UNL d   1       2.254   2.459   1.361  0.00  0.00    -0.004 A 
ATOM      4  C2  UNL d   1       1.528   3.272   2.203  0.00  0.00    -0.047 A 
ATOM      5  C3  UNL d   1       0.161   3.107   1.876  0.00  0.00    -0.047 A 
ATOM      6  C4  UNL d   1       0.093   2.197   0.842  0.00  0.00    -0.004 A 
ENDROOT
TORSDOF 0
ENDMDL
