MODEL 1
REMARK minimizedAffinity -0.547214091
REMARK minimizedRMSD -1
REMARK  0 active torsions:
REMARK  status: ('A' for Active; 'I' for Inactive)
ROOT
ATOM      1  C   UNL d   1       0.966  -0.433   0.340  0.00  0.00     0.172 C 
ATOM      2  N   UNL d   1       0.885   0.937   0.791  0.00  0.00    -0.070 N 
ATOM      3  C1  UNL d   1      -0.248   1.705   0.811  0.00  0.00    -0.004 A 
ATOM      4  C2  UNL d   1       0.091   2.945   1.308  0.00  0.00    -0.047 A 
ATOM      5  C3  UNL d   1       1.476   2.921   1.595  0.00  0.00    -0.047 A 
ATOM      6  C4  UNL d   1       1.943   1.666   1.266  0.00  0.00    -0.004 A 
ENDROOT
TORSDOF 0
ENDMDL
