MODEL 1
REMARK minimizedAffinity -0.959542513
REMARK minimizedRMSD -1
REMARK  0 active torsions:
REMARK  status: ('A' for Active; 'I' for Inactive)
ROOT
ATOM      1  C   UNL d   1       1.033   0.156   0.630  0.00  0.00     0.172 C 
ATOM      2  N   UNL d   1      -0.346   0.548   0.803  0.00  0.00    -0.070 N 
ATOM      3  C1  UNL d   1      -0.828   1.827   0.726  0.00  0.00    -0.004 A 
ATOM      4  C2  UNL d   1      -2.187   1.781   0.949  0.00  0.00    -0.047 A 
ATOM      5  C3  UNL d   1      -2.534   0.426   1.168  0.00  0.00    -0.047 A 
ATOM      6  C4  UNL d   1      -1.376  -0.315   1.072  0.00  0.00    -0.004 A 
ENDROOT
TORSDOF 0
ENDMDL
