MODEL 1
REMARK minimizedAffinity 0.0138324443
REMARK minimizedRMSD -1
REMARK  0 active torsions:
REMARK  status: ('A' for Active; 'I' for Inactive)
ROOT
ATOM      1  C   UNL d   1      -0.121   2.642   1.280  0.00  0.00     0.172 C 
ATOM      2  N   UNL d   1      -0.912   1.458   1.038  0.00  0.00    -0.070 N 
ATOM      3  C1  UNL d   1      -2.155   1.208   1.556  0.00  0.00    -0.004 A 
ATOM      4  C2  UNL d   1      -2.568  -0.021   1.089  0.00  0.00    -0.047 A 
ATOM      5  C3  UNL d   1      -1.537  -0.528   0.262  0.00  0.00    -0.047 A 
ATOM      6  C4  UNL d   1      -0.524   0.408   0.249  0.00  0.00    -0.004 A 
ENDROOT
TORSDOF 0
ENDMDL
