MODEL 1
REMARK minimizedAffinity 4.56629896
REMARK minimizedRMSD -1
REMARK  0 active torsions:
REMARK  status: ('A' for Active; 'I' for Inactive)
ROOT
ATOM      1  C   UNL d   1      -0.884   2.964   0.349  0.00  0.00     0.172 C 
ATOM      2  N   UNL d   1      -1.670   1.769   0.550  0.00  0.00    -0.070 N 
ATOM      3  C1  UNL d   1      -3.031   1.723   0.690  0.00  0.00    -0.004 A 
ATOM      4  C2  UNL d   1      -3.393   0.404   0.860  0.00  0.00    -0.047 A 
ATOM      5  C3  UNL d   1      -2.209  -0.369   0.822  0.00  0.00    -0.047 A 
ATOM      6  C4  UNL d   1      -1.157   0.501   0.628  0.00  0.00    -0.004 A 
ENDROOT
TORSDOF 0
ENDMDL
