MODEL 1
REMARK minimizedAffinity 0.207433015
REMARK minimizedRMSD -1
REMARK  0 active torsions:
REMARK  status: ('A' for Active; 'I' for Inactive)
ROOT
ATOM      1  C   UNL d   1      -2.217   1.833  -6.000  0.00  0.00     0.172 C 
ATOM      2  N   UNL d   1      -2.316   3.198  -5.538  0.00  0.00    -0.070 N 
ATOM      3  C1  UNL d   1      -1.528   3.776  -4.579  0.00  0.00    -0.004 A 
ATOM      4  C2  UNL d   1      -1.938   5.083  -4.427  0.00  0.00    -0.047 A 
ATOM      5  C3  UNL d   1      -3.011   5.297  -5.325  0.00  0.00    -0.047 A 
ATOM      6  C4  UNL d   1      -3.224   4.114  -6.000  0.00  0.00    -0.004 A 
ENDROOT
TORSDOF 0
ENDMDL
