MODEL 1
REMARK minimizedAffinity 3.9672761
REMARK minimizedRMSD -1
REMARK  0 active torsions:
REMARK  status: ('A' for Active; 'I' for Inactive)
ROOT
ATOM      1  C   UNL d   1      -1.972   2.998   3.471  0.00  0.00     0.172 C 
ATOM      2  N   UNL d   1      -1.889   2.184   2.281  0.00  0.00    -0.070 N 
ATOM      3  C1  UNL d   1      -1.594   2.637   1.023  0.00  0.00    -0.004 A 
ATOM      4  C2  UNL d   1      -1.612   1.555   0.170  0.00  0.00    -0.047 A 
ATOM      5  C3  UNL d   1      -1.930   0.413   0.941  0.00  0.00    -0.047 A 
ATOM      6  C4  UNL d   1      -2.096   0.831   2.245  0.00  0.00    -0.004 A 
ENDROOT
TORSDOF 0
ENDMDL
