MODEL 1
REMARK minimizedAffinity -2.63984275
REMARK minimizedRMSD -1
REMARK  0 active torsions:
REMARK  status: ('A' for Active; 'I' for Inactive)
ROOT
ATOM      1  C   UNL d   1       1.960   2.669   1.936  0.00  0.00     0.172 C 
ATOM      2  N   UNL d   1       0.725   2.097   1.454  0.00  0.00    -0.070 N 
ATOM      3  C1  UNL d   1       0.560   0.813   1.007  0.00  0.00    -0.004 A 
ATOM      4  C2  UNL d   1      -0.759   0.661   0.638  0.00  0.00    -0.047 A 
ATOM      5  C3  UNL d   1      -1.409   1.896   0.871  0.00  0.00    -0.047 A 
ATOM      6  C4  UNL d   1      -0.468   2.767   1.376  0.00  0.00    -0.004 A 
ENDROOT
TORSDOF 0
ENDMDL
