MODEL 1
REMARK minimizedAffinity 2.95916009
REMARK minimizedRMSD -1
REMARK  0 active torsions:
REMARK  status: ('A' for Active; 'I' for Inactive)
ROOT
ATOM      1  C   UNL d   1       2.415   3.407   3.047  0.00  0.00     0.172 C 
ATOM      2  N   UNL d   1       1.579   2.775   2.054  0.00  0.00    -0.070 N 
ATOM      3  C1  UNL d   1       0.266   3.075   1.807  0.00  0.00    -0.004 A 
ATOM      4  C2  UNL d   1      -0.170   2.255   0.789  0.00  0.00    -0.047 A 
ATOM      5  C3  UNL d   1       0.917   1.432   0.412  0.00  0.00    -0.047 A 
ATOM      6  C4  UNL d   1       1.988   1.775   1.211  0.00  0.00    -0.004 A 
ENDROOT
TORSDOF 0
ENDMDL
