MODEL 1
REMARK minimizedAffinity 1.91649413
REMARK minimizedRMSD -1
REMARK  0 active torsions:
REMARK  status: ('A' for Active; 'I' for Inactive)
ROOT
ATOM      1  C   UNL d   1      -2.638   2.482  -5.999  0.00  0.00     0.172 C 
ATOM      2  N   UNL d   1      -2.737   3.836  -5.508  0.00  0.00    -0.070 N 
ATOM      3  C1  UNL d   1      -1.996   4.372  -4.488  0.00  0.00    -0.004 A 
ATOM      4  C2  UNL d   1      -2.387   5.683  -4.326  0.00  0.00    -0.047 A 
ATOM      5  C3  UNL d   1      -3.399   5.944  -5.280  0.00  0.00    -0.047 A 
ATOM      6  C4  UNL d   1      -3.596   4.784  -5.998  0.00  0.00    -0.004 A 
ENDROOT
TORSDOF 0
ENDMDL
