MODEL 1
REMARK minimizedAffinity 0.569072843
REMARK minimizedRMSD -1
REMARK  0 active torsions:
REMARK  status: ('A' for Active; 'I' for Inactive)
ROOT
ATOM      1  C   UNL d   1      -1.932  -2.471  -0.815  0.00  0.00     0.172 C 
ATOM      2  N   UNL d   1      -2.637  -3.689  -0.492  0.00  0.00    -0.070 N 
ATOM      3  C1  UNL d   1      -2.103  -4.950  -0.513  0.00  0.00    -0.004 A 
ATOM      4  C2  UNL d   1      -3.094  -5.834  -0.143  0.00  0.00    -0.047 A 
ATOM      5  C3  UNL d   1      -4.263  -5.078   0.109  0.00  0.00    -0.047 A 
ATOM      6  C4  UNL d   1      -3.952  -3.753  -0.115  0.00  0.00    -0.004 A 
ENDROOT
TORSDOF 0
ENDMDL
