MODEL 1
REMARK minimizedAffinity 3.54652762
REMARK minimizedRMSD -1
REMARK  0 active torsions:
REMARK  status: ('A' for Active; 'I' for Inactive)
ROOT
ATOM      1  C   UNL d   1       1.602   0.413   0.413  0.00  0.00     0.172 C 
ATOM      2  N   UNL d   1       0.187   0.660   0.564  0.00  0.00    -0.070 N 
ATOM      3  C1  UNL d   1      -0.402   1.892   0.666  0.00  0.00    -0.004 A 
ATOM      4  C2  UNL d   1      -1.760   1.700   0.796  0.00  0.00    -0.047 A 
ATOM      5  C3  UNL d   1      -1.996   0.305   0.772  0.00  0.00    -0.047 A 
ATOM      6  C4  UNL d   1      -0.773  -0.315   0.628  0.00  0.00    -0.004 A 
ENDROOT
TORSDOF 0
ENDMDL
