MODEL 1
REMARK minimizedAffinity 2.29608059
REMARK minimizedRMSD -1
REMARK  0 active torsions:
REMARK  status: ('A' for Active; 'I' for Inactive)
ROOT
ATOM      1  C   UNL d   1       5.998   3.237   2.261  0.00  0.00     0.172 C 
ATOM      2  N   UNL d   1       4.589   3.011   2.043  0.00  0.00    -0.070 N 
ATOM      3  C1  UNL d   1       3.570   3.552   2.781  0.00  0.00    -0.004 A 
ATOM      4  C2  UNL d   1       2.380   3.094   2.258  0.00  0.00    -0.047 A 
ATOM      5  C3  UNL d   1       2.695   2.248   1.168  0.00  0.00    -0.047 A 
ATOM      6  C4  UNL d   1       4.069   2.215   1.057  0.00  0.00    -0.004 A 
ENDROOT
TORSDOF 0
ENDMDL
