MODEL 1
REMARK minimizedAffinity 3.19729638
REMARK minimizedRMSD -1
REMARK  0 active torsions:
REMARK  status: ('A' for Active; 'I' for Inactive)
ROOT
ATOM      1  C   UNL d   1      -0.910   3.036   0.926  0.00  0.00     0.172 C 
ATOM      2  N   UNL d   1      -1.138   1.631   0.682  0.00  0.00    -0.070 N 
ATOM      3  C1  UNL d   1      -2.360   1.013   0.662  0.00  0.00    -0.004 A 
ATOM      4  C2  UNL d   1      -2.152  -0.324   0.396  0.00  0.00    -0.047 A 
ATOM      5  C3  UNL d   1      -0.757  -0.515   0.252  0.00  0.00    -0.047 A 
ATOM      6  C4  UNL d   1      -0.153   0.711   0.434  0.00  0.00    -0.004 A 
ENDROOT
TORSDOF 0
ENDMDL
