MODEL 1
REMARK minimizedAffinity 0.699534118
REMARK minimizedRMSD -1
REMARK  1 active torsions:
REMARK  status: ('A' for Active; 'I' for Inactive)
REMARK    1  A    between atoms: C1_2  and  C2_3 
ROOT
ATOM      1  C2  UNL d   1       0.581  -3.900   0.899  0.00  0.00    -0.081 A 
ATOM      2  C3  UNL d   1       1.842  -3.439   0.500  0.00  0.00     0.006 A 
ATOM      3  C4  UNL d   1       1.980  -2.187  -0.103  0.00  0.00     0.002 A 
ATOM      4  C5  UNL d   1       0.862  -1.371  -0.310  0.00  0.00    -0.080 A 
ATOM      5  C6  UNL d   1       1.000  -0.012  -0.928  0.00  0.00     0.076 C 
ATOM      6  C7  UNL d   1      -0.400  -1.839   0.073  0.00  0.00     0.002 A 
ATOM      7  C8  UNL d   1      -0.539  -3.091   0.675  0.00  0.00     0.006 A 
ENDROOT
BRANCH   1   8
ATOM      8  C1  UNL d   1       0.437  -5.222   1.608  0.00  0.00     0.054 C 
ATOM      9  C   UNL d   1       1.751  -5.991   1.618  0.00  0.00     0.018 C 
ENDBRANCH   1   8
TORSDOF 1
ENDMDL
