MODEL 1
REMARK minimizedAffinity 7.10129452
REMARK minimizedRMSD -1
REMARK  1 active torsions:
REMARK  status: ('A' for Active; 'I' for Inactive)
REMARK    1  A    between atoms: C1_2  and  C2_3 
ROOT
ATOM      1  C2  UNL d   1       1.654  -2.069   0.543  0.00  0.00    -0.081 A 
ATOM      2  C3  UNL d   1       0.379  -2.478   0.133  0.00  0.00     0.006 A 
ATOM      3  C4  UNL d   1      -0.192  -1.955  -1.030  0.00  0.00     0.002 A 
ATOM      4  C5  UNL d   1       0.503  -1.021  -1.804  0.00  0.00    -0.080 A 
ATOM      5  C6  UNL d   1      -0.086  -0.474  -3.071  0.00  0.00     0.076 C 
ATOM      6  C7  UNL d   1       1.770  -0.598  -1.385  0.00  0.00     0.002 A 
ATOM      7  C8  UNL d   1       2.341  -1.120  -0.223  0.00  0.00     0.006 A 
ENDROOT
BRANCH   1   8
ATOM      8  C1  UNL d   1       2.300  -2.679   1.761  0.00  0.00     0.054 C 
ATOM      9  C   UNL d   1       2.376  -1.679   2.906  0.00  0.00     0.018 C 
ENDBRANCH   1   8
TORSDOF 1
ENDMDL
