MODEL 1
REMARK minimizedAffinity 0.159858689
REMARK minimizedRMSD -1
REMARK  1 active torsions:
REMARK  status: ('A' for Active; 'I' for Inactive)
REMARK    1  A    between atoms: C1_2  and  C2_3 
ROOT
ATOM      1  C2  UNL d   1       0.290  -3.529   0.697  0.00  0.00    -0.081 A 
ATOM      2  C3  UNL d   1       1.624  -3.211   0.980  0.00  0.00     0.006 A 
ATOM      3  C4  UNL d   1       2.169  -1.998   0.553  0.00  0.00     0.002 A 
ATOM      4  C5  UNL d   1       1.388  -1.079  -0.156  0.00  0.00    -0.080 A 
ATOM      5  C6  UNL d   1       1.952   0.240  -0.593  0.00  0.00     0.076 C 
ATOM      6  C7  UNL d   1       0.061  -1.403  -0.454  0.00  0.00     0.002 A 
ATOM      7  C8  UNL d   1      -0.485  -2.617  -0.029  0.00  0.00     0.006 A 
ENDROOT
BRANCH   1   8
ATOM      8  C1  UNL d   1      -0.319  -4.808   1.211  0.00  0.00     0.054 C 
ATOM      9  C   UNL d   1       0.754  -5.812   1.607  0.00  0.00     0.018 C 
ENDBRANCH   1   8
TORSDOF 1
ENDMDL
