MODEL 1
REMARK minimizedAffinity -2.29053926
REMARK minimizedRMSD -1
REMARK  1 active torsions:
REMARK  status: ('A' for Active; 'I' for Inactive)
REMARK    1  A    between atoms: C1_2  and  C2_3 
ROOT
ATOM      1  C2  UNL d   1       0.211  -3.744   0.959  0.00  0.00    -0.081 A 
ATOM      2  C3  UNL d   1      -0.871  -3.060   0.392  0.00  0.00     0.006 A 
ATOM      3  C4  UNL d   1      -0.662  -1.893  -0.347  0.00  0.00     0.002 A 
ATOM      4  C5  UNL d   1       0.631  -1.396  -0.538  0.00  0.00    -0.080 A 
ATOM      5  C6  UNL d   1       0.872  -0.161  -1.355  0.00  0.00     0.076 C 
ATOM      6  C7  UNL d   1       1.711  -2.070   0.043  0.00  0.00     0.002 A 
ATOM      7  C8  UNL d   1       1.503  -3.236   0.783  0.00  0.00     0.006 A 
ENDROOT
BRANCH   1   8
ATOM      8  C1  UNL d   1      -0.004  -5.038   1.702  0.00  0.00     0.054 C 
ATOM      9  C   UNL d   1       1.166  -5.991   1.505  0.00  0.00     0.018 C 
ENDBRANCH   1   8
TORSDOF 1
ENDMDL
