MODEL 1
REMARK minimizedAffinity 12.7329645
REMARK minimizedRMSD -1
REMARK  1 active torsions:
REMARK  status: ('A' for Active; 'I' for Inactive)
REMARK    1  A    between atoms: C1_2  and  C2_3 
ROOT
ATOM      1  C2  UNL d   1      -3.245   1.533   3.914  0.00  0.00    -0.081 A 
ATOM      2  C3  UNL d   1      -2.151   0.719   4.229  0.00  0.00     0.006 A 
ATOM      3  C4  UNL d   1      -2.164  -0.641   3.908  0.00  0.00     0.002 A 
ATOM      4  C5  UNL d   1      -3.267  -1.207   3.260  0.00  0.00    -0.080 A 
ATOM      5  C6  UNL d   1      -3.281  -2.658   2.883  0.00  0.00     0.076 C 
ATOM      6  C7  UNL d   1      -4.367  -0.397   2.960  0.00  0.00     0.002 A 
ATOM      7  C8  UNL d   1      -4.355   0.962   3.281  0.00  0.00     0.006 A 
ENDROOT
BRANCH   1   8
ATOM      8  C1  UNL d   1      -3.207   3.012   4.200  0.00  0.00     0.054 C 
ATOM      9  C   UNL d   1      -3.119   3.823   2.915  0.00  0.00     0.018 C 
ENDBRANCH   1   8
TORSDOF 1
ENDMDL
