MODEL 1
REMARK minimizedAffinity 3.04244757
REMARK minimizedRMSD -1
REMARK  1 active torsions:
REMARK  status: ('A' for Active; 'I' for Inactive)
REMARK    1  A    between atoms: C1_2  and  C2_3 
ROOT
ATOM      1  C2  UNL d   1       0.934  -4.051   0.873  0.00  0.00    -0.081 A 
ATOM      2  C3  UNL d   1      -0.098  -3.438   0.151  0.00  0.00     0.006 A 
ATOM      3  C4  UNL d   1      -0.043  -2.074  -0.144  0.00  0.00     0.002 A 
ATOM      4  C5  UNL d   1       1.047  -1.301   0.271  0.00  0.00    -0.080 A 
ATOM      5  C6  UNL d   1       1.133   0.158  -0.065  0.00  0.00     0.076 C 
ATOM      6  C7  UNL d   1       2.070  -1.909   1.006  0.00  0.00     0.002 A 
ATOM      7  C8  UNL d   1       2.016  -3.273   1.302  0.00  0.00     0.006 A 
ENDROOT
BRANCH   1   8
ATOM      8  C1  UNL d   1       0.910  -5.535   1.136  0.00  0.00     0.054 C 
ATOM      9  C   UNL d   1      -0.479  -6.000   1.552  0.00  0.00     0.018 C 
ENDBRANCH   1   8
TORSDOF 1
ENDMDL
