MODEL 1
REMARK minimizedAffinity 2.0250864
REMARK minimizedRMSD -1
REMARK  1 active torsions:
REMARK  status: ('A' for Active; 'I' for Inactive)
REMARK    1  A    between atoms: C1_2  and  C2_3 
ROOT
ATOM      1  C2  UNL d   1       0.576  -1.324  -0.730  0.00  0.00    -0.081 A 
ATOM      2  C3  UNL d   1       0.689   0.067  -0.626  0.00  0.00     0.006 A 
ATOM      3  C4  UNL d   1       0.965   0.842  -1.756  0.00  0.00     0.002 A 
ATOM      4  C5  UNL d   1       1.125   0.239  -3.008  0.00  0.00    -0.080 A 
ATOM      5  C6  UNL d   1       1.392   1.061  -4.233  0.00  0.00     0.076 C 
ATOM      6  C7  UNL d   1       1.029  -1.153  -3.109  0.00  0.00     0.002 A 
ATOM      7  C8  UNL d   1       0.754  -1.928  -1.980  0.00  0.00     0.006 A 
ENDROOT
BRANCH   1   8
ATOM      8  C1  UNL d   1       0.213  -2.156   0.474  0.00  0.00     0.054 C 
ATOM      9  C   UNL d   1      -1.241  -1.950   0.871  0.00  0.00     0.018 C 
ENDBRANCH   1   8
TORSDOF 1
ENDMDL
