MODEL 1
REMARK minimizedAffinity 3.16500378
REMARK minimizedRMSD -1
REMARK  1 active torsions:
REMARK  status: ('A' for Active; 'I' for Inactive)
REMARK    1  A    between atoms: C1_2  and  C2_3 
ROOT
ATOM      1  C2  UNL d   1       1.618   1.350  -3.810  0.00  0.00    -0.081 A 
ATOM      2  C3  UNL d   1       0.767   2.066  -2.959  0.00  0.00     0.006 A 
ATOM      3  C4  UNL d   1       0.327   1.501  -1.759  0.00  0.00     0.002 A 
ATOM      4  C5  UNL d   1       0.737   0.216  -1.387  0.00  0.00    -0.080 A 
ATOM      5  C6  UNL d   1       0.297  -0.390  -0.088  0.00  0.00     0.076 C 
ATOM      6  C7  UNL d   1       1.573  -0.506  -2.246  0.00  0.00     0.002 A 
ATOM      7  C8  UNL d   1       2.012   0.058  -3.446  0.00  0.00     0.006 A 
ENDROOT
BRANCH   1   8
ATOM      8  C1  UNL d   1       2.145   1.981  -5.073  0.00  0.00     0.054 C 
ATOM      9  C   UNL d   1       3.617   1.654  -5.283  0.00  0.00     0.018 C 
ENDBRANCH   1   8
TORSDOF 1
ENDMDL
