MODEL 1
REMARK minimizedAffinity 1.64994347
REMARK minimizedRMSD -1
REMARK  1 active torsions:
REMARK  status: ('A' for Active; 'I' for Inactive)
REMARK    1  A    between atoms: C1_2  and  C2_3 
ROOT
ATOM      1  C2  UNL d   1      -4.546   1.874   5.591  0.00  0.00    -0.081 A 
ATOM      2  C3  UNL d   1      -5.461   2.859   5.983  0.00  0.00     0.006 A 
ATOM      3  C4  UNL d   1      -5.253   4.196   5.637  0.00  0.00     0.002 A 
ATOM      4  C5  UNL d   1      -4.133   4.570   4.888  0.00  0.00    -0.080 A 
ATOM      5  C6  UNL d   1      -3.914   5.998   4.484  0.00  0.00     0.076 C 
ATOM      6  C7  UNL d   1      -3.209   3.589   4.511  0.00  0.00     0.002 A 
ATOM      7  C8  UNL d   1      -3.416   2.252   4.857  0.00  0.00     0.006 A 
ENDROOT
BRANCH   1   8
ATOM      8  C1  UNL d   1      -4.800   0.422   5.907  0.00  0.00     0.054 C 
ATOM      9  C   UNL d   1      -3.804  -0.482   5.194  0.00  0.00     0.018 C 
ENDBRANCH   1   8
TORSDOF 1
ENDMDL
