MODEL 1
REMARK minimizedAffinity 4.01189518
REMARK minimizedRMSD -1
REMARK  1 active torsions:
REMARK  status: ('A' for Active; 'I' for Inactive)
REMARK    1  A    between atoms: C1_2  and  C2_3 
ROOT
ATOM      1  C2  UNL d   1       4.997   1.839  -5.578  0.00  0.00    -0.081 A 
ATOM      2  C3  UNL d   1       5.366   3.135  -5.197  0.00  0.00     0.006 A 
ATOM      3  C4  UNL d   1       4.423   4.165  -5.185  0.00  0.00     0.002 A 
ATOM      4  C5  UNL d   1       3.094   3.916  -5.545  0.00  0.00    -0.080 A 
ATOM      5  C6  UNL d   1       2.065   5.006  -5.506  0.00  0.00     0.076 C 
ATOM      6  C7  UNL d   1       2.729   2.625  -5.942  0.00  0.00     0.002 A 
ATOM      7  C8  UNL d   1       3.672   1.595  -5.955  0.00  0.00     0.006 A 
ENDROOT
BRANCH   1   8
ATOM      8  C1  UNL d   1       5.997   0.712  -5.531  0.00  0.00     0.054 C 
ATOM      9  C   UNL d   1       5.983   0.017  -4.177  0.00  0.00     0.018 C 
ENDBRANCH   1   8
TORSDOF 1
ENDMDL
