MODEL 1
REMARK minimizedAffinity -0.51455909
REMARK minimizedRMSD -1
REMARK  0 active torsions:
REMARK  status: ('A' for Active; 'I' for Inactive)
ROOT
ATOM      1  C4' PXY d   1      -0.314   3.376  -1.828  0.00  0.00     0.077 C 
ATOM      2  C1' PXY d   1       0.454  -0.384   2.496  0.00  0.00     0.077 C 
ATOM      3  C1  PXY d   1       0.248   0.611   1.370  0.00  0.00    -0.082 A 
ATOM      4  C2  PXY d   1       0.121   0.175   0.127  0.00  0.00     0.003 A 
ATOM      5  C3  PXY d   1      -0.034   1.063  -0.906  0.00  0.00     0.003 A 
ATOM      6  C4  PXY d   1      -0.114   2.407  -0.659  0.00  0.00    -0.082 A 
ATOM      7  C5  PXY d   1       0.004   2.859   0.608  0.00  0.00     0.003 A 
ATOM      8  C6  PXY d   1       0.202   1.944   1.638  0.00  0.00     0.003 A 
ENDROOT
TORSDOF 0
ENDMDL
