MODEL 1
REMARK minimizedAffinity -3.79950714
REMARK minimizedRMSD -1
REMARK  0 active torsions:
REMARK  status: ('A' for Active; 'I' for Inactive)
ROOT
ATOM      1  C4' PXY d   1       0.488  -2.795  -1.418  0.00  0.00     0.077 C 
ATOM      2  C1' PXY d   1       0.209   1.968   1.845  0.00  0.00     0.077 C 
ATOM      3  C1  PXY d   1       0.282   0.726   0.978  0.00  0.00    -0.082 A 
ATOM      4  C2  PXY d   1      -0.113  -0.437   1.469  0.00  0.00     0.003 A 
ATOM      5  C3  PXY d   1      -0.024  -1.576   0.710  0.00  0.00     0.003 A 
ATOM      6  C4  PXY d   1       0.424  -1.514  -0.582  0.00  0.00    -0.082 A 
ATOM      7  C5  PXY d   1       0.819  -0.328  -1.093  0.00  0.00     0.003 A 
ATOM      8  C6  PXY d   1       0.759   0.809  -0.293  0.00  0.00     0.003 A 
ENDROOT
TORSDOF 0
ENDMDL
