MODEL 1
REMARK minimizedAffinity -3.96381998
REMARK minimizedRMSD -1
REMARK  0 active torsions:
REMARK  status: ('A' for Active; 'I' for Inactive)
ROOT
ATOM      1  C4' PXY d   1      -0.937  -2.177  -1.733  0.00  0.00     0.077 C 
ATOM      2  C1' PXY d   1      -0.496   2.519   1.609  0.00  0.00     0.077 C 
ATOM      3  C1  PXY d   1      -0.614   1.295   0.722  0.00  0.00    -0.082 A 
ATOM      4  C2  PXY d   1      -0.916   0.125   1.260  0.00  0.00     0.003 A 
ATOM      5  C3  PXY d   1      -0.995  -0.998   0.477  0.00  0.00     0.003 A 
ATOM      6  C4  PXY d   1      -0.817  -0.912  -0.878  0.00  0.00    -0.082 A 
ATOM      7  C5  PXY d   1      -0.519   0.280  -1.435  0.00  0.00     0.003 A 
ATOM      8  C6  PXY d   1      -0.403   1.401  -0.618  0.00  0.00     0.003 A 
ENDROOT
TORSDOF 0
ENDMDL
