MODEL 1
REMARK minimizedAffinity -3.95247912
REMARK minimizedRMSD -1
REMARK  0 active torsions:
REMARK  status: ('A' for Active; 'I' for Inactive)
ROOT
ATOM      1  C4' PXY d   1       0.779  -1.692  -0.916  0.00  0.00     0.077 C 
ATOM      2  C1' PXY d   1      -1.535   2.934   1.663  0.00  0.00     0.077 C 
ATOM      3  C1  PXY d   1      -0.934   1.725   0.975  0.00  0.00    -0.082 A 
ATOM      4  C2  PXY d   1      -0.609   0.660   1.690  0.00  0.00     0.003 A 
ATOM      5  C3  PXY d   1      -0.035  -0.431   1.089  0.00  0.00     0.003 A 
ATOM      6  C4  PXY d   1       0.161  -0.452  -0.266  0.00  0.00    -0.082 A 
ATOM      7  C5  PXY d   1      -0.178   0.626  -1.004  0.00  0.00     0.003 A 
ATOM      8  C6  PXY d   1      -0.722   1.739  -0.369  0.00  0.00     0.003 A 
ENDROOT
TORSDOF 0
ENDMDL
