MODEL 1
REMARK minimizedAffinity -4.53020239
REMARK minimizedRMSD -1
REMARK  0 active torsions:
REMARK  status: ('A' for Active; 'I' for Inactive)
ROOT
ATOM      1  C4' PXY d   1      -0.643  -3.008  -1.430  0.00  0.00     0.077 C 
ATOM      2  C1' PXY d   1      -0.057   1.973   1.444  0.00  0.00     0.077 C 
ATOM      3  C1  PXY d   1      -0.206   0.672   0.680  0.00  0.00    -0.082 A 
ATOM      4  C2  PXY d   1      -1.070  -0.238   1.099  0.00  0.00     0.003 A 
ATOM      5  C3  PXY d   1      -1.195  -1.433   0.438  0.00  0.00     0.003 A 
ATOM      6  C4  PXY d   1      -0.466  -1.677  -0.695  0.00  0.00    -0.082 A 
ATOM      7  C5  PXY d   1       0.411  -0.749  -1.135  0.00  0.00     0.003 A 
ATOM      8  C6  PXY d   1       0.552   0.440  -0.426  0.00  0.00     0.003 A 
ENDROOT
TORSDOF 0
ENDMDL
