MODEL 1
REMARK minimizedAffinity 0.749252617
REMARK minimizedRMSD -1
REMARK  0 active torsions:
REMARK  status: ('A' for Active; 'I' for Inactive)
ROOT
ATOM      1  C4' PXY d   1      -0.236   4.018   0.388  0.00  0.00     0.077 C 
ATOM      2  C1' PXY d   1       0.792  -1.661   0.065  0.00  0.00     0.077 C 
ATOM      3  C1  PXY d   1       0.519  -0.173   0.163  0.00  0.00    -0.082 A 
ATOM      4  C2  PXY d   1       0.231   0.512  -0.932  0.00  0.00     0.003 A 
ATOM      5  C3  PXY d   1       0.012   1.864  -0.867  0.00  0.00     0.003 A 
ATOM      6  C4  PXY d   1       0.038   2.513   0.339  0.00  0.00    -0.082 A 
ATOM      7  C5  PXY d   1       0.321   1.819   1.461  0.00  0.00     0.003 A 
ATOM      8  C6  PXY d   1       0.580   0.455   1.368  0.00  0.00     0.003 A 
ENDROOT
TORSDOF 0
ENDMDL
