MODEL 1
REMARK minimizedAffinity 0.737732589
REMARK minimizedRMSD -1
REMARK  0 active torsions:
REMARK  status: ('A' for Active; 'I' for Inactive)
ROOT
ATOM      1  C4' PXY d   1       0.911  -2.633  -1.128  0.00  0.00     0.077 C 
ATOM      2  C1' PXY d   1      -0.306   1.892   2.257  0.00  0.00     0.077 C 
ATOM      3  C1  PXY d   1       0.006   0.711   1.360  0.00  0.00    -0.082 A 
ATOM      4  C2  PXY d   1       0.338  -0.451   1.900  0.00  0.00     0.003 A 
ATOM      5  C3  PXY d   1       0.655  -1.520   1.103  0.00  0.00     0.003 A 
ATOM      6  C4  PXY d   1       0.579  -1.415  -0.261  0.00  0.00    -0.082 A 
ATOM      7  C5  PXY d   1       0.231  -0.237  -0.819  0.00  0.00     0.003 A 
ATOM      8  C6  PXY d   1      -0.047   0.849   0.007  0.00  0.00     0.003 A 
ENDROOT
TORSDOF 0
ENDMDL
