MODEL 1
REMARK minimizedAffinity -2.56356931
REMARK minimizedRMSD -1
REMARK  0 active torsions:
REMARK  status: ('A' for Active; 'I' for Inactive)
ROOT
ATOM      1  C4' PXY d   1       0.108  -0.945   2.272  0.00  0.00     0.077 C 
ATOM      2  C1' PXY d   1      -0.532   3.908  -0.802  0.00  0.00     0.077 C 
ATOM      3  C1  PXY d   1      -0.368   2.628  -0.007  0.00  0.00    -0.082 A 
ATOM      4  C2  PXY d   1      -0.481   2.658   1.311  0.00  0.00     0.003 A 
ATOM      5  C3  PXY d   1      -0.303   1.516   2.049  0.00  0.00     0.003 A 
ATOM      6  C4  PXY d   1      -0.060   0.321   1.427  0.00  0.00    -0.082 A 
ATOM      7  C5  PXY d   1       0.046   0.280   0.082  0.00  0.00     0.003 A 
ATOM      8  C6  PXY d   1      -0.096   1.458  -0.645  0.00  0.00     0.003 A 
ENDROOT
TORSDOF 0
ENDMDL
