MODEL 1
REMARK minimizedAffinity -3.86975646
REMARK minimizedRMSD -1
REMARK  0 active torsions:
REMARK  status: ('A' for Active; 'I' for Inactive)
ROOT
ATOM      1  C4' PXY d   1      -0.010   0.431   1.230  0.00  0.00     0.077 C 
ATOM      2  C1' PXY d   1       0.003  -3.425  -3.077  0.00  0.00     0.077 C 
ATOM      3  C1  PXY d   1       0.012  -2.410  -1.950  0.00  0.00    -0.082 A 
ATOM      4  C2  PXY d   1      -0.821  -2.556  -0.932  0.00  0.00     0.003 A 
ATOM      5  C3  PXY d   1      -0.848  -1.630   0.079  0.00  0.00     0.003 A 
ATOM      6  C4  PXY d   1       0.022  -0.574   0.075  0.00  0.00    -0.082 A 
ATOM      7  C5  PXY d   1       0.882  -0.424  -0.955  0.00  0.00     0.003 A 
ATOM      8  C6  PXY d   1       0.866  -1.352  -1.992  0.00  0.00     0.003 A 
ENDROOT
TORSDOF 0
ENDMDL
