MODEL 1
REMARK minimizedAffinity 10.6150818
REMARK minimizedRMSD -1
REMARK  0 active torsions:
REMARK  status: ('A' for Active; 'I' for Inactive)
ROOT
ATOM      1  C4' PXY d   1       0.696   4.540   0.427  0.00  0.00     0.077 C 
ATOM      2  C1' PXY d   1       0.189  -0.790   2.606  0.00  0.00     0.077 C 
ATOM      3  C1  PXY d   1       0.319   0.613   2.046  0.00  0.00    -0.082 A 
ATOM      4  C2  PXY d   1       0.198   0.811   0.744  0.00  0.00     0.003 A 
ATOM      5  C3  PXY d   1       0.344   2.068   0.217  0.00  0.00     0.003 A 
ATOM      6  C4  PXY d   1       0.563   3.142   1.037  0.00  0.00    -0.082 A 
ATOM      7  C5  PXY d   1       0.677   2.950   2.369  0.00  0.00     0.003 A 
ATOM      8  C6  PXY d   1       0.567   1.660   2.879  0.00  0.00     0.003 A 
ENDROOT
TORSDOF 0
ENDMDL
