MODEL 1
REMARK minimizedAffinity 5.57704258
REMARK minimizedRMSD -1
REMARK  0 active torsions:
REMARK  status: ('A' for Active; 'I' for Inactive)
ROOT
ATOM      1  C   UNL d   1      -0.821   5.169  -0.145  0.00  0.00     0.020 A 
ATOM      2  C1  UNL d   1      -0.779   4.643  -1.436  0.00  0.00     0.020 A 
ATOM      3  C2  UNL d   1      -0.527   3.283  -1.628  0.00  0.00     0.034 A 
ATOM      4  C3  UNL d   1      -0.316   2.444  -0.528  0.00  0.00     0.017 A 
ATOM      5  C4  UNL d   1      -0.358   2.973   0.767  0.00  0.00     0.017 A 
ATOM      6  C5  UNL d   1      -0.611   4.335   0.954  0.00  0.00     0.034 A 
ATOM      7 Cl   UNL d   1      -0.107   2.000   2.173  0.00  0.00    -0.070 Cl
ATOM      8 Cl1  UNL d   1      -0.010   0.773  -0.840  0.00  0.00    -0.070 Cl
ENDROOT
TORSDOF 0
ENDMDL
