MODEL 1
REMARK minimizedAffinity 4.59741259
REMARK minimizedRMSD -1
REMARK  0 active torsions:
REMARK  status: ('A' for Active; 'I' for Inactive)
ROOT
ATOM      1  C   UNL d   1       2.113  -4.483  -0.177  0.00  0.00     0.020 A 
ATOM      2  C1  UNL d   1       2.203  -5.655  -0.927  0.00  0.00     0.020 A 
ATOM      3  C2  UNL d   1       3.098  -5.732  -1.996  0.00  0.00     0.034 A 
ATOM      4  C3  UNL d   1       3.906  -4.635  -2.319  0.00  0.00     0.017 A 
ATOM      5  C4  UNL d   1       3.815  -3.460  -1.565  0.00  0.00     0.017 A 
ATOM      6  C5  UNL d   1       2.917  -3.388  -0.495  0.00  0.00     0.034 A 
ATOM      7 Cl   UNL d   1       4.779  -2.066  -1.902  0.00  0.00    -0.070 Cl
ATOM      8 Cl1  UNL d   1       4.989  -4.801  -3.654  0.00  0.00    -0.070 Cl
ENDROOT
TORSDOF 0
ENDMDL
