MODEL 1
REMARK minimizedAffinity 7.03117704
REMARK minimizedRMSD -1
REMARK  0 active torsions:
REMARK  status: ('A' for Active; 'I' for Inactive)
ROOT
ATOM      1  C   UNL d   1       0.138  -1.565  -1.829  0.00  0.00     0.020 A 
ATOM      2  C1  UNL d   1      -1.124  -2.139  -1.976  0.00  0.00     0.020 A 
ATOM      3  C2  UNL d   1      -2.270  -1.362  -1.790  0.00  0.00     0.034 A 
ATOM      4  C3  UNL d   1      -2.156  -0.008  -1.456  0.00  0.00     0.017 A 
ATOM      5  C4  UNL d   1      -0.888   0.567  -1.309  0.00  0.00     0.017 A 
ATOM      6  C5  UNL d   1       0.256  -0.215  -1.496  0.00  0.00     0.034 A 
ATOM      7 Cl   UNL d   1      -0.667   2.231  -0.898  0.00  0.00    -0.070 Cl
ATOM      8 Cl1  UNL d   1      -3.615   0.892  -1.241  0.00  0.00    -0.070 Cl
ENDROOT
TORSDOF 0
ENDMDL
