MODEL 1
REMARK minimizedAffinity 4.10583496
REMARK minimizedRMSD -1
REMARK  0 active torsions:
REMARK  status: ('A' for Active; 'I' for Inactive)
ROOT
ATOM      1  C   UNL d   1       5.557  -1.561  -1.208  0.00  0.00     0.020 A 
ATOM      2  C1  UNL d   1       4.575  -1.988  -0.315  0.00  0.00     0.020 A 
ATOM      3  C2  UNL d   1       3.698  -3.012  -0.678  0.00  0.00     0.034 A 
ATOM      4  C3  UNL d   1       3.802  -3.614  -1.938  0.00  0.00     0.017 A 
ATOM      5  C4  UNL d   1       4.788  -3.184  -2.834  0.00  0.00     0.017 A 
ATOM      6  C5  UNL d   1       5.663  -2.158  -2.464  0.00  0.00     0.034 A 
ATOM      7 Cl   UNL d   1       4.978  -3.878  -4.405  0.00  0.00    -0.070 Cl
ATOM      8 Cl1  UNL d   1       2.685  -4.875  -2.321  0.00  0.00    -0.070 Cl
ENDROOT
TORSDOF 0
ENDMDL
