MODEL 1
REMARK minimizedAffinity 4.43882132
REMARK minimizedRMSD -1
REMARK  0 active torsions:
REMARK  status: ('A' for Active; 'I' for Inactive)
ROOT
ATOM      1  C   UNL d   1       1.113   3.948   0.388  0.00  0.00     0.020 A 
ATOM      2  C1  UNL d   1       0.285   3.682  -0.701  0.00  0.00     0.020 A 
ATOM      3  C2  UNL d   1      -0.741   2.741  -0.586  0.00  0.00     0.034 A 
ATOM      4  C3  UNL d   1      -0.940   2.062   0.622  0.00  0.00     0.017 A 
ATOM      5  C4  UNL d   1      -0.108   2.330   1.715  0.00  0.00     0.017 A 
ATOM      6  C5  UNL d   1       0.917   3.273   1.594  0.00  0.00     0.034 A 
ATOM      7 Cl   UNL d   1      -0.293   1.533   3.237  0.00  0.00    -0.070 Cl
ATOM      8 Cl1  UNL d   1      -2.227   0.912   0.694  0.00  0.00    -0.070 Cl
ENDROOT
TORSDOF 0
ENDMDL
