MODEL 1
REMARK minimizedAffinity 8.66401386
REMARK minimizedRMSD -1
REMARK  0 active torsions:
REMARK  status: ('A' for Active; 'I' for Inactive)
ROOT
ATOM      1  C   UNL d   1      -3.743   0.022  -1.110  0.00  0.00     0.020 A 
ATOM      2  C1  UNL d   1      -3.274  -1.246  -1.448  0.00  0.00     0.020 A 
ATOM      3  C2  UNL d   1      -1.903  -1.464  -1.607  0.00  0.00     0.034 A 
ATOM      4  C3  UNL d   1      -0.998  -0.411  -1.429  0.00  0.00     0.017 A 
ATOM      5  C4  UNL d   1      -1.471   0.862  -1.090  0.00  0.00     0.017 A 
ATOM      6  C5  UNL d   1      -2.844   1.074  -0.931  0.00  0.00     0.034 A 
ATOM      7 Cl   UNL d   1      -0.415   2.210  -0.853  0.00  0.00    -0.070 Cl
ATOM      8 Cl1  UNL d   1       0.682  -0.752  -1.642  0.00  0.00    -0.070 Cl
ENDROOT
TORSDOF 0
ENDMDL
