MODEL 1
REMARK minimizedAffinity 3.01895857
REMARK minimizedRMSD -1
REMARK  0 active torsions:
REMARK  status: ('A' for Active; 'I' for Inactive)
ROOT
ATOM      1  C   UNL d   1       0.388   3.699  -0.693  0.00  0.00     0.020 A 
ATOM      2  C1  UNL d   1      -0.557   2.678  -0.597  0.00  0.00     0.020 A 
ATOM      3  C2  UNL d   1      -0.783   2.049   0.629  0.00  0.00     0.034 A 
ATOM      4  C3  UNL d   1      -0.062   2.439   1.764  0.00  0.00     0.017 A 
ATOM      5  C4  UNL d   1       0.886   3.464   1.666  0.00  0.00     0.017 A 
ATOM      6  C5  UNL d   1       1.107   4.091   0.436  0.00  0.00     0.034 A 
ATOM      7 Cl   UNL d   1       1.813   4.001   3.022  0.00  0.00    -0.070 Cl
ATOM      8 Cl1  UNL d   1      -0.393   1.618   3.247  0.00  0.00    -0.070 Cl
ENDROOT
TORSDOF 0
ENDMDL
