MODEL 1
REMARK minimizedAffinity 0.661239564
REMARK minimizedRMSD -1
REMARK  1 active torsions:
REMARK  status: ('A' for Active; 'I' for Inactive)
REMARK    1  A    between atoms: C1_2  and  C2_3 
ROOT
ATOM      1  C2  UNL d   1       2.062   4.838   1.157  0.00  0.00    -0.077 A 
ATOM      2  C3  UNL d   1       1.509   5.999   0.597  0.00  0.00     0.002 A 
ATOM      3  C4  UNL d   1       0.226   5.976   0.047  0.00  0.00     0.002 A 
ATOM      4  C5  UNL d   1      -0.516   4.797   0.056  0.00  0.00    -0.004 A 
ATOM      5  C6  UNL d   1       0.025   3.637   0.609  0.00  0.00     0.002 A 
ATOM      6  C7  UNL d   1       1.308   3.658   1.157  0.00  0.00     0.002 A 
ENDROOT
BRANCH   1   7
ATOM      7  C1  UNL d   1       3.426   4.873   1.794  0.00  0.00     0.055 C 
ATOM      8  C   UNL d   1       3.439   4.119   3.116  0.00  0.00     0.019 C 
ENDBRANCH   1   7
TORSDOF 1
ENDMDL
