MODEL 1
REMARK minimizedAffinity 6.4802537
REMARK minimizedRMSD -1
REMARK  1 active torsions:
REMARK  status: ('A' for Active; 'I' for Inactive)
REMARK    1  A    between atoms: C1_2  and  C2_3 
ROOT
ATOM      1  C2  UNL d   1       1.197  -3.926  -1.852  0.00  0.00    -0.077 A 
ATOM      2  C3  UNL d   1      -0.161  -4.019  -2.188  0.00  0.00     0.002 A 
ATOM      3  C4  UNL d   1      -0.991  -2.902  -2.087  0.00  0.00     0.002 A 
ATOM      4  C5  UNL d   1      -0.473  -1.683  -1.654  0.00  0.00    -0.004 A 
ATOM      5  C6  UNL d   1       0.875  -1.580  -1.316  0.00  0.00     0.002 A 
ATOM      6  C7  UNL d   1       1.707  -2.697  -1.415  0.00  0.00     0.002 A 
ENDROOT
BRANCH   1   7
ATOM      7  C1  UNL d   1       2.106  -5.118  -2.007  0.00  0.00     0.055 C 
ATOM      8  C   UNL d   1       3.132  -4.891  -3.107  0.00  0.00     0.019 C 
ENDBRANCH   1   7
TORSDOF 1
ENDMDL
