MODEL 1
REMARK minimizedAffinity 13.3778915
REMARK minimizedRMSD -1
REMARK  1 active torsions:
REMARK  status: ('A' for Active; 'I' for Inactive)
REMARK    1  A    between atoms: C1_2  and  C2_3 
ROOT
ATOM      1  C2  UNL d   1       2.639   0.463   4.031  0.00  0.00    -0.077 A 
ATOM      2  C3  UNL d   1       1.487   0.569   4.822  0.00  0.00     0.002 A 
ATOM      3  C4  UNL d   1       0.689  -0.551   5.063  0.00  0.00     0.002 A 
ATOM      4  C5  UNL d   1       1.037  -1.786   4.519  0.00  0.00    -0.004 A 
ATOM      5  C6  UNL d   1       2.180  -1.902   3.729  0.00  0.00     0.002 A 
ATOM      6  C7  UNL d   1       2.978  -0.783   3.486  0.00  0.00     0.002 A 
ENDROOT
BRANCH   1   7
ATOM      7  C1  UNL d   1       3.528   1.659   3.811  0.00  0.00     0.055 C 
ATOM      8  C   UNL d   1       3.985   2.259   5.132  0.00  0.00     0.019 C 
ENDBRANCH   1   7
TORSDOF 1
ENDMDL
