MODEL 1
REMARK minimizedAffinity 15.1680956
REMARK minimizedRMSD -1
REMARK  1 active torsions:
REMARK  status: ('A' for Active; 'I' for Inactive)
REMARK    1  A    between atoms: C1_2  and  C2_3 
ROOT
ATOM      1  C2  UNL d   1       3.655  -2.464   5.220  0.00  0.00    -0.077 A 
ATOM      2  C3  UNL d   1       3.216  -3.155   4.082  0.00  0.00     0.002 A 
ATOM      3  C4  UNL d   1       2.139  -2.672   3.335  0.00  0.00     0.002 A 
ATOM      4  C5  UNL d   1       1.497  -1.496   3.715  0.00  0.00    -0.004 A 
ATOM      5  C6  UNL d   1       1.926  -0.803   4.846  0.00  0.00     0.002 A 
ATOM      6  C7  UNL d   1       3.001  -1.284   5.595  0.00  0.00     0.002 A 
ENDROOT
BRANCH   1   7
ATOM      7  C1  UNL d   1       4.847  -2.957   5.999  0.00  0.00     0.055 C 
ATOM      8  C   UNL d   1       4.922  -4.477   5.993  0.00  0.00     0.019 C 
ENDBRANCH   1   7
TORSDOF 1
ENDMDL
