MODEL 1
REMARK minimizedAffinity 5.65017843
REMARK minimizedRMSD -1
REMARK  1 active torsions:
REMARK  status: ('A' for Active; 'I' for Inactive)
REMARK    1  A    between atoms: C1_2  and  C2_3 
ROOT
ATOM      1  C2  UNL d   1       0.450   3.410   0.432  0.00  0.00    -0.077 A 
ATOM      2  C3  UNL d   1      -0.865   3.884   0.323  0.00  0.00     0.002 A 
ATOM      3  C4  UNL d   1      -1.114   5.173  -0.150  0.00  0.00     0.002 A 
ATOM      4  C5  UNL d   1      -0.054   5.998  -0.523  0.00  0.00    -0.004 A 
ATOM      5  C6  UNL d   1       1.257   5.536  -0.416  0.00  0.00     0.002 A 
ATOM      6  C7  UNL d   1       1.508   4.248   0.058  0.00  0.00     0.002 A 
ENDROOT
BRANCH   1   7
ATOM      7  C1  UNL d   1       0.718   2.002   0.896  0.00  0.00     0.055 C 
ATOM      8  C   UNL d   1       0.733   1.028  -0.273  0.00  0.00     0.019 C 
ENDBRANCH   1   7
TORSDOF 1
ENDMDL
