MODEL 1
REMARK minimizedAffinity -3.42256904
REMARK minimizedRMSD -1
REMARK  0 active torsions:
REMARK  status: ('A' for Active; 'I' for Inactive)
ROOT
ATOM      1  C   UNL d   1      -0.119   0.153   1.067  0.00  0.00     0.023 A 
ATOM      2  C1  UNL d   1       1.147   0.011   0.499  0.00  0.00     0.003 A 
ATOM      3  C2  UNL d   1       1.345  -0.885  -0.553  0.00  0.00     0.048 A 
ATOM      4  C3  UNL d   1       0.272  -1.635  -1.034  0.00  0.00     0.023 A 
ATOM      5  C4  UNL d   1      -0.997  -1.495  -0.469  0.00  0.00     0.048 A 
ATOM      6  C5  UNL d   1      -1.189  -0.599   0.584  0.00  0.00     0.003 A 
ATOM      7  I   UNL d   1       0.564  -2.969  -2.600  0.00  0.00    -0.146 I 
ENDROOT
TORSDOF 0
ENDMDL
