MODEL 1
REMARK minimizedAffinity -3.26803589
REMARK minimizedRMSD -1
REMARK  0 active torsions:
REMARK  status: ('A' for Active; 'I' for Inactive)
ROOT
ATOM      1  C   UNL d   1       0.785  -2.867  -2.652  0.00  0.00     0.023 A 
ATOM      2  C1  UNL d   1       1.840  -2.129  -2.116  0.00  0.00     0.003 A 
ATOM      3  C2  UNL d   1       1.620  -1.283  -1.027  0.00  0.00     0.048 A 
ATOM      4  C3  UNL d   1       0.342  -1.183  -0.477  0.00  0.00     0.023 A 
ATOM      5  C4  UNL d   1      -0.716  -1.921  -1.009  0.00  0.00     0.048 A 
ATOM      6  C5  UNL d   1      -0.492  -2.764  -2.099  0.00  0.00     0.003 A 
ATOM      7  I   UNL d   1       0.012   0.074   1.145  0.00  0.00    -0.146 I 
ENDROOT
TORSDOF 0
ENDMDL
