MODEL 1
REMARK minimizedAffinity -2.54845667
REMARK minimizedRMSD -1
REMARK  0 active torsions:
REMARK  status: ('A' for Active; 'I' for Inactive)
ROOT
ATOM      1  C   UNL d   1      -1.011   0.112   1.680  0.00  0.00     0.023 A 
ATOM      2  C1  UNL d   1       0.357   0.164   1.409  0.00  0.00     0.003 A 
ATOM      3  C2  UNL d   1       0.883  -0.545   0.328  0.00  0.00     0.048 A 
ATOM      4  C3  UNL d   1       0.036  -1.303  -0.480  0.00  0.00     0.023 A 
ATOM      5  C4  UNL d   1      -1.333  -1.358  -0.213  0.00  0.00     0.048 A 
ATOM      6  C5  UNL d   1      -1.855  -0.648   0.870  0.00  0.00     0.003 A 
ATOM      7  I   UNL d   1       0.816  -2.359  -2.091  0.00  0.00    -0.146 I 
ENDROOT
TORSDOF 0
ENDMDL
