MODEL 1
REMARK minimizedAffinity -0.320296526
REMARK minimizedRMSD -1
REMARK  0 active torsions:
REMARK  status: ('A' for Active; 'I' for Inactive)
ROOT
ATOM      1  C   UNL d   1       0.182   0.425  -0.006  0.00  0.00     0.023 A 
ATOM      2  C1  UNL d   1       0.632  -0.616   0.806  0.00  0.00     0.003 A 
ATOM      3  C2  UNL d   1       0.756  -1.906   0.285  0.00  0.00     0.048 A 
ATOM      4  C3  UNL d   1       0.430  -2.147  -1.049  0.00  0.00     0.023 A 
ATOM      5  C4  UNL d   1      -0.019  -1.108  -1.866  0.00  0.00     0.048 A 
ATOM      6  C5  UNL d   1      -0.143   0.180  -1.340  0.00  0.00     0.003 A 
ATOM      7  I   UNL d   1       0.614  -4.065  -1.827  0.00  0.00    -0.146 I 
ENDROOT
TORSDOF 0
ENDMDL
