MODEL 1
REMARK minimizedAffinity -1.73351324
REMARK minimizedRMSD -1
REMARK  0 active torsions:
REMARK  status: ('A' for Active; 'I' for Inactive)
ROOT
ATOM      1  C   UNL d   1      -0.507  -1.094   0.883  0.00  0.00     0.023 A 
ATOM      2  C1  UNL d   1       0.201  -0.515  -0.171  0.00  0.00     0.003 A 
ATOM      3  C2  UNL d   1       0.333   0.873  -0.245  0.00  0.00     0.048 A 
ATOM      4  C3  UNL d   1      -0.244   1.676   0.737  0.00  0.00     0.023 A 
ATOM      5  C4  UNL d   1      -0.952   1.102   1.794  0.00  0.00     0.048 A 
ATOM      6  C5  UNL d   1      -1.083  -0.287   1.864  0.00  0.00     0.003 A 
ATOM      7  I   UNL d   1      -0.048   3.742   0.628  0.00  0.00    -0.146 I 
ENDROOT
TORSDOF 0
ENDMDL
