MODEL 1
REMARK minimizedAffinity -2.57921839
REMARK minimizedRMSD -1
REMARK  0 active torsions:
REMARK  status: ('A' for Active; 'I' for Inactive)
ROOT
ATOM      1  C   UNL d   1      -0.628  -0.028   1.470  0.00  0.00     0.023 A 
ATOM      2  C1  UNL d   1       0.589   0.203   0.829  0.00  0.00     0.003 A 
ATOM      3  C2  UNL d   1       0.912  -0.499  -0.334  0.00  0.00     0.048 A 
ATOM      4  C3  UNL d   1       0.012  -1.430  -0.852  0.00  0.00     0.023 A 
ATOM      5  C4  UNL d   1      -1.207  -1.664  -0.215  0.00  0.00     0.048 A 
ATOM      6  C5  UNL d   1      -1.526  -0.960   0.948  0.00  0.00     0.003 A 
ATOM      7  I   UNL d   1       0.491  -2.476  -2.583  0.00  0.00    -0.146 I 
ENDROOT
TORSDOF 0
ENDMDL
