MODEL 1
REMARK minimizedAffinity -0.108877085
REMARK minimizedRMSD -1
REMARK  0 active torsions:
REMARK  status: ('A' for Active; 'I' for Inactive)
ROOT
ATOM      1  C   UNL d   1       0.398  -3.811  -2.938  0.00  0.00     0.023 A 
ATOM      2  C1  UNL d   1      -0.102  -2.581  -3.366  0.00  0.00     0.003 A 
ATOM      3  C2  UNL d   1      -0.136  -1.496  -2.488  0.00  0.00     0.048 A 
ATOM      4  C3  UNL d   1       0.332  -1.648  -1.183  0.00  0.00     0.023 A 
ATOM      5  C4  UNL d   1       0.834  -2.877  -0.751  0.00  0.00     0.048 A 
ATOM      6  C5  UNL d   1       0.865  -3.959  -1.632  0.00  0.00     0.003 A 
ATOM      7  I   UNL d   1       0.283  -0.035   0.126  0.00  0.00    -0.146 I 
ENDROOT
TORSDOF 0
ENDMDL
