MODEL 1
REMARK minimizedAffinity -2.86023283
REMARK minimizedRMSD -1
REMARK  0 active torsions:
REMARK  status: ('A' for Active; 'I' for Inactive)
ROOT
ATOM      1  C   UNL d   1      -0.841   2.065   1.469  0.00  0.00     0.023 A 
ATOM      2  C1  UNL d   1      -0.231   2.276   0.233  0.00  0.00     0.003 A 
ATOM      3  C2  UNL d   1       0.169   1.187  -0.545  0.00  0.00     0.048 A 
ATOM      4  C3  UNL d   1      -0.045  -0.110  -0.081  0.00  0.00     0.023 A 
ATOM      5  C4  UNL d   1      -0.656  -0.326   1.155  0.00  0.00     0.048 A 
ATOM      6  C5  UNL d   1      -1.054   0.765   1.930  0.00  0.00     0.003 A 
ATOM      7  I   UNL d   1       0.549  -1.732  -1.237  0.00  0.00    -0.146 I 
ENDROOT
TORSDOF 0
ENDMDL
