MODEL 1
REMARK minimizedAffinity -3.73537469
REMARK minimizedRMSD -1
REMARK  0 active torsions:
REMARK  status: ('A' for Active; 'I' for Inactive)
ROOT
ATOM      1  C   UNL d   1      -0.740   2.109   1.551  0.00  0.00     0.023 A 
ATOM      2  C1  UNL d   1      -0.257   2.140   0.242  0.00  0.00     0.003 A 
ATOM      3  C2  UNL d   1      -0.105   0.953  -0.476  0.00  0.00     0.048 A 
ATOM      4  C3  UNL d   1      -0.439  -0.263   0.119  0.00  0.00     0.023 A 
ATOM      5  C4  UNL d   1      -0.924  -0.300   1.428  0.00  0.00     0.048 A 
ATOM      6  C5  UNL d   1      -1.073   0.890   2.143  0.00  0.00     0.003 A 
ATOM      7  I   UNL d   1      -0.214  -2.032  -0.948  0.00  0.00    -0.146 I 
ENDROOT
TORSDOF 0
ENDMDL
