MODEL 1
REMARK minimizedAffinity -1.32509482
REMARK minimizedRMSD -1
REMARK  0 active torsions:
REMARK  status: ('A' for Active; 'I' for Inactive)
ROOT
ATOM      1  C   UNL d   1      -0.655   1.047   1.818  0.00  0.00     0.023 A 
ATOM      2  C1  UNL d   1       0.143   1.443   0.744  0.00  0.00     0.003 A 
ATOM      3  C2  UNL d   1       0.388   0.559  -0.309  0.00  0.00     0.048 A 
ATOM      4  C3  UNL d   1      -0.169  -0.719  -0.283  0.00  0.00     0.023 A 
ATOM      5  C4  UNL d   1      -0.969  -1.119   0.789  0.00  0.00     0.048 A 
ATOM      6  C5  UNL d   1      -1.210  -0.233   1.840  0.00  0.00     0.003 A 
ATOM      7  I   UNL d   1       0.193  -2.036  -1.849  0.00  0.00    -0.146 I 
ENDROOT
TORSDOF 0
ENDMDL
