MODEL 1
REMARK minimizedAffinity -1.07774055
REMARK minimizedRMSD -1
REMARK  0 active torsions:
REMARK  status: ('A' for Active; 'I' for Inactive)
ROOT
ATOM      1  C   UNL d   1      -0.404  -0.207   2.020  0.00  0.00     0.023 A 
ATOM      2  C1  UNL d   1      -0.799   1.126   2.129  0.00  0.00     0.003 A 
ATOM      3  C2  UNL d   1      -0.547   2.018   1.084  0.00  0.00     0.048 A 
ATOM      4  C3  UNL d   1       0.100   1.570  -0.067  0.00  0.00     0.023 A 
ATOM      5  C4  UNL d   1       0.496   0.236  -0.181  0.00  0.00     0.048 A 
ATOM      6  C5  UNL d   1       0.243  -0.652   0.866  0.00  0.00     0.003 A 
ATOM      7  I   UNL d   1       0.476   2.895  -1.623  0.00  0.00    -0.146 I 
ENDROOT
TORSDOF 0
ENDMDL
