MODEL 1
REMARK minimizedAffinity -3.62805152
REMARK minimizedRMSD -1
REMARK  0 active torsions:
REMARK  status: ('A' for Active; 'I' for Inactive)
ROOT
ATOM      1  C   UNL d   1      -0.678   3.878   1.015  0.00  0.00     0.023 A 
ATOM      2  C1  UNL d   1      -1.012   2.782   1.810  0.00  0.00     0.003 A 
ATOM      3  C2  UNL d   1      -0.642   1.494   1.417  0.00  0.00     0.048 A 
ATOM      4  C3  UNL d   1       0.062   1.309   0.227  0.00  0.00     0.023 A 
ATOM      5  C4  UNL d   1       0.398   2.403  -0.572  0.00  0.00     0.048 A 
ATOM      6  C5  UNL d   1       0.026   3.689  -0.175  0.00  0.00     0.003 A 
ATOM      7  I   UNL d   1       0.613  -0.606  -0.360  0.00  0.00    -0.146 I 
ENDROOT
TORSDOF 0
ENDMDL
