MODEL 1
REMARK minimizedAffinity 5.67525768
REMARK minimizedRMSD -1
REMARK  0 active torsions:
REMARK  status: ('A' for Active; 'I' for Inactive)
ROOT
ATOM      1  O1  BZF d   1      -4.895  -5.984   0.047  0.00  0.00    -0.204 OA
ATOM      2  C2  BZF d   1      -3.719  -5.439  -0.433  0.00  0.00     0.174 A 
ATOM      3  C3  BZF d   1      -3.083  -4.747   0.534  0.00  0.00    -0.012 A 
ATOM      4  C3A BZF d   1      -3.866  -4.945   1.716  0.00  0.00    -0.107 A 
ATOM      5  C4  BZF d   1      -3.739  -4.522   3.008  0.00  0.00     0.055 A 
ATOM      6  C5  BZF d   1      -4.715  -4.829   3.902  0.00  0.00    -0.016 A 
ATOM      7  C6  BZF d   1      -5.832  -5.552   3.538  0.00  0.00     0.022 A 
ATOM      8  C7  BZF d   1      -6.000  -5.997   2.269  0.00  0.00     0.029 A 
ATOM      9  C7A BZF d   1      -5.000  -5.717   1.371  0.00  0.00     0.058 A 
ENDROOT
TORSDOF 0
ENDMDL
