MODEL 1
REMARK minimizedAffinity 3.52552342
REMARK minimizedRMSD -1
REMARK  0 active torsions:
REMARK  status: ('A' for Active; 'I' for Inactive)
ROOT
ATOM      1  O1  BZF d   1      -2.472  -5.750  -4.035  0.00  0.00    -0.204 OA
ATOM      2  C2  BZF d   1      -2.421  -5.827  -2.657  0.00  0.00     0.174 A 
ATOM      3  C3  BZF d   1      -1.151  -5.989  -2.233  0.00  0.00    -0.012 A 
ATOM      4  C3A BZF d   1      -0.348  -5.922  -3.415  0.00  0.00    -0.107 A 
ATOM      5  C4  BZF d   1       0.996  -6.000  -3.643  0.00  0.00     0.055 A 
ATOM      6  C5  BZF d   1       1.452  -5.971  -4.923  0.00  0.00    -0.016 A 
ATOM      7  C6  BZF d   1       0.592  -5.871  -5.997  0.00  0.00     0.022 A 
ATOM      8  C7  BZF d   1      -0.749  -5.786  -5.821  0.00  0.00     0.029 A 
ATOM      9  C7A BZF d   1      -1.210  -5.782  -4.528  0.00  0.00     0.058 A 
ENDROOT
TORSDOF 0
ENDMDL
