MODEL 1
REMARK minimizedAffinity 2.79789662
REMARK minimizedRMSD -1
REMARK  0 active torsions:
REMARK  status: ('A' for Active; 'I' for Inactive)
ROOT
ATOM      1  O1  BZF d   1       1.874   5.003   1.294  0.00  0.00    -0.204 OA
ATOM      2  C2  BZF d   1       0.962   4.139   0.719  0.00  0.00     0.174 A 
ATOM      3  C3  BZF d   1       1.536   3.430  -0.275  0.00  0.00    -0.012 A 
ATOM      4  C3A BZF d   1       2.915   3.812  -0.262  0.00  0.00    -0.107 A 
ATOM      5  C4  BZF d   1       3.999   3.440  -1.004  0.00  0.00     0.055 A 
ATOM      6  C5  BZF d   1       5.191   4.056  -0.788  0.00  0.00    -0.016 A 
ATOM      7  C6  BZF d   1       5.332   5.052   0.157  0.00  0.00     0.022 A 
ATOM      8  C7  BZF d   1       4.286   5.452   0.920  0.00  0.00     0.029 A 
ATOM      9  C7A BZF d   1       3.089   4.808   0.727  0.00  0.00     0.058 A 
ENDROOT
TORSDOF 0
ENDMDL
