MODEL 1
REMARK minimizedAffinity 8.2600069
REMARK minimizedRMSD -1
REMARK  0 active torsions:
REMARK  status: ('A' for Active; 'I' for Inactive)
ROOT
ATOM      1  O1  BZF d   1       0.234   0.697   0.648  0.00  0.00    -0.204 OA
ATOM      2  C2  BZF d   1      -1.085   0.416   0.349  0.00  0.00     0.174 A 
ATOM      3  C3  BZF d   1      -1.280  -0.916   0.257  0.00  0.00    -0.012 A 
ATOM      4  C3A BZF d   1      -0.024  -1.506   0.605  0.00  0.00    -0.107 A 
ATOM      5  C4  BZF d   1       0.409  -2.796   0.712  0.00  0.00     0.055 A 
ATOM      6  C5  BZF d   1       1.716  -3.032   1.001  0.00  0.00    -0.016 A 
ATOM      7  C6  BZF d   1       2.616  -2.003   1.185  0.00  0.00     0.022 A 
ATOM      8  C7  BZF d   1       2.232  -0.707   1.094  0.00  0.00     0.029 A 
ATOM      9  C7A BZF d   1       0.905  -0.465   0.834  0.00  0.00     0.058 A 
ENDROOT
TORSDOF 0
ENDMDL
