MODEL 1
REMARK minimizedAffinity -2.80058026
REMARK minimizedRMSD -1
REMARK  0 active torsions:
REMARK  status: ('A' for Active; 'I' for Inactive)
ROOT
ATOM      1  O1  BZF d   1       0.636  -5.936  -3.737  0.00  0.00    -0.204 OA
ATOM      2  C2  BZF d   1       1.357  -5.905  -4.915  0.00  0.00     0.174 A 
ATOM      3  C3  BZF d   1       0.533  -5.949  -5.982  0.00  0.00    -0.012 A 
ATOM      4  C3A BZF d   1      -0.789  -5.918  -5.437  0.00  0.00    -0.107 A 
ATOM      5  C4  BZF d   1      -2.035  -5.923  -5.996  0.00  0.00     0.055 A 
ATOM      6  C5  BZF d   1      -3.124  -5.960  -5.183  0.00  0.00    -0.016 A 
ATOM      7  C6  BZF d   1      -3.003  -6.000  -3.809  0.00  0.00     0.022 A 
ATOM      8  C7  BZF d   1      -1.788  -5.992  -3.209  0.00  0.00     0.029 A 
ATOM      9  C7A BZF d   1      -0.687  -5.920  -4.026  0.00  0.00     0.058 A 
ENDROOT
TORSDOF 0
ENDMDL
