MODEL 1
REMARK minimizedAffinity 2.00677013
REMARK minimizedRMSD -1
REMARK  0 active torsions:
REMARK  status: ('A' for Active; 'I' for Inactive)
ROOT
ATOM      1  O1  BZF d   1       0.999   0.722   0.170  0.00  0.00    -0.204 OA
ATOM      2  C2  BZF d   1       1.217   0.898  -1.183  0.00  0.00     0.174 A 
ATOM      3  C3  BZF d   1       1.237  -0.289  -1.823  0.00  0.00    -0.012 A 
ATOM      4  C3A BZF d   1       0.925  -1.262  -0.822  0.00  0.00    -0.107 A 
ATOM      5  C4  BZF d   1       0.781  -2.620  -0.845  0.00  0.00     0.055 A 
ATOM      6  C5  BZF d   1       0.547  -3.279   0.320  0.00  0.00    -0.016 A 
ATOM      7  C6  BZF d   1       0.457  -2.613   1.525  0.00  0.00     0.022 A 
ATOM      8  C7  BZF d   1       0.589  -1.267   1.598  0.00  0.00     0.029 A 
ATOM      9  C7A BZF d   1       0.793  -0.594   0.417  0.00  0.00     0.058 A 
ENDROOT
TORSDOF 0
ENDMDL
