MODEL 1
REMARK minimizedAffinity 9.87806511
REMARK minimizedRMSD -1
REMARK  0 active torsions:
REMARK  status: ('A' for Active; 'I' for Inactive)
ROOT
ATOM      1  O1  BZF d   1      -5.269  -5.984  -0.872  0.00  0.00    -0.204 OA
ATOM      2  C2  BZF d   1      -4.540  -5.237  -1.778  0.00  0.00     0.174 A 
ATOM      3  C3  BZF d   1      -3.797  -4.308  -1.144  0.00  0.00    -0.012 A 
ATOM      4  C3A BZF d   1      -4.007  -4.545   0.251  0.00  0.00    -0.107 A 
ATOM      5  C4  BZF d   1      -3.527  -3.957   1.386  0.00  0.00     0.055 A 
ATOM      6  C5  BZF d   1      -3.986  -4.379   2.593  0.00  0.00    -0.016 A 
ATOM      7  C6  BZF d   1      -4.928  -5.381   2.702  0.00  0.00     0.022 A 
ATOM      8  C7  BZF d   1      -5.430  -5.998   1.605  0.00  0.00     0.029 A 
ATOM      9  C7A BZF d   1      -4.943  -5.596   0.385  0.00  0.00     0.058 A 
ENDROOT
TORSDOF 0
ENDMDL
