MODEL 1
REMARK minimizedAffinity 7.80380678
REMARK minimizedRMSD -1
REMARK  0 active torsions:
REMARK  status: ('A' for Active; 'I' for Inactive)
ROOT
ATOM      1  O1  BZF d   1      -2.534  -5.963  -3.984  0.00  0.00    -0.204 OA
ATOM      2  C2  BZF d   1      -2.723  -5.975  -5.353  0.00  0.00     0.174 A 
ATOM      3  C3  BZF d   1      -1.540  -5.935  -5.999  0.00  0.00    -0.012 A 
ATOM      4  C3A BZF d   1      -0.547  -5.989  -4.971  0.00  0.00    -0.107 A 
ATOM      5  C4  BZF d   1       0.819  -5.999  -4.984  0.00  0.00     0.055 A 
ATOM      6  C5  BZF d   1       1.491  -5.983  -3.803  0.00  0.00    -0.016 A 
ATOM      7  C6  BZF d   1       0.830  -5.952  -2.592  0.00  0.00     0.022 A 
ATOM      8  C7  BZF d   1      -0.523  -5.946  -2.529  0.00  0.00     0.029 A 
ATOM      9  C7A BZF d   1      -1.205  -5.996  -3.720  0.00  0.00     0.058 A 
ENDROOT
TORSDOF 0
ENDMDL
