MODEL 1
REMARK minimizedAffinity 3.99891186
REMARK minimizedRMSD -1
REMARK  0 active torsions:
REMARK  status: ('A' for Active; 'I' for Inactive)
ROOT
ATOM      1  O1  BZF d   1      -0.837  -5.954  -1.949  0.00  0.00    -0.204 OA
ATOM      2  C2  BZF d   1       0.526  -5.943  -1.724  0.00  0.00     0.174 A 
ATOM      3  C3  BZF d   1       1.204  -5.995  -2.888  0.00  0.00    -0.012 A 
ATOM      4  C3A BZF d   1       0.203  -5.949  -3.909  0.00  0.00    -0.107 A 
ATOM      5  C4  BZF d   1       0.252  -5.952  -5.274  0.00  0.00     0.055 A 
ATOM      6  C5  BZF d   1      -0.911  -5.972  -5.977  0.00  0.00    -0.016 A 
ATOM      7  C6  BZF d   1      -2.139  -5.995  -5.349  0.00  0.00     0.022 A 
ATOM      8  C7  BZF d   1      -2.239  -5.988  -3.997  0.00  0.00     0.029 A 
ATOM      9  C7A BZF d   1      -1.066  -5.934  -3.284  0.00  0.00     0.058 A 
ENDROOT
TORSDOF 0
ENDMDL
