MODEL 1
REMARK minimizedAffinity -4.40152407
REMARK minimizedRMSD -1
REMARK  0 active torsions:
REMARK  status: ('A' for Active; 'I' for Inactive)
ROOT
ATOM      1  O1  BZF d   1      -1.738  -5.980  -2.264  0.00  0.00    -0.204 OA
ATOM      2  C2  BZF d   1      -3.013  -5.999  -2.796  0.00  0.00     0.174 A 
ATOM      3  C3  BZF d   1      -2.979  -5.780  -4.126  0.00  0.00    -0.012 A 
ATOM      4  C3A BZF d   1      -1.590  -5.705  -4.460  0.00  0.00    -0.107 A 
ATOM      5  C4  BZF d   1      -0.915  -5.517  -5.632  0.00  0.00     0.055 A 
ATOM      6  C5  BZF d   1       0.441  -5.421  -5.606  0.00  0.00    -0.016 A 
ATOM      7  C6  BZF d   1       1.152  -5.504  -4.426  0.00  0.00     0.022 A 
ATOM      8  C7  BZF d   1       0.526  -5.695  -3.239  0.00  0.00     0.029 A 
ATOM      9  C7A BZF d   1      -0.841  -5.825  -3.266  0.00  0.00     0.058 A 
ENDROOT
TORSDOF 0
ENDMDL
