MODEL 1
REMARK minimizedAffinity 0.0512681045
REMARK minimizedRMSD -1
REMARK  0 active torsions:
REMARK  status: ('A' for Active; 'I' for Inactive)
ROOT
ATOM      1  O1  BZF d   1      -0.900  -5.961  -5.872  0.00  0.00    -0.204 OA
ATOM      2  C2  BZF d   1       0.479  -5.955  -5.953  0.00  0.00     0.174 A 
ATOM      3  C3  BZF d   1       1.030  -5.909  -4.724  0.00  0.00    -0.012 A 
ATOM      4  C3A BZF d   1      -0.072  -5.979  -3.814  0.00  0.00    -0.107 A 
ATOM      5  C4  BZF d   1      -0.165  -5.991  -2.451  0.00  0.00     0.055 A 
ATOM      6  C5  BZF d   1      -1.395  -5.992  -1.874  0.00  0.00    -0.016 A 
ATOM      7  C6  BZF d   1      -2.551  -5.975  -2.627  0.00  0.00     0.022 A 
ATOM      8  C7  BZF d   1      -2.509  -5.967  -3.981  0.00  0.00     0.029 A 
ATOM      9  C7A BZF d   1      -1.268  -6.000  -4.568  0.00  0.00     0.058 A 
ENDROOT
TORSDOF 0
ENDMDL
