MODEL 1
REMARK minimizedAffinity 0.638977587
REMARK minimizedRMSD -1
REMARK  0 active torsions:
REMARK  status: ('A' for Active; 'I' for Inactive)
ROOT
ATOM      1  O1  BZF d   1       3.781  -1.062   0.884  0.00  0.00    -0.204 OA
ATOM      2  C2  BZF d   1       4.147   0.171   0.379  0.00  0.00     0.174 A 
ATOM      3  C3  BZF d   1       3.101   0.767  -0.230  0.00  0.00    -0.012 A 
ATOM      4  C3A BZF d   1       1.991  -0.109  -0.016  0.00  0.00    -0.107 A 
ATOM      5  C4  BZF d   1       0.672  -0.057  -0.368  0.00  0.00     0.055 A 
ATOM      6  C5  BZF d   1      -0.133  -1.110  -0.069  0.00  0.00    -0.016 A 
ATOM      7  C6  BZF d   1       0.347  -2.231   0.575  0.00  0.00     0.022 A 
ATOM      8  C7  BZF d   1       1.646  -2.327   0.948  0.00  0.00     0.029 A 
ATOM      9  C7A BZF d   1       2.456  -1.251   0.677  0.00  0.00     0.058 A 
ENDROOT
TORSDOF 0
ENDMDL
