MODEL 1
REMARK minimizedAffinity 4.40642309
REMARK minimizedRMSD -1
REMARK  0 active torsions:
REMARK  status: ('A' for Active; 'I' for Inactive)
ROOT
ATOM      1  O1  BZF d   1      -0.101  -5.858  -5.981  0.00  0.00    -0.204 OA
ATOM      2  C2  BZF d   1       1.278  -5.776  -5.940  0.00  0.00     0.174 A 
ATOM      3  C3  BZF d   1       1.716  -5.712  -4.665  0.00  0.00    -0.012 A 
ATOM      4  C3A BZF d   1       0.543  -5.849  -3.857  0.00  0.00    -0.107 A 
ATOM      5  C4  BZF d   1       0.330  -5.879  -2.509  0.00  0.00     0.055 A 
ATOM      6  C5  BZF d   1      -0.944  -5.952  -2.043  0.00  0.00    -0.016 A 
ATOM      7  C6  BZF d   1      -2.028  -5.990  -2.895  0.00  0.00     0.022 A 
ATOM      8  C7  BZF d   1      -1.867  -5.968  -4.240  0.00  0.00     0.029 A 
ATOM      9  C7A BZF d   1      -0.579  -5.928  -4.715  0.00  0.00     0.058 A 
ENDROOT
TORSDOF 0
ENDMDL
