MODEL 1
REMARK minimizedAffinity 7.57237768
REMARK minimizedRMSD -1
REMARK  0 active torsions:
REMARK  status: ('A' for Active; 'I' for Inactive)
ROOT
ATOM      1  O1  BZF d   1       3.414  -1.706   0.811  0.00  0.00    -0.204 OA
ATOM      2  C2  BZF d   1       3.617  -0.354   0.613  0.00  0.00     0.174 A 
ATOM      3  C3  BZF d   1       2.449   0.273   0.363  0.00  0.00    -0.012 A 
ATOM      4  C3A BZF d   1       1.444  -0.736   0.499  0.00  0.00    -0.107 A 
ATOM      5  C4  BZF d   1       0.083  -0.727   0.387  0.00  0.00     0.055 A 
ATOM      6  C5  BZF d   1      -0.598  -1.896   0.508  0.00  0.00    -0.016 A 
ATOM      7  C6  BZF d   1       0.049  -3.093   0.736  0.00  0.00     0.022 A 
ATOM      8  C7  BZF d   1       1.397  -3.152   0.860  0.00  0.00     0.029 A 
ATOM      9  C7A BZF d   1       2.085  -1.967   0.771  0.00  0.00     0.058 A 
ENDROOT
TORSDOF 0
ENDMDL
