MODEL 1
REMARK minimizedAffinity 2.09743905
REMARK minimizedRMSD -1
REMARK  0 active torsions:
REMARK  status: ('A' for Active; 'I' for Inactive)
ROOT
ATOM      1  O1  BZF d   1      -3.205  -5.979  -4.059  0.00  0.00    -0.204 OA
ATOM      2  C2  BZF d   1      -3.162  -5.969  -2.678  0.00  0.00     0.174 A 
ATOM      3  C3  BZF d   1      -1.887  -6.000  -2.239  0.00  0.00    -0.012 A 
ATOM      4  C3A BZF d   1      -1.081  -5.938  -3.419  0.00  0.00    -0.107 A 
ATOM      5  C4  BZF d   1       0.267  -5.919  -3.636  0.00  0.00     0.055 A 
ATOM      6  C5  BZF d   1       0.732  -5.930  -4.913  0.00  0.00    -0.016 A 
ATOM      7  C6  BZF d   1      -0.122  -5.966  -5.995  0.00  0.00     0.022 A 
ATOM      8  C7  BZF d   1      -1.468  -5.981  -5.831  0.00  0.00     0.029 A 
ATOM      9  C7A BZF d   1      -1.940  -5.937  -4.542  0.00  0.00     0.058 A 
ENDROOT
TORSDOF 0
ENDMDL
