MODEL 1
REMARK minimizedAffinity -3.85647559
REMARK minimizedRMSD -1
REMARK  0 active torsions:
REMARK  status: ('A' for Active; 'I' for Inactive)
ROOT
ATOM      1  C   UNL d   1      -0.566  -0.693   2.777  0.00  0.00     0.078 C 
ATOM      2  C1  UNL d   1      -0.383  -0.248   1.357  0.00  0.00    -0.077 A 
ATOM      3  C2  UNL d   1      -1.483  -0.070   0.510  0.00  0.00    -0.001 A 
ATOM      4  C3  UNL d   1      -1.297   0.336  -0.813  0.00  0.00     0.003 A 
ATOM      5  C4  UNL d   1      -0.012   0.566  -1.300  0.00  0.00    -0.005 A 
ATOM      6  C5  UNL d   1       1.089   0.389  -0.465  0.00  0.00     0.003 A 
ATOM      7  C6  UNL d   1       0.905  -0.016   0.858  0.00  0.00    -0.001 A 
ENDROOT
TORSDOF 0
ENDMDL
