MODEL 1
REMARK minimizedAffinity -4.13407087
REMARK minimizedRMSD -1
REMARK  0 active torsions:
REMARK  status: ('A' for Active; 'I' for Inactive)
ROOT
ATOM      1  C   UNL d   1      -2.740  -0.009   1.785  0.00  0.00     0.078 C 
ATOM      2  C1  UNL d   1      -1.733   0.155   0.686  0.00  0.00    -0.077 A 
ATOM      3  C2  UNL d   1      -0.413  -0.284   0.847  0.00  0.00    -0.001 A 
ATOM      4  C3  UNL d   1       0.517  -0.115  -0.180  0.00  0.00     0.003 A 
ATOM      5  C4  UNL d   1       0.137   0.493  -1.375  0.00  0.00    -0.005 A 
ATOM      6  C5  UNL d   1      -1.174   0.935  -1.543  0.00  0.00     0.003 A 
ATOM      7  C6  UNL d   1      -2.105   0.767  -0.517  0.00  0.00    -0.001 A 
ENDROOT
TORSDOF 0
ENDMDL
