MODEL 1
REMARK minimizedAffinity -5.38873816
REMARK minimizedRMSD -1
REMARK  0 active torsions:
REMARK  status: ('A' for Active; 'I' for Inactive)
ROOT
ATOM      1  C   UNL d   1       0.751   0.022   0.564  0.00  0.00     0.078 C 
ATOM      2  C1  UNL d   1      -0.503   0.065   1.385  0.00  0.00    -0.077 A 
ATOM      3  C2  UNL d   1      -1.760   0.176   0.777  0.00  0.00    -0.001 A 
ATOM      4  C3  UNL d   1      -2.918   0.225   1.554  0.00  0.00     0.003 A 
ATOM      5  C4  UNL d   1      -2.832   0.163   2.944  0.00  0.00    -0.005 A 
ATOM      6  C5  UNL d   1      -1.586   0.054   3.558  0.00  0.00     0.003 A 
ATOM      7  C6  UNL d   1      -0.426   0.006   2.782  0.00  0.00    -0.001 A 
ENDROOT
TORSDOF 0
ENDMDL
