MODEL 1
REMARK minimizedAffinity -3.87903547
REMARK minimizedRMSD -1
REMARK  0 active torsions:
REMARK  status: ('A' for Active; 'I' for Inactive)
ROOT
ATOM      1  C   UNL d   1      -0.280  -0.030   3.003  0.00  0.00     0.078 C 
ATOM      2  C1  UNL d   1       0.482   0.308   1.757  0.00  0.00    -0.077 A 
ATOM      3  C2  UNL d   1       1.690   1.013   1.820  0.00  0.00    -0.001 A 
ATOM      4  C3  UNL d   1       2.384   1.329   0.651  0.00  0.00     0.003 A 
ATOM      5  C4  UNL d   1       1.877   0.946  -0.589  0.00  0.00    -0.005 A 
ATOM      6  C5  UNL d   1       0.675   0.246  -0.662  0.00  0.00     0.003 A 
ATOM      7  C6  UNL d   1      -0.021  -0.071   0.506  0.00  0.00    -0.001 A 
ENDROOT
TORSDOF 0
ENDMDL
