MODEL 1
REMARK minimizedAffinity -2.7887423
REMARK minimizedRMSD -1
REMARK  0 active torsions:
REMARK  status: ('A' for Active; 'I' for Inactive)
ROOT
ATOM      1  C   UNL d   1       0.149   0.517  -1.153  0.00  0.00     0.078 C 
ATOM      2  C1  UNL d   1      -0.095   0.221   0.296  0.00  0.00    -0.077 A 
ATOM      3  C2  UNL d   1      -1.397   0.120   0.803  0.00  0.00    -0.001 A 
ATOM      4  C3  UNL d   1      -1.609  -0.146   2.156  0.00  0.00     0.003 A 
ATOM      5  C4  UNL d   1      -0.524  -0.312   3.015  0.00  0.00    -0.005 A 
ATOM      6  C5  UNL d   1       0.775  -0.211   2.521  0.00  0.00     0.003 A 
ATOM      7  C6  UNL d   1       0.989   0.055   1.168  0.00  0.00    -0.001 A 
ENDROOT
TORSDOF 0
ENDMDL
