MODEL 1
REMARK minimizedAffinity 0.915153682
REMARK minimizedRMSD -1
REMARK  0 active torsions:
REMARK  status: ('A' for Active; 'I' for Inactive)
ROOT
ATOM      1  C   UNL d   1      -3.087   0.277   0.855  0.00  0.00     0.078 C 
ATOM      2  C1  UNL d   1      -1.829   0.091   1.650  0.00  0.00    -0.077 A 
ATOM      3  C2  UNL d   1      -0.660   0.787   1.322  0.00  0.00    -0.001 A 
ATOM      4  C3  UNL d   1       0.507   0.597   2.065  0.00  0.00     0.003 A 
ATOM      5  C4  UNL d   1       0.515  -0.289   3.140  0.00  0.00    -0.005 A 
ATOM      6  C5  UNL d   1      -0.644  -0.988   3.472  0.00  0.00     0.003 A 
ATOM      7  C6  UNL d   1      -1.811  -0.800   2.731  0.00  0.00    -0.001 A 
ENDROOT
TORSDOF 0
ENDMDL
