MODEL 1
REMARK minimizedAffinity -3.99524736
REMARK minimizedRMSD -1
REMARK  0 active torsions:
REMARK  status: ('A' for Active; 'I' for Inactive)
ROOT
ATOM      1  C   UNL d   1      -0.776  -1.359   3.006  0.00  0.00     0.078 C 
ATOM      2  C1  UNL d   1      -0.450  -0.587   1.762  0.00  0.00    -0.077 A 
ATOM      3  C2  UNL d   1      -1.177  -0.783   0.582  0.00  0.00    -0.001 A 
ATOM      4  C3  UNL d   1      -0.856  -0.065  -0.572  0.00  0.00     0.003 A 
ATOM      5  C4  UNL d   1       0.193   0.853  -0.556  0.00  0.00    -0.005 A 
ATOM      6  C5  UNL d   1       0.923   1.052   0.614  0.00  0.00     0.003 A 
ATOM      7  C6  UNL d   1       0.604   0.335   1.768  0.00  0.00    -0.001 A 
ENDROOT
TORSDOF 0
ENDMDL
