MODEL 1
REMARK minimizedAffinity -3.91860342
REMARK minimizedRMSD -1
REMARK  0 active torsions:
REMARK  status: ('A' for Active; 'I' for Inactive)
ROOT
ATOM      1  C   UNL d   1       0.014  -0.148  -1.174  0.00  0.00     0.078 C 
ATOM      2  C1  UNL d   1      -0.085  -0.085   0.321  0.00  0.00    -0.077 A 
ATOM      3  C2  UNL d   1       1.064  -0.112   1.121  0.00  0.00    -0.001 A 
ATOM      4  C3  UNL d   1       0.957  -0.062   2.512  0.00  0.00     0.003 A 
ATOM      5  C4  UNL d   1      -0.297   0.013   3.115  0.00  0.00    -0.005 A 
ATOM      6  C5  UNL d   1      -1.446   0.039   2.327  0.00  0.00     0.003 A 
ATOM      7  C6  UNL d   1      -1.341  -0.011   0.936  0.00  0.00    -0.001 A 
ENDROOT
TORSDOF 0
ENDMDL
