MODEL 1
REMARK minimizedAffinity -4.77933502
REMARK minimizedRMSD -1
REMARK  0 active torsions:
REMARK  status: ('A' for Active; 'I' for Inactive)
ROOT
ATOM      1  C   UNL d   1      -0.292   0.533  -1.548  0.00  0.00     0.078 C 
ATOM      2  C1  UNL d   1       0.036   0.212  -0.120  0.00  0.00    -0.077 A 
ATOM      3  C2  UNL d   1      -0.906  -0.400   0.716  0.00  0.00    -0.001 A 
ATOM      4  C3  UNL d   1      -0.591  -0.683   2.046  0.00  0.00     0.003 A 
ATOM      5  C4  UNL d   1       0.666  -0.357   2.552  0.00  0.00    -0.005 A 
ATOM      6  C5  UNL d   1       1.609   0.254   1.729  0.00  0.00     0.003 A 
ATOM      7  C6  UNL d   1       1.295   0.538   0.398  0.00  0.00    -0.001 A 
ENDROOT
TORSDOF 0
ENDMDL
