MODEL 1
REMARK minimizedAffinity -5.38256979
REMARK minimizedRMSD -1
REMARK  0 active torsions:
REMARK  status: ('A' for Active; 'I' for Inactive)
ROOT
ATOM      1  C   UNL d   1       0.331   0.058   0.083  0.00  0.00     0.078 C 
ATOM      2  C1  UNL d   1      -0.681  -0.156   1.169  0.00  0.00    -0.077 A 
ATOM      3  C2  UNL d   1      -2.051  -0.010   0.917  0.00  0.00    -0.001 A 
ATOM      4  C3  UNL d   1      -2.981  -0.203   1.939  0.00  0.00     0.003 A 
ATOM      5  C4  UNL d   1      -2.552  -0.541   3.221  0.00  0.00    -0.005 A 
ATOM      6  C5  UNL d   1      -1.191  -0.686   3.482  0.00  0.00     0.003 A 
ATOM      7  C6  UNL d   1      -0.259  -0.494   2.460  0.00  0.00    -0.001 A 
ENDROOT
TORSDOF 0
ENDMDL
