MODEL 1
REMARK minimizedAffinity -3.03405833
REMARK minimizedRMSD -1
REMARK  0 active torsions:
REMARK  status: ('A' for Active; 'I' for Inactive)
ROOT
ATOM      1  C   UNL d   1       0.603  -0.304  -0.135  0.00  0.00     0.078 C 
ATOM      2  C1  UNL d   1      -0.700  -0.078   0.573  0.00  0.00    -0.077 A 
ATOM      3  C2  UNL d   1      -0.784  -0.145   1.969  0.00  0.00    -0.001 A 
ATOM      4  C3  UNL d   1      -2.005   0.058   2.613  0.00  0.00     0.003 A 
ATOM      5  C4  UNL d   1      -3.152   0.328   1.869  0.00  0.00    -0.005 A 
ATOM      6  C5  UNL d   1      -3.079   0.395   0.479  0.00  0.00     0.003 A 
ATOM      7  C6  UNL d   1      -1.859   0.192  -0.167  0.00  0.00    -0.001 A 
ENDROOT
TORSDOF 0
ENDMDL
