MODEL 1
REMARK minimizedAffinity -3.25311351
REMARK minimizedRMSD -1
REMARK  0 active torsions:
REMARK  status: ('A' for Active; 'I' for Inactive)
ROOT
ATOM      1  C   UNL d   1       1.253  -0.009  -3.313  0.00  0.00     0.078 C 
ATOM      2  C1  UNL d   1       0.632   0.173  -1.960  0.00  0.00    -0.077 A 
ATOM      3  C2  UNL d   1      -0.702   0.576  -1.826  0.00  0.00    -0.001 A 
ATOM      4  C3  UNL d   1      -1.264   0.750  -0.561  0.00  0.00     0.003 A 
ATOM      5  C4  UNL d   1      -0.498   0.525   0.582  0.00  0.00    -0.005 A 
ATOM      6  C5  UNL d   1       0.831   0.126   0.459  0.00  0.00     0.003 A 
ATOM      7  C6  UNL d   1       1.394  -0.049  -0.806  0.00  0.00    -0.001 A 
ENDROOT
TORSDOF 0
ENDMDL
