MODEL 1
REMARK minimizedAffinity 0.618699372
REMARK minimizedRMSD -1
REMARK  0 active torsions:
REMARK  status: ('A' for Active; 'I' for Inactive)
ROOT
ATOM      1  C   UNL d   1      -0.371   0.352  -0.903  0.00  0.00     0.078 C 
ATOM      2  C1  UNL d   1      -1.142  -0.608  -0.047  0.00  0.00    -0.077 A 
ATOM      3  C2  UNL d   1      -1.598  -1.828  -0.561  0.00  0.00    -0.001 A 
ATOM      4  C3  UNL d   1      -2.322  -2.707   0.245  0.00  0.00     0.003 A 
ATOM      5  C4  UNL d   1      -2.599  -2.376   1.569  0.00  0.00    -0.005 A 
ATOM      6  C5  UNL d   1      -2.152  -1.163   2.090  0.00  0.00     0.003 A 
ATOM      7  C6  UNL d   1      -1.427  -0.282   1.285  0.00  0.00    -0.001 A 
ENDROOT
TORSDOF 0
ENDMDL
