MODEL 1
REMARK minimizedAffinity -5.56614685
REMARK minimizedRMSD -1
REMARK  0 active torsions:
REMARK  status: ('A' for Active; 'I' for Inactive)
ROOT
ATOM      1  C   UNL d   1       0.292   0.195  -1.083  0.00  0.00     0.078 C 
ATOM      2  C1  UNL d   1      -0.170   0.096   0.340  0.00  0.00    -0.077 A 
ATOM      3  C2  UNL d   1      -1.506  -0.191   0.646  0.00  0.00    -0.001 A 
ATOM      4  C3  UNL d   1      -1.924  -0.270   1.975  0.00  0.00     0.003 A 
ATOM      5  C4  UNL d   1      -1.013  -0.062   3.009  0.00  0.00    -0.005 A 
ATOM      6  C5  UNL d   1       0.317   0.227   2.714  0.00  0.00     0.003 A 
ATOM      7  C6  UNL d   1       0.737   0.306   1.385  0.00  0.00    -0.001 A 
ENDROOT
TORSDOF 0
ENDMDL
