MODEL 1
REMARK minimizedAffinity 12.1252766
REMARK minimizedRMSD -1
REMARK  1 active torsions:
REMARK  status: ('A' for Active; 'I' for Inactive)
REMARK    1  A    between atoms: C1_2  and  C2_3 
ROOT
ATOM      1  C2  UNL d   1      -3.458   1.027  -1.160  0.00  0.00    -0.077 A 
ATOM      2  C3  UNL d   1      -3.807   0.936   0.195  0.00  0.00     0.002 A 
ATOM      3  C4  UNL d   1      -4.168  -0.294   0.750  0.00  0.00     0.002 A 
ATOM      4  C5  UNL d   1      -4.180  -1.440  -0.041  0.00  0.00    -0.004 A 
ATOM      5  C6  UNL d   1      -3.837  -1.360  -1.390  0.00  0.00     0.002 A 
ATOM      6  C7  UNL d   1      -3.477  -0.132  -1.947  0.00  0.00     0.002 A 
ENDROOT
BRANCH   1   7
ATOM      7  C1  UNL d   1      -3.021   2.343  -1.749  0.00  0.00     0.055 C 
ATOM      8  C   UNL d   1      -2.887   2.255  -3.262  0.00  0.00     0.019 C 
ENDBRANCH   1   7
TORSDOF 1
ENDMDL
