MODEL 1
REMARK minimizedAffinity 12.1634464
REMARK minimizedRMSD -1
REMARK  1 active torsions:
REMARK  status: ('A' for Active; 'I' for Inactive)
REMARK    1  A    between atoms: C1_2  and  C2_3 
ROOT
ATOM      1  C2  UNL d   1       1.828  -2.512   0.900  0.00  0.00    -0.077 A 
ATOM      2  C3  UNL d   1       0.495  -2.472   0.468  0.00  0.00     0.002 A 
ATOM      3  C4  UNL d   1      -0.448  -1.709   1.159  0.00  0.00     0.002 A 
ATOM      4  C5  UNL d   1      -0.068  -0.979   2.283  0.00  0.00    -0.004 A 
ATOM      5  C6  UNL d   1       1.255  -1.015   2.722  0.00  0.00     0.002 A 
ATOM      6  C7  UNL d   1       2.199  -1.777   2.033  0.00  0.00     0.002 A 
ENDROOT
BRANCH   1   7
ATOM      7  C1  UNL d   1       2.858  -3.295   0.127  0.00  0.00     0.055 C 
ATOM      8  C   UNL d   1       2.553  -4.785   0.151  0.00  0.00     0.019 C 
ENDBRANCH   1   7
TORSDOF 1
ENDMDL
