MODEL 1
REMARK minimizedAffinity 9.75075436
REMARK minimizedRMSD -1
REMARK  1 active torsions:
REMARK  status: ('A' for Active; 'I' for Inactive)
REMARK    1  A    between atoms: C1_2  and  C2_3 
ROOT
ATOM      1  C2  UNL d   1      -4.488   0.170  -2.607  0.00  0.00    -0.077 A 
ATOM      2  C3  UNL d   1      -4.105  -1.080  -2.100  0.00  0.00     0.002 A 
ATOM      3  C4  UNL d   1      -4.666  -2.252  -2.613  0.00  0.00     0.002 A 
ATOM      4  C5  UNL d   1      -5.609  -2.185  -3.637  0.00  0.00    -0.004 A 
ATOM      5  C6  UNL d   1      -5.997  -0.947  -4.146  0.00  0.00     0.002 A 
ATOM      6  C7  UNL d   1      -5.438   0.225  -3.635  0.00  0.00     0.002 A 
ENDROOT
BRANCH   1   7
ATOM      7  C1  UNL d   1      -3.848   1.432  -2.090  0.00  0.00     0.055 C 
ATOM      8  C   UNL d   1      -2.734   1.905  -3.012  0.00  0.00     0.019 C 
ENDBRANCH   1   7
TORSDOF 1
ENDMDL
