MODEL 1
REMARK minimizedAffinity 4.75829506
REMARK minimizedRMSD -1
REMARK  1 active torsions:
REMARK  status: ('A' for Active; 'I' for Inactive)
REMARK    1  A    between atoms: C1_2  and  C2_3 
ROOT
ATOM      1  C2  UNL d   1      -0.086  -1.468   2.419  0.00  0.00    -0.077 A 
ATOM      2  C3  UNL d   1       0.892  -0.802   3.172  0.00  0.00     0.002 A 
ATOM      3  C4  UNL d   1       2.192  -0.668   2.682  0.00  0.00     0.002 A 
ATOM      4  C5  UNL d   1       2.525  -1.194   1.435  0.00  0.00    -0.004 A 
ATOM      5  C6  UNL d   1       1.561  -1.859   0.679  0.00  0.00     0.002 A 
ATOM      6  C7  UNL d   1       0.261  -1.995   1.169  0.00  0.00     0.002 A 
ENDROOT
BRANCH   1   7
ATOM      7  C1  UNL d   1      -1.501  -1.570   2.925  0.00  0.00     0.055 C 
ATOM      8  C   UNL d   1      -2.023  -2.996   2.826  0.00  0.00     0.019 C 
ENDBRANCH   1   7
TORSDOF 1
ENDMDL
