MODEL 1
REMARK minimizedAffinity 12.7227278
REMARK minimizedRMSD -1
REMARK  1 active torsions:
REMARK  status: ('A' for Active; 'I' for Inactive)
REMARK    1  A    between atoms: C1_2  and  C2_3 
ROOT
ATOM      1  C2  UNL d   1      -2.131   1.432  -2.309  0.00  0.00    -0.077 A 
ATOM      2  C3  UNL d   1      -1.728   0.120  -2.592  0.00  0.00     0.002 A 
ATOM      3  C4  UNL d   1      -2.355  -0.961  -1.968  0.00  0.00     0.002 A 
ATOM      4  C5  UNL d   1      -3.390  -0.740  -1.062  0.00  0.00    -0.004 A 
ATOM      5  C6  UNL d   1      -3.796   0.562  -0.773  0.00  0.00     0.002 A 
ATOM      6  C7  UNL d   1      -3.170   1.643  -1.395  0.00  0.00     0.002 A 
ENDROOT
BRANCH   1   7
ATOM      7  C1  UNL d   1      -1.489   2.597  -3.018  0.00  0.00     0.055 C 
ATOM      8  C   UNL d   1      -1.466   2.384  -4.524  0.00  0.00     0.019 C 
ENDBRANCH   1   7
TORSDOF 1
ENDMDL
