MODEL 1
REMARK minimizedAffinity -4.28885746
REMARK minimizedRMSD -1
REMARK  0 active torsions:
REMARK  status: ('A' for Active; 'I' for Inactive)
ROOT
ATOM      1  N1  IND d   1      -0.285   0.848  -0.150  0.00  0.00    -0.196 N 
ATOM      2  C2  IND d   1       1.042   0.529  -0.074  0.00  0.00     0.054 A 
ATOM      3  C3  IND d   1       1.203  -0.676   0.516  0.00  0.00    -0.031 A 
ATOM      4  C4  IND d   1      -0.575  -2.343   1.344  0.00  0.00     0.051 A 
ATOM      5  C5  IND d   1      -1.923  -2.480   1.521  0.00  0.00    -0.031 A 
ATOM      6  C6  IND d   1      -2.813  -1.496   1.141  0.00  0.00     0.015 A 
ATOM      7  C7  IND d   1      -2.386  -0.338   0.555  0.00  0.00    -0.016 A 
ATOM      8  C8  IND d   1      -1.017  -0.192   0.380  0.00  0.00    -0.047 A 
ATOM      9  C9  IND d   1      -0.106  -1.169   0.803  0.00  0.00    -0.096 A 
ATOM     10  HN1 IND d   1      -0.609   1.576  -0.474  0.00  0.00     0.298 HD
ENDROOT
TORSDOF 0
ENDMDL
