MODEL 1
REMARK minimizedAffinity -1.16732478
REMARK minimizedRMSD -1
REMARK  0 active torsions:
REMARK  status: ('A' for Active; 'I' for Inactive)
ROOT
ATOM      1  N1  IND d   1       0.808  -1.649   0.261  0.00  0.00    -0.196 N 
ATOM      2  C2  IND d   1       0.147  -2.510   1.092  0.00  0.00     0.054 A 
ATOM      3  C3  IND d   1      -0.813  -1.855   1.782  0.00  0.00    -0.031 A 
ATOM      4  C4  IND d   1      -1.542   0.610   1.630  0.00  0.00     0.051 A 
ATOM      5  C5  IND d   1      -1.211   1.797   1.038  0.00  0.00    -0.031 A 
ATOM      6  C6  IND d   1      -0.171   1.897   0.137  0.00  0.00     0.015 A 
ATOM      7  C7  IND d   1       0.573   0.807  -0.216  0.00  0.00    -0.016 A 
ATOM      8  C8  IND d   1       0.244  -0.399   0.388  0.00  0.00    -0.047 A 
ATOM      9  C9  IND d   1      -0.783  -0.498   1.335  0.00  0.00    -0.096 A 
ATOM     10  HN1 IND d   1       1.465  -1.854  -0.254  0.00  0.00     0.298 HD
ENDROOT
TORSDOF 0
ENDMDL
