MODEL 1
REMARK minimizedAffinity -1.12421656
REMARK minimizedRMSD -1
REMARK  0 active torsions:
REMARK  status: ('A' for Active; 'I' for Inactive)
ROOT
ATOM      1  N1  IND d   1      -2.365  -0.929   0.737  0.00  0.00    -0.196 N 
ATOM      2  C2  IND d   1      -2.189  -2.235   1.102  0.00  0.00     0.054 A 
ATOM      3  C3  IND d   1      -0.897  -2.599   0.938  0.00  0.00    -0.031 A 
ATOM      4  C4  IND d   1       1.116  -1.185   0.181  0.00  0.00     0.051 A 
ATOM      5  C5  IND d   1       1.445   0.053  -0.295  0.00  0.00    -0.031 A 
ATOM      6  C6  IND d   1       0.502   1.048  -0.452  0.00  0.00     0.015 A 
ATOM      7  C7  IND d   1      -0.809   0.845  -0.126  0.00  0.00    -0.016 A 
ATOM      8  C8  IND d   1      -1.148  -0.414   0.351  0.00  0.00    -0.047 A 
ATOM      9  C9  IND d   1      -0.203  -1.441   0.472  0.00  0.00    -0.096 A 
ATOM     10  HN1 IND d   1      -3.112  -0.502   0.747  0.00  0.00     0.298 HD
ENDROOT
TORSDOF 0
ENDMDL
