MODEL 1
REMARK minimizedAffinity -3.98145652
REMARK minimizedRMSD -1
REMARK  0 active torsions:
REMARK  status: ('A' for Active; 'I' for Inactive)
ROOT
ATOM      1  N1  IND d   1      -2.322  -1.856   1.351  0.00  0.00    -0.196 N 
ATOM      2  C2  IND d   1      -1.774  -2.852   2.110  0.00  0.00     0.054 A 
ATOM      3  C3  IND d   1      -0.425  -2.817   2.029  0.00  0.00    -0.031 A 
ATOM      4  C4  IND d   1       1.096  -1.150   0.789  0.00  0.00     0.051 A 
ATOM      5  C5  IND d   1       1.056  -0.089  -0.071  0.00  0.00    -0.031 A 
ATOM      6  C6  IND d   1      -0.137   0.450  -0.507  0.00  0.00     0.015 A 
ATOM      7  C7  IND d   1      -1.339  -0.047  -0.090  0.00  0.00    -0.016 A 
ATOM      8  C8  IND d   1      -1.302  -1.129   0.778  0.00  0.00    -0.047 A 
ATOM      9  C9  IND d   1      -0.095  -1.708   1.191  0.00  0.00    -0.096 A 
ATOM     10  HN1 IND d   1      -3.163  -1.709   1.248  0.00  0.00     0.298 HD
ENDROOT
TORSDOF 0
ENDMDL
