MODEL 1
REMARK minimizedAffinity -5.52687502
REMARK minimizedRMSD -1
REMARK  0 active torsions:
REMARK  status: ('A' for Active; 'I' for Inactive)
ROOT
ATOM      1  N1  IND d   1       0.031  -2.332   0.974  0.00  0.00    -0.196 N 
ATOM      2  C2  IND d   1      -0.851  -2.983   1.791  0.00  0.00     0.054 A 
ATOM      3  C3  IND d   1      -1.781  -2.123   2.260  0.00  0.00    -0.031 A 
ATOM      4  C4  IND d   1      -2.110   0.377   1.738  0.00  0.00     0.051 A 
ATOM      5  C5  IND d   1      -1.533   1.423   1.074  0.00  0.00    -0.031 A 
ATOM      6  C6  IND d   1      -0.384   1.268   0.325  0.00  0.00     0.015 A 
ATOM      7  C7  IND d   1       0.227   0.052   0.203  0.00  0.00    -0.016 A 
ATOM      8  C8  IND d   1      -0.351  -1.011   0.882  0.00  0.00    -0.047 A 
ATOM      9  C9  IND d   1      -1.493  -0.851   1.677  0.00  0.00    -0.096 A 
ATOM     10  HN1 IND d   1       0.709  -2.687   0.583  0.00  0.00     0.298 HD
ENDROOT
TORSDOF 0
ENDMDL
