MODEL 1
REMARK minimizedAffinity -5.53421021
REMARK minimizedRMSD -1
REMARK  0 active torsions:
REMARK  status: ('A' for Active; 'I' for Inactive)
ROOT
ATOM      1  N1  IND d   1      -0.818   1.450   0.745  0.00  0.00    -0.196 N 
ATOM      2  C2  IND d   1       0.156   1.102  -0.149  0.00  0.00     0.054 A 
ATOM      3  C3  IND d   1       0.180  -0.239  -0.320  0.00  0.00    -0.031 A 
ATOM      4  C4  IND d   1      -1.353  -2.044   0.689  0.00  0.00     0.051 A 
ATOM      5  C5  IND d   1      -2.367  -2.216   1.589  0.00  0.00    -0.031 A 
ATOM      6  C6  IND d   1      -2.929  -1.153   2.266  0.00  0.00     0.015 A 
ATOM      7  C7  IND d   1      -2.504   0.128   2.058  0.00  0.00    -0.016 A 
ATOM      8  C8  IND d   1      -1.471   0.306   1.149  0.00  0.00    -0.047 A 
ATOM      9  C9  IND d   1      -0.867  -0.773   0.491  0.00  0.00    -0.096 A 
ATOM     10  HN1 IND d   1      -0.993   2.249   1.010  0.00  0.00     0.298 HD
ENDROOT
TORSDOF 0
ENDMDL
