MODEL 1
REMARK minimizedAffinity -4.57009935
REMARK minimizedRMSD -1
REMARK  0 active torsions:
REMARK  status: ('A' for Active; 'I' for Inactive)
ROOT
ATOM      1  N1  IND d   1      -2.022  -1.913   0.607  0.00  0.00    -0.196 N 
ATOM      2  C2  IND d   1      -1.422  -3.010   1.160  0.00  0.00     0.054 A 
ATOM      3  C3  IND d   1      -0.080  -2.850   1.184  0.00  0.00    -0.031 A 
ATOM      4  C4  IND d   1       1.339  -0.827   0.461  0.00  0.00     0.051 A 
ATOM      5  C5  IND d   1       1.243   0.397  -0.140  0.00  0.00    -0.031 A 
ATOM      6  C6  IND d   1       0.029   0.925  -0.527  0.00  0.00     0.015 A 
ATOM      7  C7  IND d   1      -1.141   0.251  -0.318  0.00  0.00    -0.016 A 
ATOM      8  C8  IND d   1      -1.047  -0.995   0.285  0.00  0.00    -0.047 A 
ATOM      9  C9  IND d   1       0.187  -1.555   0.642  0.00  0.00    -0.096 A 
ATOM     10  HN1 IND d   1      -2.867  -1.813   0.481  0.00  0.00     0.298 HD
ENDROOT
TORSDOF 0
ENDMDL
