MODEL 1
REMARK minimizedAffinity 3.8477366
REMARK minimizedRMSD -1
REMARK  0 active torsions:
REMARK  status: ('A' for Active; 'I' for Inactive)
ROOT
ATOM      1  N1  IND d   1      -2.036   0.159   1.434  0.00  0.00    -0.196 N 
ATOM      2  C2  IND d   1      -1.338   0.845   0.480  0.00  0.00     0.054 A 
ATOM      3  C3  IND d   1      -0.182   0.206   0.192  0.00  0.00    -0.031 A 
ATOM      4  C4  IND d   1       0.716  -2.033   1.090  0.00  0.00     0.051 A 
ATOM      5  C5  IND d   1       0.449  -3.011   2.006  0.00  0.00    -0.031 A 
ATOM      6  C6  IND d   1      -0.685  -2.984   2.792  0.00  0.00     0.015 A 
ATOM      7  C7  IND d   1      -1.604  -1.978   2.683  0.00  0.00    -0.016 A 
ATOM      8  C8  IND d   1      -1.332  -0.980   1.759  0.00  0.00    -0.047 A 
ATOM      9  C9  IND d   1      -0.162  -0.980   0.989  0.00  0.00    -0.096 A 
ATOM     10  HN1 IND d   1      -2.789   0.397   1.774  0.00  0.00     0.298 HD
ENDROOT
TORSDOF 0
ENDMDL
