MODEL 1
REMARK minimizedAffinity -0.379265279
REMARK minimizedRMSD -1
REMARK  0 active torsions:
REMARK  status: ('A' for Active; 'I' for Inactive)
ROOT
ATOM      1  N1  IND d   1      -0.005   2.218   0.230  0.00  0.00    -0.196 N 
ATOM      2  C2  IND d   1       1.072   1.583  -0.325  0.00  0.00     0.054 A 
ATOM      3  C3  IND d   1       0.783   0.283  -0.556  0.00  0.00    -0.031 A 
ATOM      4  C4  IND d   1      -1.424  -0.992  -0.195  0.00  0.00     0.051 A 
ATOM      5  C5  IND d   1      -2.680  -0.846   0.323  0.00  0.00    -0.031 A 
ATOM      6  C6  IND d   1      -3.118   0.353   0.846  0.00  0.00     0.015 A 
ATOM      7  C7  IND d   1      -2.317   1.460   0.858  0.00  0.00    -0.016 A 
ATOM      8  C8  IND d   1      -1.038   1.313   0.339  0.00  0.00    -0.047 A 
ATOM      9  C9  IND d   1      -0.574   0.087  -0.154  0.00  0.00    -0.096 A 
ATOM     10  HN1 IND d   1      -0.031   3.042   0.471  0.00  0.00     0.298 HD
ENDROOT
TORSDOF 0
ENDMDL
