MODEL 1
REMARK minimizedAffinity -3.32936239
REMARK minimizedRMSD -1
REMARK  0 active torsions:
REMARK  status: ('A' for Active; 'I' for Inactive)
ROOT
ATOM      1  N1  IND d   1      -0.991  -0.036  -0.943  0.00  0.00    -0.196 N 
ATOM      2  C2  IND d   1       0.320   0.325  -1.083  0.00  0.00     0.054 A 
ATOM      3  C3  IND d   1       1.090  -0.346  -0.197  0.00  0.00    -0.031 A 
ATOM      4  C4  IND d   1       0.423  -2.157   1.507  0.00  0.00     0.051 A 
ATOM      5  C5  IND d   1      -0.667  -2.796   2.029  0.00  0.00    -0.031 A 
ATOM      6  C6  IND d   1      -1.946  -2.545   1.576  0.00  0.00     0.015 A 
ATOM      7  C7  IND d   1      -2.183  -1.649   0.571  0.00  0.00    -0.016 A 
ATOM      8  C8  IND d   1      -1.079  -0.993   0.044  0.00  0.00    -0.047 A 
ATOM      9  C9  IND d   1       0.216  -1.213   0.529  0.00  0.00    -0.096 A 
ATOM     10  HN1 IND d   1      -1.650   0.281  -1.395  0.00  0.00     0.298 HD
ENDROOT
TORSDOF 0
ENDMDL
