MODEL 1
REMARK minimizedAffinity -2.68932843
REMARK minimizedRMSD -1
REMARK  0 active torsions:
REMARK  status: ('A' for Active; 'I' for Inactive)
ROOT
ATOM      1  N1  IND d   1      -0.060  -2.272   1.045  0.00  0.00    -0.196 N 
ATOM      2  C2  IND d   1      -1.426  -2.225   1.082  0.00  0.00     0.054 A 
ATOM      3  C3  IND d   1      -1.867  -1.026   0.639  0.00  0.00    -0.031 A 
ATOM      4  C4  IND d   1      -0.529   0.967  -0.292  0.00  0.00     0.051 A 
ATOM      5  C5  IND d   1       0.749   1.407  -0.490  0.00  0.00    -0.031 A 
ATOM      6  C6  IND d   1       1.845   0.627  -0.182  0.00  0.00     0.015 A 
ATOM      7  C7  IND d   1       1.703  -0.633   0.326  0.00  0.00    -0.016 A 
ATOM      8  C8  IND d   1       0.406  -1.081   0.535  0.00  0.00    -0.047 A 
ATOM      9  C9  IND d   1      -0.709  -0.278   0.265  0.00  0.00    -0.096 A 
ATOM     10  HN1 IND d   1       0.426  -2.935   1.298  0.00  0.00     0.298 HD
ENDROOT
TORSDOF 0
ENDMDL
