MODEL 1
REMARK minimizedAffinity -2.74690223
REMARK minimizedRMSD -1
REMARK  0 active torsions:
REMARK  status: ('A' for Active; 'I' for Inactive)
ROOT
ATOM      1  N1  IND d   1       0.717   1.350   0.384  0.00  0.00    -0.196 N 
ATOM      2  C2  IND d   1      -0.312   2.250   0.375  0.00  0.00     0.054 A 
ATOM      3  C3  IND d   1      -1.500   1.605   0.348  0.00  0.00    -0.031 A 
ATOM      4  C4  IND d   1      -1.992  -0.921   0.415  0.00  0.00     0.051 A 
ATOM      5  C5  IND d   1      -1.374  -2.139   0.391  0.00  0.00    -0.031 A 
ATOM      6  C6  IND d   1       0.000  -2.260   0.366  0.00  0.00     0.015 A 
ATOM      7  C7  IND d   1       0.812  -1.161   0.375  0.00  0.00    -0.016 A 
ATOM      8  C8  IND d   1       0.188   0.079   0.392  0.00  0.00    -0.047 A 
ATOM      9  C9  IND d   1      -1.207   0.207   0.375  0.00  0.00    -0.096 A 
ATOM     10  HN1 IND d   1       1.555   1.546   0.384  0.00  0.00     0.298 HD
ENDROOT
TORSDOF 0
ENDMDL
