MODEL 1
REMARK minimizedAffinity -2.00754881
REMARK minimizedRMSD -1
REMARK  0 active torsions:
REMARK  status: ('A' for Active; 'I' for Inactive)
ROOT
ATOM      1  N1  IND d   1      -0.348  -2.480   2.066  0.00  0.00    -0.196 N 
ATOM      2  C2  IND d   1      -1.638  -2.727   1.688  0.00  0.00     0.054 A 
ATOM      3  C3  IND d   1      -1.983  -1.936   0.648  0.00  0.00    -0.031 A 
ATOM      4  C4  IND d   1      -0.557  -0.235  -0.657  0.00  0.00     0.051 A 
ATOM      5  C5  IND d   1       0.672   0.363  -0.659  0.00  0.00    -0.031 A 
ATOM      6  C6  IND d   1       1.644   0.036   0.264  0.00  0.00     0.015 A 
ATOM      7  C7  IND d   1       1.426  -0.914   1.221  0.00  0.00    -0.016 A 
ATOM      8  C8  IND d   1       0.177  -1.519   1.231  0.00  0.00    -0.047 A 
ATOM      9  C9  IND d   1      -0.828  -1.161   0.323  0.00  0.00    -0.096 A 
ATOM     10  HN1 IND d   1       0.066  -2.861   2.717  0.00  0.00     0.298 HD
ENDROOT
TORSDOF 0
ENDMDL
