MODEL 1
REMARK minimizedAffinity -4.47563267
REMARK minimizedRMSD -1
REMARK  0 active torsions:
REMARK  status: ('A' for Active; 'I' for Inactive)
ROOT
ATOM      1  N1  IND d   1      -0.307   0.384  -0.815  0.00  0.00    -0.196 N 
ATOM      2  C2  IND d   1       0.971   0.714  -0.459  0.00  0.00     0.054 A 
ATOM      3  C3  IND d   1       1.402  -0.084   0.543  0.00  0.00    -0.031 A 
ATOM      4  C4  IND d   1       0.214  -2.063   1.683  0.00  0.00     0.051 A 
ATOM      5  C5  IND d   1      -0.982  -2.723   1.724  0.00  0.00    -0.031 A 
ATOM      6  C6  IND d   1      -2.035  -2.376   0.902  0.00  0.00     0.015 A 
ATOM      7  C7  IND d   1      -1.926  -1.358  -0.003  0.00  0.00    -0.016 A 
ATOM      8  C8  IND d   1      -0.715  -0.682  -0.043  0.00  0.00    -0.047 A 
ATOM      9  C9  IND d   1       0.342  -1.002   0.819  0.00  0.00    -0.096 A 
ATOM     10  HN1 IND d   1      -0.777   0.776  -1.419  0.00  0.00     0.298 HD
ENDROOT
TORSDOF 0
ENDMDL
