MODEL 1
REMARK minimizedAffinity -3.57115173
REMARK minimizedRMSD -1
REMARK  0 active torsions:
REMARK  status: ('A' for Active; 'I' for Inactive)
ROOT
ATOM      1  N1  IND d   1       0.644  -1.828  -0.141  0.00  0.00    -0.196 N 
ATOM      2  C2  IND d   1      -0.148  -2.624   0.639  0.00  0.00     0.054 A 
ATOM      3  C3  IND d   1      -1.041  -1.873   1.322  0.00  0.00    -0.031 A 
ATOM      4  C4  IND d   1      -1.449   0.667   1.235  0.00  0.00     0.051 A 
ATOM      5  C5  IND d   1      -0.952   1.820   0.696  0.00  0.00    -0.031 A 
ATOM      6  C6  IND d   1       0.123   1.816  -0.169  0.00  0.00     0.015 A 
ATOM      7  C7  IND d   1       0.736   0.652  -0.538  0.00  0.00    -0.016 A 
ATOM      8  C8  IND d   1       0.238  -0.520   0.013  0.00  0.00    -0.047 A 
ATOM      9  C9  IND d   1      -0.825  -0.518   0.925  0.00  0.00    -0.096 A 
ATOM     10  HN1 IND d   1       1.287  -2.098  -0.643  0.00  0.00     0.298 HD
ENDROOT
TORSDOF 0
ENDMDL
