MODEL 1
REMARK minimizedAffinity -2.08337855
REMARK minimizedRMSD -1
REMARK  0 active torsions:
REMARK  status: ('A' for Active; 'I' for Inactive)
ROOT
ATOM      1  N1  IND d   1      -1.273   0.714   0.744  0.00  0.00    -0.196 N 
ATOM      2  C2  IND d   1      -0.450   1.666   0.210  0.00  0.00     0.054 A 
ATOM      3  C3  IND d   1       0.754   1.131  -0.092  0.00  0.00    -0.031 A 
ATOM      4  C4  IND d   1       1.557  -1.307   0.109  0.00  0.00     0.051 A 
ATOM      5  C5  IND d   1       1.173  -2.532   0.575  0.00  0.00    -0.031 A 
ATOM      6  C6  IND d   1      -0.073  -2.744   1.130  0.00  0.00     0.015 A 
ATOM      7  C7  IND d   1      -0.989  -1.735   1.230  0.00  0.00    -0.016 A 
ATOM      8  C8  IND d   1      -0.599  -0.487   0.764  0.00  0.00    -0.047 A 
ATOM      9  C9  IND d   1       0.679  -0.257   0.238  0.00  0.00    -0.096 A 
ATOM     10  HN1 IND d   1      -2.077   0.844   1.020  0.00  0.00     0.298 HD
ENDROOT
TORSDOF 0
ENDMDL
