MODEL 1
REMARK minimizedAffinity -3.62092495
REMARK minimizedRMSD -1
REMARK  0 active torsions:
REMARK  status: ('A' for Active; 'I' for Inactive)
ROOT
ATOM      1  C   UNL d   1       2.002   0.702  -0.108  0.00  0.00     0.172 C 
ATOM      2  N   UNL d   1       0.736   0.735   0.587  0.00  0.00    -0.070 N 
ATOM      3  C1  UNL d   1       0.105  -0.343   1.147  0.00  0.00    -0.004 A 
ATOM      4  C2  UNL d   1      -1.070   0.103   1.712  0.00  0.00    -0.047 A 
ATOM      5  C3  UNL d   1      -1.148   1.497   1.484  0.00  0.00    -0.047 A 
ATOM      6  C4  UNL d   1      -0.017   1.862   0.785  0.00  0.00    -0.004 A 
ENDROOT
TORSDOF 0
ENDMDL
