MODEL 1
REMARK minimizedAffinity -1.21133912
REMARK minimizedRMSD -1
REMARK  0 active torsions:
REMARK  status: ('A' for Active; 'I' for Inactive)
ROOT
ATOM      1  C   UNL d   1      -2.837   1.822   2.963  0.00  0.00     0.172 C 
ATOM      2  N   UNL d   1      -1.623   1.379   2.319  0.00  0.00    -0.070 N 
ATOM      3  C1  UNL d   1      -1.433   0.159   1.726  0.00  0.00    -0.004 A 
ATOM      4  C2  UNL d   1      -0.147   0.126   1.230  0.00  0.00    -0.047 A 
ATOM      5  C3  UNL d   1       0.457   1.369   1.537  0.00  0.00    -0.047 A 
ATOM      6  C4  UNL d   1      -0.479   2.125   2.211  0.00  0.00    -0.004 A 
ENDROOT
TORSDOF 0
ENDMDL
