MODEL 1
REMARK minimizedAffinity -2.01595402
REMARK minimizedRMSD -1
REMARK  0 active torsions:
REMARK  status: ('A' for Active; 'I' for Inactive)
ROOT
ATOM      1  C   UNL d   1      -2.194   1.895   3.098  0.00  0.00     0.172 C 
ATOM      2  N   UNL d   1      -1.135   1.501   2.198  0.00  0.00    -0.070 N 
ATOM      3  C1  UNL d   1      -0.544   0.267   2.152  0.00  0.00    -0.004 A 
ATOM      4  C2  UNL d   1       0.416   0.295   1.163  0.00  0.00    -0.047 A 
ATOM      5  C3  UNL d   1       0.402   1.592   0.596  0.00  0.00    -0.047 A 
ATOM      6  C4  UNL d   1      -0.568   2.318   1.256  0.00  0.00    -0.004 A 
ENDROOT
TORSDOF 0
ENDMDL
