MODEL 1
REMARK minimizedAffinity -0.885892212
REMARK minimizedRMSD -1
REMARK  0 active torsions:
REMARK  status: ('A' for Active; 'I' for Inactive)
ROOT
ATOM      1  C   UNL d   1       1.891   0.773   0.027  0.00  0.00     0.172 C 
ATOM      2  N   UNL d   1       0.576   0.672   0.615  0.00  0.00    -0.070 N 
ATOM      3  C1  UNL d   1      -0.366   1.665   0.640  0.00  0.00    -0.004 A 
ATOM      4  C2  UNL d   1      -1.480   1.175   1.287  0.00  0.00    -0.047 A 
ATOM      5  C3  UNL d   1      -1.197  -0.160   1.664  0.00  0.00    -0.047 A 
ATOM      6  C4  UNL d   1       0.082  -0.445   1.236  0.00  0.00    -0.004 A 
ENDROOT
TORSDOF 0
ENDMDL
