MODEL 1
REMARK minimizedAffinity -4.01553202
REMARK minimizedRMSD -1
REMARK  0 active torsions:
REMARK  status: ('A' for Active; 'I' for Inactive)
ROOT
ATOM      1  C   UNL d   1       0.081   0.906   0.861  0.00  0.00     0.172 C 
ATOM      2  N   UNL d   1      -1.077   0.995   1.719  0.00  0.00    -0.070 N 
ATOM      3  C1  UNL d   1      -1.492   2.117   2.386  0.00  0.00    -0.004 A 
ATOM      4  C2  UNL d   1      -2.630   1.791   3.092  0.00  0.00    -0.047 A 
ATOM      5  C3  UNL d   1      -2.908   0.427   2.841  0.00  0.00    -0.047 A 
ATOM      6  C4  UNL d   1      -1.931  -0.042   1.988  0.00  0.00    -0.004 A 
ENDROOT
TORSDOF 0
ENDMDL
