MODEL 1
REMARK minimizedAffinity -0.770997226
REMARK minimizedRMSD -1
REMARK  0 active torsions:
REMARK  status: ('A' for Active; 'I' for Inactive)
ROOT
ATOM      1  C   UNL d   1      -2.003   2.279   2.945  0.00  0.00     0.172 C 
ATOM      2  N   UNL d   1      -1.171   1.433   2.123  0.00  0.00    -0.070 N 
ATOM      3  C1  UNL d   1      -0.072   1.839   1.415  0.00  0.00    -0.004 A 
ATOM      4  C2  UNL d   1       0.443   0.738   0.765  0.00  0.00    -0.047 A 
ATOM      5  C3  UNL d   1      -0.376  -0.368   1.093  0.00  0.00    -0.047 A 
ATOM      6  C4  UNL d   1      -1.367   0.090   1.935  0.00  0.00    -0.004 A 
ENDROOT
TORSDOF 0
ENDMDL
