MODEL 1
REMARK minimizedAffinity -1.15934193
REMARK minimizedRMSD -1
REMARK  0 active torsions:
REMARK  status: ('A' for Active; 'I' for Inactive)
ROOT
ATOM      1  C   UNL d   1      -3.336   1.582   3.381  0.00  0.00     0.172 C 
ATOM      2  N   UNL d   1      -2.134   1.616   2.582  0.00  0.00    -0.070 N 
ATOM      3  C1  UNL d   1      -1.341   0.539   2.285  0.00  0.00    -0.004 A 
ATOM      4  C2  UNL d   1      -0.298   0.986   1.504  0.00  0.00    -0.047 A 
ATOM      5  C3  UNL d   1      -0.468   2.379   1.325  0.00  0.00    -0.047 A 
ATOM      6  C4  UNL d   1      -1.613   2.743   2.003  0.00  0.00    -0.004 A 
ENDROOT
TORSDOF 0
ENDMDL
