MODEL 1
REMARK minimizedAffinity 0.400037467
REMARK minimizedRMSD -1
REMARK  0 active torsions:
REMARK  status: ('A' for Active; 'I' for Inactive)
ROOT
ATOM      1  C   UNL d   1      -1.273  -1.262   2.058  0.00  0.00     0.172 C 
ATOM      2  N   UNL d   1      -0.708   0.046   1.821  0.00  0.00    -0.070 N 
ATOM      3  C1  UNL d   1       0.392   0.313   1.051  0.00  0.00    -0.004 A 
ATOM      4  C2  UNL d   1       0.605   1.674   1.077  0.00  0.00    -0.047 A 
ATOM      5  C3  UNL d   1      -0.401   2.245   1.893  0.00  0.00    -0.047 A 
ATOM      6  C4  UNL d   1      -1.200   1.214   2.340  0.00  0.00    -0.004 A 
ENDROOT
TORSDOF 0
ENDMDL
