MODEL 1
REMARK minimizedAffinity 0.870034158
REMARK minimizedRMSD -1
REMARK  0 active torsions:
REMARK  status: ('A' for Active; 'I' for Inactive)
ROOT
ATOM      1  C   UNL d   1       2.457   0.326   0.123  0.00  0.00     0.172 C 
ATOM      2  N   UNL d   1       1.204   0.225   0.834  0.00  0.00    -0.070 N 
ATOM      3  C1  UNL d   1       0.175   1.126   0.769  0.00  0.00    -0.004 A 
ATOM      4  C2  UNL d   1      -0.836   0.671   1.588  0.00  0.00    -0.047 A 
ATOM      5  C3  UNL d   1      -0.398  -0.545   2.166  0.00  0.00    -0.047 A 
ATOM      6  C4  UNL d   1       0.868  -0.797   1.682  0.00  0.00    -0.004 A 
ENDROOT
TORSDOF 0
ENDMDL
