MODEL 1
REMARK minimizedAffinity -1.19118786
REMARK minimizedRMSD -1
REMARK  0 active torsions:
REMARK  status: ('A' for Active; 'I' for Inactive)
ROOT
ATOM      1  C   UNL d   1       0.371   1.145   1.181  0.00  0.00     0.172 C 
ATOM      2  N   UNL d   1       1.472   0.569   0.445  0.00  0.00    -0.070 N 
ATOM      3  C1  UNL d   1       1.995  -0.682   0.640  0.00  0.00    -0.004 A 
ATOM      4  C2  UNL d   1       3.027  -0.852  -0.257  0.00  0.00    -0.047 A 
ATOM      5  C3  UNL d   1       3.128   0.338  -1.017  0.00  0.00    -0.047 A 
ATOM      6  C4  UNL d   1       2.154   1.201  -0.561  0.00  0.00    -0.004 A 
ENDROOT
TORSDOF 0
ENDMDL
