MODEL 1
REMARK minimizedAffinity -1.46311474
REMARK minimizedRMSD -1
REMARK  0 active torsions:
REMARK  status: ('A' for Active; 'I' for Inactive)
ROOT
ATOM      1  C   UNL d   1      -5.678   5.088   6.000  0.00  0.00     0.172 C 
ATOM      2  N   UNL d   1      -5.263   3.767   5.590  0.00  0.00    -0.070 N 
ATOM      3  C1  UNL d   1      -4.124   3.125   5.999  0.00  0.00    -0.004 A 
ATOM      4  C2  UNL d   1      -4.093   1.891   5.387  0.00  0.00    -0.047 A 
ATOM      5  C3  UNL d   1      -5.252   1.787   4.582  0.00  0.00    -0.047 A 
ATOM      6  C4  UNL d   1      -5.959   2.962   4.727  0.00  0.00    -0.004 A 
ENDROOT
TORSDOF 0
ENDMDL
