MODEL 1
REMARK minimizedAffinity -3.95462632
REMARK minimizedRMSD -1
REMARK  0 active torsions:
REMARK  status: ('A' for Active; 'I' for Inactive)
ROOT
ATOM      1  C   UNL d   1      -2.520   1.471   2.771  0.00  0.00     0.172 C 
ATOM      2  N   UNL d   1      -1.294   1.447   2.009  0.00  0.00    -0.070 N 
ATOM      3  C1  UNL d   1      -0.320   2.409   2.033  0.00  0.00    -0.004 A 
ATOM      4  C2  UNL d   1       0.682   2.018   1.172  0.00  0.00    -0.047 A 
ATOM      5  C3  UNL d   1       0.296   0.778   0.609  0.00  0.00    -0.047 A 
ATOM      6  C4  UNL d   1      -0.932   0.448   1.144  0.00  0.00    -0.004 A 
ENDROOT
TORSDOF 0
ENDMDL
