MODEL 1
REMARK minimizedAffinity -3.69138432
REMARK minimizedRMSD -1
REMARK  0 active torsions:
REMARK  status: ('A' for Active; 'I' for Inactive)
ROOT
ATOM      1  C   UNL d   1      -2.632   2.147   3.092  0.00  0.00     0.172 C 
ATOM      2  N   UNL d   1      -1.706   1.413   2.263  0.00  0.00    -0.070 N 
ATOM      3  C1  UNL d   1      -0.649   1.950   1.577  0.00  0.00    -0.004 A 
ATOM      4  C2  UNL d   1      -0.014   0.925   0.910  0.00  0.00    -0.047 A 
ATOM      5  C3  UNL d   1      -0.713  -0.270   1.205  0.00  0.00    -0.047 A 
ATOM      6  C4  UNL d   1      -1.756   0.061   2.044  0.00  0.00    -0.004 A 
ENDROOT
TORSDOF 0
ENDMDL
