MODEL 1
REMARK minimizedAffinity -2.20339441
REMARK minimizedRMSD -1
REMARK  0 active torsions:
REMARK  status: ('A' for Active; 'I' for Inactive)
ROOT
ATOM      1  C   UNL d   1      -2.204   2.244   2.341  0.00  0.00     0.172 C 
ATOM      2  N   UNL d   1      -0.989   1.676   1.807  0.00  0.00    -0.070 N 
ATOM      3  C1  UNL d   1       0.283   2.085   2.106  0.00  0.00    -0.004 A 
ATOM      4  C2  UNL d   1       1.159   1.294   1.395  0.00  0.00    -0.047 A 
ATOM      5  C3  UNL d   1       0.387   0.377   0.643  0.00  0.00    -0.047 A 
ATOM      6  C4  UNL d   1      -0.939   0.636   0.916  0.00  0.00    -0.004 A 
ENDROOT
TORSDOF 0
ENDMDL
