MODEL 1
REMARK minimizedAffinity -3.35333991
REMARK minimizedRMSD -1
REMARK  0 active torsions:
REMARK  status: ('A' for Active; 'I' for Inactive)
ROOT
ATOM      1  C   UNL d   1      -2.022   2.303   2.903  0.00  0.00     0.172 C 
ATOM      2  N   UNL d   1      -1.086   1.865   1.895  0.00  0.00    -0.070 N 
ATOM      3  C1  UNL d   1      -0.847   0.564   1.539  0.00  0.00    -0.004 A 
ATOM      4  C2  UNL d   1       0.110   0.567   0.547  0.00  0.00    -0.047 A 
ATOM      5  C3  UNL d   1       0.459   1.916   0.299  0.00  0.00    -0.047 A 
ATOM      6  C4  UNL d   1      -0.296   2.698   1.148  0.00  0.00    -0.004 A 
ENDROOT
TORSDOF 0
ENDMDL
