MODEL 1
REMARK minimizedAffinity -0.0043600779
REMARK minimizedRMSD -1
REMARK  0 active torsions:
REMARK  status: ('A' for Active; 'I' for Inactive)
ROOT
ATOM      1  C   UNL d   1       0.649   0.707   1.074  0.00  0.00     0.172 C 
ATOM      2  N   UNL d   1      -0.571   0.968   1.802  0.00  0.00    -0.070 N 
ATOM      3  C1  UNL d   1      -1.713   0.215   1.741  0.00  0.00    -0.004 A 
ATOM      4  C2  UNL d   1      -2.644   0.792   2.578  0.00  0.00    -0.047 A 
ATOM      5  C3  UNL d   1      -2.040   1.931   3.162  0.00  0.00    -0.047 A 
ATOM      6  C4  UNL d   1      -0.757   2.016   2.664  0.00  0.00    -0.004 A 
ENDROOT
TORSDOF 0
ENDMDL
