MODEL 1
REMARK minimizedAffinity 1.03838432
REMARK minimizedRMSD -1
REMARK  0 active torsions:
REMARK  status: ('A' for Active; 'I' for Inactive)
ROOT
ATOM      1  C   UNL d   1       0.422   2.261   1.884  0.00  0.00     0.172 C 
ATOM      2  N   UNL d   1      -0.931   1.990   2.310  0.00  0.00    -0.070 N 
ATOM      3  C1  UNL d   1      -1.496   0.748   2.434  0.00  0.00    -0.004 A 
ATOM      4  C2  UNL d   1      -2.794   0.916   2.864  0.00  0.00    -0.047 A 
ATOM      5  C3  UNL d   1      -3.019   2.307   3.002  0.00  0.00    -0.047 A 
ATOM      6  C4  UNL d   1      -1.849   2.948   2.653  0.00  0.00    -0.004 A 
ENDROOT
TORSDOF 0
ENDMDL
