MODEL 1
REMARK minimizedAffinity 11.184454
REMARK minimizedRMSD -1
REMARK  0 active torsions:
REMARK  status: ('A' for Active; 'I' for Inactive)
ROOT
ATOM      1  N1  IND d   1      -2.997   3.314   2.489  0.00  0.00    -0.196 N 
ATOM      2  C2  IND d   1      -4.322   3.318   2.826  0.00  0.00     0.054 A 
ATOM      3  C3  IND d   1      -4.811   2.057   2.826  0.00  0.00    -0.031 A 
ATOM      4  C4  IND d   1      -3.592  -0.170   2.403  0.00  0.00     0.051 A 
ATOM      5  C5  IND d   1      -2.383  -0.681   2.022  0.00  0.00    -0.031 A 
ATOM      6  C6  IND d   1      -1.294   0.130   1.775  0.00  0.00     0.015 A 
ATOM      7  C7  IND d   1      -1.371   1.487   1.912  0.00  0.00    -0.016 A 
ATOM      8  C8  IND d   1      -2.599   2.010   2.291  0.00  0.00    -0.047 A 
ATOM      9  C9  IND d   1      -3.719   1.195   2.502  0.00  0.00    -0.096 A 
ATOM     10  HN1 IND d   1      -2.497   4.009   2.413  0.00  0.00     0.298 HD
ENDROOT
TORSDOF 0
ENDMDL
