MODEL 1
REMARK minimizedAffinity 19.5510712
REMARK minimizedRMSD -1
REMARK  0 active torsions:
REMARK  status: ('A' for Active; 'I' for Inactive)
ROOT
ATOM      1  N1  IND d   1       0.202  -3.197   3.038  0.00  0.00    -0.196 N 
ATOM      2  C2  IND d   1       0.563  -3.242   1.720  0.00  0.00     0.054 A 
ATOM      3  C3  IND d   1      -0.200  -2.394   0.994  0.00  0.00    -0.031 A 
ATOM      4  C4  IND d   1      -2.030  -0.761   1.777  0.00  0.00     0.051 A 
ATOM      5  C5  IND d   1      -2.737  -0.387   2.885  0.00  0.00    -0.031 A 
ATOM      6  C6  IND d   1      -2.494  -0.939   4.126  0.00  0.00     0.015 A 
ATOM      7  C7  IND d   1      -1.522  -1.882   4.308  0.00  0.00    -0.016 A 
ATOM      8  C8  IND d   1      -0.807  -2.270   3.184  0.00  0.00    -0.047 A 
ATOM      9  C9  IND d   1      -1.078  -1.744   1.914  0.00  0.00    -0.096 A 
ATOM     10  HN1 IND d   1       0.547  -3.667   3.669  0.00  0.00     0.298 HD
ENDROOT
TORSDOF 0
ENDMDL
