MODEL 1
REMARK minimizedAffinity 14.6023865
REMARK minimizedRMSD -1
REMARK  0 active torsions:
REMARK  status: ('A' for Active; 'I' for Inactive)
ROOT
ATOM      1  N1  IND d   1       0.363  -3.446  -5.248  0.00  0.00    -0.196 N 
ATOM      2  C2  IND d   1      -0.818  -3.436  -5.937  0.00  0.00     0.054 A 
ATOM      3  C3  IND d   1      -1.315  -2.180  -6.000  0.00  0.00    -0.031 A 
ATOM      4  C4  IND d   1      -0.306   0.023  -5.132  0.00  0.00     0.051 A 
ATOM      5  C5  IND d   1       0.741   0.516  -4.405  0.00  0.00    -0.031 A 
ATOM      6  C6  IND d   1       1.737  -0.303  -3.914  0.00  0.00     0.015 A 
ATOM      7  C7  IND d   1       1.729  -1.650  -4.143  0.00  0.00    -0.016 A 
ATOM      8  C8  IND d   1       0.664  -2.155  -4.875  0.00  0.00    -0.047 A 
ATOM      9  C9  IND d   1      -0.372  -1.334  -5.339  0.00  0.00    -0.096 A 
ATOM     10  HN1 IND d   1       0.838  -4.142  -5.077  0.00  0.00     0.298 HD
ENDROOT
TORSDOF 0
ENDMDL
