MODEL 1
REMARK minimizedAffinity 9.6839304
REMARK minimizedRMSD -1
REMARK  0 active torsions:
REMARK  status: ('A' for Active; 'I' for Inactive)
ROOT
ATOM      1  N1  IND d   1       4.774   2.951  -5.999  0.00  0.00    -0.196 N 
ATOM      2  C2  IND d   1       5.928   3.140  -5.291  0.00  0.00     0.054 A 
ATOM      3  C3  IND d   1       5.781   4.159  -4.414  0.00  0.00    -0.031 A 
ATOM      4  C4  IND d   1       3.702   5.589  -3.902  0.00  0.00     0.051 A 
ATOM      5  C5  IND d   1       2.420   5.813  -4.319  0.00  0.00    -0.031 A 
ATOM      6  C6  IND d   1       1.845   5.079  -5.335  0.00  0.00     0.015 A 
ATOM      7  C7  IND d   1       2.529   4.080  -5.968  0.00  0.00    -0.016 A 
ATOM      8  C8  IND d   1       3.834   3.854  -5.553  0.00  0.00    -0.047 A 
ATOM      9  C9  IND d   1       4.437   4.624  -4.551  0.00  0.00    -0.096 A 
ATOM     10  HN1 IND d   1       4.655   2.367  -6.619  0.00  0.00     0.298 HD
ENDROOT
TORSDOF 0
ENDMDL
