MODEL 1
REMARK minimizedAffinity 13.3524075
REMARK minimizedRMSD -1
REMARK  0 active torsions:
REMARK  status: ('A' for Active; 'I' for Inactive)
ROOT
ATOM      1  N1  IND d   1      -0.015  -3.126  -4.873  0.00  0.00    -0.196 N 
ATOM      2  C2  IND d   1      -0.977  -2.916  -5.821  0.00  0.00     0.054 A 
ATOM      3  C3  IND d   1      -1.180  -1.591  -6.000  0.00  0.00    -0.031 A 
ATOM      4  C4  IND d   1       0.027   0.409  -4.917  0.00  0.00     0.051 A 
ATOM      5  C5  IND d   1       0.955   0.719  -3.963  0.00  0.00    -0.031 A 
ATOM      6  C6  IND d   1       1.623  -0.257  -3.251  0.00  0.00     0.015 A 
ATOM      7  C7  IND d   1       1.394  -1.585  -3.475  0.00  0.00    -0.016 A 
ATOM      8  C8  IND d   1       0.447  -1.903  -4.439  0.00  0.00    -0.047 A 
ATOM      9  C9  IND d   1      -0.264  -0.917  -5.135  0.00  0.00    -0.096 A 
ATOM     10  HN1 IND d   1       0.256  -3.893  -4.594  0.00  0.00     0.298 HD
ENDROOT
TORSDOF 0
ENDMDL
