MODEL 1
REMARK minimizedAffinity 7.34982395
REMARK minimizedRMSD -1
REMARK  0 active torsions:
REMARK  status: ('A' for Active; 'I' for Inactive)
ROOT
ATOM      1  N1  IND d   1      -2.769   2.931   2.556  0.00  0.00    -0.196 N 
ATOM      2  C2  IND d   1      -4.135   2.961   2.622  0.00  0.00     0.054 A 
ATOM      3  C3  IND d   1      -4.648   1.751   2.304  0.00  0.00    -0.031 A 
ATOM      4  C4  IND d   1      -3.429  -0.445   1.741  0.00  0.00     0.051 A 
ATOM      5  C5  IND d   1      -2.182  -0.959   1.520  0.00  0.00    -0.031 A 
ATOM      6  C6  IND d   1      -1.044  -0.188   1.638  0.00  0.00     0.015 A 
ATOM      7  C7  IND d   1      -1.110   1.130   1.994  0.00  0.00    -0.016 A 
ATOM      8  C8  IND d   1      -2.375   1.657   2.212  0.00  0.00    -0.047 A 
ATOM      9  C9  IND d   1      -3.536   0.890   2.053  0.00  0.00    -0.096 A 
ATOM     10  HN1 IND d   1      -2.245   3.597   2.703  0.00  0.00     0.298 HD
ENDROOT
TORSDOF 0
ENDMDL
