MODEL 1
REMARK minimizedAffinity 19.1181126
REMARK minimizedRMSD -1
REMARK  0 active torsions:
REMARK  status: ('A' for Active; 'I' for Inactive)
ROOT
ATOM      1  N1  IND d   1      -2.360  -3.678   0.585  0.00  0.00    -0.196 N 
ATOM      2  C2  IND d   1      -1.537  -2.607   0.797  0.00  0.00     0.054 A 
ATOM      3  C3  IND d   1      -2.258  -1.465   0.856  0.00  0.00    -0.031 A 
ATOM      4  C4  IND d   1      -4.808  -1.132   0.733  0.00  0.00     0.051 A 
ATOM      5  C5  IND d   1      -5.973  -1.811   0.509  0.00  0.00    -0.031 A 
ATOM      6  C6  IND d   1      -5.994  -3.174   0.298  0.00  0.00     0.015 A 
ATOM      7  C7  IND d   1      -4.847  -3.915   0.314  0.00  0.00    -0.016 A 
ATOM      8  C8  IND d   1      -3.661  -3.229   0.534  0.00  0.00    -0.047 A 
ATOM      9  C9  IND d   1      -3.629  -1.839   0.706  0.00  0.00    -0.096 A 
ATOM     10  HN1 IND d   1      -2.107  -4.496   0.499  0.00  0.00     0.298 HD
ENDROOT
TORSDOF 0
ENDMDL
