MODEL 1
REMARK minimizedAffinity 14.8339787
REMARK minimizedRMSD -1
REMARK  0 active torsions:
REMARK  status: ('A' for Active; 'I' for Inactive)
ROOT
ATOM      1  N1  IND d   1      -3.901  -3.310   5.977  0.00  0.00    -0.196 N 
ATOM      2  C2  IND d   1      -3.402  -2.289   5.217  0.00  0.00     0.054 A 
ATOM      3  C3  IND d   1      -3.787  -2.431   3.929  0.00  0.00    -0.031 A 
ATOM      4  C4  IND d   1      -5.321  -4.204   2.866  0.00  0.00     0.051 A 
ATOM      5  C5  IND d   1      -5.990  -5.361   3.153  0.00  0.00    -0.031 A 
ATOM      6  C6  IND d   1      -6.000  -5.902   4.422  0.00  0.00     0.015 A 
ATOM      7  C7  IND d   1      -5.347  -5.298   5.459  0.00  0.00    -0.016 A 
ATOM      8  C8  IND d   1      -4.660  -4.128   5.170  0.00  0.00    -0.047 A 
ATOM      9  C9  IND d   1      -4.612  -3.596   3.874  0.00  0.00    -0.096 A 
ATOM     10  HN1 IND d   1      -3.763  -3.422   6.819  0.00  0.00     0.298 HD
ENDROOT
TORSDOF 0
ENDMDL
