MODEL 1
REMARK minimizedAffinity 8.32260513
REMARK minimizedRMSD -1
REMARK  0 active torsions:
REMARK  status: ('A' for Active; 'I' for Inactive)
ROOT
ATOM      1  N1  IND d   1       2.349   3.902  -3.348  0.00  0.00    -0.196 N 
ATOM      2  C2  IND d   1       3.111   4.962  -3.753  0.00  0.00     0.054 A 
ATOM      3  C3  IND d   1       3.938   4.591  -4.756  0.00  0.00    -0.031 A 
ATOM      4  C4  IND d   1       4.135   2.323  -5.959  0.00  0.00     0.051 A 
ATOM      5  C5  IND d   1       3.672   1.038  -5.918  0.00  0.00    -0.031 A 
ATOM      6  C6  IND d   1       2.723   0.635  -5.001  0.00  0.00     0.015 A 
ATOM      7  C7  IND d   1       2.191   1.508  -4.095  0.00  0.00    -0.016 A 
ATOM      8  C8  IND d   1       2.664   2.812  -4.129  0.00  0.00    -0.047 A 
ATOM      9  C9  IND d   1       3.658   3.217  -5.029  0.00  0.00    -0.096 A 
ATOM     10  HN1 IND d   1       1.770   3.914  -2.712  0.00  0.00     0.298 HD
ENDROOT
TORSDOF 0
ENDMDL
