MODEL 1
REMARK minimizedAffinity 8.15076351
REMARK minimizedRMSD -1
REMARK  0 active torsions:
REMARK  status: ('A' for Active; 'I' for Inactive)
ROOT
ATOM      1  N1  IND d   1      -0.822  -1.479   4.363  0.00  0.00    -0.196 N 
ATOM      2  C2  IND d   1      -2.006  -1.850   4.938  0.00  0.00     0.054 A 
ATOM      3  C3  IND d   1      -3.034  -1.178   4.372  0.00  0.00    -0.031 A 
ATOM      4  C4  IND d   1      -3.015   0.500   2.420  0.00  0.00     0.051 A 
ATOM      5  C5  IND d   1      -2.166   1.183   1.595  0.00  0.00    -0.031 A 
ATOM      6  C6  IND d   1      -0.799   1.007   1.648  0.00  0.00     0.015 A 
ATOM      7  C7  IND d   1      -0.227   0.130   2.527  0.00  0.00    -0.016 A 
ATOM      8  C8  IND d   1      -1.085  -0.559   3.371  0.00  0.00    -0.047 A 
ATOM      9  C9  IND d   1      -2.471  -0.354   3.350  0.00  0.00    -0.096 A 
ATOM     10  HN1 IND d   1      -0.044  -1.771   4.583  0.00  0.00     0.298 HD
ENDROOT
TORSDOF 0
ENDMDL
