MODEL 1
REMARK minimizedAffinity 14.9490957
REMARK minimizedRMSD -1
REMARK  0 active torsions:
REMARK  status: ('A' for Active; 'I' for Inactive)
ROOT
ATOM      1  N1  IND d   1      -0.733   2.005   3.314  0.00  0.00    -0.196 N 
ATOM      2  C2  IND d   1      -0.109   0.880   2.852  0.00  0.00     0.054 A 
ATOM      3  C3  IND d   1      -0.973   0.122   2.141  0.00  0.00    -0.031 A 
ATOM      4  C4  IND d   1      -3.430   0.584   1.524  0.00  0.00     0.051 A 
ATOM      5  C5  IND d   1      -4.449   1.467   1.748  0.00  0.00    -0.031 A 
ATOM      6  C6  IND d   1      -4.277   2.598   2.519  0.00  0.00     0.015 A 
ATOM      7  C7  IND d   1      -3.071   2.896   3.087  0.00  0.00    -0.016 A 
ATOM      8  C8  IND d   1      -2.036   1.999   2.868  0.00  0.00    -0.047 A 
ATOM      9  C9  IND d   1      -2.216   0.827   2.122  0.00  0.00    -0.096 A 
ATOM     10  HN1 IND d   1      -0.372   2.615   3.801  0.00  0.00     0.298 HD
ENDROOT
TORSDOF 0
ENDMDL
