MODEL 1
REMARK minimizedAffinity 7.3428483
REMARK minimizedRMSD -1
REMARK  0 active torsions:
REMARK  status: ('A' for Active; 'I' for Inactive)
ROOT
ATOM      1  N1  IND d   1      -4.969  -1.904  -5.398  0.00  0.00    -0.196 N 
ATOM      2  C2  IND d   1      -5.117  -3.127  -5.991  0.00  0.00     0.054 A 
ATOM      3  C3  IND d   1      -5.485  -4.052  -5.077  0.00  0.00    -0.031 A 
ATOM      4  C4  IND d   1      -6.000  -3.762  -2.572  0.00  0.00     0.051 A 
ATOM      5  C5  IND d   1      -5.969  -2.837  -1.566  0.00  0.00    -0.031 A 
ATOM      6  C6  IND d   1      -5.599  -1.527  -1.791  0.00  0.00     0.015 A 
ATOM      7  C7  IND d   1      -5.255  -1.088  -3.038  0.00  0.00    -0.016 A 
ATOM      8  C8  IND d   1      -5.278  -2.026  -4.061  0.00  0.00    -0.047 A 
ATOM      9  C9  IND d   1      -5.612  -3.367  -3.830  0.00  0.00    -0.096 A 
ATOM     10  HN1 IND d   1      -4.724  -1.181  -5.793  0.00  0.00     0.298 HD
ENDROOT
TORSDOF 0
ENDMDL
