MODEL 1
REMARK minimizedAffinity 10.3477354
REMARK minimizedRMSD -1
REMARK  0 active torsions:
REMARK  status: ('A' for Active; 'I' for Inactive)
ROOT
ATOM      1  N1  IND d   1      -3.736  -2.344   0.156  0.00  0.00    -0.196 N 
ATOM      2  C2  IND d   1      -2.694  -3.196   0.394  0.00  0.00     0.054 A 
ATOM      3  C3  IND d   1      -1.622  -2.512   0.855  0.00  0.00    -0.031 A 
ATOM      4  C4  IND d   1      -1.390  -0.005   1.391  0.00  0.00     0.051 A 
ATOM      5  C5  IND d   1      -2.061   1.182   1.303  0.00  0.00    -0.031 A 
ATOM      6  C6  IND d   1      -3.352   1.256   0.821  0.00  0.00     0.015 A 
ATOM      7  C7  IND d   1      -4.027   0.138   0.418  0.00  0.00    -0.016 A 
ATOM      8  C8  IND d   1      -3.346  -1.068   0.499  0.00  0.00    -0.047 A 
ATOM      9  C9  IND d   1      -2.021  -1.143   0.948  0.00  0.00    -0.096 A 
ATOM     10  HN1 IND d   1      -4.505  -2.567  -0.155  0.00  0.00     0.298 HD
ENDROOT
TORSDOF 0
ENDMDL
