MODEL 1
REMARK minimizedAffinity 9.57865047
REMARK minimizedRMSD -1
REMARK  0 active torsions:
REMARK  status: ('A' for Active; 'I' for Inactive)
ROOT
ATOM      1  N1  IND d   1      -0.966   4.063   2.755  0.00  0.00    -0.196 N 
ATOM      2  C2  IND d   1       0.249   3.463   2.939  0.00  0.00     0.054 A 
ATOM      3  C3  IND d   1       0.283   2.267   2.310  0.00  0.00    -0.031 A 
ATOM      4  C4  IND d   1      -1.502   1.143   0.836  0.00  0.00     0.051 A 
ATOM      5  C5  IND d   1      -2.790   1.289   0.403  0.00  0.00    -0.031 A 
ATOM      6  C6  IND d   1      -3.550   2.391   0.737  0.00  0.00     0.015 A 
ATOM      7  C7  IND d   1      -3.045   3.398   1.510  0.00  0.00    -0.016 A 
ATOM      8  C8  IND d   1      -1.739   3.249   1.957  0.00  0.00    -0.047 A 
ATOM      9  C9  IND d   1      -0.977   2.113   1.656  0.00  0.00    -0.096 A 
ATOM     10  HN1 IND d   1      -1.206   4.821   3.082  0.00  0.00     0.298 HD
ENDROOT
TORSDOF 0
ENDMDL
