MODEL 1
REMARK minimizedAffinity 11.8403311
REMARK minimizedRMSD -1
REMARK  0 active torsions:
REMARK  status: ('A' for Active; 'I' for Inactive)
ROOT
ATOM      1  N1  IND d   1       0.164   3.539   3.467  0.00  0.00    -0.196 N 
ATOM      2  C2  IND d   1       1.202   2.671   3.663  0.00  0.00     0.054 A 
ATOM      3  C3  IND d   1       0.969   1.506   3.017  0.00  0.00    -0.031 A 
ATOM      4  C4  IND d   1      -1.001   0.844   1.497  0.00  0.00     0.051 A 
ATOM      5  C5  IND d   1      -2.211   1.292   1.046  0.00  0.00    -0.031 A 
ATOM      6  C6  IND d   1      -2.699   2.537   1.383  0.00  0.00     0.015 A 
ATOM      7  C7  IND d   1      -1.988   3.390   2.178  0.00  0.00    -0.016 A 
ATOM      8  C8  IND d   1      -0.762   2.937   2.644  0.00  0.00    -0.047 A 
ATOM      9  C9  IND d   1      -0.280   1.657   2.340  0.00  0.00    -0.096 A 
ATOM     10  HN1 IND d   1       0.101   4.329   3.801  0.00  0.00     0.298 HD
ENDROOT
TORSDOF 0
ENDMDL
