MODEL 1
REMARK minimizedAffinity 17.058445
REMARK minimizedRMSD -1
REMARK  0 active torsions:
REMARK  status: ('A' for Active; 'I' for Inactive)
ROOT
ATOM      1  N1  IND d   1      -5.284  -4.246  -0.004  0.00  0.00    -0.196 N 
ATOM      2  C2  IND d   1      -4.068  -4.871  -0.010  0.00  0.00     0.054 A 
ATOM      3  C3  IND d   1      -3.083  -3.987   0.263  0.00  0.00    -0.031 A 
ATOM      4  C4  IND d   1      -3.247  -1.486   0.850  0.00  0.00     0.051 A 
ATOM      5  C5  IND d   1      -4.142  -0.458   0.945  0.00  0.00    -0.031 A 
ATOM      6  C6  IND d   1      -5.492  -0.644   0.726  0.00  0.00     0.015 A 
ATOM      7  C7  IND d   1      -6.000  -1.874   0.414  0.00  0.00    -0.016 A 
ATOM      8  C8  IND d   1      -5.092  -2.919   0.311  0.00  0.00    -0.047 A 
ATOM      9  C9  IND d   1      -3.716  -2.727   0.490  0.00  0.00    -0.096 A 
ATOM     10  HN1 IND d   1      -6.041  -4.619  -0.169  0.00  0.00     0.298 HD
ENDROOT
TORSDOF 0
ENDMDL
