MODEL 1
REMARK minimizedAffinity 18.3284073
REMARK minimizedRMSD -1
REMARK  0 active torsions:
REMARK  status: ('A' for Active; 'I' for Inactive)
ROOT
ATOM      1  N1  IND d   1      -6.000   5.638   4.702  0.00  0.00    -0.196 N 
ATOM      2  C2  IND d   1      -5.079   5.999   5.646  0.00  0.00     0.054 A 
ATOM      3  C3  IND d   1      -3.832   5.964   5.124  0.00  0.00    -0.031 A 
ATOM      4  C4  IND d   1      -3.080   5.443   2.718  0.00  0.00     0.051 A 
ATOM      5  C5  IND d   1      -3.556   5.024   1.507  0.00  0.00    -0.031 A 
ATOM      6  C6  IND d   1      -4.899   4.786   1.295  0.00  0.00     0.015 A 
ATOM      7  C7  IND d   1      -5.821   4.970   2.286  0.00  0.00    -0.016 A 
ATOM      8  C8  IND d   1      -5.340   5.389   3.518  0.00  0.00    -0.047 A 
ATOM      9  C9  IND d   1      -3.973   5.591   3.752  0.00  0.00    -0.096 A 
ATOM     10  HN1 IND d   1      -6.848   5.577   4.826  0.00  0.00     0.298 HD
ENDROOT
TORSDOF 0
ENDMDL
