MODEL 1
REMARK minimizedAffinity 13.4039993
REMARK minimizedRMSD -1
REMARK  0 active torsions:
REMARK  status: ('A' for Active; 'I' for Inactive)
ROOT
ATOM      1  N1  IND d   1       2.781  -0.176  -4.559  0.00  0.00    -0.196 N 
ATOM      2  C2  IND d   1       2.250  -0.070  -3.304  0.00  0.00     0.054 A 
ATOM      3  C3  IND d   1       2.546   1.136  -2.769  0.00  0.00    -0.031 A 
ATOM      4  C4  IND d   1       3.799   3.126  -3.815  0.00  0.00     0.051 A 
ATOM      5  C5  IND d   1       4.502   3.492  -4.929  0.00  0.00    -0.031 A 
ATOM      6  C6  IND d   1       4.668   2.637  -5.999  0.00  0.00     0.015 A 
ATOM      7  C7  IND d   1       4.125   1.383  -6.000  0.00  0.00    -0.016 A 
ATOM      8  C8  IND d   1       3.417   1.006  -4.868  0.00  0.00    -0.047 A 
ATOM      9  C9  IND d   1       3.281   1.854  -3.761  0.00  0.00    -0.096 A 
ATOM     10  HN1 IND d   1       2.726  -0.866  -5.070  0.00  0.00     0.298 HD
ENDROOT
TORSDOF 0
ENDMDL
