MODEL 1
REMARK minimizedAffinity 15.4922256
REMARK minimizedRMSD -1
REMARK  1 active torsions:
REMARK  status: ('A' for Active; 'I' for Inactive)
REMARK    1  A    between atoms: C1_2  and  C2_3 
ROOT
ATOM      1  C2  UNL d   1       3.674   1.110  -1.427  0.00  0.00    -0.073 A 
ATOM      2  C3  UNL d   1       4.739   2.017  -1.446  0.00  0.00    -0.002 A 
ATOM      3  C4  UNL d   1       5.612   2.056  -2.534  0.00  0.00     0.004 A 
ATOM      4  C5  UNL d   1       5.426   1.195  -3.615  0.00  0.00    -0.004 A 
ATOM      5  C6  UNL d   1       4.360   0.290  -3.620  0.00  0.00    -0.075 A 
ATOM      6  C7  UNL d   1       4.148  -0.645  -4.774  0.00  0.00     0.076 C 
ATOM      7  C8  UNL d   1       3.489   0.254  -2.523  0.00  0.00     0.001 A 
ENDROOT
BRANCH   1   8
ATOM      8  C1  UNL d   1       2.724   1.068  -0.258  0.00  0.00     0.053 C 
ATOM      9  C   UNL d   1       1.519   1.971  -0.470  0.00  0.00     0.018 C 
ENDBRANCH   1   8
TORSDOF 1
ENDMDL
