MODEL 1
REMARK minimizedAffinity 10.6345749
REMARK minimizedRMSD -1
REMARK  1 active torsions:
REMARK  status: ('A' for Active; 'I' for Inactive)
REMARK    1  A    between atoms: C1_2  and  C2_3 
ROOT
ATOM      1  C2  UNL d   1       4.450   1.403  -2.250  0.00  0.00    -0.073 A 
ATOM      2  C3  UNL d   1       3.778   0.284  -2.753  0.00  0.00    -0.002 A 
ATOM      3  C4  UNL d   1       2.690  -0.255  -2.064  0.00  0.00     0.004 A 
ATOM      4  C5  UNL d   1       2.261   0.323  -0.869  0.00  0.00    -0.004 A 
ATOM      5  C6  UNL d   1       2.913   1.449  -0.356  0.00  0.00    -0.075 A 
ATOM      6  C7  UNL d   1       2.464   2.081   0.929  0.00  0.00     0.076 C 
ATOM      7  C8  UNL d   1       4.005   1.982  -1.053  0.00  0.00     0.001 A 
ENDROOT
BRANCH   1   8
ATOM      8  C1  UNL d   1       5.621   1.992  -2.994  0.00  0.00     0.053 C 
ATOM      9  C   UNL d   1       5.415   3.465  -3.306  0.00  0.00     0.018 C 
ENDBRANCH   1   8
TORSDOF 1
ENDMDL
