MODEL 1
REMARK minimizedAffinity 14.222703
REMARK minimizedRMSD -1
REMARK  1 active torsions:
REMARK  status: ('A' for Active; 'I' for Inactive)
REMARK    1  A    between atoms: C1_2  and  C2_3 
ROOT
ATOM      1  C2  UNL d   1       5.420   2.637  -1.519  0.00  0.00    -0.073 A 
ATOM      2  C3  UNL d   1       6.000   2.852  -0.263  0.00  0.00    -0.002 A 
ATOM      3  C4  UNL d   1       5.469   2.240   0.873  0.00  0.00     0.004 A 
ATOM      4  C5  UNL d   1       4.359   1.402   0.765  0.00  0.00    -0.004 A 
ATOM      5  C6  UNL d   1       3.773   1.166  -0.483  0.00  0.00    -0.075 A 
ATOM      6  C7  UNL d   1       2.577   0.269  -0.616  0.00  0.00     0.076 C 
ATOM      7  C8  UNL d   1       4.310   1.786  -1.619  0.00  0.00     0.001 A 
ENDROOT
BRANCH   1   8
ATOM      8  C1  UNL d   1       5.994   3.291  -2.749  0.00  0.00     0.053 C 
ATOM      9  C   UNL d   1       6.000   4.808  -2.638  0.00  0.00     0.018 C 
ENDBRANCH   1   8
TORSDOF 1
ENDMDL
