MODEL 1
REMARK minimizedAffinity 7.8349185
REMARK minimizedRMSD -1
REMARK  1 active torsions:
REMARK  status: ('A' for Active; 'I' for Inactive)
REMARK    1  A    between atoms: C1_2  and  C2_3 
ROOT
ATOM      1  C2  UNL d   1       5.390   2.212  -1.691  0.00  0.00    -0.073 A 
ATOM      2  C3  UNL d   1       6.000   2.398  -0.445  0.00  0.00    -0.002 A 
ATOM      3  C4  UNL d   1       5.436   1.844   0.706  0.00  0.00     0.004 A 
ATOM      4  C5  UNL d   1       4.264   1.093   0.621  0.00  0.00    -0.004 A 
ATOM      5  C6  UNL d   1       3.646   0.886  -0.616  0.00  0.00    -0.075 A 
ATOM      6  C7  UNL d   1       2.383   0.083  -0.724  0.00  0.00     0.076 C 
ATOM      7  C8  UNL d   1       4.217   1.448  -1.767  0.00  0.00     0.001 A 
ENDROOT
BRANCH   1   8
ATOM      8  C1  UNL d   1       5.999   2.803  -2.936  0.00  0.00     0.053 C 
ATOM      9  C   UNL d   1       5.978   4.323  -2.915  0.00  0.00     0.018 C 
ENDBRANCH   1   8
TORSDOF 1
ENDMDL
