MODEL 1
REMARK minimizedAffinity 8.1863203
REMARK minimizedRMSD -1
REMARK  1 active torsions:
REMARK  status: ('A' for Active; 'I' for Inactive)
REMARK    1  A    between atoms: C1_2  and  C2_3 
ROOT
ATOM      1  C2  UNL d   1       1.471   3.117   3.161  0.00  0.00    -0.073 A 
ATOM      2  C3  UNL d   1       0.546   3.938   2.507  0.00  0.00    -0.002 A 
ATOM      3  C4  UNL d   1       0.485   3.960   1.113  0.00  0.00     0.004 A 
ATOM      4  C5  UNL d   1       1.343   3.158   0.360  0.00  0.00    -0.004 A 
ATOM      5  C6  UNL d   1       2.266   2.323   0.996  0.00  0.00    -0.075 A 
ATOM      6  C7  UNL d   1       3.197   1.455   0.201  0.00  0.00     0.076 C 
ATOM      7  C8  UNL d   1       2.323   2.308   2.396  0.00  0.00     0.001 A 
ENDROOT
BRANCH   1   8
ATOM      8  C1  UNL d   1       1.536   3.085   4.666  0.00  0.00     0.053 C 
ATOM      9  C   UNL d   1       1.623   1.665   5.203  0.00  0.00     0.018 C 
ENDBRANCH   1   8
TORSDOF 1
ENDMDL
