MODEL 1
REMARK minimizedAffinity -3.51548982
REMARK minimizedRMSD -1
REMARK  0 active torsions:
REMARK  status: ('A' for Active; 'I' for Inactive)
ROOT
ATOM      1  O1  BZF d   1       1.208   1.063   0.182  0.00  0.00    -0.204 OA
ATOM      2  C2  BZF d   1       0.722   0.706  -1.061  0.00  0.00     0.174 A 
ATOM      3  C3  BZF d   1      -0.294  -0.174  -0.943  0.00  0.00    -0.012 A 
ATOM      4  C3A BZF d   1      -0.513  -0.309   0.465  0.00  0.00    -0.107 A 
ATOM      5  C4  BZF d   1      -1.399  -1.031   1.211  0.00  0.00     0.055 A 
ATOM      6  C5  BZF d   1      -1.301  -0.999   2.567  0.00  0.00    -0.016 A 
ATOM      7  C6  BZF d   1      -0.328  -0.259   3.207  0.00  0.00     0.022 A 
ATOM      8  C7  BZF d   1       0.570   0.477   2.508  0.00  0.00     0.029 A 
ATOM      9  C7A BZF d   1       0.453   0.472   1.140  0.00  0.00     0.058 A 
ENDROOT
TORSDOF 0
ENDMDL
