MODEL 1
REMARK minimizedAffinity -3.17046809
REMARK minimizedRMSD -1
REMARK  0 active torsions:
REMARK  status: ('A' for Active; 'I' for Inactive)
ROOT
ATOM      1  O1  BZF d   1       0.539  -2.082   0.989  0.00  0.00    -0.204 OA
ATOM      2  C2  BZF d   1       0.718  -1.848  -0.361  0.00  0.00     0.174 A 
ATOM      3  C3  BZF d   1      -0.057  -0.825  -0.776  0.00  0.00    -0.012 A 
ATOM      4  C3A BZF d   1      -0.695  -0.333   0.407  0.00  0.00    -0.107 A 
ATOM      5  C4  BZF d   1      -1.572   0.687   0.645  0.00  0.00     0.055 A 
ATOM      6  C5  BZF d   1      -2.061   0.857   1.901  0.00  0.00    -0.016 A 
ATOM      7  C6  BZF d   1      -1.698   0.026   2.940  0.00  0.00     0.022 A 
ATOM      8  C7  BZF d   1      -0.827  -0.996   2.754  0.00  0.00     0.029 A 
ATOM      9  C7A BZF d   1      -0.306  -1.151   1.493  0.00  0.00     0.058 A 
ENDROOT
TORSDOF 0
ENDMDL
