MODEL 1
REMARK minimizedAffinity -3.66911101
REMARK minimizedRMSD -1
REMARK  0 active torsions:
REMARK  status: ('A' for Active; 'I' for Inactive)
ROOT
ATOM      1  O1  BZF d   1       0.322   1.187  -0.522  0.00  0.00    -0.204 OA
ATOM      2  C2  BZF d   1       1.431   1.939  -0.185  0.00  0.00     0.174 A 
ATOM      3  C3  BZF d   1       1.756   1.758   1.111  0.00  0.00    -0.012 A 
ATOM      4  C3A BZF d   1       0.845   0.764   1.592  0.00  0.00    -0.107 A 
ATOM      5  C4  BZF d   1       0.677   0.152   2.801  0.00  0.00     0.055 A 
ATOM      6  C5  BZF d   1      -0.352  -0.721   2.962  0.00  0.00    -0.016 A 
ATOM      7  C6  BZF d   1      -1.233  -1.000   1.938  0.00  0.00     0.022 A 
ATOM      8  C7  BZF d   1      -1.104  -0.421   0.720  0.00  0.00     0.029 A 
ATOM      9  C7A BZF d   1      -0.046   0.436   0.544  0.00  0.00     0.058 A 
ENDROOT
TORSDOF 0
ENDMDL
