MODEL 1
REMARK minimizedAffinity 7.12672377
REMARK minimizedRMSD -1
REMARK  0 active torsions:
REMARK  status: ('A' for Active; 'I' for Inactive)
ROOT
ATOM      1  O1  BZF d   1      -5.010  -1.583   0.684  0.00  0.00    -0.204 OA
ATOM      2  C2  BZF d   1      -5.333  -2.815   1.220  0.00  0.00     0.174 A 
ATOM      3  C3  BZF d   1      -4.226  -3.562   1.404  0.00  0.00    -0.012 A 
ATOM      4  C3A BZF d   1      -3.134  -2.713   1.040  0.00  0.00    -0.107 A 
ATOM      5  C4  BZF d   1      -1.778  -2.880   1.024  0.00  0.00     0.055 A 
ATOM      6  C5  BZF d   1      -0.995  -1.879   0.544  0.00  0.00    -0.016 A 
ATOM      7  C6  BZF d   1      -1.532  -0.701   0.069  0.00  0.00     0.022 A 
ATOM      8  C7  BZF d   1      -2.870  -0.486   0.069  0.00  0.00     0.029 A 
ATOM      9  C7A BZF d   1      -3.663  -1.483   0.584  0.00  0.00     0.058 A 
ENDROOT
TORSDOF 0
ENDMDL
