MODEL 1
REMARK minimizedAffinity 0.117039919
REMARK minimizedRMSD -1
REMARK  0 active torsions:
REMARK  status: ('A' for Active; 'I' for Inactive)
ROOT
ATOM      1  O1  BZF d   1      -2.169   1.951   2.171  0.00  0.00    -0.204 OA
ATOM      2  C2  BZF d   1      -1.077   2.168   2.989  0.00  0.00     0.174 A 
ATOM      3  C3  BZF d   1      -1.459   2.713   4.162  0.00  0.00    -0.012 A 
ATOM      4  C3A BZF d   1      -2.888   2.759   4.108  0.00  0.00    -0.107 A 
ATOM      5  C4  BZF d   1      -3.847   3.183   4.983  0.00  0.00     0.055 A 
ATOM      6  C5  BZF d   1      -5.149   3.162   4.596  0.00  0.00    -0.016 A 
ATOM      7  C6  BZF d   1      -5.527   2.728   3.342  0.00  0.00     0.022 A 
ATOM      8  C7  BZF d   1      -4.612   2.294   2.442  0.00  0.00     0.029 A 
ATOM      9  C7A BZF d   1      -3.298   2.283   2.842  0.00  0.00     0.058 A 
ENDROOT
TORSDOF 0
ENDMDL
