MODEL 1
REMARK minimizedAffinity -0.61703223
REMARK minimizedRMSD -1
REMARK  0 active torsions:
REMARK  status: ('A' for Active; 'I' for Inactive)
ROOT
ATOM      1  O1  BZF d   1      -4.875  -5.581   4.327  0.00  0.00    -0.204 OA
ATOM      2  C2  BZF d   1      -3.586  -5.237   4.686  0.00  0.00     0.174 A 
ATOM      3  C3  BZF d   1      -2.794  -5.147   3.599  0.00  0.00    -0.012 A 
ATOM      4  C3A BZF d   1      -3.662  -5.363   2.482  0.00  0.00    -0.107 A 
ATOM      5  C4  BZF d   1      -3.467  -5.380   1.131  0.00  0.00     0.055 A 
ATOM      6  C5  BZF d   1      -4.509  -5.693   0.317  0.00  0.00    -0.016 A 
ATOM      7  C6  BZF d   1      -5.756  -5.999   0.820  0.00  0.00     0.022 A 
ATOM      8  C7  BZF d   1      -6.000  -5.990   2.153  0.00  0.00     0.029 A 
ATOM      9  C7A BZF d   1      -4.957  -5.642   2.976  0.00  0.00     0.058 A 
ENDROOT
TORSDOF 0
ENDMDL
