MODEL 1
REMARK minimizedAffinity 1.26788485
REMARK minimizedRMSD -1
REMARK  0 active torsions:
REMARK  status: ('A' for Active; 'I' for Inactive)
ROOT
ATOM      1  O1  BZF d   1      -3.694  -4.136   0.463  0.00  0.00    -0.204 OA
ATOM      2  C2  BZF d   1      -4.552  -5.111  -0.007  0.00  0.00     0.174 A 
ATOM      3  C3  BZF d   1      -4.845  -6.000   0.964  0.00  0.00    -0.012 A 
ATOM      4  C3A BZF d   1      -4.197  -5.501   2.138  0.00  0.00    -0.107 A 
ATOM      5  C4  BZF d   1      -4.130  -5.938   3.430  0.00  0.00     0.055 A 
ATOM      6  C5  BZF d   1      -3.353  -5.261   4.317  0.00  0.00    -0.016 A 
ATOM      7  C6  BZF d   1      -2.628  -4.148   3.944  0.00  0.00     0.022 A 
ATOM      8  C7  BZF d   1      -2.667  -3.674   2.675  0.00  0.00     0.029 A 
ATOM      9  C7A BZF d   1      -3.477  -4.337   1.785  0.00  0.00     0.058 A 
ENDROOT
TORSDOF 0
ENDMDL
