MODEL 1
REMARK minimizedAffinity 5.45288754
REMARK minimizedRMSD -1
REMARK  0 active torsions:
REMARK  status: ('A' for Active; 'I' for Inactive)
ROOT
ATOM      1  O1  BZF d   1       0.062   2.519   3.009  0.00  0.00    -0.204 OA
ATOM      2  C2  BZF d   1      -1.116   2.953   3.584  0.00  0.00     0.174 A 
ATOM      3  C3  BZF d   1      -2.173   2.300   3.059  0.00  0.00    -0.012 A 
ATOM      4  C3A BZF d   1      -1.613   1.337   2.161  0.00  0.00    -0.107 A 
ATOM      5  C4  BZF d   1      -2.156   0.381   1.352  0.00  0.00     0.055 A 
ATOM      6  C5  BZF d   1      -1.337  -0.345   0.545  0.00  0.00    -0.016 A 
ATOM      7  C6  BZF d   1       0.026  -0.136   0.519  0.00  0.00     0.022 A 
ATOM      8  C7  BZF d   1       0.612   0.798   1.307  0.00  0.00     0.029 A 
ATOM      9  C7A BZF d   1      -0.209   1.510   2.147  0.00  0.00     0.058 A 
ENDROOT
TORSDOF 0
ENDMDL
