MODEL 1
REMARK minimizedAffinity -4.96275568
REMARK minimizedRMSD -1
REMARK  0 active torsions:
REMARK  status: ('A' for Active; 'I' for Inactive)
ROOT
ATOM      1  O1  BZF d   1      -0.376  -0.783  -0.430  0.00  0.00    -0.204 OA
ATOM      2  C2  BZF d   1       0.341   0.086  -1.231  0.00  0.00     0.174 A 
ATOM      3  C3  BZF d   1       0.941   1.037  -0.487  0.00  0.00    -0.012 A 
ATOM      4  C3A BZF d   1       0.653   0.691   0.871  0.00  0.00    -0.107 A 
ATOM      5  C4  BZF d   1       0.988   1.246   2.073  0.00  0.00     0.055 A 
ATOM      6  C5  BZF d   1       0.485   0.705   3.213  0.00  0.00    -0.016 A 
ATOM      7  C6  BZF d   1      -0.360  -0.385   3.189  0.00  0.00     0.022 A 
ATOM      8  C7  BZF d   1      -0.717  -0.973   2.021  0.00  0.00     0.029 A 
ATOM      9  C7A BZF d   1      -0.183  -0.450   0.869  0.00  0.00     0.058 A 
ENDROOT
TORSDOF 0
ENDMDL
