MODEL 1
REMARK minimizedAffinity -4.8395896
REMARK minimizedRMSD -1
REMARK  0 active torsions:
REMARK  status: ('A' for Active; 'I' for Inactive)
ROOT
ATOM      1  O1  BZF d   1       1.259  -0.137  -0.906  0.00  0.00    -0.204 OA
ATOM      2  C2  BZF d   1      -0.041   0.103  -1.309  0.00  0.00     0.174 A 
ATOM      3  C3  BZF d   1      -0.854   0.247  -0.243  0.00  0.00    -0.012 A 
ATOM      4  C3A BZF d   1       0.007   0.178   0.898  0.00  0.00    -0.107 A 
ATOM      5  C4  BZF d   1      -0.209   0.270   2.244  0.00  0.00     0.055 A 
ATOM      6  C5  BZF d   1       0.835   0.087   3.094  0.00  0.00    -0.016 A 
ATOM      7  C6  BZF d   1       2.105  -0.195   2.634  0.00  0.00     0.022 A 
ATOM      8  C7  BZF d   1       2.369  -0.291   1.308  0.00  0.00     0.029 A 
ATOM      9  C7A BZF d   1       1.323  -0.073   0.445  0.00  0.00     0.058 A 
ENDROOT
TORSDOF 0
ENDMDL
