MODEL 1
REMARK minimizedAffinity -3.6264565
REMARK minimizedRMSD -1
REMARK  0 active torsions:
REMARK  status: ('A' for Active; 'I' for Inactive)
ROOT
ATOM      1  O1  BZF d   1       1.879  -0.559   0.084  0.00  0.00    -0.204 OA
ATOM      2  C2  BZF d   1       1.045  -0.939  -0.950  0.00  0.00     0.174 A 
ATOM      3  C3  BZF d   1      -0.244  -0.934  -0.552  0.00  0.00    -0.012 A 
ATOM      4  C3A BZF d   1      -0.221  -0.436   0.790  0.00  0.00    -0.107 A 
ATOM      5  C4  BZF d   1      -1.194  -0.187   1.715  0.00  0.00     0.055 A 
ATOM      6  C5  BZF d   1      -0.832   0.227   2.958  0.00  0.00    -0.016 A 
ATOM      7  C6  BZF d   1       0.491   0.395   3.311  0.00  0.00     0.022 A 
ATOM      8  C7  BZF d   1       1.491   0.164   2.426  0.00  0.00     0.029 A 
ATOM      9  C7A BZF d   1       1.127  -0.221   1.159  0.00  0.00     0.058 A 
ENDROOT
TORSDOF 0
ENDMDL
