MODEL 1
REMARK minimizedAffinity -4.69357777
REMARK minimizedRMSD -1
REMARK  0 active torsions:
REMARK  status: ('A' for Active; 'I' for Inactive)
ROOT
ATOM      1  O1  BZF d   1       1.148  -0.962   1.297  0.00  0.00    -0.204 OA
ATOM      2  C2  BZF d   1       0.300  -0.318   2.177  0.00  0.00     0.174 A 
ATOM      3  C3  BZF d   1      -0.371   0.673   1.556  0.00  0.00    -0.012 A 
ATOM      4  C3A BZF d   1       0.018   0.587   0.182  0.00  0.00    -0.107 A 
ATOM      5  C4  BZF d   1      -0.324   1.294  -0.936  0.00  0.00     0.055 A 
ATOM      6  C5  BZF d   1       0.292   1.005  -2.113  0.00  0.00    -0.016 A 
ATOM      7  C6  BZF d   1       1.254   0.021  -2.207  0.00  0.00     0.022 A 
ATOM      8  C7  BZF d   1       1.622  -0.709  -1.126  0.00  0.00     0.029 A 
ATOM      9  C7A BZF d   1       0.979  -0.442   0.058  0.00  0.00     0.058 A 
ENDROOT
TORSDOF 0
ENDMDL
