MODEL 1
REMARK minimizedAffinity -3.04602289
REMARK minimizedRMSD -1
REMARK  0 active torsions:
REMARK  status: ('A' for Active; 'I' for Inactive)
ROOT
ATOM      1  O1  BZF d   1      -1.132  -0.713   2.884  0.00  0.00    -0.204 OA
ATOM      2  C2  BZF d   1       0.056  -0.735   3.590  0.00  0.00     0.174 A 
ATOM      3  C3  BZF d   1       1.084  -0.347   2.809  0.00  0.00    -0.012 A 
ATOM      4  C3A BZF d   1       0.489   0.025   1.562  0.00  0.00    -0.107 A 
ATOM      5  C4  BZF d   1       0.994   0.508   0.388  0.00  0.00     0.055 A 
ATOM      6  C5  BZF d   1       0.154   0.699  -0.663  0.00  0.00    -0.016 A 
ATOM      7  C6  BZF d   1      -1.193   0.411  -0.578  0.00  0.00     0.022 A 
ATOM      8  C7  BZF d   1      -1.740  -0.065   0.567  0.00  0.00     0.029 A 
ATOM      9  C7A BZF d   1      -0.900  -0.228   1.641  0.00  0.00     0.058 A 
ENDROOT
TORSDOF 0
ENDMDL
