MODEL 1
REMARK minimizedAffinity -5.30474997
REMARK minimizedRMSD -1
REMARK  0 active torsions:
REMARK  status: ('A' for Active; 'I' for Inactive)
ROOT
ATOM      1  O1  BZF d   1       1.363   0.998  -0.083  0.00  0.00    -0.204 OA
ATOM      2  C2  BZF d   1       0.672   0.769  -1.257  0.00  0.00     0.174 A 
ATOM      3  C3  BZF d   1      -0.416   0.004  -1.031  0.00  0.00    -0.012 A 
ATOM      4  C3A BZF d   1      -0.455  -0.183   0.387  0.00  0.00    -0.107 A 
ATOM      5  C4  BZF d   1      -1.311  -0.841   1.224  0.00  0.00     0.055 A 
ATOM      6  C5  BZF d   1      -1.026  -0.895   2.551  0.00  0.00    -0.016 A 
ATOM      7  C6  BZF d   1       0.107  -0.308   3.075  0.00  0.00     0.022 A 
ATOM      8  C7  BZF d   1       0.983   0.360   2.286  0.00  0.00     0.029 A 
ATOM      9  C7A BZF d   1       0.680   0.445   0.949  0.00  0.00     0.058 A 
ENDROOT
TORSDOF 0
ENDMDL
