MODEL 1
REMARK minimizedAffinity 0.99252975
REMARK minimizedRMSD -1
REMARK  0 active torsions:
REMARK  status: ('A' for Active; 'I' for Inactive)
ROOT
ATOM      1  O1  BZF d   1       2.068  -3.353   4.625  0.00  0.00    -0.204 OA
ATOM      2  C2  BZF d   1       1.180  -3.969   3.764  0.00  0.00     0.174 A 
ATOM      3  C3  BZF d   1       1.247  -3.420   2.534  0.00  0.00    -0.012 A 
ATOM      4  C3A BZF d   1       2.305  -2.460   2.608  0.00  0.00    -0.107 A 
ATOM      5  C4  BZF d   1       2.861  -1.603   1.701  0.00  0.00     0.055 A 
ATOM      6  C5  BZF d   1       3.831  -0.744   2.111  0.00  0.00    -0.016 A 
ATOM      7  C6  BZF d   1       4.265  -0.712   3.420  0.00  0.00     0.022 A 
ATOM      8  C7  BZF d   1       3.748  -1.546   4.355  0.00  0.00     0.029 A 
ATOM      9  C7A BZF d   1       2.791  -2.437   3.936  0.00  0.00     0.058 A 
ENDROOT
TORSDOF 0
ENDMDL
