MODEL 1
REMARK minimizedAffinity -2.40327883
REMARK minimizedRMSD -1
REMARK  0 active torsions:
REMARK  status: ('A' for Active; 'I' for Inactive)
ROOT
ATOM      1  O1  BZF d   1       4.680  -0.225  -4.439  0.00  0.00    -0.204 OA
ATOM      2  C2  BZF d   1       5.308   0.945  -4.059  0.00  0.00     0.174 A 
ATOM      3  C3  BZF d   1       4.658   1.525  -3.030  0.00  0.00    -0.012 A 
ATOM      4  C3A BZF d   1       3.607   0.615  -2.689  0.00  0.00    -0.107 A 
ATOM      5  C4  BZF d   1       2.629   0.625  -1.736  0.00  0.00     0.055 A 
ATOM      6  C5  BZF d   1       1.716  -0.380  -1.716  0.00  0.00    -0.016 A 
ATOM      7  C6  BZF d   1       1.747  -1.407  -2.637  0.00  0.00     0.022 A 
ATOM      8  C7  BZF d   1       2.700  -1.463  -3.598  0.00  0.00     0.029 A 
ATOM      9  C7A BZF d   1       3.645  -0.466  -3.600  0.00  0.00     0.058 A 
ENDROOT
TORSDOF 0
ENDMDL
