MODEL 1
REMARK minimizedAffinity 18.4546833
REMARK minimizedRMSD -1
REMARK  0 active torsions:
REMARK  status: ('A' for Active; 'I' for Inactive)
ROOT
ATOM      1  O1  BZF d   1       2.193  -2.036  -1.981  0.00  0.00    -0.204 OA
ATOM      2  C2  BZF d   1       1.028  -1.483  -1.485  0.00  0.00     0.174 A 
ATOM      3  C3  BZF d   1       1.061  -0.138  -1.576  0.00  0.00    -0.012 A 
ATOM      4  C3A BZF d   1       2.286   0.164  -2.250  0.00  0.00    -0.107 A 
ATOM      5  C4  BZF d   1       2.876   1.330  -2.647  0.00  0.00     0.055 A 
ATOM      6  C5  BZF d   1       4.110   1.285  -3.216  0.00  0.00    -0.016 A 
ATOM      7  C6  BZF d   1       4.783   0.095  -3.398  0.00  0.00     0.022 A 
ATOM      8  C7  BZF d   1       4.236  -1.088  -3.025  0.00  0.00     0.029 A 
ATOM      9  C7A BZF d   1       2.975  -1.049  -2.480  0.00  0.00     0.058 A 
ENDROOT
TORSDOF 0
ENDMDL
