MODEL 1
REMARK minimizedAffinity 9.6341486
REMARK minimizedRMSD -1
REMARK  0 active torsions:
REMARK  status: ('A' for Active; 'I' for Inactive)
ROOT
ATOM      1  O1  BZF d   1       3.479  -1.823  -2.952  0.00  0.00    -0.204 OA
ATOM      2  C2  BZF d   1       3.522  -0.459  -2.740  0.00  0.00     0.174 A 
ATOM      3  C3  BZF d   1       2.347   0.114  -3.070  0.00  0.00    -0.012 A 
ATOM      4  C3A BZF d   1       1.487  -0.971  -3.430  0.00  0.00    -0.107 A 
ATOM      5  C4  BZF d   1       0.185  -1.042  -3.836  0.00  0.00     0.055 A 
ATOM      6  C5  BZF d   1      -0.334  -2.250  -4.181  0.00  0.00    -0.016 A 
ATOM      7  C6  BZF d   1       0.420  -3.404  -4.136  0.00  0.00     0.022 A 
ATOM      8  C7  BZF d   1       1.715  -3.384  -3.735  0.00  0.00     0.029 A 
ATOM      9  C7A BZF d   1       2.232  -2.170  -3.355  0.00  0.00     0.058 A 
ENDROOT
TORSDOF 0
ENDMDL
