MODEL 1
REMARK minimizedAffinity 14.3257933
REMARK minimizedRMSD -1
REMARK  0 active torsions:
REMARK  status: ('A' for Active; 'I' for Inactive)
ROOT
ATOM      1  C   UNL d   1      -0.629   1.590  -0.784  0.00  0.00     0.020 A 
ATOM      2  C1  UNL d   1      -1.229   1.631   0.474  0.00  0.00     0.020 A 
ATOM      3  C2  UNL d   1      -0.627   0.984   1.556  0.00  0.00     0.034 A 
ATOM      4  C3  UNL d   1       0.577   0.292   1.381  0.00  0.00     0.017 A 
ATOM      5  C4  UNL d   1       1.178   0.252   0.117  0.00  0.00     0.017 A 
ATOM      6  C5  UNL d   1       0.571   0.902  -0.962  0.00  0.00     0.034 A 
ATOM      7 Cl   UNL d   1       2.664  -0.581  -0.176  0.00  0.00    -0.070 Cl
ATOM      8 Cl1  UNL d   1       1.266  -0.485   2.762  0.00  0.00    -0.070 Cl
ENDROOT
TORSDOF 0
ENDMDL
