MODEL 1
REMARK minimizedAffinity 5.33383894
REMARK minimizedRMSD -1
REMARK  0 active torsions:
REMARK  status: ('A' for Active; 'I' for Inactive)
ROOT
ATOM      1  C   UNL d   1       5.170   2.230  -0.670  0.00  0.00     0.020 A 
ATOM      2  C1  UNL d   1       5.997   1.122  -0.853  0.00  0.00     0.020 A 
ATOM      3  C2  UNL d   1       5.457  -0.165  -0.821  0.00  0.00     0.034 A 
ATOM      4  C3  UNL d   1       4.086  -0.348  -0.604  0.00  0.00     0.017 A 
ATOM      5  C4  UNL d   1       3.257   0.764  -0.420  0.00  0.00     0.017 A 
ATOM      6  C5  UNL d   1       3.803   2.051  -0.454  0.00  0.00     0.034 A 
ATOM      7 Cl   UNL d   1       1.556   0.617  -0.148  0.00  0.00    -0.070 Cl
ATOM      8 Cl1  UNL d   1       3.487  -1.969  -0.577  0.00  0.00    -0.070 Cl
ENDROOT
TORSDOF 0
ENDMDL
