MODEL 1
REMARK minimizedAffinity 13.6640568
REMARK minimizedRMSD -1
REMARK  0 active torsions:
REMARK  status: ('A' for Active; 'I' for Inactive)
ROOT
ATOM      1  C   UNL d   1      -1.293   1.474   0.999  0.00  0.00     0.020 A 
ATOM      2  C1  UNL d   1      -0.614   1.564  -0.215  0.00  0.00     0.020 A 
ATOM      3  C2  UNL d   1       0.564   0.840  -0.412  0.00  0.00     0.034 A 
ATOM      4  C3  UNL d   1       1.065   0.022   0.607  0.00  0.00     0.017 A 
ATOM      5  C4  UNL d   1       0.382  -0.069   1.826  0.00  0.00     0.017 A 
ATOM      6  C5  UNL d   1      -0.796   0.659   2.017  0.00  0.00     0.034 A 
ATOM      7 Cl   UNL d   1       0.939  -1.057   3.129  0.00  0.00    -0.070 Cl
ATOM      8 Cl1  UNL d   1       2.526  -0.846   0.295  0.00  0.00    -0.070 Cl
ENDROOT
TORSDOF 0
ENDMDL
