MODEL 1
REMARK minimizedAffinity 8.49964714
REMARK minimizedRMSD -1
REMARK  0 active torsions:
REMARK  status: ('A' for Active; 'I' for Inactive)
ROOT
ATOM      1  C   UNL d   1       4.338   1.384  -1.407  0.00  0.00     0.020 A 
ATOM      2  C1  UNL d   1       4.426   0.533  -0.306  0.00  0.00     0.020 A 
ATOM      3  C2  UNL d   1       4.939   1.008   0.903  0.00  0.00     0.034 A 
ATOM      4  C3  UNL d   1       5.366   2.336   1.014  0.00  0.00     0.017 A 
ATOM      5  C4  UNL d   1       5.277   3.189  -0.092  0.00  0.00     0.017 A 
ATOM      6  C5  UNL d   1       4.762   2.709  -1.300  0.00  0.00     0.034 A 
ATOM      7 Cl   UNL d   1       5.783   4.841  -0.032  0.00  0.00    -0.070 Cl
ATOM      8 Cl1  UNL d   1       5.989   2.856   2.540  0.00  0.00    -0.070 Cl
ENDROOT
TORSDOF 0
ENDMDL
