MODEL 1
REMARK minimizedAffinity 13.4380007
REMARK minimizedRMSD -1
REMARK  0 active torsions:
REMARK  status: ('A' for Active; 'I' for Inactive)
ROOT
ATOM      1  C   UNL d   1      -3.826   0.299  -5.129  0.00  0.00     0.020 A 
ATOM      2  C1  UNL d   1      -2.957   1.344  -4.819  0.00  0.00     0.020 A 
ATOM      3  C2  UNL d   1      -2.051   1.209  -3.765  0.00  0.00     0.034 A 
ATOM      4  C3  UNL d   1      -2.012   0.027  -3.017  0.00  0.00     0.017 A 
ATOM      5  C4  UNL d   1      -2.886  -1.022  -3.328  0.00  0.00     0.017 A 
ATOM      6  C5  UNL d   1      -3.791  -0.881  -4.385  0.00  0.00     0.034 A 
ATOM      7 Cl   UNL d   1      -2.897  -2.510  -2.450  0.00  0.00    -0.070 Cl
ATOM      8 Cl1  UNL d   1      -0.866  -0.071  -1.727  0.00  0.00    -0.070 Cl
ENDROOT
TORSDOF 0
ENDMDL
