MODEL 1
REMARK minimizedAffinity 4.75552273
REMARK minimizedRMSD -1
REMARK  0 active torsions:
REMARK  status: ('A' for Active; 'I' for Inactive)
ROOT
ATOM      1  C   UNL d   1      -5.080   2.292  -4.081  0.00  0.00     0.020 A 
ATOM      2  C1  UNL d   1      -3.985   1.980  -4.886  0.00  0.00     0.020 A 
ATOM      3  C2  UNL d   1      -2.933   1.220  -4.369  0.00  0.00     0.034 A 
ATOM      4  C3  UNL d   1      -2.975   0.769  -3.044  0.00  0.00     0.017 A 
ATOM      5  C4  UNL d   1      -4.075   1.083  -2.238  0.00  0.00     0.017 A 
ATOM      6  C5  UNL d   1      -5.125   1.845  -2.760  0.00  0.00     0.034 A 
ATOM      7 Cl   UNL d   1      -4.198   0.563  -0.594  0.00  0.00    -0.070 Cl
ATOM      8 Cl1  UNL d   1      -1.641  -0.167  -2.472  0.00  0.00    -0.070 Cl
ENDROOT
TORSDOF 0
ENDMDL
