MODEL 1
REMARK minimizedAffinity 14.92908
REMARK minimizedRMSD -1
REMARK  0 active torsions:
REMARK  status: ('A' for Active; 'I' for Inactive)
ROOT
ATOM      1  C   UNL d   1       3.260  -1.176  -1.225  0.00  0.00     0.020 A 
ATOM      2  C1  UNL d   1       2.705  -0.262  -0.331  0.00  0.00     0.020 A 
ATOM      3  C2  UNL d   1       3.166   1.056  -0.305  0.00  0.00     0.034 A 
ATOM      4  C3  UNL d   1       4.184   1.463  -1.174  0.00  0.00     0.017 A 
ATOM      5  C4  UNL d   1       4.740   0.544  -2.072  0.00  0.00     0.017 A 
ATOM      6  C5  UNL d   1       4.275  -0.774  -2.094  0.00  0.00     0.034 A 
ATOM      7 Cl   UNL d   1       6.000   0.973  -3.175  0.00  0.00    -0.070 Cl
ATOM      8 Cl1  UNL d   1       4.705   3.109  -1.088  0.00  0.00    -0.070 Cl
ENDROOT
TORSDOF 0
ENDMDL
