MODEL 1
REMARK minimizedAffinity 14.1113157
REMARK minimizedRMSD -1
REMARK  0 active torsions:
REMARK  status: ('A' for Active; 'I' for Inactive)
ROOT
ATOM      1  C   UNL d   1       6.000   5.820   0.745  0.00  0.00     0.020 A 
ATOM      2  C1  UNL d   1       5.912   5.303  -0.547  0.00  0.00     0.020 A 
ATOM      3  C2  UNL d   1       5.731   3.931  -0.739  0.00  0.00     0.034 A 
ATOM      4  C3  UNL d   1       5.637   3.072   0.362  0.00  0.00     0.017 A 
ATOM      5  C4  UNL d   1       5.725   3.593   1.658  0.00  0.00     0.017 A 
ATOM      6  C5  UNL d   1       5.906   4.966   1.845  0.00  0.00     0.034 A 
ATOM      7 Cl   UNL d   1       5.618   2.596   3.066  0.00  0.00    -0.070 Cl
ATOM      8 Cl1  UNL d   1       5.413   1.388   0.050  0.00  0.00    -0.070 Cl
ENDROOT
TORSDOF 0
ENDMDL
