MODEL 1
REMARK minimizedAffinity -1.70499563
REMARK minimizedRMSD -1
REMARK  2 active torsions:
REMARK  status: ('A' for Active; 'I' for Inactive)
REMARK    1  A    between atoms: C2'_3  and  C1'_4 
REMARK    2  A    between atoms: C1'_4  and  C1_5 
ROOT
ATOM      1  C1  I4B d   1      -1.809   2.126  -2.564  0.00  0.00    -0.075 A 
ATOM      2  C2  I4B d   1      -0.833   3.039  -2.252  0.00  0.00     0.003 A 
ATOM      3  C3  I4B d   1      -0.411   3.988  -3.214  0.00  0.00     0.002 A 
ATOM      4  C4  I4B d   1      -0.951   3.955  -4.484  0.00  0.00    -0.004 A 
ATOM      5  C5  I4B d   1      -1.956   3.043  -4.791  0.00  0.00     0.002 A 
ATOM      6  C6  I4B d   1      -2.397   2.130  -3.822  0.00  0.00     0.003 A 
ENDROOT
BRANCH   1   7
ATOM      7  C1' I4B d   1      -2.208   1.117  -1.534  0.00  0.00     0.060 C 
BRANCH   7   8
ATOM      8  C2' I4B d   1      -1.121   1.072  -0.479  0.00  0.00    -0.013 C 
ATOM      9  C4' I4B d   1      -1.663   1.432   0.879  0.00  0.00     0.013 C 
ATOM     10  C3' I4B d   1      -0.533  -0.308  -0.479  0.00  0.00     0.013 C 
ENDBRANCH   7   8
ENDBRANCH   1   7
TORSDOF 2
ENDMDL
