MODEL 1
REMARK minimizedAffinity -3.93594694
REMARK minimizedRMSD -1
REMARK  2 active torsions:
REMARK  status: ('A' for Active; 'I' for Inactive)
REMARK    1  A    between atoms: C2'_3  and  C1'_4 
REMARK    2  A    between atoms: C1'_4  and  C1_5 
ROOT
ATOM      1  C1  I4B d   1      -1.023   1.905  -1.124  0.00  0.00    -0.075 A 
ATOM      2  C2  I4B d   1      -0.389   3.083  -1.431  0.00  0.00     0.003 A 
ATOM      3  C3  I4B d   1      -0.610   3.706  -2.684  0.00  0.00     0.002 A 
ATOM      4  C4  I4B d   1      -1.428   3.094  -3.612  0.00  0.00    -0.004 A 
ATOM      5  C5  I4B d   1      -2.087   1.912  -3.290  0.00  0.00     0.002 A 
ATOM      6  C6  I4B d   1      -1.894   1.320  -2.033  0.00  0.00     0.003 A 
ENDROOT
BRANCH   1   7
ATOM      7  C1' I4B d   1      -0.742   1.258   0.195  0.00  0.00     0.060 C 
BRANCH   7   8
ATOM      8  C2' I4B d   1      -0.189  -0.127  -0.073  0.00  0.00    -0.013 C 
ATOM      9  C4' I4B d   1       1.316  -0.112  -0.130  0.00  0.00     0.013 C 
ATOM     10  C3' I4B d   1      -0.681  -1.039   1.011  0.00  0.00     0.013 C 
ENDBRANCH   7   8
ENDBRANCH   1   7
TORSDOF 2
ENDMDL
