MODEL 1
REMARK minimizedAffinity 4.34202147
REMARK minimizedRMSD -1
REMARK  2 active torsions:
REMARK  status: ('A' for Active; 'I' for Inactive)
REMARK    1  A    between atoms: C2'_3  and  C1'_4 
REMARK    2  A    between atoms: C1'_4  and  C1_5 
ROOT
ATOM      1  C1  I4B d   1       1.342   1.666  -0.239  0.00  0.00    -0.075 A 
ATOM      2  C2  I4B d   1       0.785   2.884   0.060  0.00  0.00     0.003 A 
ATOM      3  C3  I4B d   1       1.612   3.984   0.393  0.00  0.00     0.002 A 
ATOM      4  C4  I4B d   1       2.979   3.808   0.464  0.00  0.00    -0.004 A 
ATOM      5  C5  I4B d   1       3.544   2.578   0.139  0.00  0.00     0.002 A 
ATOM      6  C6  I4B d   1       2.721   1.503  -0.227  0.00  0.00     0.003 A 
ENDROOT
BRANCH   1   7
ATOM      7  C1' I4B d   1       0.436   0.517  -0.554  0.00  0.00     0.060 C 
BRANCH   7   8
ATOM      8  C2' I4B d   1      -0.123  -0.009   0.752  0.00  0.00    -0.013 C 
ATOM      9  C4' I4B d   1      -1.627   0.067   0.772  0.00  0.00     0.013 C 
ATOM     10  C3' I4B d   1       0.350  -1.422   0.923  0.00  0.00     0.013 C 
ENDBRANCH   7   8
ENDBRANCH   1   7
TORSDOF 2
ENDMDL
