MODEL 1
REMARK minimizedAffinity -0.481008261
REMARK minimizedRMSD -1
REMARK  2 active torsions:
REMARK  status: ('A' for Active; 'I' for Inactive)
REMARK    1  A    between atoms: C2'_3  and  C1'_4 
REMARK    2  A    between atoms: C1'_4  and  C1_5 
ROOT
ATOM      1  C1  I4B d   1      -1.353   0.858   0.121  0.00  0.00    -0.075 A 
ATOM      2  C2  I4B d   1      -1.989   0.258   1.179  0.00  0.00     0.003 A 
ATOM      3  C3  I4B d   1      -1.633  -1.055   1.573  0.00  0.00     0.002 A 
ATOM      4  C4  I4B d   1      -0.679  -1.745   0.854  0.00  0.00    -0.004 A 
ATOM      5  C5  I4B d   1      -0.020  -1.127  -0.204  0.00  0.00     0.002 A 
ATOM      6  C6  I4B d   1      -0.350   0.187  -0.566  0.00  0.00     0.003 A 
ENDROOT
BRANCH   1   7
ATOM      7  C1' I4B d   1      -1.776   2.233  -0.288  0.00  0.00     0.060 C 
BRANCH   7   8
ATOM      8  C2' I4B d   1      -0.583   2.920  -0.920  0.00  0.00    -0.013 C 
ATOM      9  C4' I4B d   1      -0.973   3.634  -2.187  0.00  0.00     0.013 C 
ATOM     10  C3' I4B d   1      -0.012   3.874   0.086  0.00  0.00     0.013 C 
ENDBRANCH   7   8
ENDBRANCH   1   7
TORSDOF 2
ENDMDL
