MODEL 1
REMARK minimizedAffinity -4.1842041
REMARK minimizedRMSD -1
REMARK  2 active torsions:
REMARK  status: ('A' for Active; 'I' for Inactive)
REMARK    1  A    between atoms: C2'_3  and  C1'_4 
REMARK    2  A    between atoms: C1'_4  and  C1_5 
ROOT
ATOM      1  C1  I4B d   1      -0.935   3.090  -1.875  0.00  0.00    -0.075 A 
ATOM      2  C2  I4B d   1      -1.330   2.224  -0.886  0.00  0.00     0.003 A 
ATOM      3  C3  I4B d   1      -2.258   1.193  -1.169  0.00  0.00     0.002 A 
ATOM      4  C4  I4B d   1      -2.801   1.096  -2.434  0.00  0.00    -0.004 A 
ATOM      5  C5  I4B d   1      -2.382   1.961  -3.442  0.00  0.00     0.002 A 
ATOM      6  C6  I4B d   1      -1.434   2.956  -3.164  0.00  0.00     0.003 A 
ENDROOT
BRANCH   1   7
ATOM      7  C1' I4B d   1       0.022   4.188  -1.533  0.00  0.00     0.060 C 
BRANCH   7   8
ATOM      8  C2' I4B d   1       0.351   4.076  -0.058  0.00  0.00    -0.013 C 
ATOM      9  C4' I4B d   1       1.840   4.043   0.167  0.00  0.00     0.013 C 
ATOM     10  C3' I4B d   1      -0.277   5.242   0.646  0.00  0.00     0.013 C 
ENDBRANCH   7   8
ENDBRANCH   1   7
TORSDOF 2
ENDMDL
