MODEL 1
REMARK minimizedAffinity -4.21982527
REMARK minimizedRMSD -1
REMARK  2 active torsions:
REMARK  status: ('A' for Active; 'I' for Inactive)
REMARK    1  A    between atoms: C2'_3  and  C1'_4 
REMARK    2  A    between atoms: C1'_4  and  C1_5 
ROOT
ATOM      1  C1  I4B d   1       1.636  -0.129  -0.137  0.00  0.00    -0.075 A 
ATOM      2  C2  I4B d   1       0.290  -0.400  -0.146  0.00  0.00     0.003 A 
ATOM      3  C3  I4B d   1      -0.219  -1.510   0.571  0.00  0.00     0.002 A 
ATOM      4  C4  I4B d   1       0.654  -2.345   1.238  0.00  0.00    -0.004 A 
ATOM      5  C5  I4B d   1       2.015  -2.056   1.266  0.00  0.00     0.002 A 
ATOM      6  C6  I4B d   1       2.508  -0.934   0.584  0.00  0.00     0.003 A 
ENDROOT
BRANCH   1   7
ATOM      7  C1' I4B d   1       2.143   1.032  -0.932  0.00  0.00     0.060 C 
BRANCH   7   8
ATOM      8  C2' I4B d   1       2.263   2.220   0.001  0.00  0.00    -0.013 C 
ATOM      9  C4' I4B d   1       3.567   2.945  -0.206  0.00  0.00     0.013 C 
ATOM     10  C3' I4B d   1       1.095   3.126  -0.249  0.00  0.00     0.013 C 
ENDBRANCH   7   8
ENDBRANCH   1   7
TORSDOF 2
ENDMDL
