MODEL 1
REMARK minimizedAffinity -4.75563383
REMARK minimizedRMSD -1
REMARK  2 active torsions:
REMARK  status: ('A' for Active; 'I' for Inactive)
REMARK    1  A    between atoms: C2'_3  and  C1'_4 
REMARK    2  A    between atoms: C1'_4  and  C1_5 
ROOT
ATOM      1  C1  I4B d   1       0.851   0.780  -0.466  0.00  0.00    -0.075 A 
ATOM      2  C2  I4B d   1       1.888   1.514   0.053  0.00  0.00     0.003 A 
ATOM      3  C3  I4B d   1       1.753   2.912   0.232  0.00  0.00     0.002 A 
ATOM      4  C4  I4B d   1       0.590   3.539  -0.167  0.00  0.00    -0.004 A 
ATOM      5  C5  I4B d   1      -0.469   2.790  -0.673  0.00  0.00     0.002 A 
ATOM      6  C6  I4B d   1      -0.343   1.400  -0.812  0.00  0.00     0.003 A 
ENDROOT
BRANCH   1   7
ATOM      7  C1' I4B d   1       1.040  -0.689  -0.672  0.00  0.00     0.060 C 
BRANCH   7   8
ATOM      8  C2' I4B d   1       0.956  -1.365   0.682  0.00  0.00    -0.013 C 
ATOM      9  C4' I4B d   1      -0.465  -1.722   1.026  0.00  0.00     0.013 C 
ATOM     10  C3' I4B d   1       1.828  -2.584   0.646  0.00  0.00     0.013 C 
ENDBRANCH   7   8
ENDBRANCH   1   7
TORSDOF 2
ENDMDL
