MODEL 1
REMARK minimizedAffinity -4.61058521
REMARK minimizedRMSD -1
REMARK  2 active torsions:
REMARK  status: ('A' for Active; 'I' for Inactive)
REMARK    1  A    between atoms: C2'_3  and  C1'_4 
REMARK    2  A    between atoms: C1'_4  and  C1_5 
ROOT
ATOM      1  C1  I4B d   1      -1.692   2.290  -3.384  0.00  0.00    -0.075 A 
ATOM      2  C2  I4B d   1      -1.325   2.903  -4.555  0.00  0.00     0.003 A 
ATOM      3  C3  I4B d   1      -0.537   4.079  -4.528  0.00  0.00     0.002 A 
ATOM      4  C4  I4B d   1      -0.184   4.633  -3.314  0.00  0.00    -0.004 A 
ATOM      5  C5  I4B d   1      -0.538   3.997  -2.127  0.00  0.00     0.002 A 
ATOM      6  C6  I4B d   1      -1.287   2.811  -2.162  0.00  0.00     0.003 A 
ENDROOT
BRANCH   1   7
ATOM      7  C1' I4B d   1      -2.552   1.067  -3.449  0.00  0.00     0.060 C 
BRANCH   7   8
ATOM      8  C2' I4B d   1      -3.994   1.501  -3.282  0.00  0.00    -0.013 C 
ATOM      9  C4' I4B d   1      -4.192   2.254  -1.993  0.00  0.00     0.013 C 
ATOM     10  C3' I4B d   1      -4.362   2.347  -4.465  0.00  0.00     0.013 C 
ENDBRANCH   7   8
ENDBRANCH   1   7
TORSDOF 2
ENDMDL
