MODEL 1
REMARK minimizedAffinity -2.25411534
REMARK minimizedRMSD -1
REMARK  2 active torsions:
REMARK  status: ('A' for Active; 'I' for Inactive)
REMARK    1  A    between atoms: C2'_3  and  C1'_4 
REMARK    2  A    between atoms: C1'_4  and  C1_5 
ROOT
ATOM      1  C1  I4B d   1       1.213   0.734  -0.111  0.00  0.00    -0.075 A 
ATOM      2  C2  I4B d   1       0.240   1.676   0.110  0.00  0.00     0.003 A 
ATOM      3  C3  I4B d   1       0.589   3.039   0.265  0.00  0.00     0.002 A 
ATOM      4  C4  I4B d   1       1.919   3.407   0.243  0.00  0.00    -0.004 A 
ATOM      5  C5  I4B d   1       2.903   2.454  -0.003  0.00  0.00     0.002 A 
ATOM      6  C6  I4B d   1       2.547   1.111  -0.194  0.00  0.00     0.003 A 
ENDROOT
BRANCH   1   7
ATOM      7  C1' I4B d   1       0.812  -0.701  -0.238  0.00  0.00     0.060 C 
BRANCH   7   8
ATOM      8  C2' I4B d   1       0.789  -1.304   1.152  0.00  0.00    -0.013 C 
ATOM      9  C4' I4B d   1      -0.619  -1.421   1.673  0.00  0.00     0.013 C 
ATOM     10  C3' I4B d   1       1.454  -2.647   1.085  0.00  0.00     0.013 C 
ENDBRANCH   7   8
ENDBRANCH   1   7
TORSDOF 2
ENDMDL
