MODEL 1
REMARK minimizedAffinity -2.25661063
REMARK minimizedRMSD -1
REMARK  2 active torsions:
REMARK  status: ('A' for Active; 'I' for Inactive)
REMARK    1  A    between atoms: C2'_3  and  C1'_4 
REMARK    2  A    between atoms: C1'_4  and  C1_5 
ROOT
ATOM      1  C1  I4B d   1      -1.700   0.497  -2.164  0.00  0.00    -0.075 A 
ATOM      2  C2  I4B d   1      -2.834   0.992  -1.571  0.00  0.00     0.003 A 
ATOM      3  C3  I4B d   1      -3.603   1.986  -2.223  0.00  0.00     0.002 A 
ATOM      4  C4  I4B d   1      -3.177   2.490  -3.435  0.00  0.00    -0.004 A 
ATOM      5  C5  I4B d   1      -2.039   1.971  -4.045  0.00  0.00     0.002 A 
ATOM      6  C6  I4B d   1      -1.302   0.959  -3.412  0.00  0.00     0.003 A 
ENDROOT
BRANCH   1   7
ATOM      7  C1' I4B d   1      -0.893  -0.529  -1.433  0.00  0.00     0.060 C 
BRANCH   7   8
ATOM      8  C2' I4B d   1      -0.465   0.071  -0.109  0.00  0.00    -0.013 C 
ATOM      9  C4' I4B d   1      -0.314  -0.992   0.947  0.00  0.00     0.013 C 
ATOM     10  C3' I4B d   1       0.825   0.803  -0.328  0.00  0.00     0.013 C 
ENDBRANCH   7   8
ENDBRANCH   1   7
TORSDOF 2
ENDMDL
