MODEL 1
REMARK minimizedAffinity -4.84781551
REMARK minimizedRMSD -1
REMARK  2 active torsions:
REMARK  status: ('A' for Active; 'I' for Inactive)
REMARK    1  A    between atoms: C2'_3  and  C1'_4 
REMARK    2  A    between atoms: C1'_4  and  C1_5 
ROOT
ATOM      1  C1  I4B d   1       1.676   0.512   0.023  0.00  0.00    -0.075 A 
ATOM      2  C2  I4B d   1       0.405   1.026   0.073  0.00  0.00     0.003 A 
ATOM      3  C3  I4B d   1      -0.694   0.182   0.364  0.00  0.00     0.002 A 
ATOM      4  C4  I4B d   1      -0.483  -1.170   0.548  0.00  0.00    -0.004 A 
ATOM      5  C5  I4B d   1       0.809  -1.685   0.519  0.00  0.00     0.002 A 
ATOM      6  C6  I4B d   1       1.898  -0.837   0.267  0.00  0.00     0.003 A 
ENDROOT
BRANCH   1   7
ATOM      7  C1' I4B d   1       2.810   1.426  -0.320  0.00  0.00     0.060 C 
BRANCH   7   8
ATOM      8  C2' I4B d   1       2.615   2.719   0.445  0.00  0.00    -0.013 C 
ATOM      9  C4' I4B d   1       3.913   3.470   0.586  0.00  0.00     0.013 C 
ATOM     10  C3' I4B d   1       1.592   3.538  -0.283  0.00  0.00     0.013 C 
ENDBRANCH   7   8
ENDBRANCH   1   7
TORSDOF 2
ENDMDL
