MODEL 1
REMARK minimizedAffinity -5.82839727
REMARK minimizedRMSD -1
REMARK  2 active torsions:
REMARK  status: ('A' for Active; 'I' for Inactive)
REMARK    1  A    between atoms: C2'_3  and  C1'_4 
REMARK    2  A    between atoms: C1'_4  and  C1_5 
ROOT
ATOM      1  C1  I4B d   1       1.597   0.994  -0.346  0.00  0.00    -0.075 A 
ATOM      2  C2  I4B d   1       0.316   1.487  -0.305  0.00  0.00     0.003 A 
ATOM      3  C3  I4B d   1       0.085   2.842   0.033  0.00  0.00     0.002 A 
ATOM      4  C4  I4B d   1       1.151   3.650   0.370  0.00  0.00    -0.004 A 
ATOM      5  C5  I4B d   1       2.450   3.155   0.306  0.00  0.00     0.002 A 
ATOM      6  C6  I4B d   1       2.676   1.822  -0.066  0.00  0.00     0.003 A 
ENDROOT
BRANCH   1   7
ATOM      7  C1' I4B d   1       1.803  -0.451  -0.674  0.00  0.00     0.060 C 
BRANCH   7   8
ATOM      8  C2' I4B d   1       1.348  -1.270   0.516  0.00  0.00    -0.013 C 
ATOM      9  C4' I4B d   1      -0.126  -1.573   0.438  0.00  0.00     0.013 C 
ATOM     10  C3' I4B d   1       2.159  -2.531   0.548  0.00  0.00     0.013 C 
ENDBRANCH   7   8
ENDBRANCH   1   7
TORSDOF 2
ENDMDL
