MODEL 1
REMARK minimizedAffinity 17.4754105
REMARK minimizedRMSD -1
REMARK  0 active torsions:
REMARK  status: ('A' for Active; 'I' for Inactive)
ROOT
ATOM      1  C1  DEN d   1       0.103   4.255  -0.710  0.00  0.00     0.130 A 
ATOM      2  C2  DEN d   1       0.399   2.922  -0.191  0.00  0.00    -0.031 A 
ATOM      3  C3  DEN d   1      -0.513   1.964  -0.849  0.00  0.00     0.027 A 
ATOM      4  C4  DEN d   1      -2.339   2.412  -2.615  0.00  0.00     0.027 A 
ATOM      5  C5  DEN d   1      -2.967   3.387  -3.357  0.00  0.00    -0.003 A 
ATOM      6  C6  DEN d   1      -2.641   4.713  -3.246  0.00  0.00     0.001 A 
ATOM      7  C7  DEN d   1      -1.630   5.095  -2.405  0.00  0.00     0.017 A 
ATOM      8  C8  DEN d   1      -0.997   4.119  -1.647  0.00  0.00    -0.094 A 
ATOM      9  C9  DEN d   1      -1.332   2.782  -1.783  0.00  0.00    -0.072 A 
ENDROOT
TORSDOF 0
ENDMDL
