MODEL 1
REMARK minimizedAffinity 3.90428615
REMARK minimizedRMSD -1
REMARK  0 active torsions:
REMARK  status: ('A' for Active; 'I' for Inactive)
ROOT
ATOM      1  C1  DEN d   1      -3.909   4.097  -2.277  0.00  0.00     0.130 A 
ATOM      2  C2  DEN d   1      -4.312   3.447  -3.521  0.00  0.00    -0.031 A 
ATOM      3  C3  DEN d   1      -3.181   3.530  -4.466  0.00  0.00     0.027 A 
ATOM      4  C4  DEN d   1      -0.856   4.593  -4.125  0.00  0.00     0.027 A 
ATOM      5  C5  DEN d   1      -0.053   5.276  -3.239  0.00  0.00    -0.003 A 
ATOM      6  C6  DEN d   1      -0.487   5.641  -1.992  0.00  0.00     0.001 A 
ATOM      7  C7  DEN d   1      -1.744   5.285  -1.580  0.00  0.00     0.017 A 
ATOM      8  C8  DEN d   1      -2.562   4.602  -2.471  0.00  0.00    -0.094 A 
ATOM      9  C9  DEN d   1      -2.100   4.232  -3.722  0.00  0.00    -0.072 A 
ENDROOT
TORSDOF 0
ENDMDL
