MODEL 1
REMARK minimizedAffinity 4.15597868
REMARK minimizedRMSD -1
REMARK  0 active torsions:
REMARK  status: ('A' for Active; 'I' for Inactive)
ROOT
ATOM      1  C1  DEN d   1      -3.634  -5.887  -5.843  0.00  0.00     0.130 A 
ATOM      2  C2  DEN d   1      -4.681  -4.871  -5.923  0.00  0.00    -0.031 A 
ATOM      3  C3  DEN d   1      -4.028  -3.549  -5.996  0.00  0.00     0.027 A 
ATOM      4  C4  DEN d   1      -1.512  -2.978  -5.998  0.00  0.00     0.027 A 
ATOM      5  C5  DEN d   1      -0.242  -3.506  -5.934  0.00  0.00    -0.003 A 
ATOM      6  C6  DEN d   1      -0.015  -4.851  -5.802  0.00  0.00     0.001 A 
ATOM      7  C7  DEN d   1      -1.075  -5.718  -5.776  0.00  0.00     0.017 A 
ATOM      8  C8  DEN d   1      -2.359  -5.193  -5.832  0.00  0.00    -0.094 A 
ATOM      9  C9  DEN d   1      -2.567  -3.832  -5.977  0.00  0.00    -0.072 A 
ENDROOT
TORSDOF 0
ENDMDL
