MODEL 1
REMARK minimizedAffinity -0.41416207
REMARK minimizedRMSD -1
REMARK  0 active torsions:
REMARK  status: ('A' for Active; 'I' for Inactive)
ROOT
ATOM      1  C1  DEN d   1      -5.020  -3.613  -5.982  0.00  0.00     0.130 A 
ATOM      2  C2  DEN d   1      -5.811  -4.840  -5.979  0.00  0.00    -0.031 A 
ATOM      3  C3  DEN d   1      -4.878  -5.985  -5.960  0.00  0.00     0.027 A 
ATOM      4  C4  DEN d   1      -2.299  -5.975  -5.930  0.00  0.00     0.027 A 
ATOM      5  C5  DEN d   1      -1.179  -5.173  -5.937  0.00  0.00    -0.003 A 
ATOM      6  C6  DEN d   1      -1.260  -3.807  -5.993  0.00  0.00     0.001 A 
ATOM      7  C7  DEN d   1      -2.487  -3.199  -5.999  0.00  0.00     0.017 A 
ATOM      8  C8  DEN d   1      -3.621  -4.002  -6.000  0.00  0.00    -0.094 A 
ATOM      9  C9  DEN d   1      -3.518  -5.381  -5.930  0.00  0.00    -0.072 A 
ENDROOT
TORSDOF 0
ENDMDL
