MODEL 1
REMARK minimizedAffinity 11.792222
REMARK minimizedRMSD -1
REMARK  0 active torsions:
REMARK  status: ('A' for Active; 'I' for Inactive)
ROOT
ATOM      1  C1  DEN d   1      -0.779  -1.827  -5.961  0.00  0.00     0.130 A 
ATOM      2  C2  DEN d   1      -2.168  -1.377  -5.992  0.00  0.00    -0.031 A 
ATOM      3  C3  DEN d   1      -3.035  -2.573  -5.999  0.00  0.00     0.027 A 
ATOM      4  C4  DEN d   1      -2.364  -5.063  -5.960  0.00  0.00     0.027 A 
ATOM      5  C5  DEN d   1      -1.302  -5.939  -5.943  0.00  0.00    -0.003 A 
ATOM      6  C6  DEN d   1      -0.001  -5.511  -5.965  0.00  0.00     0.001 A 
ATOM      7  C7  DEN d   1       0.271  -4.168  -5.960  0.00  0.00     0.017 A 
ATOM      8  C8  DEN d   1      -0.795  -3.278  -5.984  0.00  0.00    -0.094 A 
ATOM      9  C9  DEN d   1      -2.103  -3.731  -5.950  0.00  0.00    -0.072 A 
ENDROOT
TORSDOF 0
ENDMDL
