MODEL 1
REMARK minimizedAffinity 3.47413826
REMARK minimizedRMSD -1
REMARK  0 active torsions:
REMARK  status: ('A' for Active; 'I' for Inactive)
ROOT
ATOM      1  C1  DEN d   1       0.463   2.638  -0.072  0.00  0.00     0.130 A 
ATOM      2  C2  DEN d   1      -0.137   2.619   1.260  0.00  0.00    -0.031 A 
ATOM      3  C3  DEN d   1      -1.060   3.767   1.361  0.00  0.00     0.027 A 
ATOM      4  C4  DEN d   1      -1.619   5.561  -0.407  0.00  0.00     0.027 A 
ATOM      5  C5  DEN d   1      -1.349   6.000  -1.684  0.00  0.00    -0.003 A 
ATOM      6  C6  DEN d   1      -0.439   5.375  -2.495  0.00  0.00     0.001 A 
ATOM      7  C7  DEN d   1       0.202   4.248  -2.053  0.00  0.00     0.017 A 
ATOM      8  C8  DEN d   1      -0.059   3.803  -0.763  0.00  0.00    -0.094 A 
ATOM      9  C9  DEN d   1      -0.992   4.442   0.036  0.00  0.00    -0.072 A 
ENDROOT
TORSDOF 0
ENDMDL
