MODEL 1
REMARK minimizedAffinity -1.0159651
REMARK minimizedRMSD -1
REMARK  0 active torsions:
REMARK  status: ('A' for Active; 'I' for Inactive)
ROOT
ATOM      1  C1  DEN d   1      -4.225  -2.741  -5.986  0.00  0.00     0.130 A 
ATOM      2  C2  DEN d   1      -5.386  -3.627  -6.000  0.00  0.00    -0.031 A 
ATOM      3  C3  DEN d   1      -4.897  -5.020  -5.956  0.00  0.00     0.027 A 
ATOM      4  C4  DEN d   1      -2.469  -5.885  -5.862  0.00  0.00     0.027 A 
ATOM      5  C5  DEN d   1      -1.144  -5.511  -5.843  0.00  0.00    -0.003 A 
ATOM      6  C6  DEN d   1      -0.755  -4.199  -5.903  0.00  0.00     0.001 A 
ATOM      7  C7  DEN d   1      -1.703  -3.211  -5.941  0.00  0.00     0.017 A 
ATOM      8  C8  DEN d   1      -3.041  -3.581  -5.968  0.00  0.00    -0.094 A 
ATOM      9  C9  DEN d   1      -3.414  -4.912  -5.894  0.00  0.00    -0.072 A 
ENDROOT
TORSDOF 0
ENDMDL
