MODEL 1
REMARK minimizedAffinity 10.894928
REMARK minimizedRMSD -1
REMARK  0 active torsions:
REMARK  status: ('A' for Active; 'I' for Inactive)
ROOT
ATOM      1  N1  IND d   1       0.141  -0.558   2.550  0.00  0.00    -0.196 N 
ATOM      2  C2  IND d   1       0.817  -0.552   1.362  0.00  0.00     0.054 A 
ATOM      3  C3  IND d   1       1.839  -1.437   1.399  0.00  0.00    -0.031 A 
ATOM      4  C4  IND d   1       2.521  -3.071   3.267  0.00  0.00     0.051 A 
ATOM      5  C5  IND d   1       2.226  -3.418   4.555  0.00  0.00    -0.031 A 
ATOM      6  C6  IND d   1       1.198  -2.820   5.254  0.00  0.00     0.015 A 
ATOM      7  C7  IND d   1       0.416  -1.855   4.684  0.00  0.00    -0.016 A 
ATOM      8  C8  IND d   1       0.718  -1.495   3.379  0.00  0.00    -0.047 A 
ATOM      9  C9  IND d   1       1.787  -2.069   2.679  0.00  0.00    -0.096 A 
ATOM     10  HN1 IND d   1      -0.532  -0.060   2.747  0.00  0.00     0.298 HD
ENDROOT
TORSDOF 0
ENDMDL
