MODEL 1
REMARK minimizedAffinity 6.83769703
REMARK minimizedRMSD -1
REMARK  0 active torsions:
REMARK  status: ('A' for Active; 'I' for Inactive)
ROOT
ATOM      1  N1  IND d   1       0.991   1.736   3.693  0.00  0.00    -0.196 N 
ATOM      2  C2  IND d   1       1.773   2.606   2.987  0.00  0.00     0.054 A 
ATOM      3  C3  IND d   1       2.422   1.956   1.995  0.00  0.00    -0.031 A 
ATOM      4  C4  IND d   1       2.269  -0.513   1.284  0.00  0.00     0.051 A 
ATOM      5  C5  IND d   1       1.713  -1.707   1.650  0.00  0.00    -0.031 A 
ATOM      6  C6  IND d   1       0.869  -1.816   2.736  0.00  0.00     0.015 A 
ATOM      7  C7  IND d   1       0.539  -0.728   3.493  0.00  0.00    -0.016 A 
ATOM      8  C8  IND d   1       1.107   0.485   3.129  0.00  0.00    -0.047 A 
ATOM      9  C9  IND d   1       1.998   0.593   2.053  0.00  0.00    -0.096 A 
ATOM     10  HN1 IND d   1       0.507   1.937   4.376  0.00  0.00     0.298 HD
ENDROOT
TORSDOF 0
ENDMDL
