MODEL 1
REMARK minimizedAffinity 12.9408913
REMARK minimizedRMSD -1
REMARK  0 active torsions:
REMARK  status: ('A' for Active; 'I' for Inactive)
ROOT
ATOM      1  N1  IND d   1       0.005  -2.009   4.529  0.00  0.00    -0.196 N 
ATOM      2  C2  IND d   1       0.429  -1.766   3.252  0.00  0.00     0.054 A 
ATOM      3  C3  IND d   1       0.979  -2.880   2.719  0.00  0.00    -0.031 A 
ATOM      4  C4  IND d   1       1.195  -5.240   3.725  0.00  0.00     0.051 A 
ATOM      5  C5  IND d   1       0.985  -5.942   4.878  0.00  0.00    -0.031 A 
ATOM      6  C6  IND d   1       0.423  -5.359   5.996  0.00  0.00     0.015 A 
ATOM      7  C7  IND d   1       0.039  -4.048   5.998  0.00  0.00    -0.016 A 
ATOM      8  C8  IND d   1       0.258  -3.329   4.831  0.00  0.00    -0.047 A 
ATOM      9  C9  IND d   1       0.866  -3.905   3.708  0.00  0.00    -0.096 A 
ATOM     10  HN1 IND d   1      -0.358  -1.434   5.055  0.00  0.00     0.298 HD
ENDROOT
TORSDOF 0
ENDMDL
