MODEL 1
REMARK minimizedAffinity 7.87709379
REMARK minimizedRMSD -1
REMARK  0 active torsions:
REMARK  status: ('A' for Active; 'I' for Inactive)
ROOT
ATOM      1  N1  IND d   1      -5.474  -2.163  -4.490  0.00  0.00    -0.196 N 
ATOM      2  C2  IND d   1      -4.516  -1.849  -3.567  0.00  0.00     0.054 A 
ATOM      3  C3  IND d   1      -3.708  -2.911  -3.347  0.00  0.00    -0.031 A 
ATOM      4  C4  IND d   1      -3.714  -5.229  -4.467  0.00  0.00     0.051 A 
ATOM      5  C5  IND d   1      -4.422  -5.999  -5.346  0.00  0.00    -0.031 A 
ATOM      6  C6  IND d   1      -5.539  -5.519  -6.000  0.00  0.00     0.015 A 
ATOM      7  C7  IND d   1      -5.983  -4.242  -5.807  0.00  0.00    -0.016 A 
ATOM      8  C8  IND d   1      -5.270  -3.460  -4.910  0.00  0.00    -0.047 A 
ATOM      9  C9  IND d   1      -4.162  -3.955  -4.211  0.00  0.00    -0.096 A 
ATOM     10  HN1 IND d   1      -6.099  -1.639  -4.763  0.00  0.00     0.298 HD
ENDROOT
TORSDOF 0
ENDMDL
