MODEL 1
REMARK minimizedAffinity 9.65382957
REMARK minimizedRMSD -1
REMARK  0 active torsions:
REMARK  status: ('A' for Active; 'I' for Inactive)
ROOT
ATOM      1  N1  IND d   1      -2.957  -4.836  -4.410  0.00  0.00    -0.196 N 
ATOM      2  C2  IND d   1      -3.362  -5.983  -5.034  0.00  0.00     0.054 A 
ATOM      3  C3  IND d   1      -4.517  -5.770  -5.705  0.00  0.00    -0.031 A 
ATOM      4  C4  IND d   1      -5.861  -3.595  -5.999  0.00  0.00     0.051 A 
ATOM      5  C5  IND d   1      -5.907  -2.293  -5.586  0.00  0.00    -0.031 A 
ATOM      6  C6  IND d   1      -4.951  -1.760  -4.745  0.00  0.00     0.015 A 
ATOM      7  C7  IND d   1      -3.902  -2.511  -4.293  0.00  0.00    -0.016 A 
ATOM      8  C8  IND d   1      -3.857  -3.835  -4.704  0.00  0.00    -0.047 A 
ATOM      9  C9  IND d   1      -4.847  -4.393  -5.523  0.00  0.00    -0.096 A 
ATOM     10  HN1 IND d   1      -2.258  -4.754  -3.916  0.00  0.00     0.298 HD
ENDROOT
TORSDOF 0
ENDMDL
