MODEL 1
REMARK minimizedAffinity 15.7494059
REMARK minimizedRMSD -1
REMARK  0 active torsions:
REMARK  status: ('A' for Active; 'I' for Inactive)
ROOT
ATOM      1  N1  IND d   1       0.792  -0.577   3.001  0.00  0.00    -0.196 N 
ATOM      2  C2  IND d   1       1.012  -1.505   2.021  0.00  0.00     0.054 A 
ATOM      3  C3  IND d   1       1.746  -0.967   1.021  0.00  0.00    -0.031 A 
ATOM      4  C4  IND d   1       2.779   1.384   0.832  0.00  0.00     0.051 A 
ATOM      5  C5  IND d   1       2.822   2.595   1.463  0.00  0.00    -0.031 A 
ATOM      6  C6  IND d   1       2.180   2.815   2.664  0.00  0.00     0.015 A 
ATOM      7  C7  IND d   1       1.477   1.823   3.288  0.00  0.00    -0.016 A 
ATOM      8  C8  IND d   1       1.425   0.594   2.647  0.00  0.00    -0.047 A 
ATOM      9  C9  IND d   1       2.040   0.377   1.407  0.00  0.00    -0.096 A 
ATOM     10  HN1 IND d   1       0.335  -0.704   3.718  0.00  0.00     0.298 HD
ENDROOT
TORSDOF 0
ENDMDL
