MODEL 1
REMARK minimizedAffinity 13.7957878
REMARK minimizedRMSD -1
REMARK  0 active torsions:
REMARK  status: ('A' for Active; 'I' for Inactive)
ROOT
ATOM      1  N1  IND d   1       5.941   6.000  -4.817  0.00  0.00    -0.196 N 
ATOM      2  C2  IND d   1       4.948   5.854  -5.745  0.00  0.00     0.054 A 
ATOM      3  C3  IND d   1       3.759   5.652  -5.135  0.00  0.00    -0.031 A 
ATOM      4  C4  IND d   1       3.195   5.625  -2.623  0.00  0.00     0.051 A 
ATOM      5  C5  IND d   1       3.777   5.677  -1.387  0.00  0.00    -0.031 A 
ATOM      6  C6  IND d   1       5.137   5.846  -1.229  0.00  0.00     0.015 A 
ATOM      7  C7  IND d   1       5.968   5.980  -2.305  0.00  0.00    -0.016 A 
ATOM      8  C8  IND d   1       5.382   5.921  -3.561  0.00  0.00    -0.047 A 
ATOM      9  C9  IND d   1       4.008   5.707  -3.729  0.00  0.00    -0.096 A 
ATOM     10  HN1 IND d   1       6.775   6.121  -4.989  0.00  0.00     0.298 HD
ENDROOT
TORSDOF 0
ENDMDL
