MODEL 1
REMARK minimizedAffinity 7.40719986
REMARK minimizedRMSD -1
REMARK  0 active torsions:
REMARK  status: ('A' for Active; 'I' for Inactive)
ROOT
ATOM      1  N1  IND d   1      -2.714   0.036  -2.308  0.00  0.00    -0.196 N 
ATOM      2  C2  IND d   1      -3.194   1.317  -2.304  0.00  0.00     0.054 A 
ATOM      3  C3  IND d   1      -4.468   1.343  -2.753  0.00  0.00    -0.031 A 
ATOM      4  C4  IND d   1      -5.997  -0.607  -3.452  0.00  0.00     0.051 A 
ATOM      5  C5  IND d   1      -5.993  -1.958  -3.658  0.00  0.00    -0.031 A 
ATOM      6  C6  IND d   1      -4.874  -2.729  -3.417  0.00  0.00     0.015 A 
ATOM      7  C7  IND d   1      -3.716  -2.177  -2.948  0.00  0.00    -0.016 A 
ATOM      8  C8  IND d   1      -3.714  -0.805  -2.745  0.00  0.00    -0.047 A 
ATOM      9  C9  IND d   1      -4.833  -0.011  -3.027  0.00  0.00    -0.096 A 
ATOM     10  HN1 IND d   1      -1.921  -0.203  -2.077  0.00  0.00     0.298 HD
ENDROOT
TORSDOF 0
ENDMDL
