MODEL 1
REMARK minimizedAffinity 20.5822735
REMARK minimizedRMSD -1
REMARK  0 active torsions:
REMARK  status: ('A' for Active; 'I' for Inactive)
ROOT
ATOM      1  N1  IND d   1      -2.992   0.662  -3.412  0.00  0.00    -0.196 N 
ATOM      2  C2  IND d   1      -2.827   0.315  -2.100  0.00  0.00     0.054 A 
ATOM      3  C3  IND d   1      -3.677   1.017  -1.318  0.00  0.00    -0.031 A 
ATOM      4  C4  IND d   1      -5.494   2.713  -1.988  0.00  0.00     0.051 A 
ATOM      5  C5  IND d   1      -5.998   3.382  -3.068  0.00  0.00    -0.031 A 
ATOM      6  C6  IND d   1      -5.517   3.172  -4.345  0.00  0.00     0.015 A 
ATOM      7  C7  IND d   1      -4.518   2.273  -4.591  0.00  0.00    -0.016 A 
ATOM      8  C8  IND d   1      -4.000   1.597  -3.495  0.00  0.00    -0.047 A 
ATOM      9  C9  IND d   1      -4.454   1.837  -2.192  0.00  0.00    -0.096 A 
ATOM     10  HN1 IND d   1      -2.541   0.348  -4.074  0.00  0.00     0.298 HD
ENDROOT
TORSDOF 0
ENDMDL
