MODEL 1
REMARK minimizedAffinity 9.31298733
REMARK minimizedRMSD -1
REMARK  0 active torsions:
REMARK  status: ('A' for Active; 'I' for Inactive)
ROOT
ATOM      1  N1  IND d   1      -4.148  -4.790  -2.617  0.00  0.00    -0.196 N 
ATOM      2  C2  IND d   1      -3.769  -5.986  -3.159  0.00  0.00     0.054 A 
ATOM      3  C3  IND d   1      -4.015  -6.000  -4.488  0.00  0.00    -0.031 A 
ATOM      4  C4  IND d   1      -4.941  -4.132  -5.998  0.00  0.00     0.051 A 
ATOM      5  C5  IND d   1      -5.465  -2.870  -5.953  0.00  0.00    -0.031 A 
ATOM      6  C6  IND d   1      -5.576  -2.169  -4.770  0.00  0.00     0.015 A 
ATOM      7  C7  IND d   1      -5.156  -2.701  -3.584  0.00  0.00    -0.016 A 
ATOM      8  C8  IND d   1      -4.630  -3.985  -3.625  0.00  0.00    -0.047 A 
ATOM      9  C9  IND d   1      -4.553  -4.718  -4.817  0.00  0.00    -0.096 A 
ATOM     10  HN1 IND d   1      -4.095  -4.577  -1.785  0.00  0.00     0.298 HD
ENDROOT
TORSDOF 0
ENDMDL
