MODEL 1
REMARK minimizedAffinity 19.5235615
REMARK minimizedRMSD -1
REMARK  0 active torsions:
REMARK  status: ('A' for Active; 'I' for Inactive)
ROOT
ATOM      1  C1  DEN d   1       2.992  -0.178  -4.657  0.00  0.00     0.130 A 
ATOM      2  C2  DEN d   1       2.580  -0.592  -5.996  0.00  0.00    -0.031 A 
ATOM      3  C3  DEN d   1       1.362  -1.416  -5.864  0.00  0.00     0.027 A 
ATOM      4  C4  DEN d   1       0.078  -2.084  -3.730  0.00  0.00     0.027 A 
ATOM      5  C5  DEN d   1       0.052  -1.981  -2.357  0.00  0.00    -0.003 A 
ATOM      6  C6  DEN d   1       1.016  -1.304  -1.657  0.00  0.00     0.001 A 
ATOM      7  C7  DEN d   1       2.022  -0.665  -2.333  0.00  0.00     0.017 A 
ATOM      8  C8  DEN d   1       2.058  -0.771  -3.717  0.00  0.00    -0.094 A 
ATOM      9  C9  DEN d   1       1.068  -1.449  -4.406  0.00  0.00    -0.072 A 
ENDROOT
TORSDOF 0
ENDMDL
