MODEL 1
REMARK minimizedAffinity 12.9310369
REMARK minimizedRMSD -1
REMARK  0 active torsions:
REMARK  status: ('A' for Active; 'I' for Inactive)
ROOT
ATOM      1  C1  DEN d   1       2.191  -3.355  -2.058  0.00  0.00     0.130 A 
ATOM      2  C2  DEN d   1       2.077  -2.821  -0.704  0.00  0.00    -0.031 A 
ATOM      3  C3  DEN d   1       1.810  -1.373  -0.805  0.00  0.00     0.027 A 
ATOM      4  C4  DEN d   1       1.558   0.088  -2.916  0.00  0.00     0.027 A 
ATOM      5  C5  DEN d   1       1.585   0.084  -4.293  0.00  0.00    -0.003 A 
ATOM      6  C6  DEN d   1       1.848  -1.050  -5.015  0.00  0.00     0.001 A 
ATOM      7  C7  DEN d   1       2.049  -2.238  -4.364  0.00  0.00     0.017 A 
ATOM      8  C8  DEN d   1       2.031  -2.241  -2.975  0.00  0.00    -0.094 A 
ATOM      9  C9  DEN d   1       1.751  -1.087  -2.263  0.00  0.00    -0.072 A 
ENDROOT
TORSDOF 0
ENDMDL
