MODEL 1
REMARK minimizedAffinity 16.8655338
REMARK minimizedRMSD -1
REMARK  0 active torsions:
REMARK  status: ('A' for Active; 'I' for Inactive)
ROOT
ATOM      1  C1  DEN d   1       2.478  -3.965  -0.457  0.00  0.00     0.130 A 
ATOM      2  C2  DEN d   1       3.425  -3.209   0.357  0.00  0.00    -0.031 A 
ATOM      3  C3  DEN d   1       3.236  -1.774   0.063  0.00  0.00     0.027 A 
ATOM      4  C4  DEN d   1       1.574  -0.656  -1.562  0.00  0.00     0.027 A 
ATOM      5  C5  DEN d   1       0.576  -0.888  -2.482  0.00  0.00    -0.003 A 
ATOM      6  C6  DEN d   1       0.169  -2.153  -2.815  0.00  0.00     0.001 A 
ATOM      7  C7  DEN d   1       0.731  -3.234  -2.189  0.00  0.00     0.017 A 
ATOM      8  C8  DEN d   1       1.744  -3.008  -1.265  0.00  0.00    -0.094 A 
ATOM      9  C9  DEN d   1       2.133  -1.722  -0.933  0.00  0.00    -0.072 A 
ENDROOT
TORSDOF 0
ENDMDL
