MODEL 1
REMARK minimizedAffinity 17.1837807
REMARK minimizedRMSD -1
REMARK  0 active torsions:
REMARK  status: ('A' for Active; 'I' for Inactive)
ROOT
ATOM      1  C1  DEN d   1       3.994   1.019   0.665  0.00  0.00     0.130 A 
ATOM      2  C2  DEN d   1       4.299   2.179  -0.168  0.00  0.00    -0.031 A 
ATOM      3  C3  DEN d   1       3.625   1.997  -1.469  0.00  0.00     0.027 A 
ATOM      4  C4  DEN d   1       2.142   0.044  -2.269  0.00  0.00     0.027 A 
ATOM      5  C5  DEN d   1       1.605  -1.175  -1.918  0.00  0.00    -0.003 A 
ATOM      6  C6  DEN d   1       1.853  -1.759  -0.704  0.00  0.00     0.001 A 
ATOM      7  C7  DEN d   1       2.622  -1.103   0.221  0.00  0.00     0.017 A 
ATOM      8  C8  DEN d   1       3.173   0.123  -0.129  0.00  0.00    -0.094 A 
ATOM      9  C9  DEN d   1       2.900   0.702  -1.356  0.00  0.00    -0.072 A 
ENDROOT
TORSDOF 0
ENDMDL
