MODEL 1
REMARK minimizedAffinity 20.3141747
REMARK minimizedRMSD -1
REMARK  0 active torsions:
REMARK  status: ('A' for Active; 'I' for Inactive)
ROOT
ATOM      1  C1  DEN d   1      -0.423   1.867   4.614  0.00  0.00     0.130 A 
ATOM      2  C2  DEN d   1       0.037   1.878   6.000  0.00  0.00    -0.031 A 
ATOM      3  C3  DEN d   1       1.509   1.770   5.994  0.00  0.00     0.027 A 
ATOM      4  C4  DEN d   1       3.115   1.592   3.983  0.00  0.00     0.027 A 
ATOM      5  C5  DEN d   1       3.191   1.532   2.609  0.00  0.00    -0.003 A 
ATOM      6  C6  DEN d   1       2.075   1.545   1.815  0.00  0.00     0.001 A 
ATOM      7  C7  DEN d   1       0.836   1.665   2.387  0.00  0.00     0.017 A 
ATOM      8  C8  DEN d   1       0.751   1.719   3.772  0.00  0.00    -0.094 A 
ATOM      9  C9  DEN d   1       1.892   1.717   4.557  0.00  0.00    -0.072 A 
ENDROOT
TORSDOF 0
ENDMDL
