MODEL 1
REMARK minimizedAffinity 4.40340614
REMARK minimizedRMSD -1
REMARK  0 active torsions:
REMARK  status: ('A' for Active; 'I' for Inactive)
ROOT
ATOM      1  C1  DEN d   1      -2.085  -0.517  -0.619  0.00  0.00     0.130 A 
ATOM      2  C2  DEN d   1      -3.360  -0.824   0.022  0.00  0.00    -0.031 A 
ATOM      3  C3  DEN d   1      -3.250  -2.161   0.640  0.00  0.00     0.027 A 
ATOM      4  C4  DEN d   1      -1.239  -3.775   0.668  0.00  0.00     0.027 A 
ATOM      5  C5  DEN d   1       0.060  -3.958   0.246  0.00  0.00    -0.003 A 
ATOM      6  C6  DEN d   1       0.718  -3.029  -0.516  0.00  0.00     0.001 A 
ATOM      7  C7  DEN d   1       0.094  -1.854  -0.842  0.00  0.00     0.017 A 
ATOM      8  C8  DEN d   1      -1.218  -1.665  -0.427  0.00  0.00    -0.094 A 
ATOM      9  C9  DEN d   1      -1.862  -2.611   0.353  0.00  0.00    -0.072 A 
ENDROOT
TORSDOF 0
ENDMDL
