MODEL 1
REMARK minimizedAffinity 17.8791981
REMARK minimizedRMSD -1
REMARK  0 active torsions:
REMARK  status: ('A' for Active; 'I' for Inactive)
ROOT
ATOM      1  C1  DEN d   1      -1.637   3.449  -3.781  0.00  0.00     0.130 A 
ATOM      2  C2  DEN d   1      -1.794   2.034  -4.106  0.00  0.00    -0.031 A 
ATOM      3  C3  DEN d   1      -2.935   1.902  -5.033  0.00  0.00     0.027 A 
ATOM      4  C4  DEN d   1      -4.465   3.743  -5.996  0.00  0.00     0.027 A 
ATOM      5  C5  DEN d   1      -4.729   5.095  -5.999  0.00  0.00    -0.003 A 
ATOM      6  C6  DEN d   1      -4.008   5.981  -5.244  0.00  0.00     0.001 A 
ATOM      7  C7  DEN d   1      -2.959   5.532  -4.487  0.00  0.00     0.017 A 
ATOM      8  C8  DEN d   1      -2.691   4.169  -4.472  0.00  0.00    -0.094 A 
ATOM      9  C9  DEN d   1      -3.423   3.291  -5.252  0.00  0.00    -0.072 A 
ENDROOT
TORSDOF 0
ENDMDL
