MODEL 1
REMARK minimizedAffinity 18.2695789
REMARK minimizedRMSD -1
REMARK  0 active torsions:
REMARK  status: ('A' for Active; 'I' for Inactive)
ROOT
ATOM      1  C1  DEN d   1       1.031  -0.184  -0.694  0.00  0.00     0.130 A 
ATOM      2  C2  DEN d   1       2.223  -0.102  -1.533  0.00  0.00    -0.031 A 
ATOM      3  C3  DEN d   1       3.222   0.727  -0.829  0.00  0.00     0.027 A 
ATOM      4  C4  DEN d   1       3.041   1.883   1.469  0.00  0.00     0.027 A 
ATOM      5  C5  DEN d   1       2.217   2.111   2.549  0.00  0.00    -0.003 A 
ATOM      6  C6  DEN d   1       0.939   1.622   2.609  0.00  0.00     0.001 A 
ATOM      7  C7  DEN d   1       0.462   0.842   1.588  0.00  0.00     0.017 A 
ATOM      8  C8  DEN d   1       1.284   0.614   0.492  0.00  0.00    -0.094 A 
ATOM      9  C9  DEN d   1       2.578   1.107   0.457  0.00  0.00    -0.072 A 
ENDROOT
TORSDOF 0
ENDMDL
