MODEL 1
REMARK minimizedAffinity 11.5676432
REMARK minimizedRMSD -1
REMARK  0 active torsions:
REMARK  status: ('A' for Active; 'I' for Inactive)
ROOT
ATOM      1  C1  DEN d   1      -3.805   1.962   3.648  0.00  0.00     0.130 A 
ATOM      2  C2  DEN d   1      -4.574   2.224   4.861  0.00  0.00    -0.031 A 
ATOM      3  C3  DEN d   1      -3.634   2.262   5.999  0.00  0.00     0.027 A 
ATOM      4  C4  DEN d   1      -1.074   1.946   6.000  0.00  0.00     0.027 A 
ATOM      5  C5  DEN d   1       0.026   1.689   5.211  0.00  0.00    -0.003 A 
ATOM      6  C6  DEN d   1      -0.078   1.474   3.862  0.00  0.00     0.001 A 
ATOM      7  C7  DEN d   1      -1.302   1.555   3.253  0.00  0.00     0.017 A 
ATOM      8  C8  DEN d   1      -2.416   1.806   4.043  0.00  0.00    -0.094 A 
ATOM      9  C9  DEN d   1      -2.290   2.034   5.403  0.00  0.00    -0.072 A 
ENDROOT
TORSDOF 0
ENDMDL
