MODEL 1
REMARK minimizedAffinity 20.4230518
REMARK minimizedRMSD -1
REMARK  0 active torsions:
REMARK  status: ('A' for Active; 'I' for Inactive)
ROOT
ATOM      1  C1  DEN d   1       2.943   1.247  -1.443  0.00  0.00     0.130 A 
ATOM      2  C2  DEN d   1       3.652   1.049  -0.182  0.00  0.00    -0.031 A 
ATOM      3  C3  DEN d   1       3.319  -0.299   0.322  0.00  0.00     0.027 A 
ATOM      4  C4  DEN d   1       1.786  -2.090  -0.726  0.00  0.00     0.027 A 
ATOM      5  C5  DEN d   1       0.956  -2.375  -1.787  0.00  0.00    -0.003 A 
ATOM      6  C6  DEN d   1       0.706  -1.468  -2.783  0.00  0.00     0.001 A 
ATOM      7  C7  DEN d   1       1.327  -0.247  -2.761  0.00  0.00     0.017 A 
ATOM      8  C8  DEN d   1       2.159   0.050  -1.690  0.00  0.00    -0.094 A 
ATOM      9  C9  DEN d   1       2.410  -0.884  -0.700  0.00  0.00    -0.072 A 
ENDROOT
TORSDOF 0
ENDMDL
