MODEL 1
REMARK minimizedAffinity 0.813354731
REMARK minimizedRMSD -1
REMARK  0 active torsions:
REMARK  status: ('A' for Active; 'I' for Inactive)
ROOT
ATOM      1  C1  DEN d   1      -1.871  -3.722  -3.443  0.00  0.00     0.130 A 
ATOM      2  C2  DEN d   1      -1.149  -4.984  -3.305  0.00  0.00    -0.031 A 
ATOM      3  C3  DEN d   1      -1.846  -6.000  -4.119  0.00  0.00     0.027 A 
ATOM      4  C4  DEN d   1      -3.958  -5.742  -5.576  0.00  0.00     0.027 A 
ATOM      5  C5  DEN d   1      -4.930  -4.862  -5.998  0.00  0.00    -0.003 A 
ATOM      6  C6  DEN d   1      -4.970  -3.560  -5.575  0.00  0.00     0.001 A 
ATOM      7  C7  DEN d   1      -3.993  -3.088  -4.738  0.00  0.00     0.017 A 
ATOM      8  C8  DEN d   1      -3.014  -3.971  -4.302  0.00  0.00    -0.094 A 
ATOM      9  C9  DEN d   1      -2.984  -5.280  -4.751  0.00  0.00    -0.072 A 
ENDROOT
TORSDOF 0
ENDMDL
