MODEL 1
REMARK minimizedAffinity 12.2323551
REMARK minimizedRMSD -1
REMARK  0 active torsions:
REMARK  status: ('A' for Active; 'I' for Inactive)
ROOT
ATOM      1  C1  DEN d   1      -2.919  -3.466  -5.472  0.00  0.00     0.130 A 
ATOM      2  C2  DEN d   1      -3.545  -2.542  -4.529  0.00  0.00    -0.031 A 
ATOM      3  C3  DEN d   1      -2.995  -2.818  -3.187  0.00  0.00     0.027 A 
ATOM      4  C4  DEN d   1      -1.243  -4.574  -2.480  0.00  0.00     0.027 A 
ATOM      5  C5  DEN d   1      -0.434  -5.595  -2.927  0.00  0.00    -0.003 A 
ATOM      6  C6  DEN d   1      -0.421  -5.997  -4.236  0.00  0.00     0.001 A 
ATOM      7  C7  DEN d   1      -1.201  -5.345  -5.154  0.00  0.00     0.017 A 
ATOM      8  C8  DEN d   1      -2.025  -4.319  -4.710  0.00  0.00    -0.094 A 
ATOM      9  C9  DEN d   1      -2.014  -3.919  -3.384  0.00  0.00    -0.072 A 
ENDROOT
TORSDOF 0
ENDMDL
