MODEL 1
REMARK minimizedAffinity 2.42515945
REMARK minimizedRMSD -1
REMARK  0 active torsions:
REMARK  status: ('A' for Active; 'I' for Inactive)
ROOT
ATOM      1  C1  DEN d   1      -1.913  -5.998  -4.178  0.00  0.00     0.130 A 
ATOM      2  C2  DEN d   1      -1.112  -5.081  -3.372  0.00  0.00    -0.031 A 
ATOM      3  C3  DEN d   1      -1.738  -3.746  -3.441  0.00  0.00     0.027 A 
ATOM      4  C4  DEN d   1      -3.862  -3.014  -4.708  0.00  0.00     0.027 A 
ATOM      5  C5  DEN d   1      -4.875  -3.437  -5.540  0.00  0.00    -0.003 A 
ATOM      6  C6  DEN d   1      -4.952  -4.725  -5.999  0.00  0.00     0.001 A 
ATOM      7  C7  DEN d   1      -4.024  -5.647  -5.593  0.00  0.00     0.017 A 
ATOM      8  C8  DEN d   1      -2.996  -5.226  -4.761  0.00  0.00    -0.094 A 
ATOM      9  C9  DEN d   1      -2.942  -3.923  -4.297  0.00  0.00    -0.072 A 
ENDROOT
TORSDOF 0
ENDMDL
