MODEL 1
REMARK minimizedAffinity -2.46282053
REMARK minimizedRMSD -1
REMARK  0 active torsions:
REMARK  status: ('A' for Active; 'I' for Inactive)
ROOT
ATOM      1  C1  DEN d   1      -1.739  -3.630  -4.084  0.00  0.00     0.130 A 
ATOM      2  C2  DEN d   1      -1.044  -4.865  -3.734  0.00  0.00    -0.031 A 
ATOM      3  C3  DEN d   1      -1.853  -5.999  -4.224  0.00  0.00     0.027 A 
ATOM      4  C4  DEN d   1      -4.102  -5.962  -5.487  0.00  0.00     0.027 A 
ATOM      5  C5  DEN d   1      -5.087  -5.149  -6.000  0.00  0.00    -0.003 A 
ATOM      6  C6  DEN d   1      -5.044  -3.785  -5.882  0.00  0.00     0.001 A 
ATOM      7  C7  DEN d   1      -3.970  -3.190  -5.274  0.00  0.00     0.017 A 
ATOM      8  C8  DEN d   1      -2.975  -4.004  -4.748  0.00  0.00    -0.094 A 
ATOM      9  C9  DEN d   1      -3.032  -5.381  -4.888  0.00  0.00    -0.072 A 
ENDROOT
TORSDOF 0
ENDMDL
