MODEL 1
REMARK minimizedAffinity 11.9050426
REMARK minimizedRMSD -1
REMARK  0 active torsions:
REMARK  status: ('A' for Active; 'I' for Inactive)
ROOT
ATOM      1  C1  DEN d   1       2.698   0.816  -1.027  0.00  0.00     0.130 A 
ATOM      2  C2  DEN d   1       3.798   0.594  -0.093  0.00  0.00    -0.031 A 
ATOM      3  C3  DEN d   1       3.815  -0.840   0.259  0.00  0.00     0.027 A 
ATOM      4  C4  DEN d   1       2.255  -2.728  -0.551  0.00  0.00     0.027 A 
ATOM      5  C5  DEN d   1       1.165  -3.023  -1.341  0.00  0.00    -0.003 A 
ATOM      6  C6  DEN d   1       0.495  -2.061  -2.049  0.00  0.00     0.001 A 
ATOM      7  C7  DEN d   1       0.936  -0.764  -2.017  0.00  0.00     0.017 A 
ATOM      8  C8  DEN d   1       2.029  -0.458  -1.217  0.00  0.00    -0.094 A 
ATOM      9  C9  DEN d   1       2.701  -1.447  -0.519  0.00  0.00    -0.072 A 
ENDROOT
TORSDOF 0
ENDMDL
