MODEL 1
REMARK minimizedAffinity 17.7259884
REMARK minimizedRMSD -1
REMARK  0 active torsions:
REMARK  status: ('A' for Active; 'I' for Inactive)
ROOT
ATOM      1  C1  DEN d   1      -2.989  -0.104   4.598  0.00  0.00     0.130 A 
ATOM      2  C2  DEN d   1      -3.181  -0.476   3.199  0.00  0.00    -0.031 A 
ATOM      3  C3  DEN d   1      -4.050   0.540   2.572  0.00  0.00     0.027 A 
ATOM      4  C4  DEN d   1      -5.108   2.643   3.624  0.00  0.00     0.027 A 
ATOM      5  C5  DEN d   1      -5.241   3.372   4.786  0.00  0.00    -0.003 A 
ATOM      6  C6  DEN d   1      -4.665   2.978   5.965  0.00  0.00     0.001 A 
ATOM      7  C7  DEN d   1      -3.892   1.847   5.998  0.00  0.00     0.017 A 
ATOM      8  C8  DEN d   1      -3.760   1.104   4.832  0.00  0.00    -0.094 A 
ATOM      9  C9  DEN d   1      -4.340   1.525   3.648  0.00  0.00    -0.072 A 
ENDROOT
TORSDOF 0
ENDMDL
