MODEL 1
REMARK minimizedAffinity -2.13957334
REMARK minimizedRMSD -1
REMARK  0 active torsions:
REMARK  status: ('A' for Active; 'I' for Inactive)
ROOT
ATOM      1  C   UNL d   1      -0.006  -0.398  -1.992  0.00  0.00     0.077 C 
ATOM      2  C1  UNL d   1       0.020  -0.206  -0.505  0.00  0.00    -0.074 A 
ATOM      3  C2  UNL d   1       1.162  -0.517   0.240  0.00  0.00    -0.005 A 
ATOM      4  C3  UNL d   1       1.174  -0.325   1.622  0.00  0.00     0.006 A 
ATOM      5  C4  UNL d   1       0.046   0.180   2.271  0.00  0.00    -0.005 A 
ATOM      6  C5  UNL d   1      -1.104   0.497   1.542  0.00  0.00    -0.074 A 
ATOM      7  C6  UNL d   1      -2.321   1.049   2.223  0.00  0.00     0.077 C 
ATOM      8  C7  UNL d   1      -1.106   0.307   0.153  0.00  0.00    -0.001 A 
ENDROOT
TORSDOF 0
ENDMDL
