MODEL 1
REMARK minimizedAffinity -4.75600147
REMARK minimizedRMSD -1
REMARK  0 active torsions:
REMARK  status: ('A' for Active; 'I' for Inactive)
ROOT
ATOM      1  C   UNL d   1       1.490  -1.596  -0.937  0.00  0.00     0.077 C 
ATOM      2  C1  UNL d   1       0.429  -0.540  -0.846  0.00  0.00    -0.074 A 
ATOM      3  C2  UNL d   1       0.015   0.162  -1.983  0.00  0.00    -0.005 A 
ATOM      4  C3  UNL d   1      -0.980   1.135  -1.885  0.00  0.00     0.006 A 
ATOM      5  C4  UNL d   1      -1.570   1.415  -0.651  0.00  0.00    -0.005 A 
ATOM      6  C5  UNL d   1      -1.170   0.722   0.496  0.00  0.00    -0.074 A 
ATOM      7  C6  UNL d   1      -1.801   1.003   1.827  0.00  0.00     0.077 C 
ATOM      8  C7  UNL d   1      -0.175  -0.259   0.388  0.00  0.00    -0.001 A 
ENDROOT
TORSDOF 0
ENDMDL
