MODEL 1
REMARK minimizedAffinity -3.79072666
REMARK minimizedRMSD -1
REMARK  0 active torsions:
REMARK  status: ('A' for Active; 'I' for Inactive)
ROOT
ATOM      1  C   UNL d   1       1.655  -0.371   2.227  0.00  0.00     0.077 C 
ATOM      2  C1  UNL d   1       0.595  -0.053   1.214  0.00  0.00    -0.074 A 
ATOM      3  C2  UNL d   1      -0.643   0.466   1.607  0.00  0.00    -0.005 A 
ATOM      4  C3  UNL d   1      -1.615   0.767   0.653  0.00  0.00     0.006 A 
ATOM      5  C4  UNL d   1      -1.359   0.552  -0.702  0.00  0.00    -0.005 A 
ATOM      6  C5  UNL d   1      -0.127   0.034  -1.114  0.00  0.00    -0.074 A 
ATOM      7  C6  UNL d   1       0.167  -0.193  -2.567  0.00  0.00     0.077 C 
ATOM      8  C7  UNL d   1       0.847  -0.258  -0.150  0.00  0.00    -0.001 A 
ENDROOT
TORSDOF 0
ENDMDL
