MODEL 1
REMARK minimizedAffinity -2.38698506
REMARK minimizedRMSD -1
REMARK  0 active torsions:
REMARK  status: ('A' for Active; 'I' for Inactive)
ROOT
ATOM      1  C   UNL d   1      -0.741   1.508   2.745  0.00  0.00     0.077 C 
ATOM      2  C1  UNL d   1      -0.871   0.756   1.454  0.00  0.00    -0.074 A 
ATOM      3  C2  UNL d   1      -1.993  -0.039   1.196  0.00  0.00    -0.005 A 
ATOM      4  C3  UNL d   1      -2.104  -0.726  -0.014  0.00  0.00     0.006 A 
ATOM      5  C4  UNL d   1      -1.097  -0.624  -0.975  0.00  0.00    -0.005 A 
ATOM      6  C5  UNL d   1       0.031   0.167  -0.734  0.00  0.00    -0.074 A 
ATOM      7  C6  UNL d   1       1.117   0.294  -1.760  0.00  0.00     0.077 C 
ATOM      8  C7  UNL d   1       0.132   0.859   0.481  0.00  0.00    -0.001 A 
ENDROOT
TORSDOF 0
ENDMDL
