MODEL 1
REMARK minimizedAffinity -1.58075333
REMARK minimizedRMSD -1
REMARK  0 active torsions:
REMARK  status: ('A' for Active; 'I' for Inactive)
ROOT
ATOM      1  C   UNL d   1      -1.274  -0.268   2.298  0.00  0.00     0.077 C 
ATOM      2  C1  UNL d   1      -1.148   0.402   0.962  0.00  0.00    -0.074 A 
ATOM      3  C2  UNL d   1      -1.848   1.579   0.680  0.00  0.00    -0.005 A 
ATOM      4  C3  UNL d   1      -1.714   2.196  -0.564  0.00  0.00     0.006 A 
ATOM      5  C4  UNL d   1      -0.879   1.642  -1.536  0.00  0.00    -0.005 A 
ATOM      6  C5  UNL d   1      -0.171   0.466  -1.271  0.00  0.00    -0.074 A 
ATOM      7  C6  UNL d   1       0.737  -0.137  -2.301  0.00  0.00     0.077 C 
ATOM      8  C7  UNL d   1      -0.306  -0.144  -0.017  0.00  0.00    -0.001 A 
ENDROOT
TORSDOF 0
ENDMDL
