MODEL 1
REMARK minimizedAffinity -0.911796689
REMARK minimizedRMSD -1
REMARK  0 active torsions:
REMARK  status: ('A' for Active; 'I' for Inactive)
ROOT
ATOM      1  C   UNL d   1      -0.793  -0.515  -5.012  0.00  0.00     0.077 C 
ATOM      2  C1  UNL d   1       0.187  -0.127  -3.945  0.00  0.00    -0.074 A 
ATOM      3  C2  UNL d   1       1.351   0.580  -4.260  0.00  0.00    -0.005 A 
ATOM      4  C3  UNL d   1       2.249   0.942  -3.255  0.00  0.00     0.006 A 
ATOM      5  C4  UNL d   1       1.991   0.600  -1.927  0.00  0.00    -0.005 A 
ATOM      6  C5  UNL d   1       0.831  -0.106  -1.592  0.00  0.00    -0.074 A 
ATOM      7  C6  UNL d   1       0.534  -0.472  -0.169  0.00  0.00     0.077 C 
ATOM      8  C7  UNL d   1      -0.069  -0.460  -2.607  0.00  0.00    -0.001 A 
ENDROOT
TORSDOF 0
ENDMDL
