MODEL 1
REMARK minimizedAffinity -1.7995156
REMARK minimizedRMSD -1
REMARK  0 active torsions:
REMARK  status: ('A' for Active; 'I' for Inactive)
ROOT
ATOM      1  C   UNL d   1       1.160  -0.681  -1.102  0.00  0.00     0.077 C 
ATOM      2  C1  UNL d   1       0.182  -0.300  -0.032  0.00  0.00    -0.074 A 
ATOM      3  C2  UNL d   1      -1.144   0.012  -0.348  0.00  0.00    -0.005 A 
ATOM      4  C3  UNL d   1      -2.046   0.355   0.660  0.00  0.00     0.006 A 
ATOM      5  C4  UNL d   1      -1.631   0.389   1.992  0.00  0.00    -0.005 A 
ATOM      6  C5  UNL d   1      -0.309   0.078   2.327  0.00  0.00    -0.074 A 
ATOM      7  C6  UNL d   1       0.150   0.100   3.755  0.00  0.00     0.077 C 
ATOM      8  C7  UNL d   1       0.589  -0.272   1.310  0.00  0.00    -0.001 A 
ENDROOT
TORSDOF 0
ENDMDL
