MODEL 1
REMARK minimizedAffinity -4.80162001
REMARK minimizedRMSD -1
REMARK  0 active torsions:
REMARK  status: ('A' for Active; 'I' for Inactive)
ROOT
ATOM      1  C   UNL d   1      -0.269  -1.530  -2.017  0.00  0.00     0.077 C 
ATOM      2  C1  UNL d   1       0.048  -1.038  -0.636  0.00  0.00    -0.074 A 
ATOM      3  C2  UNL d   1       1.245  -1.391  -0.005  0.00  0.00    -0.005 A 
ATOM      4  C3  UNL d   1       1.531  -0.919   1.276  0.00  0.00     0.006 A 
ATOM      5  C4  UNL d   1       0.624  -0.089   1.937  0.00  0.00    -0.005 A 
ATOM      6  C5  UNL d   1      -0.577   0.276   1.321  0.00  0.00    -0.074 A 
ATOM      7  C6  UNL d   1      -1.558   1.175   2.013  0.00  0.00     0.077 C 
ATOM      8  C7  UNL d   1      -0.854  -0.198   0.031  0.00  0.00    -0.001 A 
ENDROOT
TORSDOF 0
ENDMDL
