MODEL 1
REMARK minimizedAffinity -2.411762
REMARK minimizedRMSD -1
REMARK  0 active torsions:
REMARK  status: ('A' for Active; 'I' for Inactive)
ROOT
ATOM      1  C   UNL d   1      -1.655  -3.379  -5.619  0.00  0.00     0.077 C 
ATOM      2  C1  UNL d   1      -0.911  -2.314  -4.869  0.00  0.00    -0.074 A 
ATOM      3  C2  UNL d   1      -0.377  -1.205  -5.535  0.00  0.00    -0.005 A 
ATOM      4  C3  UNL d   1       0.304  -0.218  -4.823  0.00  0.00     0.006 A 
ATOM      5  C4  UNL d   1       0.458  -0.329  -3.440  0.00  0.00    -0.005 A 
ATOM      6  C5  UNL d   1      -0.070  -1.429  -2.757  0.00  0.00    -0.074 A 
ATOM      7  C6  UNL d   1       0.078  -1.559  -1.271  0.00  0.00     0.077 C 
ATOM      8  C7  UNL d   1      -0.759  -2.414  -3.479  0.00  0.00    -0.001 A 
ENDROOT
TORSDOF 0
ENDMDL
