MODEL 1
REMARK minimizedAffinity 5.19817448
REMARK minimizedRMSD -1
REMARK  0 active torsions:
REMARK  status: ('A' for Active; 'I' for Inactive)
ROOT
ATOM      1  C   UNL d   1      -1.017  -1.010   2.857  0.00  0.00     0.077 C 
ATOM      2  C1  UNL d   1      -1.501   0.300   2.309  0.00  0.00    -0.074 A 
ATOM      3  C2  UNL d   1      -0.778   1.478   2.519  0.00  0.00    -0.005 A 
ATOM      4  C3  UNL d   1      -1.236   2.687   1.995  0.00  0.00     0.006 A 
ATOM      5  C4  UNL d   1      -2.419   2.730   1.256  0.00  0.00    -0.005 A 
ATOM      6  C5  UNL d   1      -3.154   1.562   1.034  0.00  0.00    -0.074 A 
ATOM      7  C6  UNL d   1      -4.422   1.588   0.234  0.00  0.00     0.077 C 
ATOM      8  C7  UNL d   1      -2.684   0.350   1.558  0.00  0.00    -0.001 A 
ENDROOT
TORSDOF 0
ENDMDL
