MODEL 1
REMARK minimizedAffinity -1.7090776
REMARK minimizedRMSD -1
REMARK  0 active torsions:
REMARK  status: ('A' for Active; 'I' for Inactive)
ROOT
ATOM      1  O1  BZF d   1       1.091  -4.205  -0.330  0.00  0.00    -0.204 OA
ATOM      2  C2  BZF d   1       2.432  -4.481  -0.148  0.00  0.00     0.174 A 
ATOM      3  C3  BZF d   1       3.096  -3.380   0.259  0.00  0.00    -0.012 A 
ATOM      4  C3A BZF d   1       2.092  -2.375   0.426  0.00  0.00    -0.107 A 
ATOM      5  C4  BZF d   1       2.127  -1.070   0.828  0.00  0.00     0.055 A 
ATOM      6  C5  BZF d   1       0.980  -0.343   0.811  0.00  0.00    -0.016 A 
ATOM      7  C6  BZF d   1      -0.218  -0.885   0.393  0.00  0.00     0.022 A 
ATOM      8  C7  BZF d   1      -0.303  -2.176  -0.010  0.00  0.00     0.029 A 
ATOM      9  C7A BZF d   1       0.848  -2.924   0.037  0.00  0.00     0.058 A 
ENDROOT
TORSDOF 0
ENDMDL
