MODEL 1
REMARK minimizedAffinity 0.801686645
REMARK minimizedRMSD -1
REMARK  0 active torsions:
REMARK  status: ('A' for Active; 'I' for Inactive)
ROOT
ATOM      1  O1  BZF d   1      -0.345  -2.939   0.592  0.00  0.00    -0.204 OA
ATOM      2  C2  BZF d   1      -1.006  -1.758   0.869  0.00  0.00     0.174 A 
ATOM      3  C3  BZF d   1      -0.153  -0.714   0.842  0.00  0.00    -0.012 A 
ATOM      4  C3A BZF d   1       1.104  -1.266   0.438  0.00  0.00    -0.107 A 
ATOM      5  C4  BZF d   1       2.338  -0.726   0.215  0.00  0.00     0.055 A 
ATOM      6  C5  BZF d   1       3.373  -1.549  -0.099  0.00  0.00    -0.016 A 
ATOM      7  C6  BZF d   1       3.210  -2.916  -0.192  0.00  0.00     0.022 A 
ATOM      8  C7  BZF d   1       2.004  -3.498   0.016  0.00  0.00     0.029 A 
ATOM      9  C7A BZF d   1       0.949  -2.665   0.300  0.00  0.00     0.058 A 
ENDROOT
TORSDOF 0
ENDMDL
