MODEL 1
REMARK minimizedAffinity -0.329685628
REMARK minimizedRMSD -1
REMARK  0 active torsions:
REMARK  status: ('A' for Active; 'I' for Inactive)
ROOT
ATOM      1  O1  BZF d   1       3.701  -2.518   0.203  0.00  0.00    -0.204 OA
ATOM      2  C2  BZF d   1       3.725  -3.877  -0.047  0.00  0.00     0.174 A 
ATOM      3  C3  BZF d   1       2.474  -4.380  -0.071  0.00  0.00    -0.012 A 
ATOM      4  C3A BZF d   1       1.610  -3.251   0.088  0.00  0.00    -0.107 A 
ATOM      5  C4  BZF d   1       0.253  -3.105   0.129  0.00  0.00     0.055 A 
ATOM      6  C5  BZF d   1      -0.272  -1.875   0.371  0.00  0.00    -0.016 A 
ATOM      7  C6  BZF d   1       0.529  -0.772   0.581  0.00  0.00     0.022 A 
ATOM      8  C7  BZF d   1       1.881  -0.866   0.545  0.00  0.00     0.029 A 
ATOM      9  C7A BZF d   1       2.414  -2.101   0.268  0.00  0.00     0.058 A 
ENDROOT
TORSDOF 0
ENDMDL
