MODEL 1
REMARK minimizedAffinity 5.56292057
REMARK minimizedRMSD -1
REMARK  0 active torsions:
REMARK  status: ('A' for Active; 'I' for Inactive)
ROOT
ATOM      1  O1  BZF d   1       2.600  -4.799  -0.632  0.00  0.00    -0.204 OA
ATOM      2  C2  BZF d   1       3.755  -4.412   0.020  0.00  0.00     0.174 A 
ATOM      3  C3  BZF d   1       3.567  -3.249   0.676  0.00  0.00    -0.012 A 
ATOM      4  C3A BZF d   1       2.184  -2.933   0.493  0.00  0.00    -0.107 A 
ATOM      5  C4  BZF d   1       1.391  -1.906   0.920  0.00  0.00     0.055 A 
ATOM      6  C5  BZF d   1       0.098  -1.854   0.506  0.00  0.00    -0.016 A 
ATOM      7  C6  BZF d   1      -0.433  -2.808  -0.338  0.00  0.00     0.022 A 
ATOM      8  C7  BZF d   1       0.313  -3.848  -0.783  0.00  0.00     0.029 A 
ATOM      9  C7A BZF d   1       1.611  -3.921  -0.340  0.00  0.00     0.058 A 
ENDROOT
TORSDOF 0
ENDMDL
