MODEL 1
REMARK minimizedAffinity -0.375336349
REMARK minimizedRMSD -1
REMARK  0 active torsions:
REMARK  status: ('A' for Active; 'I' for Inactive)
ROOT
ATOM      1  O1  BZF d   1       2.552  -2.884   0.412  0.00  0.00    -0.204 OA
ATOM      2  C2  BZF d   1       1.894  -4.084   0.224  0.00  0.00     0.174 A 
ATOM      3  C3  BZF d   1       0.563  -3.928   0.373  0.00  0.00    -0.012 A 
ATOM      4  C3A BZF d   1       0.370  -2.526   0.582  0.00  0.00    -0.107 A 
ATOM      5  C4  BZF d   1      -0.737  -1.749   0.779  0.00  0.00     0.055 A 
ATOM      6  C5  BZF d   1      -0.577  -0.422   1.025  0.00  0.00    -0.016 A 
ATOM      7  C6  BZF d   1       0.672   0.160   1.086  0.00  0.00     0.022 A 
ATOM      8  C7  BZF d   1       1.799  -0.569   0.892  0.00  0.00     0.029 A 
ATOM      9  C7A BZF d   1       1.639  -1.904   0.611  0.00  0.00     0.058 A 
ENDROOT
TORSDOF 0
ENDMDL
