MODEL 1
REMARK minimizedAffinity 0.597490013
REMARK minimizedRMSD -1
REMARK  0 active torsions:
REMARK  status: ('A' for Active; 'I' for Inactive)
ROOT
ATOM      1  O1  BZF d   1       2.628  -3.347   0.519  0.00  0.00    -0.204 OA
ATOM      2  C2  BZF d   1       1.589  -4.228   0.292  0.00  0.00     0.174 A 
ATOM      3  C3  BZF d   1       0.400  -3.632   0.515  0.00  0.00    -0.012 A 
ATOM      4  C3A BZF d   1       0.712  -2.269   0.817  0.00  0.00    -0.107 A 
ATOM      5  C4  BZF d   1      -0.049  -1.175   1.114  0.00  0.00     0.055 A 
ATOM      6  C5  BZF d   1       0.570  -0.007   1.431  0.00  0.00    -0.016 A 
ATOM      7  C6  BZF d   1       1.944   0.101   1.466  0.00  0.00     0.022 A 
ATOM      8  C7  BZF d   1       2.741  -0.956   1.174  0.00  0.00     0.029 A 
ATOM      9  C7A BZF d   1       2.119  -2.129   0.821  0.00  0.00     0.058 A 
ENDROOT
TORSDOF 0
ENDMDL
