MODEL 1
REMARK minimizedAffinity 3.20938993
REMARK minimizedRMSD -1
REMARK  0 active torsions:
REMARK  status: ('A' for Active; 'I' for Inactive)
ROOT
ATOM      1  O1  BZF d   1       3.451  -5.951   0.368  0.00  0.00    -0.204 OA
ATOM      2  C2  BZF d   1       4.780  -6.000  -0.004  0.00  0.00     0.174 A 
ATOM      3  C3  BZF d   1       5.213  -4.783  -0.393  0.00  0.00    -0.012 A 
ATOM      4  C3A BZF d   1       4.110  -3.901  -0.167  0.00  0.00    -0.107 A 
ATOM      5  C4  BZF d   1       3.929  -2.559  -0.344  0.00  0.00     0.055 A 
ATOM      6  C5  BZF d   1       2.707  -2.019  -0.096  0.00  0.00    -0.016 A 
ATOM      7  C6  BZF d   1       1.644  -2.790   0.325  0.00  0.00     0.022 A 
ATOM      8  C7  BZF d   1       1.776  -4.125   0.519  0.00  0.00     0.029 A 
ATOM      9  C7A BZF d   1       3.018  -4.669   0.301  0.00  0.00     0.058 A 
ENDROOT
TORSDOF 0
ENDMDL
