MODEL 1
REMARK minimizedAffinity -1.76019251
REMARK minimizedRMSD -1
REMARK  0 active torsions:
REMARK  status: ('A' for Active; 'I' for Inactive)
ROOT
ATOM      1  O1  BZF d   1       3.903  -2.114   0.284  0.00  0.00    -0.204 OA
ATOM      2  C2  BZF d   1       4.120  -3.452   0.017  0.00  0.00     0.174 A 
ATOM      3  C3  BZF d   1       2.955  -4.130  -0.009  0.00  0.00    -0.012 A 
ATOM      4  C3A BZF d   1       1.939  -3.138   0.167  0.00  0.00    -0.107 A 
ATOM      5  C4  BZF d   1       0.575  -3.189   0.215  0.00  0.00     0.055 A 
ATOM      6  C5  BZF d   1      -0.120  -2.051   0.474  0.00  0.00    -0.016 A 
ATOM      7  C6  BZF d   1       0.515  -0.846   0.694  0.00  0.00     0.022 A 
ATOM      8  C7  BZF d   1       1.866  -0.745   0.652  0.00  0.00     0.029 A 
ATOM      9  C7A BZF d   1       2.570  -1.887   0.358  0.00  0.00     0.058 A 
ENDROOT
TORSDOF 0
ENDMDL
