MODEL 1
REMARK minimizedAffinity -4.04814816
REMARK minimizedRMSD -1
REMARK  0 active torsions:
REMARK  status: ('A' for Active; 'I' for Inactive)
ROOT
ATOM      1  O1  BZF d   1       3.069  -2.490   0.088  0.00  0.00    -0.204 OA
ATOM      2  C2  BZF d   1       3.100  -3.854  -0.132  0.00  0.00     0.174 A 
ATOM      3  C3  BZF d   1       1.850  -4.359  -0.180  0.00  0.00    -0.012 A 
ATOM      4  C3A BZF d   1       0.982  -3.227  -0.069  0.00  0.00    -0.107 A 
ATOM      5  C4  BZF d   1      -0.376  -3.081  -0.068  0.00  0.00     0.055 A 
ATOM      6  C5  BZF d   1      -0.907  -1.847   0.132  0.00  0.00    -0.016 A 
ATOM      7  C6  BZF d   1      -0.113  -0.739   0.340  0.00  0.00     0.022 A 
ATOM      8  C7  BZF d   1       1.240  -0.833   0.343  0.00  0.00     0.029 A 
ATOM      9  C7A BZF d   1       1.781  -2.073   0.108  0.00  0.00     0.058 A 
ENDROOT
TORSDOF 0
ENDMDL
