MODEL 1
REMARK minimizedAffinity -1.81873333
REMARK minimizedRMSD -1
REMARK  0 active torsions:
REMARK  status: ('A' for Active; 'I' for Inactive)
ROOT
ATOM      1  O1  BZF d   1       1.027  -0.336   1.393  0.00  0.00    -0.204 OA
ATOM      2  C2  BZF d   1      -0.352  -0.377   1.323  0.00  0.00     0.174 A 
ATOM      3  C3  BZF d   1      -0.766  -1.500   0.701  0.00  0.00    -0.012 A 
ATOM      4  C3A BZF d   1       0.426  -2.248   0.443  0.00  0.00    -0.107 A 
ATOM      5  C4  BZF d   1       0.665  -3.461  -0.138  0.00  0.00     0.055 A 
ATOM      6  C5  BZF d   1       1.950  -3.872  -0.302  0.00  0.00    -0.016 A 
ATOM      7  C6  BZF d   1       3.018  -3.095   0.098  0.00  0.00     0.022 A 
ATOM      8  C7  BZF d   1       2.830  -1.888   0.684  0.00  0.00     0.029 A 
ATOM      9  C7A BZF d   1       1.532  -1.484   0.881  0.00  0.00     0.058 A 
ENDROOT
TORSDOF 0
ENDMDL
