MODEL 1
REMARK minimizedAffinity -3.40163231
REMARK minimizedRMSD -1
REMARK  0 active torsions:
REMARK  status: ('A' for Active; 'I' for Inactive)
ROOT
ATOM      1  O1  BZF d   1       2.898  -2.442  -0.056  0.00  0.00    -0.204 OA
ATOM      2  C2  BZF d   1       2.479  -3.751  -0.192  0.00  0.00     0.174 A 
ATOM      3  C3  BZF d   1       1.200  -3.890   0.214  0.00  0.00    -0.012 A 
ATOM      4  C3A BZF d   1       0.765  -2.567   0.543  0.00  0.00    -0.107 A 
ATOM      5  C4  BZF d   1      -0.417  -2.052   0.992  0.00  0.00     0.055 A 
ATOM      6  C5  BZF d   1      -0.492  -0.728   1.286  0.00  0.00    -0.016 A 
ATOM      7  C6  BZF d   1       0.596   0.109   1.148  0.00  0.00     0.022 A 
ATOM      8  C7  BZF d   1       1.789  -0.354   0.701  0.00  0.00     0.029 A 
ATOM      9  C7A BZF d   1       1.858  -1.686   0.372  0.00  0.00     0.058 A 
ENDROOT
TORSDOF 0
ENDMDL
