MODEL 1
REMARK minimizedAffinity 1.57348132
REMARK minimizedRMSD -1
REMARK  0 active torsions:
REMARK  status: ('A' for Active; 'I' for Inactive)
ROOT
ATOM      1  O1  BZF d   1       4.385  -3.221  -0.094  0.00  0.00    -0.204 OA
ATOM      2  C2  BZF d   1       4.461  -4.589  -0.274  0.00  0.00     0.174 A 
ATOM      3  C3  BZF d   1       3.234  -5.147  -0.224  0.00  0.00    -0.012 A 
ATOM      4  C3A BZF d   1       2.326  -4.049  -0.091  0.00  0.00    -0.107 A 
ATOM      5  C4  BZF d   1       0.966  -3.961  -0.005  0.00  0.00     0.055 A 
ATOM      6  C5  BZF d   1       0.395  -2.744   0.193  0.00  0.00    -0.016 A 
ATOM      7  C6  BZF d   1       1.152  -1.597   0.314  0.00  0.00     0.022 A 
ATOM      8  C7  BZF d   1       2.504  -1.634   0.230  0.00  0.00     0.029 A 
ATOM      9  C7A BZF d   1       3.083  -2.858  -0.002  0.00  0.00     0.058 A 
ENDROOT
TORSDOF 0
ENDMDL
