MODEL 1
REMARK minimizedAffinity -0.642443538
REMARK minimizedRMSD -1
REMARK  0 active torsions:
REMARK  status: ('A' for Active; 'I' for Inactive)
ROOT
ATOM      1  O1  BZF d   1       3.758  -2.622  -0.180  0.00  0.00    -0.204 OA
ATOM      2  C2  BZF d   1       3.796  -4.002  -0.242  0.00  0.00     0.174 A 
ATOM      3  C3  BZF d   1       2.588  -4.527   0.047  0.00  0.00    -0.012 A 
ATOM      4  C3A BZF d   1       1.720  -3.403   0.216  0.00  0.00    -0.107 A 
ATOM      5  C4  BZF d   1       0.390  -3.278   0.502  0.00  0.00     0.055 A 
ATOM      6  C5  BZF d   1      -0.136  -2.036   0.671  0.00  0.00    -0.016 A 
ATOM      7  C6  BZF d   1       0.639  -0.900   0.567  0.00  0.00     0.022 A 
ATOM      8  C7  BZF d   1       1.962  -0.973   0.281  0.00  0.00     0.029 A 
ATOM      9  C7A BZF d   1       2.489  -2.225   0.077  0.00  0.00     0.058 A 
ENDROOT
TORSDOF 0
ENDMDL
