MODEL 1
REMARK minimizedAffinity 8.58960056
REMARK minimizedRMSD -1
REMARK  0 active torsions:
REMARK  status: ('A' for Active; 'I' for Inactive)
ROOT
ATOM      1  O1  BZF d   1      -1.325   2.968   1.904  0.00  0.00    -0.204 OA
ATOM      2  C2  BZF d   1      -1.725   4.087   1.200  0.00  0.00     0.174 A 
ATOM      3  C3  BZF d   1      -2.614   3.757   0.241  0.00  0.00    -0.012 A 
ATOM      4  C3A BZF d   1      -2.850   2.356   0.414  0.00  0.00    -0.107 A 
ATOM      5  C4  BZF d   1      -3.650   1.453  -0.227  0.00  0.00     0.055 A 
ATOM      6  C5  BZF d   1      -3.594   0.146   0.139  0.00  0.00    -0.016 A 
ATOM      7  C6  BZF d   1      -2.748  -0.294   1.135  0.00  0.00     0.022 A 
ATOM      8  C7  BZF d   1      -1.940   0.565   1.803  0.00  0.00     0.029 A 
ATOM      9  C7A BZF d   1      -2.018   1.892   1.458  0.00  0.00     0.058 A 
ENDROOT
TORSDOF 0
ENDMDL
