MODEL 1
REMARK minimizedAffinity -3.64121294
REMARK minimizedRMSD -1
REMARK  0 active torsions:
REMARK  status: ('A' for Active; 'I' for Inactive)
ROOT
ATOM      1  O1  BZF d   1       2.899  -2.226   0.430  0.00  0.00    -0.204 OA
ATOM      2  C2  BZF d   1       2.978  -3.523  -0.039  0.00  0.00     0.174 A 
ATOM      3  C3  BZF d   1       1.748  -4.064  -0.159  0.00  0.00    -0.012 A 
ATOM      4  C3A BZF d   1       0.839  -3.010   0.173  0.00  0.00    -0.107 A 
ATOM      5  C4  BZF d   1      -0.523  -2.926   0.222  0.00  0.00     0.055 A 
ATOM      6  C5  BZF d   1      -1.098  -1.773   0.656  0.00  0.00    -0.016 A 
ATOM      7  C6  BZF d   1      -0.342  -0.689   1.052  0.00  0.00     0.022 A 
ATOM      8  C7  BZF d   1       1.012  -0.724   1.016  0.00  0.00     0.029 A 
ATOM      9  C7A BZF d   1       1.596  -1.875   0.547  0.00  0.00     0.058 A 
ENDROOT
TORSDOF 0
ENDMDL
