MODEL 1
REMARK minimizedAffinity -2.74542236
REMARK minimizedRMSD -1
REMARK  0 active torsions:
REMARK  status: ('A' for Active; 'I' for Inactive)
ROOT
ATOM      1  O1  BZF d   1       2.319  -2.835  -0.036  0.00  0.00    -0.204 OA
ATOM      2  C2  BZF d   1       1.680  -4.022  -0.336  0.00  0.00     0.174 A 
ATOM      3  C3  BZF d   1       0.372  -3.956  -0.013  0.00  0.00    -0.012 A 
ATOM      4  C3A BZF d   1       0.163  -2.613   0.437  0.00  0.00    -0.107 A 
ATOM      5  C4  BZF d   1      -0.934  -1.932   0.879  0.00  0.00     0.055 A 
ATOM      6  C5  BZF d   1      -0.787  -0.652   1.313  0.00  0.00    -0.016 A 
ATOM      7  C6  BZF d   1       0.443  -0.026   1.322  0.00  0.00     0.022 A 
ATOM      8  C7  BZF d   1       1.559  -0.660   0.888  0.00  0.00     0.029 A 
ATOM      9  C7A BZF d   1       1.407  -1.942   0.418  0.00  0.00     0.058 A 
ENDROOT
TORSDOF 0
ENDMDL
