MODEL 1
REMARK minimizedAffinity -0.464977205
REMARK minimizedRMSD -1
REMARK  0 active torsions:
REMARK  status: ('A' for Active; 'I' for Inactive)
ROOT
ATOM      1  O1  BZF d   1      -1.030  -2.125   0.757  0.00  0.00    -0.204 OA
ATOM      2  C2  BZF d   1      -1.345  -0.796   0.966  0.00  0.00     0.174 A 
ATOM      3  C3  BZF d   1      -0.261  -0.014   0.789  0.00  0.00    -0.012 A 
ATOM      4  C3A BZF d   1       0.776  -0.900   0.358  0.00  0.00    -0.107 A 
ATOM      5  C4  BZF d   1       2.083  -0.716   0.007  0.00  0.00     0.055 A 
ATOM      6  C5  BZF d   1       2.845  -1.800  -0.295  0.00  0.00    -0.016 A 
ATOM      7  C6  BZF d   1       2.335  -3.080  -0.253  0.00  0.00     0.022 A 
ATOM      8  C7  BZF d   1       1.043  -3.313   0.084  0.00  0.00     0.029 A 
ATOM      9  C7A BZF d   1       0.261  -2.217   0.359  0.00  0.00     0.058 A 
ENDROOT
TORSDOF 0
ENDMDL
