MODEL 1
REMARK minimizedAffinity 0.0515005663
REMARK minimizedRMSD -1
REMARK  1 active torsions:
REMARK  status: ('A' for Active; 'I' for Inactive)
REMARK    1  A    between atoms: C1_2  and  C2_3 
ROOT
ATOM      1  C2  UNL d   1      -1.668   0.291  -1.018  0.00  0.00    -0.073 A 
ATOM      2  C3  UNL d   1      -1.516   1.610  -0.576  0.00  0.00    -0.002 A 
ATOM      3  C4  UNL d   1      -0.393   1.980   0.166  0.00  0.00     0.004 A 
ATOM      4  C5  UNL d   1       0.591   1.038   0.466  0.00  0.00    -0.004 A 
ATOM      5  C6  UNL d   1       0.463  -0.282   0.022  0.00  0.00    -0.075 A 
ATOM      6  C7  UNL d   1       1.512  -1.307   0.338  0.00  0.00     0.076 C 
ATOM      7  C8  UNL d   1      -0.669  -0.646  -0.720  0.00  0.00     0.001 A 
ENDROOT
BRANCH   1   8
ATOM      8  C1  UNL d   1      -2.876  -0.111  -1.825  0.00  0.00     0.053 C 
ATOM      9  C   UNL d   1      -2.531  -0.353  -3.286  0.00  0.00     0.018 C 
ENDBRANCH   1   8
TORSDOF 1
ENDMDL
