MODEL 1
REMARK minimizedAffinity -5.52358866
REMARK minimizedRMSD -1
REMARK  1 active torsions:
REMARK  status: ('A' for Active; 'I' for Inactive)
REMARK    1  A    between atoms: C1_2  and  C2_3 
ROOT
ATOM      1  C2  UNL d   1      -0.081   0.194  -0.108  0.00  0.00    -0.073 A 
ATOM      2  C3  UNL d   1      -0.095   1.594  -0.112  0.00  0.00    -0.002 A 
ATOM      3  C4  UNL d   1       1.043   2.310   0.263  0.00  0.00     0.004 A 
ATOM      4  C5  UNL d   1       2.205   1.637   0.636  0.00  0.00    -0.004 A 
ATOM      5  C6  UNL d   1       2.242   0.239   0.635  0.00  0.00    -0.075 A 
ATOM      6  C7  UNL d   1       3.484  -0.501   1.037  0.00  0.00     0.076 C 
ATOM      7  C8  UNL d   1       1.095  -0.474   0.260  0.00  0.00     0.001 A 
ENDROOT
BRANCH   1   8
ATOM      8  C1  UNL d   1      -1.305  -0.584  -0.518  0.00  0.00     0.053 C 
ATOM      9  C   UNL d   1      -1.616  -0.420  -1.997  0.00  0.00     0.018 C 
ENDBRANCH   1   8
TORSDOF 1
ENDMDL
