MODEL 1
REMARK minimizedAffinity 13.0260448
REMARK minimizedRMSD -1
REMARK  2 active torsions:
REMARK  status: ('A' for Active; 'I' for Inactive)
REMARK    1  A    between atoms: C1_2  and  C2_3 
REMARK    2  A    between atoms: C2_3  and  C3_4 
ROOT
ATOM      1  C3  UNL d   1       5.226   3.755   4.436  0.00  0.00    -0.075 A 
ATOM      2  C4  UNL d   1       5.968   4.937   4.576  0.00  0.00     0.002 A 
ATOM      3  C5  UNL d   1       5.486   5.988   5.357  0.00  0.00     0.002 A 
ATOM      4  C6  UNL d   1       4.254   5.875   5.997  0.00  0.00    -0.004 A 
ATOM      5  C7  UNL d   1       3.500   4.713   5.851  0.00  0.00     0.002 A 
ATOM      6  C8  UNL d   1       3.983   3.658   5.074  0.00  0.00     0.002 A 
ENDROOT
BRANCH   1   7
ATOM      7  C2  UNL d   1       5.756   2.603   3.616  0.00  0.00     0.056 C 
BRANCH   7   8
ATOM      8  C1  UNL d   1       4.844   2.191   2.456  0.00  0.00     0.007 C 
ATOM      9  C   UNL d   1       4.517   3.340   1.512  0.00  0.00     0.009 C 
ENDBRANCH   7   8
ENDBRANCH   1   7
TORSDOF 2
ENDMDL
