MODEL 1
REMARK minimizedAffinity 20.3908501
REMARK minimizedRMSD -1
REMARK  2 active torsions:
REMARK  status: ('A' for Active; 'I' for Inactive)
REMARK    1  A    between atoms: C1_2  and  C2_3 
REMARK    2  A    between atoms: C2_3  and  C3_4 
ROOT
ATOM      1  C3  UNL d   1      -0.738  -3.337  -0.017  0.00  0.00    -0.075 A 
ATOM      2  C4  UNL d   1      -0.825  -4.134  -1.168  0.00  0.00     0.002 A 
ATOM      3  C5  UNL d   1      -1.122  -3.562  -2.405  0.00  0.00     0.002 A 
ATOM      4  C6  UNL d   1      -1.347  -2.191  -2.505  0.00  0.00    -0.004 A 
ATOM      5  C7  UNL d   1      -1.280  -1.392  -1.365  0.00  0.00     0.002 A 
ATOM      6  C8  UNL d   1      -0.978  -1.961  -0.127  0.00  0.00     0.002 A 
ENDROOT
BRANCH   1   7
ATOM      7  C2  UNL d   1      -0.387  -3.946   1.320  0.00  0.00     0.056 C 
BRANCH   7   8
ATOM      8  C1  UNL d   1      -0.821  -5.408   1.472  0.00  0.00     0.007 C 
ATOM      9  C   UNL d   1      -0.476  -5.998   2.833  0.00  0.00     0.009 C 
ENDBRANCH   7   8
ENDBRANCH   1   7
TORSDOF 2
ENDMDL
