MODEL 1
REMARK minimizedAffinity 12.5931826
REMARK minimizedRMSD -1
REMARK  2 active torsions:
REMARK  status: ('A' for Active; 'I' for Inactive)
REMARK    1  A    between atoms: C1_2  and  C2_3 
REMARK    2  A    between atoms: C2_3  and  C3_4 
ROOT
ATOM      1  C3  UNL d   1      -1.987  -1.169  -0.478  0.00  0.00    -0.075 A 
ATOM      2  C4  UNL d   1      -0.779  -1.555   0.121  0.00  0.00     0.002 A 
ATOM      3  C5  UNL d   1      -0.737  -1.901   1.472  0.00  0.00     0.002 A 
ATOM      4  C6  UNL d   1      -1.896  -1.855   2.242  0.00  0.00    -0.004 A 
ATOM      5  C7  UNL d   1      -3.099  -1.456   1.662  0.00  0.00     0.002 A 
ATOM      6  C8  UNL d   1      -3.145  -1.114   0.309  0.00  0.00     0.002 A 
ENDROOT
BRANCH   1   7
ATOM      7  C2  UNL d   1      -2.045  -0.822  -1.947  0.00  0.00     0.056 C 
BRANCH   7   8
ATOM      8  C1  UNL d   1      -1.131  -1.681  -2.827  0.00  0.00     0.007 C 
ATOM      9  C   UNL d   1      -1.897  -2.599  -3.771  0.00  0.00     0.009 C 
ENDBRANCH   7   8
ENDBRANCH   1   7
TORSDOF 2
ENDMDL
