MODEL 1
REMARK minimizedAffinity 11.629406
REMARK minimizedRMSD -1
REMARK  2 active torsions:
REMARK  status: ('A' for Active; 'I' for Inactive)
REMARK    1  A    between atoms: C1_2  and  C2_3 
REMARK    2  A    between atoms: C2_3  and  C3_4 
ROOT
ATOM      1  C3  UNL d   1       5.152   3.341   4.720  0.00  0.00    -0.075 A 
ATOM      2  C4  UNL d   1       3.911   3.417   5.369  0.00  0.00     0.002 A 
ATOM      3  C5  UNL d   1       3.512   4.596   5.999  0.00  0.00     0.002 A 
ATOM      4  C6  UNL d   1       4.351   5.708   5.998  0.00  0.00    -0.004 A 
ATOM      5  C7  UNL d   1       5.594   5.639   5.371  0.00  0.00     0.002 A 
ATOM      6  C8  UNL d   1       5.993   4.462   4.736  0.00  0.00     0.002 A 
ENDROOT
BRANCH   1   7
ATOM      7  C2  UNL d   1       5.577   2.077   4.011  0.00  0.00     0.056 C 
BRANCH   7   8
ATOM      8  C1  UNL d   1       4.901   1.868   2.652  0.00  0.00     0.007 C 
ATOM      9  C   UNL d   1       5.875   1.467   1.552  0.00  0.00     0.009 C 
ENDBRANCH   7   8
ENDBRANCH   1   7
TORSDOF 2
ENDMDL
