MODEL 1
REMARK minimizedAffinity 8.43628979
REMARK minimizedRMSD -1
REMARK  2 active torsions:
REMARK  status: ('A' for Active; 'I' for Inactive)
REMARK    1  A    between atoms: C1_2  and  C2_3 
REMARK    2  A    between atoms: C2_3  and  C3_4 
ROOT
ATOM      1  C3  UNL d   1       3.508   3.262   5.946  0.00  0.00    -0.075 A 
ATOM      2  C4  UNL d   1       4.910   3.243   5.922  0.00  0.00     0.002 A 
ATOM      3  C5  UNL d   1       5.635   4.435   5.939  0.00  0.00     0.002 A 
ATOM      4  C6  UNL d   1       4.969   5.658   5.970  0.00  0.00    -0.004 A 
ATOM      5  C7  UNL d   1       3.576   5.689   5.978  0.00  0.00     0.002 A 
ATOM      6  C8  UNL d   1       2.848   4.498   5.965  0.00  0.00     0.002 A 
ENDROOT
BRANCH   1   7
ATOM      7  C2  UNL d   1       2.718   1.975   5.957  0.00  0.00     0.056 C 
BRANCH   7   8
ATOM      8  C1  UNL d   1       3.584   0.711   5.990  0.00  0.00     0.007 C 
ATOM      9  C   UNL d   1       2.773  -0.575   5.916  0.00  0.00     0.009 C 
ENDBRANCH   7   8
ENDBRANCH   1   7
TORSDOF 2
ENDMDL
