MODEL 1
REMARK minimizedAffinity 9.84434605
REMARK minimizedRMSD -1
REMARK  2 active torsions:
REMARK  status: ('A' for Active; 'I' for Inactive)
REMARK    1  A    between atoms: C1_2  and  C2_3 
REMARK    2  A    between atoms: C2_3  and  C3_4 
ROOT
ATOM      1  C3  UNL d   1       3.897   3.464   5.984  0.00  0.00    -0.075 A 
ATOM      2  C4  UNL d   1       5.297   3.557   5.986  0.00  0.00     0.002 A 
ATOM      3  C5  UNL d   1       5.924   4.803   5.999  0.00  0.00     0.002 A 
ATOM      4  C6  UNL d   1       5.163   5.969   6.000  0.00  0.00    -0.004 A 
ATOM      5  C7  UNL d   1       3.772   5.889   5.981  0.00  0.00     0.002 A 
ATOM      6  C8  UNL d   1       3.142   4.644   5.973  0.00  0.00     0.002 A 
ENDROOT
BRANCH   1   7
ATOM      7  C2  UNL d   1       3.212   2.119   6.000  0.00  0.00     0.056 C 
BRANCH   7   8
ATOM      8  C1  UNL d   1       3.969   1.024   5.240  0.00  0.00     0.007 C 
ATOM      9  C   UNL d   1       3.359  -0.360   5.416  0.00  0.00     0.009 C 
ENDBRANCH   7   8
ENDBRANCH   1   7
TORSDOF 2
ENDMDL
