MODEL 1
REMARK minimizedAffinity 18.6356335
REMARK minimizedRMSD -1
REMARK  2 active torsions:
REMARK  status: ('A' for Active; 'I' for Inactive)
REMARK    1  A    between atoms: C1_2  and  C2_3 
REMARK    2  A    between atoms: C2_3  and  C3_4 
ROOT
ATOM      1  C3  UNL d   1      -1.697   0.008  -2.900  0.00  0.00    -0.075 A 
ATOM      2  C4  UNL d   1      -2.390   1.207  -3.123  0.00  0.00     0.002 A 
ATOM      3  C5  UNL d   1      -1.807   2.235  -3.864  0.00  0.00     0.002 A 
ATOM      4  C6  UNL d   1      -0.523   2.083  -4.383  0.00  0.00    -0.004 A 
ATOM      5  C7  UNL d   1       0.181   0.902  -4.154  0.00  0.00     0.002 A 
ATOM      6  C8  UNL d   1      -0.402  -0.130  -3.416  0.00  0.00     0.002 A 
ENDROOT
BRANCH   1   7
ATOM      7  C2  UNL d   1      -2.333  -1.119  -2.123  0.00  0.00     0.056 C 
BRANCH   7   8
ATOM      8  C1  UNL d   1      -2.191  -0.988  -0.603  0.00  0.00     0.007 C 
ATOM      9  C   UNL d   1      -3.474  -0.539   0.083  0.00  0.00     0.009 C 
ENDBRANCH   7   8
ENDBRANCH   1   7
TORSDOF 2
ENDMDL
