MODEL 1
REMARK minimizedAffinity 8.95543098
REMARK minimizedRMSD -1
REMARK  2 active torsions:
REMARK  status: ('A' for Active; 'I' for Inactive)
REMARK    1  A    between atoms: C1_2  and  C2_3 
REMARK    2  A    between atoms: C2_3  and  C3_4 
ROOT
ATOM      1  C3  UNL d   1       3.822   3.571   5.964  0.00  0.00    -0.075 A 
ATOM      2  C4  UNL d   1       5.224   3.542   5.996  0.00  0.00     0.002 A 
ATOM      3  C5  UNL d   1       5.957   4.729   5.992  0.00  0.00     0.002 A 
ATOM      4  C6  UNL d   1       5.301   5.957   5.945  0.00  0.00    -0.004 A 
ATOM      5  C7  UNL d   1       3.909   5.997   5.895  0.00  0.00     0.002 A 
ATOM      6  C8  UNL d   1       3.173   4.811   5.904  0.00  0.00     0.002 A 
ENDROOT
BRANCH   1   7
ATOM      7  C2  UNL d   1       3.022   2.291   5.998  0.00  0.00     0.056 C 
BRANCH   7   8
ATOM      8  C1  UNL d   1       3.858   1.027   5.771  0.00  0.00     0.007 C 
ATOM      9  C   UNL d   1       3.062  -0.259   5.948  0.00  0.00     0.009 C 
ENDBRANCH   7   8
ENDBRANCH   1   7
TORSDOF 2
ENDMDL
