MODEL 1
REMARK minimizedAffinity 17.8709831
REMARK minimizedRMSD -1
REMARK  2 active torsions:
REMARK  status: ('A' for Active; 'I' for Inactive)
REMARK    1  A    between atoms: C1_2  and  C2_3 
REMARK    2  A    between atoms: C2_3  and  C3_4 
ROOT
ATOM      1  C3  UNL d   1      -1.485   1.043   2.416  0.00  0.00    -0.075 A 
ATOM      2  C4  UNL d   1      -1.298   0.083   1.411  0.00  0.00     0.002 A 
ATOM      3  C5  UNL d   1      -0.970  -1.232   1.739  0.00  0.00     0.002 A 
ATOM      4  C6  UNL d   1      -0.813  -1.602   3.073  0.00  0.00    -0.004 A 
ATOM      5  C7  UNL d   1      -0.980  -0.653   4.080  0.00  0.00     0.002 A 
ATOM      6  C8  UNL d   1      -1.313   0.663   3.754  0.00  0.00     0.002 A 
ENDROOT
BRANCH   1   7
ATOM      7  C2  UNL d   1      -1.870   2.461   2.069  0.00  0.00     0.056 C 
BRANCH   7   8
ATOM      8  C1  UNL d   1      -3.368   2.656   1.811  0.00  0.00     0.007 C 
ATOM      9  C   UNL d   1      -3.662   3.673   0.717  0.00  0.00     0.009 C 
ENDBRANCH   7   8
ENDBRANCH   1   7
TORSDOF 2
ENDMDL
