MODEL 1
REMARK minimizedAffinity 9.00185585
REMARK minimizedRMSD -1
REMARK  2 active torsions:
REMARK  status: ('A' for Active; 'I' for Inactive)
REMARK    1  A    between atoms: C1_2  and  C2_3 
REMARK    2  A    between atoms: C2_3  and  C3_4 
ROOT
ATOM      1  C3  UNL d   1       5.277   3.711   4.480  0.00  0.00    -0.075 A 
ATOM      2  C4  UNL d   1       4.145   3.373   5.236  0.00  0.00     0.002 A 
ATOM      3  C5  UNL d   1       3.479   4.342   5.986  0.00  0.00     0.002 A 
ATOM      4  C6  UNL d   1       3.941   5.656   6.000  0.00  0.00    -0.004 A 
ATOM      5  C7  UNL d   1       5.074   6.000   5.266  0.00  0.00     0.002 A 
ATOM      6  C8  UNL d   1       5.740   5.033   4.511  0.00  0.00     0.002 A 
ENDROOT
BRANCH   1   7
ATOM      7  C2  UNL d   1       5.985   2.673   3.642  0.00  0.00     0.056 C 
BRANCH   7   8
ATOM      8  C1  UNL d   1       5.155   2.149   2.466  0.00  0.00     0.007 C 
ATOM      9  C   UNL d   1       6.000   1.761   1.260  0.00  0.00     0.009 C 
ENDBRANCH   7   8
ENDBRANCH   1   7
TORSDOF 2
ENDMDL
