MODEL 1
REMARK minimizedAffinity 16.0338535
REMARK minimizedRMSD -1
REMARK  2 active torsions:
REMARK  status: ('A' for Active; 'I' for Inactive)
REMARK    1  A    between atoms: C1_2  and  C2_3 
REMARK    2  A    between atoms: C2_3  and  C3_4 
ROOT
ATOM      1  C3  UNL d   1       3.889   0.643  -1.803  0.00  0.00    -0.075 A 
ATOM      2  C4  UNL d   1       4.050  -0.743  -1.657  0.00  0.00     0.002 A 
ATOM      3  C5  UNL d   1       5.102  -1.404  -2.290  0.00  0.00     0.002 A 
ATOM      4  C6  UNL d   1       6.000  -0.693  -3.083  0.00  0.00    -0.004 A 
ATOM      5  C7  UNL d   1       5.840   0.681  -3.249  0.00  0.00     0.002 A 
ATOM      6  C8  UNL d   1       4.790   1.346  -2.613  0.00  0.00     0.002 A 
ENDROOT
BRANCH   1   7
ATOM      7  C2  UNL d   1       2.770   1.370  -1.097  0.00  0.00     0.056 C 
BRANCH   7   8
ATOM      8  C1  UNL d   1       2.992   2.880  -0.964  0.00  0.00     0.007 C 
ATOM      9  C   UNL d   1       4.012   3.244   0.107  0.00  0.00     0.009 C 
ENDBRANCH   7   8
ENDBRANCH   1   7
TORSDOF 2
ENDMDL
