MODEL 1
REMARK minimizedAffinity -5.2675457
REMARK minimizedRMSD -1
REMARK  1 active torsions:
REMARK  status: ('A' for Active; 'I' for Inactive)
REMARK    1  A    between atoms: C1_2  and  C2_3 
ROOT
ATOM      1  C2  UNL d   1      -0.170   0.153  -0.105  0.00  0.00    -0.073 A 
ATOM      2  C3  UNL d   1      -1.114   0.393  -1.110  0.00  0.00    -0.002 A 
ATOM      3  C4  UNL d   1      -2.219  -0.447  -1.253  0.00  0.00     0.004 A 
ATOM      4  C5  UNL d   1      -2.395  -1.529  -0.390  0.00  0.00    -0.004 A 
ATOM      5  C6  UNL d   1      -1.469  -1.778   0.628  0.00  0.00    -0.075 A 
ATOM      6  C7  UNL d   1      -1.643  -2.938   1.562  0.00  0.00     0.076 C 
ATOM      7  C8  UNL d   1      -0.360  -0.931   0.763  0.00  0.00     0.001 A 
ENDROOT
BRANCH   1   8
ATOM      8  C1  UNL d   1       1.022   1.061   0.058  0.00  0.00     0.053 C 
ATOM      9  C   UNL d   1       2.184   0.359   0.742  0.00  0.00     0.018 C 
ENDBRANCH   1   8
TORSDOF 1
ENDMDL
