MODEL 1
REMARK minimizedAffinity -3.76413774
REMARK minimizedRMSD -1
REMARK  1 active torsions:
REMARK  status: ('A' for Active; 'I' for Inactive)
REMARK    1  A    between atoms: C1_2  and  C2_3 
ROOT
ATOM      1  C2  UNL d   1      -0.934  -0.553   0.612  0.00  0.00    -0.073 A 
ATOM      2  C3  UNL d   1      -0.475  -1.520   1.514  0.00  0.00    -0.002 A 
ATOM      3  C4  UNL d   1      -1.252  -2.645   1.797  0.00  0.00     0.004 A 
ATOM      4  C5  UNL d   1      -2.489  -2.818   1.176  0.00  0.00    -0.004 A 
ATOM      5  C6  UNL d   1      -2.959  -1.868   0.263  0.00  0.00    -0.075 A 
ATOM      6  C7  UNL d   1      -4.289  -2.038  -0.410  0.00  0.00     0.076 C 
ATOM      7  C8  UNL d   1      -2.175  -0.740  -0.013  0.00  0.00     0.001 A 
ENDROOT
BRANCH   1   8
ATOM      8  C1  UNL d   1      -0.096   0.660   0.299  0.00  0.00     0.053 C 
ATOM      9  C   UNL d   1       1.350   0.293   0.005  0.00  0.00     0.018 C 
ENDBRANCH   1   8
TORSDOF 1
ENDMDL
