MODEL 1
REMARK minimizedAffinity -2.97195697
REMARK minimizedRMSD -1
REMARK  1 active torsions:
REMARK  status: ('A' for Active; 'I' for Inactive)
REMARK    1  A    between atoms: C1_2  and  C2_3 
ROOT
ATOM      1  C2  UNL d   1       1.341   0.951   0.415  0.00  0.00    -0.073 A 
ATOM      2  C3  UNL d   1       0.290   1.875   0.462  0.00  0.00    -0.002 A 
ATOM      3  C4  UNL d   1      -0.995   1.464   0.815  0.00  0.00     0.004 A 
ATOM      4  C5  UNL d   1      -1.243   0.129   1.132  0.00  0.00    -0.004 A 
ATOM      5  C6  UNL d   1      -0.204  -0.808   1.103  0.00  0.00    -0.075 A 
ATOM      6  C7  UNL d   1      -0.454  -2.248   1.440  0.00  0.00     0.076 C 
ATOM      7  C8  UNL d   1       1.084  -0.387   0.745  0.00  0.00     0.001 A 
ENDROOT
BRANCH   1   8
ATOM      8  C1  UNL d   1       2.732   1.392   0.041  0.00  0.00     0.053 C 
ATOM      9  C   UNL d   1       3.181   2.605   0.841  0.00  0.00     0.018 C 
ENDBRANCH   1   8
TORSDOF 1
ENDMDL
