MODEL 1
REMARK minimizedAffinity -5.57435703
REMARK minimizedRMSD -1
REMARK  1 active torsions:
REMARK  status: ('A' for Active; 'I' for Inactive)
REMARK    1  A    between atoms: C1_2  and  C2_3 
ROOT
ATOM      1  C2  UNL d   1      -0.574  -0.328   0.264  0.00  0.00    -0.073 A 
ATOM      2  C3  UNL d   1       0.191  -1.174   1.074  0.00  0.00    -0.002 A 
ATOM      3  C4  UNL d   1      -0.372  -2.329   1.617  0.00  0.00     0.004 A 
ATOM      4  C5  UNL d   1      -1.703  -2.653   1.352  0.00  0.00    -0.004 A 
ATOM      5  C6  UNL d   1      -2.480  -1.826   0.535  0.00  0.00    -0.075 A 
ATOM      6  C7  UNL d   1      -3.914  -2.159   0.241  0.00  0.00     0.076 C 
ATOM      7  C8  UNL d   1      -1.908  -0.666  -0.005  0.00  0.00     0.001 A 
ENDROOT
BRANCH   1   8
ATOM      8  C1  UNL d   1       0.032   0.917  -0.331  0.00  0.00     0.053 C 
ATOM      9  C   UNL d   1       0.703   0.643  -1.667  0.00  0.00     0.018 C 
ENDBRANCH   1   8
TORSDOF 1
ENDMDL
