MODEL 1
REMARK minimizedAffinity -3.44344664
REMARK minimizedRMSD -1
REMARK  1 active torsions:
REMARK  status: ('A' for Active; 'I' for Inactive)
REMARK    1  A    between atoms: C1_2  and  C2_3 
ROOT
ATOM      1  C2  UNL d   1      -0.691   0.576  -0.275  0.00  0.00    -0.073 A 
ATOM      2  C3  UNL d   1       0.085  -0.588  -0.232  0.00  0.00    -0.002 A 
ATOM      3  C4  UNL d   1       1.386  -0.549   0.270  0.00  0.00     0.004 A 
ATOM      4  C5  UNL d   1       1.922   0.650   0.740  0.00  0.00    -0.004 A 
ATOM      5  C6  UNL d   1       1.159   1.821   0.715  0.00  0.00    -0.075 A 
ATOM      6  C7  UNL d   1       1.721   3.120   1.214  0.00  0.00     0.076 C 
ATOM      7  C8  UNL d   1      -0.147   1.775   0.207  0.00  0.00     0.001 A 
ENDROOT
BRANCH   1   8
ATOM      8  C1  UNL d   1      -2.099   0.538  -0.810  0.00  0.00     0.053 C 
ATOM      9  C   UNL d   1      -2.717  -0.846  -0.691  0.00  0.00     0.018 C 
ENDBRANCH   1   8
TORSDOF 1
ENDMDL
