MODEL 1
REMARK minimizedAffinity 1.80292869
REMARK minimizedRMSD -1
REMARK  1 active torsions:
REMARK  status: ('A' for Active; 'I' for Inactive)
REMARK    1  A    between atoms: C1_2  and  C2_3 
ROOT
ATOM      1  C2  UNL d   1       0.029   1.018  -0.151  0.00  0.00    -0.073 A 
ATOM      2  C3  UNL d   1       0.640  -0.201   0.164  0.00  0.00    -0.002 A 
ATOM      3  C4  UNL d   1       1.937  -0.227   0.677  0.00  0.00     0.004 A 
ATOM      4  C5  UNL d   1       2.633   0.963   0.888  0.00  0.00    -0.004 A 
ATOM      5  C6  UNL d   1       2.035   2.192   0.590  0.00  0.00    -0.075 A 
ATOM      6  C7  UNL d   1       2.771   3.481   0.808  0.00  0.00     0.076 C 
ATOM      7  C8  UNL d   1       0.733   2.209   0.072  0.00  0.00     0.001 A 
ENDROOT
BRANCH   1   8
ATOM      8  C1  UNL d   1      -1.374   1.051  -0.700  0.00  0.00     0.053 C 
ATOM      9  C   UNL d   1      -1.587   0.008  -1.786  0.00  0.00     0.018 C 
ENDBRANCH   1   8
TORSDOF 1
ENDMDL
