MODEL 1
REMARK minimizedAffinity -2.26458192
REMARK minimizedRMSD -1
REMARK  1 active torsions:
REMARK  status: ('A' for Active; 'I' for Inactive)
REMARK    1  A    between atoms: C1_2  and  C2_3 
ROOT
ATOM      1  C2  UNL d   1      -0.155   0.264   0.157  0.00  0.00    -0.073 A 
ATOM      2  C3  UNL d   1       0.145   0.533  -1.184  0.00  0.00    -0.002 A 
ATOM      3  C4  UNL d   1      -0.794   0.271  -2.182  0.00  0.00     0.004 A 
ATOM      4  C5  UNL d   1      -2.043  -0.256  -1.851  0.00  0.00    -0.004 A 
ATOM      5  C6  UNL d   1      -2.365  -0.521  -0.516  0.00  0.00    -0.075 A 
ATOM      6  C7  UNL d   1      -3.703  -1.089  -0.143  0.00  0.00     0.076 C 
ATOM      7  C8  UNL d   1      -1.416  -0.257   0.481  0.00  0.00     0.001 A 
ENDROOT
BRANCH   1   8
ATOM      8  C1  UNL d   1       0.854   0.551   1.239  0.00  0.00     0.053 C 
ATOM      9  C   UNL d   1       1.814   1.662   0.843  0.00  0.00     0.018 C 
ENDBRANCH   1   8
TORSDOF 1
ENDMDL
