MODEL 1
REMARK minimizedAffinity -4.74663544
REMARK minimizedRMSD -1
REMARK  1 active torsions:
REMARK  status: ('A' for Active; 'I' for Inactive)
REMARK    1  A    between atoms: C1_2  and  C2_3 
ROOT
ATOM      1  C2  UNL d   1       0.657  -0.077   0.577  0.00  0.00    -0.073 A 
ATOM      2  C3  UNL d   1       0.930  -1.164   1.416  0.00  0.00    -0.002 A 
ATOM      3  C4  UNL d   1      -0.077  -2.075   1.739  0.00  0.00     0.004 A 
ATOM      4  C5  UNL d   1      -1.362  -1.913   1.223  0.00  0.00    -0.004 A 
ATOM      5  C6  UNL d   1      -1.652  -0.840   0.374  0.00  0.00    -0.075 A 
ATOM      6  C7  UNL d   1      -3.030  -0.650  -0.187  0.00  0.00     0.076 C 
ATOM      7  C8  UNL d   1      -0.636   0.072   0.056  0.00  0.00     0.001 A 
ENDROOT
BRANCH   1   8
ATOM      8  C1  UNL d   1       1.742   0.905   0.220  0.00  0.00     0.053 C 
ATOM      9  C   UNL d   1       2.168   1.744   1.415  0.00  0.00     0.018 C 
ENDBRANCH   1   8
TORSDOF 1
ENDMDL
