MODEL 1
REMARK minimizedAffinity -4.41448402
REMARK minimizedRMSD -1
REMARK  1 active torsions:
REMARK  status: ('A' for Active; 'I' for Inactive)
REMARK    1  A    between atoms: C1_2  and  C2_3 
ROOT
ATOM      1  C2  UNL d   1       0.274   0.020  -0.225  0.00  0.00    -0.073 A 
ATOM      2  C3  UNL d   1       0.246   0.866  -1.339  0.00  0.00    -0.002 A 
ATOM      3  C4  UNL d   1      -0.918   0.992  -2.100  0.00  0.00     0.004 A 
ATOM      4  C5  UNL d   1      -2.065   0.280  -1.750  0.00  0.00    -0.004 A 
ATOM      5  C6  UNL d   1      -2.060  -0.562  -0.633  0.00  0.00    -0.075 A 
ATOM      6  C7  UNL d   1      -3.285  -1.337  -0.246  0.00  0.00     0.076 C 
ATOM      7  C8  UNL d   1      -0.887  -0.684   0.124  0.00  0.00     0.001 A 
ENDROOT
BRANCH   1   8
ATOM      8  C1  UNL d   1       1.526  -0.113   0.604  0.00  0.00     0.053 C 
ATOM      9  C   UNL d   1       2.359   1.159   0.587  0.00  0.00     0.018 C 
ENDBRANCH   1   8
TORSDOF 1
ENDMDL
