MODEL 1
REMARK minimizedAffinity -4.64846897
REMARK minimizedRMSD -1
REMARK  1 active torsions:
REMARK  status: ('A' for Active; 'I' for Inactive)
REMARK    1  A    between atoms: C1_2  and  C2_3 
ROOT
ATOM      1  C2  UNL d   1      -0.674   0.013   0.341  0.00  0.00    -0.073 A 
ATOM      2  C3  UNL d   1      -1.826   0.532  -0.261  0.00  0.00    -0.002 A 
ATOM      3  C4  UNL d   1      -2.966  -0.260  -0.401  0.00  0.00     0.004 A 
ATOM      4  C5  UNL d   1      -2.969  -1.575   0.064  0.00  0.00    -0.004 A 
ATOM      5  C6  UNL d   1      -1.832  -2.108   0.679  0.00  0.00    -0.075 A 
ATOM      6  C7  UNL d   1      -1.818  -3.521   1.183  0.00  0.00     0.076 C 
ATOM      7  C8  UNL d   1      -0.690  -1.307   0.814  0.00  0.00     0.001 A 
ENDROOT
BRANCH   1   8
ATOM      8  C1  UNL d   1       0.557   0.867   0.500  0.00  0.00     0.053 C 
ATOM      9  C   UNL d   1       1.830   0.096   0.188  0.00  0.00     0.018 C 
ENDBRANCH   1   8
TORSDOF 1
ENDMDL
