MODEL 1
REMARK minimizedAffinity -0.938625693
REMARK minimizedRMSD -1
REMARK  1 active torsions:
REMARK  status: ('A' for Active; 'I' for Inactive)
REMARK    1  A    between atoms: C1_2  and  C2_3 
ROOT
ATOM      1  C2  UNL d   1      -0.879  -0.346  -0.297  0.00  0.00    -0.073 A 
ATOM      2  C3  UNL d   1      -0.785  -1.409   0.608  0.00  0.00    -0.002 A 
ATOM      3  C4  UNL d   1       0.298  -1.495   1.484  0.00  0.00     0.004 A 
ATOM      4  C5  UNL d   1       1.292  -0.517   1.470  0.00  0.00    -0.004 A 
ATOM      5  C6  UNL d   1       1.209   0.560   0.581  0.00  0.00    -0.075 A 
ATOM      6  C7  UNL d   1       2.271   1.620   0.552  0.00  0.00     0.076 C 
ATOM      7  C8  UNL d   1       0.120   0.638  -0.297  0.00  0.00     0.001 A 
ENDROOT
BRANCH   1   8
ATOM      8  C1  UNL d   1      -2.050  -0.245  -1.240  0.00  0.00     0.053 C 
ATOM      9  C   UNL d   1      -2.422  -1.595  -1.832  0.00  0.00     0.018 C 
ENDBRANCH   1   8
TORSDOF 1
ENDMDL
