MODEL 1
REMARK minimizedAffinity -5.78206062
REMARK minimizedRMSD -1
REMARK  1 active torsions:
REMARK  status: ('A' for Active; 'I' for Inactive)
REMARK    1  A    between atoms: C1_2  and  C2_3 
ROOT
ATOM      1  C2  UNL d   1      -1.952  -0.870   0.005  0.00  0.00    -0.073 A 
ATOM      2  C3  UNL d   1      -0.908  -0.710   0.923  0.00  0.00    -0.002 A 
ATOM      3  C4  UNL d   1       0.243  -0.005   0.567  0.00  0.00     0.004 A 
ATOM      4  C5  UNL d   1       0.358   0.553  -0.706  0.00  0.00    -0.004 A 
ATOM      5  C6  UNL d   1      -0.679   0.415  -1.634  0.00  0.00    -0.075 A 
ATOM      6  C7  UNL d   1      -0.570   1.007  -3.008  0.00  0.00     0.076 C 
ATOM      7  C8  UNL d   1      -1.830  -0.297  -1.270  0.00  0.00     0.001 A 
ENDROOT
BRANCH   1   8
ATOM      8  C1  UNL d   1      -3.198  -1.625   0.387  0.00  0.00     0.053 C 
ATOM      9  C   UNL d   1      -2.878  -2.935   1.089  0.00  0.00     0.018 C 
ENDBRANCH   1   8
TORSDOF 1
ENDMDL
