MODEL 1
REMARK minimizedAffinity 7.17265892
REMARK minimizedRMSD -1
REMARK  1 active torsions:
REMARK  status: ('A' for Active; 'I' for Inactive)
REMARK    1  A    between atoms: N_2  and  C1_3 
ROOT
ATOM      1  C1  UNL d   1       2.596   0.586  -0.663  0.00  0.00     0.143 A 
ATOM      2  C2  UNL d   1       1.880   0.865   0.507  0.00  0.00    -0.057 A 
ATOM      3  C3  UNL d   1       2.046   2.076   1.188  0.00  0.00     0.033 A 
ATOM      4  C4  UNL d   1       2.956   3.022   0.727  0.00  0.00    -0.042 A 
ATOM      5  C5  UNL d   1       3.697   2.756  -0.419  0.00  0.00     0.033 A 
ATOM      6  C6  UNL d   1       3.521   1.547  -1.099  0.00  0.00    -0.057 A 
ENDROOT
BRANCH   1   7
ATOM      7  N   UNL d   1       2.547  -0.640  -1.331  0.00  0.00    -0.732 N 
ATOM      8  C   UNL d   1       2.752  -1.880  -0.612  0.00  0.00     0.284 C 
ATOM      9  H3  UNL d   1       1.800  -0.678  -2.020  0.00  0.00     0.395 HD
ENDBRANCH   1   7
TORSDOF 1
ENDMDL
