MODEL 1
REMARK minimizedAffinity 9.8601408
REMARK minimizedRMSD -1
REMARK  1 active torsions:
REMARK  status: ('A' for Active; 'I' for Inactive)
REMARK    1  A    between atoms: N_2  and  C1_3 
ROOT
ATOM      1  C1  UNL d   1       2.457   1.405   1.474  0.00  0.00     0.143 A 
ATOM      2  C2  UNL d   1       2.842   2.583   2.124  0.00  0.00    -0.057 A 
ATOM      3  C3  UNL d   1       2.234   2.985   3.319  0.00  0.00     0.033 A 
ATOM      4  C4  UNL d   1       1.206   2.229   3.872  0.00  0.00    -0.042 A 
ATOM      5  C5  UNL d   1       0.789   1.067   3.230  0.00  0.00     0.033 A 
ATOM      6  C6  UNL d   1       1.406   0.667   2.041  0.00  0.00    -0.057 A 
ENDROOT
BRANCH   1   7
ATOM      7  N   UNL d   1       2.956   1.003   0.233  0.00  0.00    -0.732 N 
ATOM      8  C   UNL d   1       3.301   1.982  -0.775  0.00  0.00     0.284 C 
ATOM      9  H3  UNL d   1       3.619   0.235   0.311  0.00  0.00     0.395 HD
ENDBRANCH   1   7
TORSDOF 1
ENDMDL
