MODEL 1
REMARK minimizedAffinity 4.56590366
REMARK minimizedRMSD -1
REMARK  1 active torsions:
REMARK  status: ('A' for Active; 'I' for Inactive)
REMARK    1  A    between atoms: N_2  and  C1_3 
ROOT
ATOM      1  C1  UNL d   1       2.622  -0.262   0.657  0.00  0.00     0.143 A 
ATOM      2  C2  UNL d   1       2.390  -1.297   1.570  0.00  0.00    -0.057 A 
ATOM      3  C3  UNL d   1       1.808  -2.505   1.166  0.00  0.00     0.033 A 
ATOM      4  C4  UNL d   1       1.419  -2.688  -0.157  0.00  0.00    -0.042 A 
ATOM      5  C5  UNL d   1       1.616  -1.664  -1.076  0.00  0.00     0.033 A 
ATOM      6  C6  UNL d   1       2.205  -0.463  -0.668  0.00  0.00    -0.057 A 
ENDROOT
BRANCH   1   7
ATOM      7  N   UNL d   1       3.106   0.998   1.017  0.00  0.00    -0.732 N 
ATOM      8  C   UNL d   1       2.203   2.031   1.476  0.00  0.00     0.284 C 
ATOM      9  H3  UNL d   1       3.977   0.944   1.540  0.00  0.00     0.395 HD
ENDBRANCH   1   7
TORSDOF 1
ENDMDL
