MODEL 1
REMARK minimizedAffinity 8.29240417
REMARK minimizedRMSD -1
REMARK  1 active torsions:
REMARK  status: ('A' for Active; 'I' for Inactive)
REMARK    1  A    between atoms: N_2  and  C1_3 
ROOT
ATOM      1  C1  UNL d   1       3.592  -0.957   1.263  0.00  0.00     0.143 A 
ATOM      2  C2  UNL d   1       2.826   0.113   1.737  0.00  0.00    -0.057 A 
ATOM      3  C3  UNL d   1       1.745   0.614   1.003  0.00  0.00     0.033 A 
ATOM      4  C4  UNL d   1       1.427   0.069  -0.237  0.00  0.00    -0.042 A 
ATOM      5  C5  UNL d   1       2.190  -0.979  -0.740  0.00  0.00     0.033 A 
ATOM      6  C6  UNL d   1       3.265  -1.479   0.002  0.00  0.00    -0.057 A 
ENDROOT
BRANCH   1   7
ATOM      7  N   UNL d   1       4.740  -1.435   1.901  0.00  0.00    -0.732 N 
ATOM      8  C   UNL d   1       5.988  -0.708   1.814  0.00  0.00     0.284 C 
ATOM      9  H3  UNL d   1       4.542  -1.813   2.824  0.00  0.00     0.395 HD
ENDBRANCH   1   7
TORSDOF 1
ENDMDL
