MODEL 1
REMARK minimizedAffinity 15.6476345
REMARK minimizedRMSD -1
REMARK  1 active torsions:
REMARK  status: ('A' for Active; 'I' for Inactive)
REMARK    1  A    between atoms: N_2  and  C1_3 
ROOT
ATOM      1  C1  UNL d   1      -3.467   0.760  -4.203  0.00  0.00     0.143 A 
ATOM      2  C2  UNL d   1      -4.576   0.052  -3.726  0.00  0.00    -0.057 A 
ATOM      3  C3  UNL d   1      -5.810   0.105  -4.386  0.00  0.00     0.033 A 
ATOM      4  C4  UNL d   1      -5.964   0.892  -5.522  0.00  0.00    -0.042 A 
ATOM      5  C5  UNL d   1      -4.883   1.624  -6.000  0.00  0.00     0.033 A 
ATOM      6  C6  UNL d   1      -3.651   1.562  -5.340  0.00  0.00    -0.057 A 
ENDROOT
BRANCH   1   7
ATOM      7  N   UNL d   1      -2.241   0.826  -3.536  0.00  0.00    -0.732 N 
ATOM      8  C   UNL d   1      -2.178   0.706  -2.095  0.00  0.00     0.284 C 
ATOM      9  H3  UNL d   1      -1.504   0.326  -4.028  0.00  0.00     0.395 HD
ENDBRANCH   1   7
TORSDOF 1
ENDMDL
