MODEL 1
REMARK minimizedAffinity 2.58643126
REMARK minimizedRMSD -1
REMARK  0 active torsions:
REMARK  status: ('A' for Active; 'I' for Inactive)
ROOT
ATOM      1  C4' PXY d   1       3.515  -5.027   5.295  0.00  0.00     0.077 C 
ATOM      2  C1' PXY d   1       1.216  -0.919   1.940  0.00  0.00     0.077 C 
ATOM      3  C1  PXY d   1       1.811  -2.005   2.815  0.00  0.00    -0.082 A 
ATOM      4  C2  PXY d   1       2.470  -1.672   3.913  0.00  0.00     0.003 A 
ATOM      5  C3  PXY d   1       3.041  -2.640   4.699  0.00  0.00     0.003 A 
ATOM      6  C4  PXY d   1       2.891  -3.964   4.386  0.00  0.00    -0.082 A 
ATOM      7  C5  PXY d   1       2.211  -4.312   3.273  0.00  0.00     0.003 A 
ATOM      8  C6  PXY d   1       1.674  -3.313   2.467  0.00  0.00     0.003 A 
ENDROOT
TORSDOF 0
ENDMDL
