MODEL 1
REMARK minimizedAffinity -0.300555497
REMARK minimizedRMSD -1
REMARK  0 active torsions:
REMARK  status: ('A' for Active; 'I' for Inactive)
ROOT
ATOM      1  C4' PXY d   1       1.136  -5.199   6.000  0.00  0.00     0.077 C 
ATOM      2  C1' PXY d   1       2.214  -0.825   2.377  0.00  0.00     0.077 C 
ATOM      3  C1  PXY d   1       1.944  -1.971   3.332  0.00  0.00    -0.082 A 
ATOM      4  C2  PXY d   1       0.999  -2.852   3.045  0.00  0.00     0.003 A 
ATOM      5  C3  PXY d   1       0.720  -3.876   3.913  0.00  0.00     0.003 A 
ATOM      6  C4  PXY d   1       1.450  -4.031   5.061  0.00  0.00    -0.082 A 
ATOM      7  C5  PXY d   1       2.423  -3.142   5.355  0.00  0.00     0.003 A 
ATOM      8  C6  PXY d   1       2.663  -2.086   4.481  0.00  0.00     0.003 A 
ENDROOT
TORSDOF 0
ENDMDL
