MODEL 1
REMARK minimizedAffinity 5.84995985
REMARK minimizedRMSD -1
REMARK  0 active torsions:
REMARK  status: ('A' for Active; 'I' for Inactive)
ROOT
ATOM      1  C4' PXY d   1       4.319  -5.970  -0.251  0.00  0.00     0.077 C 
ATOM      2  C1' PXY d   1       2.164  -6.000  -5.614  0.00  0.00     0.077 C 
ATOM      3  C1  PXY d   1       2.718  -5.987  -4.203  0.00  0.00    -0.082 A 
ATOM      4  C2  PXY d   1       4.027  -5.971  -4.015  0.00  0.00     0.003 A 
ATOM      5  C3  PXY d   1       4.546  -5.992  -2.746  0.00  0.00     0.003 A 
ATOM      6  C4  PXY d   1       3.715  -5.974  -1.658  0.00  0.00    -0.082 A 
ATOM      7  C5  PXY d   1       2.378  -5.979  -1.842  0.00  0.00     0.003 A 
ATOM      8  C6  PXY d   1       1.871  -6.000  -3.138  0.00  0.00     0.003 A 
ENDROOT
TORSDOF 0
ENDMDL
