MODEL 1
REMARK minimizedAffinity -3.26562262
REMARK minimizedRMSD -1
REMARK  0 active torsions:
REMARK  status: ('A' for Active; 'I' for Inactive)
ROOT
ATOM      1  C4' PXY d   1       2.043  -5.991  -0.404  0.00  0.00     0.077 C 
ATOM      2  C1' PXY d   1       3.582  -5.976  -5.976  0.00  0.00     0.077 C 
ATOM      3  C1  PXY d   1       3.167  -5.975  -4.518  0.00  0.00    -0.082 A 
ATOM      4  C2  PXY d   1       4.094  -5.962  -3.574  0.00  0.00     0.003 A 
ATOM      5  C3  PXY d   1       3.737  -5.993  -2.251  0.00  0.00     0.003 A 
ATOM      6  C4  PXY d   1       2.416  -5.983  -1.889  0.00  0.00    -0.082 A 
ATOM      7  C5  PXY d   1       1.464  -5.986  -2.846  0.00  0.00     0.003 A 
ATOM      8  C6  PXY d   1       1.848  -5.996  -4.184  0.00  0.00     0.003 A 
ENDROOT
TORSDOF 0
ENDMDL
