MODEL 1
REMARK minimizedAffinity 9.49995327
REMARK minimizedRMSD -1
REMARK  0 active torsions:
REMARK  status: ('A' for Active; 'I' for Inactive)
ROOT
ATOM      1  C4' PXY d   1       2.359  -0.144   2.563  0.00  0.00     0.077 C 
ATOM      2  C1' PXY d   1       2.450   4.393  -1.018  0.00  0.00     0.077 C 
ATOM      3  C1  PXY d   1       2.435   3.197  -0.087  0.00  0.00    -0.082 A 
ATOM      4  C2  PXY d   1       1.415   3.023   0.738  0.00  0.00     0.003 A 
ATOM      5  C3  PXY d   1       1.399   1.965   1.609  0.00  0.00     0.003 A 
ATOM      6  C4  PXY d   1       2.413   1.044   1.599  0.00  0.00    -0.082 A 
ATOM      7  C5  PXY d   1       3.452   1.208   0.753  0.00  0.00     0.003 A 
ATOM      8  C6  PXY d   1       3.469   2.312  -0.095  0.00  0.00     0.003 A 
ENDROOT
TORSDOF 0
ENDMDL
