MODEL 1
REMARK minimizedAffinity 10.166049
REMARK minimizedRMSD -1
REMARK  0 active torsions:
REMARK  status: ('A' for Active; 'I' for Inactive)
ROOT
ATOM      1  C4' PXY d   1       0.684   5.296  -1.343  0.00  0.00     0.077 C 
ATOM      2  C1' PXY d   1       3.069   0.805   1.407  0.00  0.00     0.077 C 
ATOM      3  C1  PXY d   1       2.455   1.988   0.683  0.00  0.00    -0.082 A 
ATOM      4  C2  PXY d   1       1.221   2.364   0.974  0.00  0.00     0.003 A 
ATOM      5  C3  PXY d   1       0.639   3.411   0.306  0.00  0.00     0.003 A 
ATOM      6  C4  PXY d   1       1.348   4.114  -0.631  0.00  0.00    -0.082 A 
ATOM      7  C5  PXY d   1       2.612   3.743  -0.925  0.00  0.00     0.003 A 
ATOM      8  C6  PXY d   1       3.169   2.652  -0.266  0.00  0.00     0.003 A 
ENDROOT
TORSDOF 0
ENDMDL
