MODEL 1
REMARK minimizedAffinity 4.50462961
REMARK minimizedRMSD -1
REMARK  0 active torsions:
REMARK  status: ('A' for Active; 'I' for Inactive)
ROOT
ATOM      1  C4' PXY d   1      -2.528   2.751  -0.752  0.00  0.00     0.077 C 
ATOM      2  C1' PXY d   1      -3.850  -1.686  -4.213  0.00  0.00     0.077 C 
ATOM      3  C1  PXY d   1      -3.500  -0.531  -3.296  0.00  0.00    -0.082 A 
ATOM      4  C2  PXY d   1      -4.039   0.659  -3.507  0.00  0.00     0.003 A 
ATOM      5  C3  PXY d   1      -3.709   1.722  -2.707  0.00  0.00     0.003 A 
ATOM      6  C4  PXY d   1      -2.859   1.554  -1.647  0.00  0.00    -0.082 A 
ATOM      7  C5  PXY d   1      -2.313   0.340  -1.418  0.00  0.00     0.003 A 
ATOM      8  C6  PXY d   1      -2.629  -0.716  -2.267  0.00  0.00     0.003 A 
ENDROOT
TORSDOF 0
ENDMDL
