MODEL 1
REMARK minimizedAffinity 2.27236652
REMARK minimizedRMSD -1
REMARK  0 active torsions:
REMARK  status: ('A' for Active; 'I' for Inactive)
ROOT
ATOM      1  C4' PXY d   1       1.997  -5.449   5.453  0.00  0.00     0.077 C 
ATOM      2  C1' PXY d   1       1.961  -0.852   1.949  0.00  0.00     0.077 C 
ATOM      3  C1  PXY d   1       1.958  -2.056   2.871  0.00  0.00    -0.082 A 
ATOM      4  C2  PXY d   1       3.090  -2.459   3.424  0.00  0.00     0.003 A 
ATOM      5  C3  PXY d   1       3.111  -3.565   4.234  0.00  0.00     0.003 A 
ATOM      6  C4  PXY d   1       1.951  -4.233   4.524  0.00  0.00    -0.082 A 
ATOM      7  C5  PXY d   1       0.790  -3.821   3.972  0.00  0.00     0.003 A 
ATOM      8  C6  PXY d   1       0.798  -2.721   3.119  0.00  0.00     0.003 A 
ENDROOT
TORSDOF 0
ENDMDL
