MODEL 1
REMARK minimizedAffinity 9.60475445
REMARK minimizedRMSD -1
REMARK  0 active torsions:
REMARK  status: ('A' for Active; 'I' for Inactive)
ROOT
ATOM      1  C4' PXY d   1       2.312  -5.591   3.720  0.00  0.00     0.077 C 
ATOM      2  C1' PXY d   1       2.488   0.060   2.514  0.00  0.00     0.077 C 
ATOM      3  C1  PXY d   1       2.430  -1.422   2.825  0.00  0.00    -0.082 A 
ATOM      4  C2  PXY d   1       3.212  -1.924   3.767  0.00  0.00     0.003 A 
ATOM      5  C3  PXY d   1       3.195  -3.268   4.039  0.00  0.00     0.003 A 
ATOM      6  C4  PXY d   1       2.330  -4.098   3.378  0.00  0.00    -0.082 A 
ATOM      7  C5  PXY d   1       1.521  -3.592   2.424  0.00  0.00     0.003 A 
ATOM      8  C6  PXY d   1       1.583  -2.232   2.133  0.00  0.00     0.003 A 
ENDROOT
TORSDOF 0
ENDMDL
