MODEL 1
REMARK minimizedAffinity 2.63890386
REMARK minimizedRMSD -1
REMARK  0 active torsions:
REMARK  status: ('A' for Active; 'I' for Inactive)
ROOT
ATOM      1  C4' PXY d   1       4.859  -5.614  -0.506  0.00  0.00     0.077 C 
ATOM      2  C1' PXY d   1       3.104  -6.000  -6.000  0.00  0.00     0.077 C 
ATOM      3  C1  PXY d   1       3.576  -5.903  -4.562  0.00  0.00    -0.082 A 
ATOM      4  C2  PXY d   1       2.694  -5.968  -3.578  0.00  0.00     0.003 A 
ATOM      5  C3  PXY d   1       3.100  -5.850  -2.274  0.00  0.00     0.003 A 
ATOM      6  C4  PXY d   1       4.429  -5.717  -1.971  0.00  0.00    -0.082 A 
ATOM      7  C5  PXY d   1       5.336  -5.660  -2.969  0.00  0.00     0.003 A 
ATOM      8  C6  PXY d   1       4.899  -5.741  -4.288  0.00  0.00     0.003 A 
ENDROOT
TORSDOF 0
ENDMDL
