MODEL 1
REMARK minimizedAffinity 6.61783218
REMARK minimizedRMSD -1
REMARK  0 active torsions:
REMARK  status: ('A' for Active; 'I' for Inactive)
ROOT
ATOM      1  C4' PXY d   1       2.993   2.899   2.976  0.00  0.00     0.077 C 
ATOM      2  C1' PXY d   1       1.548  -2.694   2.772  0.00  0.00     0.077 C 
ATOM      3  C1  PXY d   1       1.934  -1.229   2.815  0.00  0.00    -0.082 A 
ATOM      4  C2  PXY d   1       1.876  -0.570   3.961  0.00  0.00     0.003 A 
ATOM      5  C3  PXY d   1       2.191   0.764   4.011  0.00  0.00     0.003 A 
ATOM      6  C4  PXY d   1       2.621   1.417   2.888  0.00  0.00    -0.082 A 
ATOM      7  C5  PXY d   1       2.694   0.749   1.717  0.00  0.00     0.003 A 
ATOM      8  C6  PXY d   1       2.330  -0.594   1.678  0.00  0.00     0.003 A 
ENDROOT
TORSDOF 0
ENDMDL
