MODEL 1
REMARK minimizedAffinity 3.25322819
REMARK minimizedRMSD -1
REMARK  0 active torsions:
REMARK  status: ('A' for Active; 'I' for Inactive)
ROOT
ATOM      1  N1  IND d   1       4.569  -0.368   1.643  0.00  0.00    -0.196 N 
ATOM      2  C2  IND d   1       4.781  -0.902   2.884  0.00  0.00     0.054 A 
ATOM      3  C3  IND d   1       3.610  -1.298   3.431  0.00  0.00    -0.031 A 
ATOM      4  C4  IND d   1       1.240  -1.261   2.428  0.00  0.00     0.051 A 
ATOM      5  C5  IND d   1       0.539  -0.832   1.336  0.00  0.00    -0.031 A 
ATOM      6  C6  IND d   1       1.159  -0.217   0.267  0.00  0.00     0.015 A 
ATOM      7  C7  IND d   1       2.510  -0.017   0.246  0.00  0.00    -0.016 A 
ATOM      8  C8  IND d   1       3.224  -0.445   1.357  0.00  0.00    -0.047 A 
ATOM      9  C9  IND d   1       2.595  -1.031   2.463  0.00  0.00    -0.096 A 
ATOM     10  HN1 IND d   1       5.175  -0.040   1.128  0.00  0.00     0.298 HD
ENDROOT
TORSDOF 0
ENDMDL
