MODEL 1
REMARK minimizedAffinity 2.6518991
REMARK minimizedRMSD -1
REMARK  0 active torsions:
REMARK  status: ('A' for Active; 'I' for Inactive)
ROOT
ATOM      1  N1  IND d   1      -2.091   3.319  -5.117  0.00  0.00    -0.196 N 
ATOM      2  C2  IND d   1      -0.796   3.634  -4.815  0.00  0.00     0.054 A 
ATOM      3  C3  IND d   1      -0.370   2.909  -3.757  0.00  0.00    -0.031 A 
ATOM      4  C4  IND d   1      -1.596   1.074  -2.431  0.00  0.00     0.051 A 
ATOM      5  C5  IND d   1      -2.812   0.461  -2.313  0.00  0.00    -0.031 A 
ATOM      6  C6  IND d   1      -3.870   0.774  -3.141  0.00  0.00     0.015 A 
ATOM      7  C7  IND d   1      -3.748   1.707  -4.131  0.00  0.00    -0.016 A 
ATOM      8  C8  IND d   1      -2.517   2.337  -4.250  0.00  0.00    -0.047 A 
ATOM      9  C9  IND d   1      -1.452   2.054  -3.385  0.00  0.00    -0.096 A 
ATOM     10  HN1 IND d   1      -2.561   3.674  -5.744  0.00  0.00     0.298 HD
ENDROOT
TORSDOF 0
ENDMDL
