MODEL 1
REMARK minimizedAffinity -3.89370608
REMARK minimizedRMSD -1
REMARK  0 active torsions:
REMARK  status: ('A' for Active; 'I' for Inactive)
ROOT
ATOM      1  N1  IND d   1       0.587  -5.739  -6.000  0.00  0.00    -0.196 N 
ATOM      2  C2  IND d   1       1.859  -5.650  -5.505  0.00  0.00     0.054 A 
ATOM      3  C3  IND d   1       1.839  -5.662  -4.154  0.00  0.00    -0.031 A 
ATOM      4  C4  IND d   1      -0.157  -5.923  -2.549  0.00  0.00     0.051 A 
ATOM      5  C5  IND d   1      -1.521  -6.000  -2.530  0.00  0.00    -0.031 A 
ATOM      6  C6  IND d   1      -2.267  -5.997  -3.691  0.00  0.00     0.015 A 
ATOM      7  C7  IND d   1      -1.673  -5.927  -4.919  0.00  0.00    -0.016 A 
ATOM      8  C8  IND d   1      -0.289  -5.842  -4.942  0.00  0.00    -0.047 A 
ATOM      9  C9  IND d   1       0.472  -5.801  -3.766  0.00  0.00    -0.096 A 
ATOM     10  HN1 IND d   1       0.371  -5.731  -6.832  0.00  0.00     0.298 HD
ENDROOT
TORSDOF 0
ENDMDL
