MODEL 1
REMARK minimizedAffinity -1.57705593
REMARK minimizedRMSD -1
REMARK  0 active torsions:
REMARK  status: ('A' for Active; 'I' for Inactive)
ROOT
ATOM      1  N1  IND d   1       0.487  -0.080   0.750  0.00  0.00    -0.196 N 
ATOM      2  C2  IND d   1       1.207  -0.049  -0.412  0.00  0.00     0.054 A 
ATOM      3  C3  IND d   1       2.499  -0.366  -0.172  0.00  0.00    -0.031 A 
ATOM      4  C4  IND d   1       3.629  -1.069   2.032  0.00  0.00     0.051 A 
ATOM      5  C5  IND d   1       3.388  -1.208   3.369  0.00  0.00    -0.031 A 
ATOM      6  C6  IND d   1       2.141  -0.977   3.913  0.00  0.00     0.015 A 
ATOM      7  C7  IND d   1       1.081  -0.606   3.134  0.00  0.00    -0.016 A 
ATOM      8  C8  IND d   1       1.325  -0.457   1.776  0.00  0.00    -0.047 A 
ATOM      9  C9  IND d   1       2.598  -0.649   1.225  0.00  0.00    -0.096 A 
ATOM     10  HN1 IND d   1      -0.350   0.105   0.826  0.00  0.00     0.298 HD
ENDROOT
TORSDOF 0
ENDMDL
