MODEL 1
REMARK minimizedAffinity 0.390330464
REMARK minimizedRMSD -1
REMARK  0 active torsions:
REMARK  status: ('A' for Active; 'I' for Inactive)
ROOT
ATOM      1  N1  IND d   1       0.314   1.124   0.403  0.00  0.00    -0.196 N 
ATOM      2  C2  IND d   1       1.425   0.396   0.082  0.00  0.00     0.054 A 
ATOM      3  C3  IND d   1       1.126  -0.922   0.030  0.00  0.00    -0.031 A 
ATOM      4  C4  IND d   1      -1.144  -2.097   0.336  0.00  0.00     0.051 A 
ATOM      5  C5  IND d   1      -2.444  -1.855   0.679  0.00  0.00    -0.031 A 
ATOM      6  C6  IND d   1      -2.902  -0.581   0.950  0.00  0.00     0.015 A 
ATOM      7  C7  IND d   1      -2.075   0.504   0.877  0.00  0.00    -0.016 A 
ATOM      8  C8  IND d   1      -0.752   0.261   0.536  0.00  0.00    -0.047 A 
ATOM      9  C9  IND d   1      -0.272  -1.034   0.302  0.00  0.00    -0.096 A 
ATOM     10  HN1 IND d   1       0.285   1.977   0.505  0.00  0.00     0.298 HD
ENDROOT
TORSDOF 0
ENDMDL
