MODEL 1
REMARK minimizedAffinity -3.65471363
REMARK minimizedRMSD -1
REMARK  0 active torsions:
REMARK  status: ('A' for Active; 'I' for Inactive)
ROOT
ATOM      1  N1  IND d   1       0.494   0.446   1.237  0.00  0.00    -0.196 N 
ATOM      2  C2  IND d   1       1.068   0.591   0.005  0.00  0.00     0.054 A 
ATOM      3  C3  IND d   1       2.044  -0.327  -0.170  0.00  0.00    -0.031 A 
ATOM      4  C4  IND d   1       2.802  -2.228   1.392  0.00  0.00     0.051 A 
ATOM      5  C5  IND d   1       2.600  -2.739   2.643  0.00  0.00    -0.031 A 
ATOM      6  C6  IND d   1       1.664  -2.205   3.506  0.00  0.00     0.015 A 
ATOM      7  C7  IND d   1       0.885  -1.143   3.144  0.00  0.00    -0.016 A 
ATOM      8  C8  IND d   1       1.093  -0.617   1.877  0.00  0.00    -0.047 A 
ATOM      9  C9  IND d   1       2.070  -1.127   1.013  0.00  0.00    -0.096 A 
ATOM     10  HN1 IND d   1      -0.135   0.936   1.559  0.00  0.00     0.298 HD
ENDROOT
TORSDOF 0
ENDMDL
