MODEL 1
REMARK minimizedAffinity 8.58180237
REMARK minimizedRMSD -1
REMARK  0 active torsions:
REMARK  status: ('A' for Active; 'I' for Inactive)
ROOT
ATOM      1  N1  IND d   1       0.377   0.576   0.466  0.00  0.00    -0.196 N 
ATOM      2  C2  IND d   1       1.609   0.013   0.288  0.00  0.00     0.054 A 
ATOM      3  C3  IND d   1       1.495  -1.323   0.112  0.00  0.00    -0.031 A 
ATOM      4  C4  IND d   1      -0.623  -2.779  -0.022  0.00  0.00     0.051 A 
ATOM      5  C5  IND d   1      -1.982  -2.721   0.119  0.00  0.00    -0.031 A 
ATOM      6  C6  IND d   1      -2.637  -1.536   0.386  0.00  0.00     0.015 A 
ATOM      7  C7  IND d   1      -1.956  -0.358   0.511  0.00  0.00    -0.016 A 
ATOM      8  C8  IND d   1      -0.576  -0.415   0.375  0.00  0.00    -0.047 A 
ATOM      9  C9  IND d   1       0.098  -1.621   0.147  0.00  0.00    -0.096 A 
ATOM     10  HN1 IND d   1       0.222   1.410   0.611  0.00  0.00     0.298 HD
ENDROOT
TORSDOF 0
ENDMDL
