MODEL 1
REMARK minimizedAffinity -0.267672926
REMARK minimizedRMSD -1
REMARK  0 active torsions:
REMARK  status: ('A' for Active; 'I' for Inactive)
ROOT
ATOM      1  N1  IND d   1      -2.214  -5.254  -2.666  0.00  0.00    -0.196 N 
ATOM      2  C2  IND d   1      -3.413  -5.693  -3.156  0.00  0.00     0.054 A 
ATOM      3  C3  IND d   1      -3.301  -6.000  -4.468  0.00  0.00    -0.031 A 
ATOM      4  C4  IND d   1      -1.224  -5.954  -5.987  0.00  0.00     0.051 A 
ATOM      5  C5  IND d   1       0.094  -5.590  -6.000  0.00  0.00    -0.031 A 
ATOM      6  C6  IND d   1       0.722  -5.087  -4.879  0.00  0.00     0.015 A 
ATOM      7  C7  IND d   1       0.057  -4.940  -3.695  0.00  0.00    -0.016 A 
ATOM      8  C8  IND d   1      -1.283  -5.303  -3.680  0.00  0.00    -0.047 A 
ATOM      9  C9  IND d   1      -1.937  -5.774  -4.825  0.00  0.00    -0.096 A 
ATOM     10  HN1 IND d   1      -2.067  -4.992  -1.861  0.00  0.00     0.298 HD
ENDROOT
TORSDOF 0
ENDMDL
