MODEL 1
REMARK minimizedAffinity -3.28839779
REMARK minimizedRMSD -1
REMARK  0 active torsions:
REMARK  status: ('A' for Active; 'I' for Inactive)
ROOT
ATOM      1  N1  IND d   1      -3.085  -6.000  -2.979  0.00  0.00    -0.196 N 
ATOM      2  C2  IND d   1      -2.489  -5.954  -1.749  0.00  0.00     0.054 A 
ATOM      3  C3  IND d   1      -1.183  -5.626  -1.871  0.00  0.00    -0.031 A 
ATOM      4  C4  IND d   1       0.161  -5.021  -3.982  0.00  0.00     0.051 A 
ATOM      5  C5  IND d   1       0.059  -4.959  -5.343  0.00  0.00    -0.031 A 
ATOM      6  C6  IND d   1      -1.121  -5.243  -5.999  0.00  0.00     0.015 A 
ATOM      7  C7  IND d   1      -2.251  -5.591  -5.314  0.00  0.00    -0.016 A 
ATOM      8  C8  IND d   1      -2.149  -5.663  -3.932  0.00  0.00    -0.047 A 
ATOM      9  C9  IND d   1      -0.943  -5.417  -3.264  0.00  0.00    -0.096 A 
ATOM     10  HN1 IND d   1      -3.906  -6.205  -3.132  0.00  0.00     0.298 HD
ENDROOT
TORSDOF 0
ENDMDL
