MODEL 1
REMARK minimizedAffinity 4.86721754
REMARK minimizedRMSD -1
REMARK  0 active torsions:
REMARK  status: ('A' for Active; 'I' for Inactive)
ROOT
ATOM      1  N1  IND d   1      -3.939   0.374  -2.827  0.00  0.00    -0.196 N 
ATOM      2  C2  IND d   1      -5.102   0.904  -3.311  0.00  0.00     0.054 A 
ATOM      3  C3  IND d   1      -6.000   1.059  -2.312  0.00  0.00    -0.031 A 
ATOM      4  C4  IND d   1      -5.736   0.605   0.209  0.00  0.00     0.051 A 
ATOM      5  C5  IND d   1      -4.866   0.083   1.124  0.00  0.00    -0.031 A 
ATOM      6  C6  IND d   1      -3.615  -0.375   0.762  0.00  0.00     0.015 A 
ATOM      7  C7  IND d   1      -3.183  -0.317  -0.533  0.00  0.00    -0.016 A 
ATOM      8  C8  IND d   1      -4.067   0.205  -1.466  0.00  0.00    -0.047 A 
ATOM      9  C9  IND d   1      -5.353   0.633  -1.112  0.00  0.00    -0.096 A 
ATOM     10  HN1 IND d   1      -3.243   0.180  -3.294  0.00  0.00     0.298 HD
ENDROOT
TORSDOF 0
ENDMDL
