MODEL 1
REMARK minimizedAffinity 1.12698758
REMARK minimizedRMSD -1
REMARK  0 active torsions:
REMARK  status: ('A' for Active; 'I' for Inactive)
ROOT
ATOM      1  N1  IND d   1      -3.835  -5.584  -0.183  0.00  0.00    -0.196 N 
ATOM      2  C2  IND d   1      -2.542  -5.163  -0.037  0.00  0.00     0.054 A 
ATOM      3  C3  IND d   1      -2.269  -4.927   1.266  0.00  0.00    -0.031 A 
ATOM      4  C4  IND d   1      -3.760  -5.263   3.337  0.00  0.00     0.051 A 
ATOM      5  C5  IND d   1      -5.034  -5.596   3.705  0.00  0.00    -0.031 A 
ATOM      6  C6  IND d   1      -5.991  -5.951   2.777  0.00  0.00     0.015 A 
ATOM      7  C7  IND d   1      -5.706  -5.998   1.441  0.00  0.00    -0.016 A 
ATOM      8  C8  IND d   1      -4.416  -5.654   1.064  0.00  0.00    -0.047 A 
ATOM      9  C9  IND d   1      -3.452  -5.252   1.997  0.00  0.00    -0.096 A 
ATOM     10  HN1 IND d   1      -4.220  -5.772  -0.929  0.00  0.00     0.298 HD
ENDROOT
TORSDOF 0
ENDMDL
