MODEL 1
REMARK minimizedAffinity -3.29289532
REMARK minimizedRMSD -1
REMARK  0 active torsions:
REMARK  status: ('A' for Active; 'I' for Inactive)
ROOT
ATOM      1  N1  IND d   1       0.311  -5.436  -4.717  0.00  0.00    -0.196 N 
ATOM      2  C2  IND d   1      -0.150  -5.554  -5.998  0.00  0.00     0.054 A 
ATOM      3  C3  IND d   1      -1.476  -5.816  -5.999  0.00  0.00    -0.031 A 
ATOM      4  C4  IND d   1      -3.109  -5.994  -4.016  0.00  0.00     0.051 A 
ATOM      5  C5  IND d   1      -3.148  -5.997  -2.650  0.00  0.00    -0.031 A 
ATOM      6  C6  IND d   1      -2.014  -5.806  -1.888  0.00  0.00     0.015 A 
ATOM      7  C7  IND d   1      -0.794  -5.593  -2.466  0.00  0.00    -0.016 A 
ATOM      8  C8  IND d   1      -0.749  -5.597  -3.853  0.00  0.00    -0.047 A 
ATOM      9  C9  IND d   1      -1.890  -5.833  -4.631  0.00  0.00    -0.096 A 
ATOM     10  HN1 IND d   1       1.127  -5.287  -4.489  0.00  0.00     0.298 HD
ENDROOT
TORSDOF 0
ENDMDL
