MODEL 1
REMARK minimizedAffinity 0.634240806
REMARK minimizedRMSD -1
REMARK  0 active torsions:
REMARK  status: ('A' for Active; 'I' for Inactive)
ROOT
ATOM      1  N1  IND d   1      -1.907  -5.898  -2.161  0.00  0.00    -0.196 N 
ATOM      2  C2  IND d   1      -3.253  -5.988  -2.376  0.00  0.00     0.054 A 
ATOM      3  C3  IND d   1      -3.518  -6.000  -3.702  0.00  0.00    -0.031 A 
ATOM      4  C4  IND d   1      -1.888  -5.982  -5.695  0.00  0.00     0.051 A 
ATOM      5  C5  IND d   1      -0.561  -5.869  -6.000  0.00  0.00    -0.031 A 
ATOM      6  C6  IND d   1       0.406  -5.760  -5.021  0.00  0.00     0.015 A 
ATOM      7  C7  IND d   1       0.080  -5.772  -3.694  0.00  0.00    -0.016 A 
ATOM      8  C8  IND d   1      -1.267  -5.880  -3.381  0.00  0.00    -0.047 A 
ATOM      9  C9  IND d   1      -2.256  -5.948  -4.371  0.00  0.00    -0.096 A 
ATOM     10  HN1 IND d   1      -1.523  -5.859  -1.392  0.00  0.00     0.298 HD
ENDROOT
TORSDOF 0
ENDMDL
