MODEL 1
REMARK minimizedAffinity 4.67953873
REMARK minimizedRMSD -1
REMARK  0 active torsions:
REMARK  status: ('A' for Active; 'I' for Inactive)
ROOT
ATOM      1  N1  IND d   1      -0.702   2.004  -3.588  0.00  0.00    -0.196 N 
ATOM      2  C2  IND d   1      -0.676   3.326  -3.937  0.00  0.00     0.054 A 
ATOM      3  C3  IND d   1      -0.345   4.088  -2.870  0.00  0.00    -0.031 A 
ATOM      4  C4  IND d   1       0.298   3.369  -0.483  0.00  0.00     0.051 A 
ATOM      5  C5  IND d   1       0.383   2.269   0.324  0.00  0.00    -0.031 A 
ATOM      6  C6  IND d   1       0.109   1.000  -0.141  0.00  0.00     0.015 A 
ATOM      7  C7  IND d   1      -0.252   0.780  -1.440  0.00  0.00    -0.016 A 
ATOM      8  C8  IND d   1      -0.347   1.894  -2.261  0.00  0.00    -0.047 A 
ATOM      9  C9  IND d   1      -0.111   3.190  -1.784  0.00  0.00    -0.096 A 
ATOM     10  HN1 IND d   1      -0.905   1.352  -4.109  0.00  0.00     0.298 HD
ENDROOT
TORSDOF 0
ENDMDL
