MODEL 1
REMARK minimizedAffinity 2.90896726
REMARK minimizedRMSD -1
REMARK  0 active torsions:
REMARK  status: ('A' for Active; 'I' for Inactive)
ROOT
ATOM      1  N1  IND d   1      -1.634  -5.923  -5.991  0.00  0.00    -0.196 N 
ATOM      2  C2  IND d   1      -2.613  -5.956  -5.037  0.00  0.00     0.054 A 
ATOM      3  C3  IND d   1      -2.065  -5.989  -3.802  0.00  0.00    -0.031 A 
ATOM      4  C4  IND d   1       0.412  -5.893  -3.107  0.00  0.00     0.051 A 
ATOM      5  C5  IND d   1       1.676  -5.892  -3.625  0.00  0.00    -0.031 A 
ATOM      6  C6  IND d   1       1.907  -5.899  -4.986  0.00  0.00     0.015 A 
ATOM      7  C7  IND d   1       0.877  -5.895  -5.883  0.00  0.00    -0.016 A 
ATOM      8  C8  IND d   1      -0.409  -5.903  -5.361  0.00  0.00    -0.047 A 
ATOM      9  C9  IND d   1      -0.649  -5.939  -3.981  0.00  0.00    -0.096 A 
ATOM     10  HN1 IND d   1      -1.762  -5.915  -6.841  0.00  0.00     0.298 HD
ENDROOT
TORSDOF 0
ENDMDL
