MODEL 1
REMARK minimizedAffinity -0.253381193
REMARK minimizedRMSD -1
REMARK  0 active torsions:
REMARK  status: ('A' for Active; 'I' for Inactive)
ROOT
ATOM      1  N1  IND d   1      -0.388  -0.238   1.801  0.00  0.00    -0.196 N 
ATOM      2  C2  IND d   1      -0.886   0.170   0.595  0.00  0.00     0.054 A 
ATOM      3  C3  IND d   1       0.064   0.077  -0.362  0.00  0.00    -0.031 A 
ATOM      4  C4  IND d   1       2.474  -0.813  -0.194  0.00  0.00     0.051 A 
ATOM      5  C5  IND d   1       3.395  -1.265   0.709  0.00  0.00    -0.031 A 
ATOM      6  C6  IND d   1       3.095  -1.403   2.049  0.00  0.00     0.015 A 
ATOM      7  C7  IND d   1       1.854  -1.104   2.536  0.00  0.00    -0.016 A 
ATOM      8  C8  IND d   1       0.919  -0.638   1.623  0.00  0.00    -0.047 A 
ATOM      9  C9  IND d   1       1.229  -0.456   0.269  0.00  0.00    -0.096 A 
ATOM     10  HN1 IND d   1      -0.818  -0.244   2.546  0.00  0.00     0.298 HD
ENDROOT
TORSDOF 0
ENDMDL
