MODEL 1
REMARK minimizedAffinity -5.0708003
REMARK minimizedRMSD -1
REMARK  1 active torsions:
REMARK  status: ('A' for Active; 'I' for Inactive)
REMARK    1  A    between atoms: C1_2  and  C2_3 
ROOT
ATOM      1  C2  UNL d   1       0.387  -0.856  -0.665  0.00  0.00    -0.076 A 
ATOM      2  C3  UNL d   1       0.004  -0.228  -1.862  0.00  0.00     0.004 A 
ATOM      3  C4  UNL d   1      -0.243   1.143  -1.906  0.00  0.00    -0.003 A 
ATOM      4  C5  UNL d   1      -0.111   1.908  -0.752  0.00  0.00     0.000 A 
ATOM      5  C6  UNL d   1       0.285   1.304   0.441  0.00  0.00     0.000 A 
ATOM      6  C7  UNL d   1       0.554  -0.074   0.498  0.00  0.00    -0.073 A 
ATOM      7  C8  UNL d   1       0.972  -0.674   1.812  0.00  0.00     0.078 C 
ENDROOT
BRANCH   1   8
ATOM      8  C1  UNL d   1       0.615  -2.351  -0.673  0.00  0.00     0.053 C 
ATOM      9  C   UNL d   1      -0.541  -3.114  -1.300  0.00  0.00     0.018 C 
ENDBRANCH   1   8
TORSDOF 1
ENDMDL
