MODEL 1
REMARK minimizedAffinity -2.13504243
REMARK minimizedRMSD -1
REMARK  1 active torsions:
REMARK  status: ('A' for Active; 'I' for Inactive)
REMARK    1  A    between atoms: C1_2  and  C2_3 
ROOT
ATOM      1  C2  UNL d   1      -0.126   0.250  -0.294  0.00  0.00    -0.076 A 
ATOM      2  C3  UNL d   1       0.170  -0.267   0.979  0.00  0.00     0.004 A 
ATOM      3  C4  UNL d   1       0.018   0.513   2.124  0.00  0.00    -0.003 A 
ATOM      4  C5  UNL d   1      -0.433   1.824   2.015  0.00  0.00     0.000 A 
ATOM      5  C6  UNL d   1      -0.748   2.348   0.762  0.00  0.00     0.000 A 
ATOM      6  C7  UNL d   1      -0.616   1.569  -0.401  0.00  0.00    -0.073 A 
ATOM      7  C8  UNL d   1      -0.965   2.188  -1.727  0.00  0.00     0.078 C 
ENDROOT
BRANCH   1   8
ATOM      8  C1  UNL d   1       0.084  -0.634  -1.502  0.00  0.00     0.053 C 
ATOM      9  C   UNL d   1       0.028  -2.114  -1.158  0.00  0.00     0.018 C 
ENDBRANCH   1   8
TORSDOF 1
ENDMDL
