MODEL 1
REMARK minimizedAffinity -1.81849301
REMARK minimizedRMSD -1
REMARK  1 active torsions:
REMARK  status: ('A' for Active; 'I' for Inactive)
REMARK    1  A    between atoms: C1_2  and  C2_3 
ROOT
ATOM      1  C2  UNL d   1       0.017   0.556   0.752  0.00  0.00    -0.076 A 
ATOM      2  C3  UNL d   1      -0.091   0.624  -0.648  0.00  0.00     0.004 A 
ATOM      3  C4  UNL d   1       0.218  -0.477  -1.446  0.00  0.00    -0.003 A 
ATOM      4  C5  UNL d   1       0.640  -1.663  -0.856  0.00  0.00     0.000 A 
ATOM      5  C6  UNL d   1       0.736  -1.754   0.532  0.00  0.00     0.000 A 
ATOM      6  C7  UNL d   1       0.412  -0.659   1.352  0.00  0.00    -0.073 A 
ATOM      7  C8  UNL d   1       0.540  -0.810   2.843  0.00  0.00     0.078 C 
ENDROOT
BRANCH   1   8
ATOM      8  C1  UNL d   1      -0.306   1.790   1.564  0.00  0.00     0.053 C 
ATOM      9  C   UNL d   1      -0.522   3.019   0.694  0.00  0.00     0.018 C 
ENDBRANCH   1   8
TORSDOF 1
ENDMDL
