MODEL 1
REMARK minimizedAffinity -5.05114555
REMARK minimizedRMSD -1
REMARK  1 active torsions:
REMARK  status: ('A' for Active; 'I' for Inactive)
REMARK    1  A    between atoms: C1_2  and  C2_3 
ROOT
ATOM      1  C2  UNL d   1      -0.050   0.319  -0.056  0.00  0.00    -0.076 A 
ATOM      2  C3  UNL d   1      -0.447   1.290  -0.991  0.00  0.00     0.004 A 
ATOM      3  C4  UNL d   1      -1.029   2.488  -0.578  0.00  0.00    -0.003 A 
ATOM      4  C5  UNL d   1      -1.221   2.735   0.777  0.00  0.00     0.000 A 
ATOM      5  C6  UNL d   1      -0.816   1.790   1.719  0.00  0.00     0.000 A 
ATOM      6  C7  UNL d   1      -0.214   0.584   1.321  0.00  0.00    -0.073 A 
ATOM      7  C8  UNL d   1       0.198  -0.401   2.380  0.00  0.00     0.078 C 
ENDROOT
BRANCH   1   8
ATOM      8  C1  UNL d   1       0.550  -0.972  -0.563  0.00  0.00     0.053 C 
ATOM      9  C   UNL d   1      -0.506  -2.018  -0.887  0.00  0.00     0.018 C 
ENDBRANCH   1   8
TORSDOF 1
ENDMDL
