MODEL 1
REMARK minimizedAffinity -4.67155886
REMARK minimizedRMSD -1
REMARK  1 active torsions:
REMARK  status: ('A' for Active; 'I' for Inactive)
REMARK    1  A    between atoms: C1_2  and  C2_3 
ROOT
ATOM      1  C2  UNL d   1      -0.498   1.477   0.777  0.00  0.00    -0.076 A 
ATOM      2  C3  UNL d   1      -0.210   0.686  -0.349  0.00  0.00     0.004 A 
ATOM      3  C4  UNL d   1      -0.555   1.111  -1.631  0.00  0.00    -0.003 A 
ATOM      4  C5  UNL d   1      -1.193   2.334  -1.807  0.00  0.00     0.000 A 
ATOM      5  C6  UNL d   1      -1.470   3.139  -0.703  0.00  0.00     0.000 A 
ATOM      6  C7  UNL d   1      -1.114   2.733   0.594  0.00  0.00    -0.073 A 
ATOM      7  C8  UNL d   1      -1.443   3.638   1.750  0.00  0.00     0.078 C 
ENDROOT
BRANCH   1   8
ATOM      8  C1  UNL d   1      -0.124   0.952   2.145  0.00  0.00     0.053 C 
ATOM      9  C   UNL d   1       0.941  -0.132   2.083  0.00  0.00     0.018 C 
ENDBRANCH   1   8
TORSDOF 1
ENDMDL
