MODEL 1
REMARK minimizedAffinity 5.9648819
REMARK minimizedRMSD -1
REMARK  1 active torsions:
REMARK  status: ('A' for Active; 'I' for Inactive)
REMARK    1  A    between atoms: C1_2  and  C2_3 
ROOT
ATOM      1  C2  UNL d   1      -3.682   0.968  -1.760  0.00  0.00    -0.076 A 
ATOM      2  C3  UNL d   1      -2.560   1.437  -1.055  0.00  0.00     0.004 A 
ATOM      3  C4  UNL d   1      -1.355   0.738  -1.078  0.00  0.00    -0.003 A 
ATOM      4  C5  UNL d   1      -1.251  -0.442  -1.807  0.00  0.00     0.000 A 
ATOM      5  C6  UNL d   1      -2.349  -0.913  -2.526  0.00  0.00     0.000 A 
ATOM      6  C7  UNL d   1      -3.567  -0.211  -2.526  0.00  0.00    -0.073 A 
ATOM      7  C8  UNL d   1      -4.721  -0.768  -3.315  0.00  0.00     0.078 C 
ENDROOT
BRANCH   1   8
ATOM      8  C1  UNL d   1      -4.971   1.754  -1.676  0.00  0.00     0.053 C 
ATOM      9  C   UNL d   1      -4.940   3.017  -2.522  0.00  0.00     0.018 C 
ENDBRANCH   1   8
TORSDOF 1
ENDMDL
