MODEL 1
REMARK minimizedAffinity 4.60432577
REMARK minimizedRMSD -1
REMARK  1 active torsions:
REMARK  status: ('A' for Active; 'I' for Inactive)
REMARK    1  A    between atoms: C1_2  and  C2_3 
ROOT
ATOM      1  C2  UNL d   1       0.071   1.204   1.764  0.00  0.00    -0.076 A 
ATOM      2  C3  UNL d   1       0.201   2.266   2.676  0.00  0.00     0.004 A 
ATOM      3  C4  UNL d   1       0.377   3.576   2.231  0.00  0.00    -0.003 A 
ATOM      4  C5  UNL d   1       0.425   3.844   0.868  0.00  0.00     0.000 A 
ATOM      5  C6  UNL d   1       0.280   2.805  -0.051  0.00  0.00     0.000 A 
ATOM      6  C7  UNL d   1       0.085   1.482   0.380  0.00  0.00    -0.073 A 
ATOM      7  C8  UNL d   1      -0.059   0.400  -0.654  0.00  0.00     0.078 C 
ENDROOT
BRANCH   1   8
ATOM      8  C1  UNL d   1      -0.090  -0.199   2.304  0.00  0.00     0.053 C 
ATOM      9  C   UNL d   1       1.243  -0.854   2.632  0.00  0.00     0.018 C 
ENDBRANCH   1   8
TORSDOF 1
ENDMDL
