MODEL 1
REMARK minimizedAffinity 6.24228811
REMARK minimizedRMSD -1
REMARK  1 active torsions:
REMARK  status: ('A' for Active; 'I' for Inactive)
REMARK    1  A    between atoms: C1_2  and  C2_3 
ROOT
ATOM      1  C2  UNL d   1       1.097  -0.132   1.167  0.00  0.00    -0.076 A 
ATOM      2  C3  UNL d   1       1.136  -0.658  -0.136  0.00  0.00     0.004 A 
ATOM      3  C4  UNL d   1       0.499  -0.008  -1.192  0.00  0.00    -0.003 A 
ATOM      4  C5  UNL d   1      -0.187   1.179  -0.962  0.00  0.00     0.000 A 
ATOM      5  C6  UNL d   1      -0.221   1.725   0.321  0.00  0.00     0.000 A 
ATOM      6  C7  UNL d   1       0.429   1.091   1.393  0.00  0.00    -0.073 A 
ATOM      7  C8  UNL d   1       0.354   1.721   2.757  0.00  0.00     0.078 C 
ENDROOT
BRANCH   1   8
ATOM      8  C1  UNL d   1       1.783  -0.895   2.277  0.00  0.00     0.053 C 
ATOM      9  C   UNL d   1       0.798  -1.628   3.175  0.00  0.00     0.018 C 
ENDBRANCH   1   8
TORSDOF 1
ENDMDL
