MODEL 1
REMARK minimizedAffinity 12.7247734
REMARK minimizedRMSD -1
REMARK  0 active torsions:
REMARK  status: ('A' for Active; 'I' for Inactive)
ROOT
ATOM      1  C   UNL d   1       4.346   3.876  -5.981  0.00  0.00     0.124 A 
ATOM      2  C1  UNL d   1       4.384   2.489  -5.984  0.00  0.00     0.062 A 
ATOM      3  C2  UNL d   1       3.201   1.756  -5.974  0.00  0.00     0.162 A 
ATOM      4  C3  UNL d   1       1.969   2.409  -5.962  0.00  0.00    -0.034 A 
ATOM      5  C4  UNL d   1       1.938   3.804  -5.959  0.00  0.00     0.162 A 
ATOM      6  C5  UNL d   1       3.123   4.532  -5.969  0.00  0.00     0.062 A 
ATOM      7  F   UNL d   1       3.084   5.873  -5.966  0.00  0.00    -0.097 F 
ATOM      8  F1  UNL d   1       0.771   4.464  -5.948  0.00  0.00    -0.096 F 
ATOM      9  I   UNL d   1       0.197   1.316  -5.948  0.00  0.00    -0.060 I 
ATOM     10  F2  UNL d   1       3.268   0.416  -5.977  0.00  0.00    -0.096 F 
ATOM     11  F3  UNL d   1       5.564   1.852  -5.995  0.00  0.00    -0.097 F 
ATOM     12  F4  UNL d   1       5.486   4.579  -5.990  0.00  0.00    -0.092 F 
ENDROOT
TORSDOF 0
ENDMDL
