MODEL 1
REMARK minimizedAffinity 16.705431
REMARK minimizedRMSD -1
REMARK  0 active torsions:
REMARK  status: ('A' for Active; 'I' for Inactive)
ROOT
ATOM      1  C   UNL d   1       3.100   3.383   2.055  0.00  0.00     0.124 A 
ATOM      2  C1  UNL d   1       1.752   3.674   1.892  0.00  0.00     0.062 A 
ATOM      3  C2  UNL d   1       1.077   4.420   2.853  0.00  0.00     0.162 A 
ATOM      4  C3  UNL d   1       1.748   4.883   3.985  0.00  0.00    -0.034 A 
ATOM      5  C4  UNL d   1       3.103   4.586   4.142  0.00  0.00     0.162 A 
ATOM      6  C5  UNL d   1       3.774   3.839   3.179  0.00  0.00     0.062 A 
ATOM      7  F   UNL d   1       5.075   3.559   3.338  0.00  0.00    -0.097 F 
ATOM      8  F1  UNL d   1       3.778   5.015   5.218  0.00  0.00    -0.096 F 
ATOM      9  I   UNL d   1       0.741   6.000   5.424  0.00  0.00    -0.060 I 
ATOM     10  F2  UNL d   1      -0.225   4.686   2.670  0.00  0.00    -0.096 F 
ATOM     11  F3  UNL d   1       1.099   3.233   0.808  0.00  0.00    -0.097 F 
ATOM     12  F4  UNL d   1       3.747   2.663   1.129  0.00  0.00    -0.092 F 
ENDROOT
TORSDOF 0
ENDMDL
