MODEL 1
REMARK minimizedAffinity 6.69615078
REMARK minimizedRMSD -1
REMARK  0 active torsions:
REMARK  status: ('A' for Active; 'I' for Inactive)
ROOT
ATOM      1  C   UNL d   1       3.401   2.353  -5.771  0.00  0.00     0.124 A 
ATOM      2  C1  UNL d   1       2.044   2.078  -5.687  0.00  0.00     0.062 A 
ATOM      3  C2  UNL d   1       1.117   3.116  -5.707  0.00  0.00     0.162 A 
ATOM      4  C3  UNL d   1       1.544   4.439  -5.813  0.00  0.00    -0.034 A 
ATOM      5  C4  UNL d   1       2.911   4.708  -5.896  0.00  0.00     0.162 A 
ATOM      6  C5  UNL d   1       3.834   3.667  -5.875  0.00  0.00     0.062 A 
ATOM      7  F   UNL d   1       5.146   3.935  -5.956  0.00  0.00    -0.097 F 
ATOM      8  F1  UNL d   1       3.357   5.969  -5.998  0.00  0.00    -0.096 F 
ATOM      9  I   UNL d   1       0.161   5.994  -5.843  0.00  0.00    -0.060 I 
ATOM     10  F2  UNL d   1      -0.189   2.821  -5.624  0.00  0.00    -0.096 F 
ATOM     11  F3  UNL d   1       1.623   0.809  -5.585  0.00  0.00    -0.097 F 
ATOM     12  F4  UNL d   1       4.291   1.352  -5.750  0.00  0.00    -0.092 F 
ENDROOT
TORSDOF 0
ENDMDL
