MODEL 1
REMARK minimizedAffinity 17.2674179
REMARK minimizedRMSD -1
REMARK  0 active torsions:
REMARK  status: ('A' for Active; 'I' for Inactive)
ROOT
ATOM      1  C   UNL d   1       1.281   4.065  -5.853  0.00  0.00     0.124 A 
ATOM      2  C1  UNL d   1       1.179   2.687  -5.726  0.00  0.00     0.062 A 
ATOM      3  C2  UNL d   1       2.328   1.907  -5.623  0.00  0.00     0.162 A 
ATOM      4  C3  UNL d   1       3.588   2.503  -5.646  0.00  0.00    -0.034 A 
ATOM      5  C4  UNL d   1       3.683   3.890  -5.775  0.00  0.00     0.162 A 
ATOM      6  C5  UNL d   1       2.532   4.665  -5.877  0.00  0.00     0.062 A 
ATOM      7  F   UNL d   1       2.632   5.997  -6.000  0.00  0.00    -0.097 F 
ATOM      8  F1  UNL d   1       4.879   4.496  -5.800  0.00  0.00    -0.096 F 
ATOM      9  I   UNL d   1       5.307   1.340  -5.493  0.00  0.00    -0.060 I 
ATOM     10  F2  UNL d   1       2.199   0.577  -5.502  0.00  0.00    -0.096 F 
ATOM     11  F3  UNL d   1      -0.028   2.104  -5.703  0.00  0.00    -0.097 F 
ATOM     12  F4  UNL d   1       0.175   4.813  -5.953  0.00  0.00    -0.092 F 
ENDROOT
TORSDOF 0
ENDMDL
