MODEL 1
REMARK minimizedAffinity 8.20219421
REMARK minimizedRMSD -1
REMARK  0 active torsions:
REMARK  status: ('A' for Active; 'I' for Inactive)
ROOT
ATOM      1  C   UNL d   1       1.829  -3.228   0.730  0.00  0.00     0.124 A 
ATOM      2  C1  UNL d   1       0.908  -3.837   1.572  0.00  0.00     0.062 A 
ATOM      3  C2  UNL d   1       0.120  -3.067   2.422  0.00  0.00     0.162 A 
ATOM      4  C3  UNL d   1       0.249  -1.678   2.434  0.00  0.00    -0.034 A 
ATOM      5  C4  UNL d   1       1.178  -1.073   1.586  0.00  0.00     0.162 A 
ATOM      6  C5  UNL d   1       1.963  -1.847   0.738  0.00  0.00     0.062 A 
ATOM      7  F   UNL d   1       2.852  -1.257  -0.074  0.00  0.00    -0.097 F 
ATOM      8  F1  UNL d   1       1.327   0.260   1.572  0.00  0.00    -0.096 F 
ATOM      9  I   UNL d   1      -0.927  -0.522   3.704  0.00  0.00    -0.060 I 
ATOM     10  F2  UNL d   1      -0.761  -3.682   3.224  0.00  0.00    -0.096 F 
ATOM     11  F3  UNL d   1       0.778  -5.172   1.567  0.00  0.00    -0.097 F 
ATOM     12  F4  UNL d   1       2.587  -3.972  -0.086  0.00  0.00    -0.092 F 
ENDROOT
TORSDOF 0
ENDMDL
