MODEL 1
REMARK minimizedAffinity 2.60328317
REMARK minimizedRMSD -1
REMARK  0 active torsions:
REMARK  status: ('A' for Active; 'I' for Inactive)
ROOT
ATOM      1  C   UNL d   1       2.358   2.354  -5.895  0.00  0.00     0.124 A 
ATOM      2  C1  UNL d   1       3.718   2.077  -5.874  0.00  0.00     0.062 A 
ATOM      3  C2  UNL d   1       4.644   3.116  -5.884  0.00  0.00     0.162 A 
ATOM      4  C3  UNL d   1       4.213   4.442  -5.914  0.00  0.00    -0.034 A 
ATOM      5  C4  UNL d   1       2.844   4.713  -5.936  0.00  0.00     0.162 A 
ATOM      6  C5  UNL d   1       1.923   3.671  -5.926  0.00  0.00     0.062 A 
ATOM      7  F   UNL d   1       0.609   3.940  -5.946  0.00  0.00    -0.097 F 
ATOM      8  F1  UNL d   1       2.395   5.977  -5.965  0.00  0.00    -0.096 F 
ATOM      9  I   UNL d   1       5.595   5.999  -5.929  0.00  0.00    -0.060 I 
ATOM     10  F2  UNL d   1       5.952   2.819  -5.863  0.00  0.00    -0.096 F 
ATOM     11  F3  UNL d   1       4.142   0.805  -5.845  0.00  0.00    -0.097 F 
ATOM     12  F4  UNL d   1       1.469   1.352  -5.887  0.00  0.00    -0.092 F 
ENDROOT
TORSDOF 0
ENDMDL
