MODEL 1
REMARK minimizedAffinity 20.1087742
REMARK minimizedRMSD -1
REMARK  0 active torsions:
REMARK  status: ('A' for Active; 'I' for Inactive)
ROOT
ATOM      1  C   UNL d   1       0.090  -1.068   1.204  0.00  0.00     0.124 A 
ATOM      2  C1  UNL d   1      -0.042  -0.740   2.547  0.00  0.00     0.062 A 
ATOM      3  C2  UNL d   1      -1.176  -0.069   2.995  0.00  0.00     0.162 A 
ATOM      4  C3  UNL d   1      -2.189   0.277   2.101  0.00  0.00    -0.034 A 
ATOM      5  C4  UNL d   1      -2.049  -0.056   0.752  0.00  0.00     0.162 A 
ATOM      6  C5  UNL d   1      -0.914  -0.726   0.309  0.00  0.00     0.062 A 
ATOM      7  F   UNL d   1      -0.788  -1.043  -0.988  0.00  0.00    -0.097 F 
ATOM      8  F1  UNL d   1      -3.004   0.262  -0.134  0.00  0.00    -0.096 F 
ATOM      9  I   UNL d   1      -3.886   1.280   2.768  0.00  0.00    -0.060 I 
ATOM     10  F2  UNL d   1      -1.276   0.235   4.298  0.00  0.00    -0.096 F 
ATOM     11  F3  UNL d   1       0.927  -1.069   3.414  0.00  0.00    -0.097 F 
ATOM     12  F4  UNL d   1       1.182  -1.713   0.775  0.00  0.00    -0.092 F 
ENDROOT
TORSDOF 0
ENDMDL
