MODEL 1
REMARK minimizedAffinity 15.8493328
REMARK minimizedRMSD -1
REMARK  0 active torsions:
REMARK  status: ('A' for Active; 'I' for Inactive)
ROOT
ATOM      1  C   UNL d   1       2.685  -3.431   0.718  0.00  0.00     0.124 A 
ATOM      2  C1  UNL d   1       2.162  -2.146   0.747  0.00  0.00     0.062 A 
ATOM      3  C2  UNL d   1       2.931  -1.067   0.320  0.00  0.00     0.162 A 
ATOM      4  C3  UNL d   1       4.233  -1.269  -0.140  0.00  0.00    -0.034 A 
ATOM      5  C4  UNL d   1       4.753  -2.565  -0.165  0.00  0.00     0.162 A 
ATOM      6  C5  UNL d   1       3.980  -3.639   0.263  0.00  0.00     0.062 A 
ATOM      7  F   UNL d   1       4.487  -4.880   0.235  0.00  0.00    -0.097 F 
ATOM      8  F1  UNL d   1       6.000  -2.795  -0.601  0.00  0.00    -0.096 F 
ATOM      9  I   UNL d   1       5.386   0.341  -0.779  0.00  0.00    -0.060 I 
ATOM     10  F2  UNL d   1       2.400   0.164   0.358  0.00  0.00    -0.096 F 
ATOM     11  F3  UNL d   1       0.912  -1.942   1.187  0.00  0.00    -0.097 F 
ATOM     12  F4  UNL d   1       1.943  -4.467   1.130  0.00  0.00    -0.092 F 
ENDROOT
TORSDOF 0
ENDMDL
