MODEL 1
REMARK minimizedAffinity 4.03897572
REMARK minimizedRMSD -1
REMARK  0 active torsions:
REMARK  status: ('A' for Active; 'I' for Inactive)
ROOT
ATOM      1  C   UNL d   1       1.487   3.829  -5.920  0.00  0.00     0.124 A 
ATOM      2  C1  UNL d   1       2.593   4.666  -5.884  0.00  0.00     0.062 A 
ATOM      3  C2  UNL d   1       3.878   4.130  -5.882  0.00  0.00     0.162 A 
ATOM      4  C3  UNL d   1       4.063   2.748  -5.917  0.00  0.00    -0.034 A 
ATOM      5  C4  UNL d   1       2.946   1.912  -5.953  0.00  0.00     0.162 A 
ATOM      6  C5  UNL d   1       1.664   2.453  -5.954  0.00  0.00     0.062 A 
ATOM      7  F   UNL d   1       0.597   1.642  -5.990  0.00  0.00    -0.097 F 
ATOM      8  F1  UNL d   1       3.089   0.579  -5.987  0.00  0.00    -0.096 F 
ATOM      9  I   UNL d   1       5.982   1.943  -5.914  0.00  0.00    -0.060 I 
ATOM     10  F2  UNL d   1       4.928   4.963  -5.846  0.00  0.00    -0.096 F 
ATOM     11  F3  UNL d   1       2.424   5.996  -5.849  0.00  0.00    -0.097 F 
ATOM     12  F4  UNL d   1       0.252   4.347  -5.921  0.00  0.00    -0.092 F 
ENDROOT
TORSDOF 0
ENDMDL
