MODEL 1
REMARK minimizedAffinity 3.52321005
REMARK minimizedRMSD -1
REMARK  0 active torsions:
REMARK  status: ('A' for Active; 'I' for Inactive)
ROOT
ATOM      1  C   UNL d   1      -4.889  -1.050  -3.004  0.00  0.00     0.124 A 
ATOM      2  C1  UNL d   1      -5.049  -0.388  -4.213  0.00  0.00     0.062 A 
ATOM      3  C2  UNL d   1      -4.227   0.688  -4.536  0.00  0.00     0.162 A 
ATOM      4  C3  UNL d   1      -3.236   1.107  -3.649  0.00  0.00    -0.034 A 
ATOM      5  C4  UNL d   1      -3.081   0.437  -2.435  0.00  0.00     0.162 A 
ATOM      6  C5  UNL d   1      -3.906  -0.637  -2.116  0.00  0.00     0.062 A 
ATOM      7  F   UNL d   1      -3.750  -1.276  -0.947  0.00  0.00    -0.097 F 
ATOM      8  F1  UNL d   1      -2.138   0.814  -1.559  0.00  0.00    -0.096 F 
ATOM      9  I   UNL d   1      -2.004   2.715  -4.129  0.00  0.00    -0.060 I 
ATOM     10  F2  UNL d   1      -4.404   1.309  -5.712  0.00  0.00    -0.096 F 
ATOM     11  F3  UNL d   1      -6.000  -0.784  -5.072  0.00  0.00    -0.097 F 
ATOM     12  F4  UNL d   1      -5.683  -2.084  -2.695  0.00  0.00    -0.092 F 
ENDROOT
TORSDOF 0
ENDMDL
