MODEL 1
REMARK minimizedAffinity 1.4557991
REMARK minimizedRMSD -1
REMARK  0 active torsions:
REMARK  status: ('A' for Active; 'I' for Inactive)
ROOT
ATOM      1  C   UNL d   1       2.979  -2.905  -0.192  0.00  0.00     0.124 A 
ATOM      2  C1  UNL d   1       2.505  -2.114   0.846  0.00  0.00     0.062 A 
ATOM      3  C2  UNL d   1       2.998  -2.283   2.136  0.00  0.00     0.162 A 
ATOM      4  C3  UNL d   1       3.972  -3.247   2.397  0.00  0.00    -0.034 A 
ATOM      5  C4  UNL d   1       4.443  -4.039   1.348  0.00  0.00     0.162 A 
ATOM      6  C5  UNL d   1       3.947  -3.867   0.060  0.00  0.00     0.062 A 
ATOM      7  F   UNL d   1       4.406  -4.632  -0.941  0.00  0.00    -0.097 F 
ATOM      8  F1  UNL d   1       5.379  -4.976   1.564  0.00  0.00    -0.096 F 
ATOM      9  I   UNL d   1       4.712  -3.503   4.325  0.00  0.00    -0.060 I 
ATOM     10  F2  UNL d   1       2.523  -1.504   3.119  0.00  0.00    -0.096 F 
ATOM     11  F3  UNL d   1       1.569  -1.185   0.605  0.00  0.00    -0.097 F 
ATOM     12  F4  UNL d   1       2.502  -2.741  -1.432  0.00  0.00    -0.092 F 
ENDROOT
TORSDOF 0
ENDMDL
