MODEL 1
REMARK minimizedAffinity 6.99041653
REMARK minimizedRMSD -1
REMARK  0 active torsions:
REMARK  status: ('A' for Active; 'I' for Inactive)
ROOT
ATOM      1  C   UNL d   1       2.481   4.595  -5.622  0.00  0.00     0.124 A 
ATOM      2  C1  UNL d   1       3.856   4.739  -5.746  0.00  0.00     0.062 A 
ATOM      3  C2  UNL d   1       4.670   3.615  -5.853  0.00  0.00     0.162 A 
ATOM      4  C3  UNL d   1       4.112   2.337  -5.838  0.00  0.00    -0.034 A 
ATOM      5  C4  UNL d   1       2.728   2.200  -5.712  0.00  0.00     0.162 A 
ATOM      6  C5  UNL d   1       1.918   3.326  -5.605  0.00  0.00     0.062 A 
ATOM      7  F   UNL d   1       0.590   3.186  -5.485  0.00  0.00    -0.097 F 
ATOM      8  F1  UNL d   1       2.158   0.986  -5.694  0.00  0.00    -0.096 F 
ATOM      9  I   UNL d   1       5.326   0.654  -5.998  0.00  0.00    -0.060 I 
ATOM     10  F2  UNL d   1       5.996   3.784  -5.972  0.00  0.00    -0.096 F 
ATOM     11  F3  UNL d   1       4.402   5.963  -5.762  0.00  0.00    -0.097 F 
ATOM     12  F4  UNL d   1       1.700   5.678  -5.518  0.00  0.00    -0.092 F 
ENDROOT
TORSDOF 0
ENDMDL
