MODEL 1
REMARK minimizedAffinity -2.87991595
REMARK minimizedRMSD -1
REMARK  0 active torsions:
REMARK  status: ('A' for Active; 'I' for Inactive)
ROOT
ATOM      1  C   UNL d   1      -1.495   2.926   1.530  0.00  0.00     0.023 A 
ATOM      2  C1  UNL d   1      -2.058   2.171   0.501  0.00  0.00     0.003 A 
ATOM      3  C2  UNL d   1      -1.380   1.058  -0.001  0.00  0.00     0.048 A 
ATOM      4  C3  UNL d   1      -0.140   0.706   0.531  0.00  0.00     0.023 A 
ATOM      5  C4  UNL d   1       0.426   1.458   1.562  0.00  0.00     0.048 A 
ATOM      6  C5  UNL d   1      -0.255   2.571   2.059  0.00  0.00     0.003 A 
ATOM      7  I   UNL d   1       0.871  -0.950  -0.214  0.00  0.00    -0.146 I 
ENDROOT
TORSDOF 0
ENDMDL
