MODEL 1
REMARK minimizedAffinity 0.470747143
REMARK minimizedRMSD -1
REMARK  0 active torsions:
REMARK  status: ('A' for Active; 'I' for Inactive)
ROOT
ATOM      1  C   UNL d   1      -0.821  -4.850  -2.026  0.00  0.00     0.023 A 
ATOM      2  C1  UNL d   1       0.014  -4.730  -0.916  0.00  0.00     0.003 A 
ATOM      3  C2  UNL d   1       0.302  -3.469  -0.390  0.00  0.00     0.048 A 
ATOM      4  C3  UNL d   1      -0.250  -2.332  -0.979  0.00  0.00     0.023 A 
ATOM      5  C4  UNL d   1      -1.087  -2.447  -2.090  0.00  0.00     0.048 A 
ATOM      6  C5  UNL d   1      -1.371  -3.710  -2.613  0.00  0.00     0.003 A 
ATOM      7  I   UNL d   1       0.177  -0.454  -0.198  0.00  0.00    -0.146 I 
ENDROOT
TORSDOF 0
ENDMDL
