MODEL 1
REMARK minimizedAffinity -0.386255682
REMARK minimizedRMSD -1
REMARK  0 active torsions:
REMARK  status: ('A' for Active; 'I' for Inactive)
ROOT
ATOM      1  C   UNL d   1      -0.448   1.996   1.785  0.00  0.00     0.023 A 
ATOM      2  C1  UNL d   1      -0.804   2.064   0.438  0.00  0.00     0.003 A 
ATOM      3  C2  UNL d   1      -0.509   1.000  -0.418  0.00  0.00     0.048 A 
ATOM      4  C3  UNL d   1       0.141  -0.128   0.080  0.00  0.00     0.023 A 
ATOM      5  C4  UNL d   1       0.499  -0.201   1.427  0.00  0.00     0.048 A 
ATOM      6  C5  UNL d   1       0.203   0.865   2.279  0.00  0.00     0.003 A 
ATOM      7  I   UNL d   1       0.580  -1.712  -1.192  0.00  0.00    -0.146 I 
ENDROOT
TORSDOF 0
ENDMDL
