MODEL 1
REMARK minimizedAffinity -4.72578716
REMARK minimizedRMSD -1
REMARK  0 active torsions:
REMARK  status: ('A' for Active; 'I' for Inactive)
ROOT
ATOM      1  C   UNL d   1      -0.996   2.541   2.124  0.00  0.00     0.023 A 
ATOM      2  C1  UNL d   1      -1.711   2.265   0.958  0.00  0.00     0.003 A 
ATOM      3  C2  UNL d   1      -1.271   1.266   0.087  0.00  0.00     0.048 A 
ATOM      4  C3  UNL d   1      -0.116   0.546   0.388  0.00  0.00     0.023 A 
ATOM      5  C4  UNL d   1       0.603   0.818   1.554  0.00  0.00     0.048 A 
ATOM      6  C5  UNL d   1       0.160   1.818   2.421  0.00  0.00     0.003 A 
ATOM      7  I   UNL d   1       0.541  -0.942  -0.906  0.00  0.00    -0.146 I 
ENDROOT
TORSDOF 0
ENDMDL
