MODEL 1
REMARK minimizedAffinity -3.68953562
REMARK minimizedRMSD -1
REMARK  0 active torsions:
REMARK  status: ('A' for Active; 'I' for Inactive)
ROOT
ATOM      1  C   UNL d   1      -0.904   3.462   1.344  0.00  0.00     0.023 A 
ATOM      2  C1  UNL d   1      -0.534   2.376   2.137  0.00  0.00     0.003 A 
ATOM      3  C2  UNL d   1      -0.173   1.166   1.541  0.00  0.00     0.048 A 
ATOM      4  C3  UNL d   1      -0.184   1.049   0.151  0.00  0.00     0.023 A 
ATOM      5  C4  UNL d   1      -0.552   2.134  -0.646  0.00  0.00     0.048 A 
ATOM      6  C5  UNL d   1      -0.913   3.341  -0.046  0.00  0.00     0.003 A 
ATOM      7  I   UNL d   1       0.353  -0.751  -0.738  0.00  0.00    -0.146 I 
ENDROOT
TORSDOF 0
ENDMDL
