MODEL 1
REMARK minimizedAffinity -0.773172021
REMARK minimizedRMSD -1
REMARK  0 active torsions:
REMARK  status: ('A' for Active; 'I' for Inactive)
ROOT
ATOM      1  C   UNL d   1      -0.222  -2.920   3.084  0.00  0.00     0.078 C 
ATOM      2  C1  UNL d   1       0.749  -2.014   2.387  0.00  0.00    -0.077 A 
ATOM      3  C2  UNL d   1       0.587  -1.687   1.035  0.00  0.00    -0.001 A 
ATOM      4  C3  UNL d   1       1.505  -0.850   0.396  0.00  0.00     0.003 A 
ATOM      5  C4  UNL d   1       2.591  -0.335   1.101  0.00  0.00    -0.005 A 
ATOM      6  C5  UNL d   1       2.761  -0.658   2.446  0.00  0.00     0.003 A 
ATOM      7  C6  UNL d   1       1.845  -1.494   3.086  0.00  0.00    -0.001 A 
ENDROOT
TORSDOF 0
ENDMDL
