MODEL 1
REMARK minimizedAffinity -2.81675696
REMARK minimizedRMSD -1
REMARK  0 active torsions:
REMARK  status: ('A' for Active; 'I' for Inactive)
ROOT
ATOM      1  C   UNL d   1      -2.055  -0.566  -0.879  0.00  0.00     0.078 C 
ATOM      2  C1  UNL d   1      -0.638  -0.620  -0.391  0.00  0.00    -0.077 A 
ATOM      3  C2  UNL d   1      -0.302  -0.189   0.898  0.00  0.00    -0.001 A 
ATOM      4  C3  UNL d   1       1.023  -0.235   1.335  0.00  0.00     0.003 A 
ATOM      5  C4  UNL d   1       2.022  -0.711   0.490  0.00  0.00    -0.005 A 
ATOM      6  C5  UNL d   1       1.698  -1.141  -0.796  0.00  0.00     0.003 A 
ATOM      7  C6  UNL d   1       0.374  -1.095  -1.235  0.00  0.00    -0.001 A 
ENDROOT
TORSDOF 0
ENDMDL
