MODEL 1
REMARK minimizedAffinity -2.18518472
REMARK minimizedRMSD -1
REMARK  0 active torsions:
REMARK  status: ('A' for Active; 'I' for Inactive)
ROOT
ATOM      1  C   UNL d   1      -4.288  -1.934  -0.428  0.00  0.00     0.078 C 
ATOM      2  C1  UNL d   1      -3.029  -1.173  -0.136  0.00  0.00    -0.077 A 
ATOM      3  C2  UNL d   1      -2.689  -0.818   1.175  0.00  0.00    -0.001 A 
ATOM      4  C3  UNL d   1      -1.519  -0.101   1.431  0.00  0.00     0.003 A 
ATOM      5  C4  UNL d   1      -0.681   0.268   0.381  0.00  0.00    -0.005 A 
ATOM      6  C5  UNL d   1      -1.012  -0.079  -0.927  0.00  0.00     0.003 A 
ATOM      7  C6  UNL d   1      -2.181  -0.796  -1.185  0.00  0.00    -0.001 A 
ENDROOT
TORSDOF 0
ENDMDL
