MODEL 1
REMARK minimizedAffinity -4.56298161
REMARK minimizedRMSD -1
REMARK  0 active torsions:
REMARK  status: ('A' for Active; 'I' for Inactive)
ROOT
ATOM      1  C   UNL d   1      -1.155  -2.578   3.532  0.00  0.00     0.078 C 
ATOM      2  C1  UNL d   1      -0.397  -1.545   2.754  0.00  0.00    -0.077 A 
ATOM      3  C2  UNL d   1      -1.068  -0.572   2.002  0.00  0.00    -0.001 A 
ATOM      4  C3  UNL d   1      -0.350   0.377   1.275  0.00  0.00     0.003 A 
ATOM      5  C4  UNL d   1       1.044   0.363   1.290  0.00  0.00    -0.005 A 
ATOM      6  C5  UNL d   1       1.720  -0.602   2.033  0.00  0.00     0.003 A 
ATOM      7  C6  UNL d   1       1.003  -1.553   2.761  0.00  0.00    -0.001 A 
ENDROOT
TORSDOF 0
ENDMDL
