MODEL 1
REMARK minimizedAffinity -2.19093013
REMARK minimizedRMSD -1
REMARK  0 active torsions:
REMARK  status: ('A' for Active; 'I' for Inactive)
ROOT
ATOM      1  C   UNL d   1      -0.766  -2.515   3.203  0.00  0.00     0.078 C 
ATOM      2  C1  UNL d   1      -0.448  -1.534   2.115  0.00  0.00    -0.077 A 
ATOM      3  C2  UNL d   1      -1.467  -0.911   1.385  0.00  0.00    -0.001 A 
ATOM      4  C3  UNL d   1      -1.156  -0.006   0.368  0.00  0.00     0.003 A 
ATOM      5  C4  UNL d   1       0.174   0.283   0.072  0.00  0.00    -0.005 A 
ATOM      6  C5  UNL d   1       1.196  -0.334   0.792  0.00  0.00     0.003 A 
ATOM      7  C6  UNL d   1       0.887  -1.238   1.809  0.00  0.00    -0.001 A 
ENDROOT
TORSDOF 0
ENDMDL
