MODEL 1
REMARK minimizedAffinity 0.362707943
REMARK minimizedRMSD -1
REMARK  0 active torsions:
REMARK  status: ('A' for Active; 'I' for Inactive)
ROOT
ATOM      1  C   UNL d   1       3.320  -1.610  -0.304  0.00  0.00     0.078 C 
ATOM      2  C1  UNL d   1       1.971  -0.994  -0.085  0.00  0.00    -0.077 A 
ATOM      3  C2  UNL d   1       1.486  -0.760   1.208  0.00  0.00    -0.001 A 
ATOM      4  C3  UNL d   1       0.224  -0.195   1.397  0.00  0.00     0.003 A 
ATOM      5  C4  UNL d   1      -0.564   0.141   0.298  0.00  0.00    -0.005 A 
ATOM      6  C5  UNL d   1      -0.091  -0.090  -0.992  0.00  0.00     0.003 A 
ATOM      7  C6  UNL d   1       1.171  -0.655  -1.183  0.00  0.00    -0.001 A 
ENDROOT
TORSDOF 0
ENDMDL
