MODEL 1
REMARK minimizedAffinity -2.7758193
REMARK minimizedRMSD -1
REMARK  0 active torsions:
REMARK  status: ('A' for Active; 'I' for Inactive)
ROOT
ATOM      1  C   UNL d   1      -0.021   0.109  -0.746  0.00  0.00     0.078 C 
ATOM      2  C1  UNL d   1       0.328  -0.281   0.659  0.00  0.00    -0.077 A 
ATOM      3  C2  UNL d   1      -0.663  -0.684   1.563  0.00  0.00    -0.001 A 
ATOM      4  C3  UNL d   1      -0.324  -1.036   2.871  0.00  0.00     0.003 A 
ATOM      5  C4  UNL d   1       1.005  -0.987   3.287  0.00  0.00    -0.005 A 
ATOM      6  C5  UNL d   1       1.997  -0.586   2.395  0.00  0.00     0.003 A 
ATOM      7  C6  UNL d   1       1.661  -0.233   1.087  0.00  0.00    -0.001 A 
ENDROOT
TORSDOF 0
ENDMDL
