MODEL 1
REMARK minimizedAffinity 2.36641192
REMARK minimizedRMSD -1
REMARK  0 active torsions:
REMARK  status: ('A' for Active; 'I' for Inactive)
ROOT
ATOM      1  C   UNL d   1       1.490   2.599  -5.566  0.00  0.00     0.078 C 
ATOM      2  C1  UNL d   1       0.747   2.966  -4.317  0.00  0.00    -0.077 A 
ATOM      3  C2  UNL d   1      -0.250   2.130  -3.798  0.00  0.00    -0.001 A 
ATOM      4  C3  UNL d   1      -0.940   2.490  -2.639  0.00  0.00     0.003 A 
ATOM      5  C4  UNL d   1      -0.643   3.687  -1.991  0.00  0.00    -0.005 A 
ATOM      6  C5  UNL d   1       0.345   4.527  -2.501  0.00  0.00     0.003 A 
ATOM      7  C6  UNL d   1       1.037   4.169  -3.659  0.00  0.00    -0.001 A 
ENDROOT
TORSDOF 0
ENDMDL
