MODEL 1
REMARK minimizedAffinity -5.03277302
REMARK minimizedRMSD -1
REMARK  0 active torsions:
REMARK  status: ('A' for Active; 'I' for Inactive)
ROOT
ATOM      1  C   UNL d   1      -0.298   0.618  -1.053  0.00  0.00     0.078 C 
ATOM      2  C1  UNL d   1       0.057   0.077   0.300  0.00  0.00    -0.077 A 
ATOM      3  C2  UNL d   1      -0.934  -0.385   1.174  0.00  0.00    -0.001 A 
ATOM      4  C3  UNL d   1      -0.589  -0.877   2.435  0.00  0.00     0.003 A 
ATOM      5  C4  UNL d   1       0.746  -0.909   2.832  0.00  0.00    -0.005 A 
ATOM      6  C5  UNL d   1       1.739  -0.448   1.969  0.00  0.00     0.003 A 
ATOM      7  C6  UNL d   1       1.396   0.043   0.709  0.00  0.00    -0.001 A 
ENDROOT
TORSDOF 0
ENDMDL
