MODEL 1
REMARK minimizedAffinity -3.94565725
REMARK minimizedRMSD -1
REMARK  0 active torsions:
REMARK  status: ('A' for Active; 'I' for Inactive)
ROOT
ATOM      1  C   UNL d   1      -1.129  -1.844   3.363  0.00  0.00     0.078 C 
ATOM      2  C1  UNL d   1      -0.025  -1.126   2.646  0.00  0.00    -0.077 A 
ATOM      3  C2  UNL d   1      -0.259  -0.478   1.427  0.00  0.00    -0.001 A 
ATOM      4  C3  UNL d   1       0.780   0.178   0.765  0.00  0.00     0.003 A 
ATOM      5  C4  UNL d   1       2.060   0.193   1.315  0.00  0.00    -0.005 A 
ATOM      6  C5  UNL d   1       2.303  -0.451   2.527  0.00  0.00     0.003 A 
ATOM      7  C6  UNL d   1       1.265  -1.108   3.190  0.00  0.00    -0.001 A 
ENDROOT
TORSDOF 0
ENDMDL
