MODEL 1
REMARK minimizedAffinity -1.67008734
REMARK minimizedRMSD -1
REMARK  0 active torsions:
REMARK  status: ('A' for Active; 'I' for Inactive)
ROOT
ATOM      1  C   UNL d   1      -2.234  -0.725  -0.602  0.00  0.00     0.078 C 
ATOM      2  C1  UNL d   1      -0.896  -0.357  -0.033  0.00  0.00    -0.077 A 
ATOM      3  C2  UNL d   1      -0.061  -1.328   0.534  0.00  0.00    -0.001 A 
ATOM      4  C3  UNL d   1       1.177  -0.969   1.069  0.00  0.00     0.003 A 
ATOM      5  C4  UNL d   1       1.591   0.361   1.043  0.00  0.00    -0.005 A 
ATOM      6  C5  UNL d   1       0.767   1.334   0.483  0.00  0.00     0.003 A 
ATOM      7  C6  UNL d   1      -0.472   0.978  -0.052  0.00  0.00    -0.001 A 
ENDROOT
TORSDOF 0
ENDMDL
