MODEL 1
REMARK minimizedAffinity -2.50908637
REMARK minimizedRMSD -1
REMARK  0 active torsions:
REMARK  status: ('A' for Active; 'I' for Inactive)
ROOT
ATOM      1  C   UNL d   1      -1.297  -0.260  -1.512  0.00  0.00     0.078 C 
ATOM      2  C1  UNL d   1      -0.081  -0.312  -0.635  0.00  0.00    -0.077 A 
ATOM      3  C2  UNL d   1       0.948  -1.228  -0.883  0.00  0.00    -0.001 A 
ATOM      4  C3  UNL d   1       2.069  -1.272  -0.052  0.00  0.00     0.003 A 
ATOM      5  C4  UNL d   1       2.171  -0.404   1.032  0.00  0.00    -0.005 A 
ATOM      6  C5  UNL d   1       1.150   0.510   1.288  0.00  0.00     0.003 A 
ATOM      7  C6  UNL d   1       0.029   0.556   0.459  0.00  0.00    -0.001 A 
ENDROOT
TORSDOF 0
ENDMDL
