MODEL 1
REMARK minimizedAffinity -4.70911837
REMARK minimizedRMSD -1
REMARK  1 active torsions:
REMARK  status: ('A' for Active; 'I' for Inactive)
REMARK    1  A    between atoms: C1_2  and  C2_3 
ROOT
ATOM      1  C2  UNL d   1      -0.540   1.170   0.587  0.00  0.00    -0.077 A 
ATOM      2  C3  UNL d   1      -1.662   0.388   0.892  0.00  0.00     0.002 A 
ATOM      3  C4  UNL d   1      -1.654  -0.986   0.645  0.00  0.00     0.002 A 
ATOM      4  C5  UNL d   1      -0.526  -1.590   0.095  0.00  0.00    -0.004 A 
ATOM      5  C6  UNL d   1       0.595  -0.821  -0.214  0.00  0.00     0.002 A 
ATOM      6  C7  UNL d   1       0.588   0.553   0.031  0.00  0.00     0.002 A 
ENDROOT
BRANCH   1   7
ATOM      7  C1  UNL d   1      -0.528   2.644   0.898  0.00  0.00     0.055 C 
ATOM      8  C   UNL d   1       0.404   3.400  -0.037  0.00  0.00     0.019 C 
ENDBRANCH   1   7
TORSDOF 1
ENDMDL
