MODEL 1
REMARK minimizedAffinity -2.51212072
REMARK minimizedRMSD -1
REMARK  1 active torsions:
REMARK  status: ('A' for Active; 'I' for Inactive)
REMARK    1  A    between atoms: C1_2  and  C2_3 
ROOT
ATOM      1  C2  UNL d   1       0.660  -0.827  -0.113  0.00  0.00    -0.077 A 
ATOM      2  C3  UNL d   1       1.842  -0.074  -0.076  0.00  0.00     0.002 A 
ATOM      3  C4  UNL d   1       1.791   1.317   0.021  0.00  0.00     0.002 A 
ATOM      4  C5  UNL d   1       0.561   1.968   0.087  0.00  0.00    -0.004 A 
ATOM      5  C6  UNL d   1      -0.621   1.229   0.048  0.00  0.00     0.002 A 
ATOM      6  C7  UNL d   1      -0.572  -0.162  -0.050  0.00  0.00     0.002 A 
ENDROOT
BRANCH   1   7
ATOM      7  C1  UNL d   1       0.714  -2.331  -0.168  0.00  0.00     0.055 C 
ATOM      8  C   UNL d   1      -0.236  -2.881  -1.223  0.00  0.00     0.019 C 
ENDBRANCH   1   7
TORSDOF 1
ENDMDL
