MODEL 1
REMARK minimizedAffinity -5.37180328
REMARK minimizedRMSD -1
REMARK  1 active torsions:
REMARK  status: ('A' for Active; 'I' for Inactive)
REMARK    1  A    between atoms: C1_2  and  C2_3 
ROOT
ATOM      1  C2  UNL d   1      -0.094  -0.121   0.203  0.00  0.00    -0.077 A 
ATOM      2  C3  UNL d   1      -1.356   0.344   0.598  0.00  0.00     0.002 A 
ATOM      3  C4  UNL d   1      -1.624   1.713   0.635  0.00  0.00     0.002 A 
ATOM      4  C5  UNL d   1      -0.638   2.628   0.273  0.00  0.00    -0.004 A 
ATOM      5  C6  UNL d   1       0.621   2.176  -0.120  0.00  0.00     0.002 A 
ATOM      6  C7  UNL d   1       0.891   0.807  -0.156  0.00  0.00     0.002 A 
ENDROOT
BRANCH   1   7
ATOM      7  C1  UNL d   1       0.182  -1.600   0.115  0.00  0.00     0.055 C 
ATOM      8  C   UNL d   1      -0.694  -2.265  -0.937  0.00  0.00     0.019 C 
ENDBRANCH   1   7
TORSDOF 1
ENDMDL
