MODEL 1
REMARK minimizedAffinity -3.96879601
REMARK minimizedRMSD -1
REMARK  1 active torsions:
REMARK  status: ('A' for Active; 'I' for Inactive)
REMARK    1  A    between atoms: C1_2  and  C2_3 
ROOT
ATOM      1  C2  UNL d   1       0.254   2.861   1.910  0.00  0.00    -0.077 A 
ATOM      2  C3  UNL d   1       1.566   2.860   1.416  0.00  0.00     0.002 A 
ATOM      3  C4  UNL d   1       2.645   3.068   2.278  0.00  0.00     0.002 A 
ATOM      4  C5  UNL d   1       2.422   3.274   3.638  0.00  0.00    -0.004 A 
ATOM      5  C6  UNL d   1       1.121   3.278   4.138  0.00  0.00     0.002 A 
ATOM      6  C7  UNL d   1       0.041   3.072   3.278  0.00  0.00     0.002 A 
ENDROOT
BRANCH   1   7
ATOM      7  C1  UNL d   1      -0.908   2.588   0.990  0.00  0.00     0.055 C 
ATOM      8  C   UNL d   1      -1.052   1.099   0.708  0.00  0.00     0.019 C 
ENDBRANCH   1   7
TORSDOF 1
ENDMDL
