MODEL 1
REMARK minimizedAffinity -5.09496164
REMARK minimizedRMSD -1
REMARK  1 active torsions:
REMARK  status: ('A' for Active; 'I' for Inactive)
REMARK    1  A    between atoms: C1_2  and  C2_3 
ROOT
ATOM      1  C2  UNL d   1      -0.179   0.339   0.067  0.00  0.00    -0.077 A 
ATOM      2  C3  UNL d   1      -1.181   1.242   0.450  0.00  0.00     0.002 A 
ATOM      3  C4  UNL d   1      -1.019   2.611   0.234  0.00  0.00     0.002 A 
ATOM      4  C5  UNL d   1       0.142   3.090  -0.369  0.00  0.00    -0.004 A 
ATOM      5  C6  UNL d   1       1.146   2.201  -0.751  0.00  0.00     0.002 A 
ATOM      6  C7  UNL d   1       0.986   0.832  -0.535  0.00  0.00     0.002 A 
ENDROOT
BRANCH   1   7
ATOM      7  C1  UNL d   1      -0.373  -1.143   0.255  0.00  0.00     0.055 C 
ATOM      8  C   UNL d   1      -0.570  -1.848  -1.079  0.00  0.00     0.019 C 
ENDBRANCH   1   7
TORSDOF 1
ENDMDL
