MODEL 1
REMARK minimizedAffinity -5.1810689
REMARK minimizedRMSD -1
REMARK  1 active torsions:
REMARK  status: ('A' for Active; 'I' for Inactive)
REMARK    1  A    between atoms: C1_2  and  C2_3 
ROOT
ATOM      1  C2  UNL d   1      -0.222  -0.588  -0.162  0.00  0.00    -0.077 A 
ATOM      2  C3  UNL d   1       0.794   0.329  -0.465  0.00  0.00     0.002 A 
ATOM      3  C4  UNL d   1       0.536   1.701  -0.443  0.00  0.00     0.002 A 
ATOM      4  C5  UNL d   1      -0.736   2.167  -0.117  0.00  0.00    -0.004 A 
ATOM      5  C6  UNL d   1      -1.754   1.263   0.184  0.00  0.00     0.002 A 
ATOM      6  C7  UNL d   1      -1.497  -0.109   0.162  0.00  0.00     0.002 A 
ENDROOT
BRANCH   1   7
ATOM      7  C1  UNL d   1       0.068  -2.067  -0.136  0.00  0.00     0.055 C 
ATOM      8  C   UNL d   1       0.369  -2.596  -1.531  0.00  0.00     0.019 C 
ENDBRANCH   1   7
TORSDOF 1
ENDMDL
