MODEL 1
REMARK minimizedAffinity -5.41143417
REMARK minimizedRMSD -1
REMARK  1 active torsions:
REMARK  status: ('A' for Active; 'I' for Inactive)
REMARK    1  A    between atoms: C1_2  and  C2_3 
ROOT
ATOM      1  C2  UNL d   1       0.187   0.575   0.081  0.00  0.00    -0.077 A 
ATOM      2  C3  UNL d   1      -0.115  -0.737   0.472  0.00  0.00     0.002 A 
ATOM      3  C4  UNL d   1       0.906  -1.627   0.811  0.00  0.00     0.002 A 
ATOM      4  C5  UNL d   1       2.236  -1.213   0.767  0.00  0.00    -0.004 A 
ATOM      5  C6  UNL d   1       2.547   0.089   0.378  0.00  0.00     0.002 A 
ATOM      6  C7  UNL d   1       1.527   0.979   0.037  0.00  0.00     0.002 A 
ENDROOT
BRANCH   1   7
ATOM      7  C1  UNL d   1      -0.916   1.550  -0.237  0.00  0.00     0.055 C 
ATOM      8  C   UNL d   1      -0.380   2.968  -0.367  0.00  0.00     0.019 C 
ENDBRANCH   1   7
TORSDOF 1
ENDMDL
