MODEL 1
REMARK minimizedAffinity -5.72240114
REMARK minimizedRMSD -1
REMARK  1 active torsions:
REMARK  status: ('A' for Active; 'I' for Inactive)
REMARK    1  A    between atoms: C1_2  and  C2_3 
ROOT
ATOM      1  C2  UNL d   1       0.396  -0.164   0.228  0.00  0.00    -0.077 A 
ATOM      2  C3  UNL d   1       1.290   0.854  -0.130  0.00  0.00     0.002 A 
ATOM      3  C4  UNL d   1       0.879   2.189  -0.130  0.00  0.00     0.002 A 
ATOM      4  C5  UNL d   1      -0.426   2.517   0.232  0.00  0.00    -0.004 A 
ATOM      5  C6  UNL d   1      -1.324   1.511   0.587  0.00  0.00     0.002 A 
ATOM      6  C7  UNL d   1      -0.915   0.177   0.586  0.00  0.00     0.002 A 
ENDROOT
BRANCH   1   7
ATOM      7  C1  UNL d   1       0.851  -1.599   0.275  0.00  0.00     0.055 C 
ATOM      8  C   UNL d   1       0.027  -2.473  -0.659  0.00  0.00     0.019 C 
ENDBRANCH   1   7
TORSDOF 1
ENDMDL
