MODEL 1
REMARK minimizedAffinity -3.79605412
REMARK minimizedRMSD -1
REMARK  1 active torsions:
REMARK  status: ('A' for Active; 'I' for Inactive)
REMARK    1  A    between atoms: C1_2  and  C2_3 
ROOT
ATOM      1  C2  UNL d   1       0.230   0.301   0.023  0.00  0.00    -0.077 A 
ATOM      2  C3  UNL d   1       1.139   0.816  -0.912  0.00  0.00     0.002 A 
ATOM      3  C4  UNL d   1       1.486   2.168  -0.889  0.00  0.00     0.002 A 
ATOM      4  C5  UNL d   1       0.932   3.015   0.069  0.00  0.00    -0.004 A 
ATOM      5  C6  UNL d   1       0.026   2.513   1.002  0.00  0.00     0.002 A 
ATOM      6  C7  UNL d   1      -0.323   1.162   0.979  0.00  0.00     0.002 A 
ENDROOT
BRANCH   1   7
ATOM      7  C1  UNL d   1      -0.107  -1.167   0.031  0.00  0.00     0.055 C 
ATOM      8  C   UNL d   1      -0.209  -1.720  -1.383  0.00  0.00     0.019 C 
ENDBRANCH   1   7
TORSDOF 1
ENDMDL
