MODEL 1
REMARK minimizedAffinity -5.33122873
REMARK minimizedRMSD -1
REMARK  1 active torsions:
REMARK  status: ('A' for Active; 'I' for Inactive)
REMARK    1  A    between atoms: C1_2  and  C2_3 
ROOT
ATOM      1  C2  UNL d   1      -1.316   1.021   0.438  0.00  0.00    -0.077 A 
ATOM      2  C3  UNL d   1      -1.261   2.379   0.095  0.00  0.00     0.002 A 
ATOM      3  C4  UNL d   1      -0.057   2.957  -0.312  0.00  0.00     0.002 A 
ATOM      4  C5  UNL d   1       1.100   2.184  -0.382  0.00  0.00    -0.004 A 
ATOM      5  C6  UNL d   1       1.056   0.833  -0.040  0.00  0.00     0.002 A 
ATOM      6  C7  UNL d   1      -0.146   0.254   0.367  0.00  0.00     0.002 A 
ENDROOT
BRANCH   1   7
ATOM      7  C1  UNL d   1      -2.624   0.385   0.830  0.00  0.00     0.055 C 
ATOM      8  C   UNL d   1      -3.796   1.316   0.557  0.00  0.00     0.019 C 
ENDBRANCH   1   7
TORSDOF 1
ENDMDL
