MODEL 1
REMARK minimizedAffinity 10.5815649
REMARK minimizedRMSD -1
REMARK  0 active torsions:
REMARK  status: ('A' for Active; 'I' for Inactive)
ROOT
ATOM      1  C1  DEN d   1       2.565  -4.706  -0.639  0.00  0.00     0.130 A 
ATOM      2  C2  DEN d   1       3.042  -6.000  -1.121  0.00  0.00    -0.031 A 
ATOM      3  C3  DEN d   1       4.461  -5.851  -1.501  0.00  0.00     0.027 A 
ATOM      4  C4  DEN d   1       5.961  -3.756  -1.386  0.00  0.00     0.027 A 
ATOM      5  C5  DEN d   1       5.998  -2.419  -1.057  0.00  0.00    -0.003 A 
ATOM      6  C6  DEN d   1       4.895  -1.748  -0.601  0.00  0.00     0.001 A 
ATOM      7  C7  DEN d   1       3.717  -2.424  -0.419  0.00  0.00     0.017 A 
ATOM      8  C8  DEN d   1       3.669  -3.770  -0.756  0.00  0.00    -0.094 A 
ATOM      9  C9  DEN d   1       4.799  -4.433  -1.204  0.00  0.00    -0.072 A 
ENDROOT
TORSDOF 0
ENDMDL
