MODEL 1
REMARK minimizedAffinity 5.83759117
REMARK minimizedRMSD -1
REMARK  0 active torsions:
REMARK  status: ('A' for Active; 'I' for Inactive)
ROOT
ATOM      1  C1  DEN d   1       1.964  -0.395   2.281  0.00  0.00     0.130 A 
ATOM      2  C2  DEN d   1       1.575  -0.858   3.610  0.00  0.00    -0.031 A 
ATOM      3  C3  DEN d   1       0.494   0.019   4.102  0.00  0.00     0.027 A 
ATOM      4  C4  DEN d   1      -0.614   2.037   2.938  0.00  0.00     0.027 A 
ATOM      5  C5  DEN d   1      -0.612   2.818   1.804  0.00  0.00    -0.003 A 
ATOM      6  C6  DEN d   1       0.264   2.607   0.772  0.00  0.00     0.001 A 
ATOM      7  C7  DEN d   1       1.146   1.560   0.835  0.00  0.00     0.017 A 
ATOM      8  C8  DEN d   1       1.155   0.772   1.978  0.00  0.00    -0.094 A 
ATOM      9  C9  DEN d   1       0.253   0.995   3.005  0.00  0.00    -0.072 A 
ENDROOT
TORSDOF 0
ENDMDL
