MODEL 1
REMARK minimizedAffinity 14.8608599
REMARK minimizedRMSD -1
REMARK  0 active torsions:
REMARK  status: ('A' for Active; 'I' for Inactive)
ROOT
ATOM      1  C1  DEN d   1       5.036  -2.616  -3.279  0.00  0.00     0.130 A 
ATOM      2  C2  DEN d   1       5.899  -1.912  -2.335  0.00  0.00    -0.031 A 
ATOM      3  C3  DEN d   1       6.000  -2.732  -1.110  0.00  0.00     0.027 A 
ATOM      4  C4  DEN d   1       4.914  -5.013  -0.590  0.00  0.00     0.027 A 
ATOM      5  C5  DEN d   1       4.087  -6.000  -1.079  0.00  0.00    -0.003 A 
ATOM      6  C6  DEN d   1       3.496  -5.913  -2.312  0.00  0.00     0.001 A 
ATOM      7  C7  DEN d   1       3.760  -4.837  -3.117  0.00  0.00     0.017 A 
ATOM      8  C8  DEN d   1       4.587  -3.834  -2.628  0.00  0.00    -0.094 A 
ATOM      9  C9  DEN d   1       5.184  -3.946  -1.384  0.00  0.00    -0.072 A 
ENDROOT
TORSDOF 0
ENDMDL
