MODEL 1
REMARK minimizedAffinity 19.5696735
REMARK minimizedRMSD -1
REMARK  0 active torsions:
REMARK  status: ('A' for Active; 'I' for Inactive)
ROOT
ATOM      1  C1  DEN d   1       0.992   2.538   2.134  0.00  0.00     0.130 A 
ATOM      2  C2  DEN d   1      -0.171   2.075   2.886  0.00  0.00    -0.031 A 
ATOM      3  C3  DEN d   1      -1.371   2.717   2.314  0.00  0.00     0.027 A 
ATOM      4  C4  DEN d   1      -1.540   4.372   0.342  0.00  0.00     0.027 A 
ATOM      5  C5  DEN d   1      -0.821   5.071  -0.602  0.00  0.00    -0.003 A 
ATOM      6  C6  DEN d   1       0.545   5.002  -0.678  0.00  0.00     0.001 A 
ATOM      7  C7  DEN d   1       1.232   4.181   0.178  0.00  0.00     0.017 A 
ATOM      8  C8  DEN d   1       0.514   3.479   1.137  0.00  0.00    -0.094 A 
ATOM      9  C9  DEN d   1      -0.868   3.553   1.190  0.00  0.00    -0.072 A 
ENDROOT
TORSDOF 0
ENDMDL
