MODEL 1
REMARK minimizedAffinity 9.25042152
REMARK minimizedRMSD -1
REMARK  0 active torsions:
REMARK  status: ('A' for Active; 'I' for Inactive)
ROOT
ATOM      1  C1  DEN d   1       1.740  -6.000  -1.525  0.00  0.00     0.130 A 
ATOM      2  C2  DEN d   1       0.751  -6.000  -2.599  0.00  0.00    -0.031 A 
ATOM      3  C3  DEN d   1       1.437  -5.627  -3.853  0.00  0.00     0.027 A 
ATOM      4  C4  DEN d   1       3.924  -5.059  -4.233  0.00  0.00     0.027 A 
ATOM      5  C5  DEN d   1       5.149  -4.914  -3.620  0.00  0.00    -0.003 A 
ATOM      6  C6  DEN d   1       5.316  -5.087  -2.271  0.00  0.00     0.001 A 
ATOM      7  C7  DEN d   1       4.248  -5.459  -1.498  0.00  0.00     0.017 A 
ATOM      8  C8  DEN d   1       3.008  -5.599  -2.108  0.00  0.00    -0.094 A 
ATOM      9  C9  DEN d   1       2.863  -5.432  -3.474  0.00  0.00    -0.072 A 
ENDROOT
TORSDOF 0
ENDMDL
