MODEL 1
REMARK minimizedAffinity -5.56163645
REMARK minimizedRMSD -1
REMARK  0 active torsions:
REMARK  status: ('A' for Active; 'I' for Inactive)
ROOT
ATOM      1  C4' PXY d   1       3.854  -0.595   1.226  0.00  0.00     0.077 C 
ATOM      2  C1' PXY d   1      -1.730  -0.197  -0.214  0.00  0.00     0.077 C 
ATOM      3  C1  PXY d   1      -0.263  -0.291   0.156  0.00  0.00    -0.082 A 
ATOM      4  C2  PXY d   1       0.243  -1.453   0.534  0.00  0.00     0.003 A 
ATOM      5  C3  PXY d   1       1.560  -1.549   0.903  0.00  0.00     0.003 A 
ATOM      6  C4  PXY d   1       2.381  -0.455   0.834  0.00  0.00    -0.082 A 
ATOM      7  C5  PXY d   1       1.874   0.732   0.440  0.00  0.00     0.003 A 
ATOM      8  C6  PXY d   1       0.525   0.818   0.109  0.00  0.00     0.003 A 
ENDROOT
TORSDOF 0
ENDMDL
