MODEL 1
REMARK minimizedAffinity -3.26323199
REMARK minimizedRMSD -1
REMARK  0 active torsions:
REMARK  status: ('A' for Active; 'I' for Inactive)
ROOT
ATOM      1  C4' PXY d   1       1.730  -0.059   0.679  0.00  0.00     0.077 C 
ATOM      2  C1' PXY d   1      -2.861  -0.584  -2.793  0.00  0.00     0.077 C 
ATOM      3  C1  PXY d   1      -1.664  -0.439  -1.875  0.00  0.00    -0.082 A 
ATOM      4  C2  PXY d   1      -0.443  -0.577  -2.365  0.00  0.00     0.003 A 
ATOM      5  C3  PXY d   1       0.650  -0.481  -1.542  0.00  0.00     0.003 A 
ATOM      6  C4  PXY d   1       0.493  -0.188  -0.214  0.00  0.00    -0.082 A 
ATOM      7  C5  PXY d   1      -0.749  -0.035   0.292  0.00  0.00     0.003 A 
ATOM      8  C6  PXY d   1      -1.847  -0.178  -0.552  0.00  0.00     0.003 A 
ENDROOT
TORSDOF 0
ENDMDL
