MODEL 1
REMARK minimizedAffinity -3.68174458
REMARK minimizedRMSD -1
REMARK  0 active torsions:
REMARK  status: ('A' for Active; 'I' for Inactive)
ROOT
ATOM      1  C4' PXY d   1      -1.754  -0.425  -1.308  0.00  0.00     0.077 C 
ATOM      2  C1' PXY d   1       2.463   1.425   2.186  0.00  0.00     0.077 C 
ATOM      3  C1  PXY d   1       1.366   0.933   1.263  0.00  0.00    -0.082 A 
ATOM      4  C2  PXY d   1       0.270   1.656   1.106  0.00  0.00     0.003 A 
ATOM      5  C3  PXY d   1      -0.746   1.211   0.300  0.00  0.00     0.003 A 
ATOM      6  C4  PXY d   1      -0.616   0.037  -0.394  0.00  0.00    -0.082 A 
ATOM      7  C5  PXY d   1       0.504  -0.702  -0.247  0.00  0.00     0.003 A 
ATOM      8  C6  PXY d   1       1.506  -0.252   0.608  0.00  0.00     0.003 A 
ENDROOT
TORSDOF 0
ENDMDL
