MODEL 1
REMARK minimizedAffinity -5.47468758
REMARK minimizedRMSD -1
REMARK  0 active torsions:
REMARK  status: ('A' for Active; 'I' for Inactive)
ROOT
ATOM      1  C4' PXY d   1       1.454  -3.500   1.617  0.00  0.00     0.077 C 
ATOM      2  C1' PXY d   1       2.199   2.019   0.066  0.00  0.00     0.077 C 
ATOM      3  C1  PXY d   1       2.016   0.570   0.471  0.00  0.00    -0.082 A 
ATOM      4  C2  PXY d   1       0.839  -0.012   0.309  0.00  0.00     0.003 A 
ATOM      5  C3  PXY d   1       0.648  -1.312   0.700  0.00  0.00     0.003 A 
ATOM      6  C4  PXY d   1       1.687  -2.041   1.213  0.00  0.00    -0.082 A 
ATOM      7  C5  PXY d   1       2.894  -1.458   1.371  0.00  0.00     0.003 A 
ATOM      8  C6  PXY d   1       3.056  -0.125   1.007  0.00  0.00     0.003 A 
ENDROOT
TORSDOF 0
ENDMDL
