MODEL 1
REMARK minimizedAffinity -4.7544589
REMARK minimizedRMSD -1
REMARK  0 active torsions:
REMARK  status: ('A' for Active; 'I' for Inactive)
ROOT
ATOM      1  C4' PXY d   1       1.609   3.121  -0.310  0.00  0.00     0.077 C 
ATOM      2  C1' PXY d   1       1.357  -2.325   1.610  0.00  0.00     0.077 C 
ATOM      3  C1  PXY d   1       1.412  -0.899   1.100  0.00  0.00    -0.082 A 
ATOM      4  C2  PXY d   1       2.573  -0.265   1.053  0.00  0.00     0.003 A 
ATOM      5  C3  PXY d   1       2.636   1.036   0.624  0.00  0.00     0.003 A 
ATOM      6  C4  PXY d   1       1.507   1.677   0.189  0.00  0.00    -0.082 A 
ATOM      7  C5  PXY d   1       0.321   1.034   0.223  0.00  0.00     0.003 A 
ATOM      8  C6  PXY d   1       0.272  -0.273   0.701  0.00  0.00     0.003 A 
ENDROOT
TORSDOF 0
ENDMDL
