MODEL 1
REMARK minimizedAffinity -5.67085314
REMARK minimizedRMSD -1
REMARK  0 active torsions:
REMARK  status: ('A' for Active; 'I' for Inactive)
ROOT
ATOM      1  C4' PXY d   1       3.643   0.160   0.877  0.00  0.00     0.077 C 
ATOM      2  C1' PXY d   1      -2.027  -0.301  -0.150  0.00  0.00     0.077 C 
ATOM      3  C1  PXY d   1      -0.540  -0.191   0.127  0.00  0.00    -0.082 A 
ATOM      4  C2  PXY d   1       0.052   0.990   0.062  0.00  0.00     0.003 A 
ATOM      5  C3  PXY d   1       1.401   1.103   0.277  0.00  0.00     0.003 A 
ATOM      6  C4  PXY d   1       2.143   0.003   0.615  0.00  0.00    -0.082 A 
ATOM      7  C5  PXY d   1       1.544  -1.205   0.694  0.00  0.00     0.003 A 
ATOM      8  C6  PXY d   1       0.181  -1.304   0.431  0.00  0.00     0.003 A 
ENDROOT
TORSDOF 0
ENDMDL
