MODEL 1
REMARK minimizedAffinity -4.77769756
REMARK minimizedRMSD -1
REMARK  0 active torsions:
REMARK  status: ('A' for Active; 'I' for Inactive)
ROOT
ATOM      1  C4' PXY d   1       0.730   3.464   0.318  0.00  0.00     0.077 C 
ATOM      2  C1' PXY d   1       1.043  -2.282   0.865  0.00  0.00     0.077 C 
ATOM      3  C1  PXY d   1       0.972  -0.774   0.728  0.00  0.00    -0.082 A 
ATOM      4  C2  PXY d   1      -0.198  -0.190   0.524  0.00  0.00     0.003 A 
ATOM      5  C3  PXY d   1      -0.276   1.170   0.366  0.00  0.00     0.003 A 
ATOM      6  C4  PXY d   1       0.848   1.946   0.471  0.00  0.00    -0.082 A 
ATOM      7  C5  PXY d   1       2.043   1.358   0.690  0.00  0.00     0.003 A 
ATOM      8  C6  PXY d   1       2.107  -0.027   0.807  0.00  0.00     0.003 A 
ENDROOT
TORSDOF 0
ENDMDL
