MODEL 1
REMARK minimizedAffinity 0.402293473
REMARK minimizedRMSD -1
REMARK  0 active torsions:
REMARK  status: ('A' for Active; 'I' for Inactive)
ROOT
ATOM      1  C4' PXY d   1      -0.432  -1.910   1.398  0.00  0.00     0.077 C 
ATOM      2  C1' PXY d   1       1.354   3.371  -0.132  0.00  0.00     0.077 C 
ATOM      3  C1  PXY d   1       0.898   1.983   0.274  0.00  0.00    -0.082 A 
ATOM      4  C2  PXY d   1      -0.159   1.445  -0.313  0.00  0.00     0.003 A 
ATOM      5  C3  PXY d   1      -0.605   0.204   0.064  0.00  0.00     0.003 A 
ATOM      6  C4  PXY d   1       0.070  -0.515   1.013  0.00  0.00    -0.082 A 
ATOM      7  C5  PXY d   1       1.156   0.022   1.609  0.00  0.00     0.003 A 
ATOM      8  C6  PXY d   1       1.568   1.300   1.241  0.00  0.00     0.003 A 
ENDROOT
TORSDOF 0
ENDMDL
