MODEL 1
REMARK minimizedAffinity 0.919206083
REMARK minimizedRMSD -1
REMARK  0 active torsions:
REMARK  status: ('A' for Active; 'I' for Inactive)
ROOT
ATOM      1  C4' PXY d   1      -1.519   1.353  -0.014  0.00  0.00     0.077 C 
ATOM      2  C1' PXY d   1       1.545  -3.508   0.615  0.00  0.00     0.077 C 
ATOM      3  C1  PXY d   1       0.730  -2.240   0.450  0.00  0.00    -0.082 A 
ATOM      4  C2  PXY d   1       1.289  -1.169  -0.089  0.00  0.00     0.003 A 
ATOM      5  C3  PXY d   1       0.576  -0.004  -0.217  0.00  0.00     0.003 A 
ATOM      6  C4  PXY d   1      -0.738   0.049   0.164  0.00  0.00    -0.082 A 
ATOM      7  C5  PXY d   1      -1.318  -1.043   0.706  0.00  0.00     0.003 A 
ATOM      8  C6  PXY d   1      -0.566  -2.203   0.864  0.00  0.00     0.003 A 
ENDROOT
TORSDOF 0
ENDMDL
