MODEL 1
REMARK minimizedAffinity -4.89789534
REMARK minimizedRMSD -1
REMARK  0 active torsions:
REMARK  status: ('A' for Active; 'I' for Inactive)
ROOT
ATOM      1  C1  DEN d   1       0.311  -0.047   1.225  0.00  0.00     0.130 A 
ATOM      2  C2  DEN d   1      -0.869   0.758   0.920  0.00  0.00    -0.031 A 
ATOM      3  C3  DEN d   1      -0.686   1.346  -0.422  0.00  0.00     0.027 A 
ATOM      4  C4  DEN d   1       1.296   1.086  -2.051  0.00  0.00     0.027 A 
ATOM      5  C5  DEN d   1       2.535   0.510  -2.229  0.00  0.00    -0.003 A 
ATOM      6  C6  DEN d   1       3.129  -0.257  -1.263  0.00  0.00     0.001 A 
ATOM      7  C7  DEN d   1       2.465  -0.507  -0.091  0.00  0.00     0.017 A 
ATOM      8  C8  DEN d   1       1.219   0.076   0.099  0.00  0.00    -0.094 A 
ATOM      9  C9  DEN d   1       0.630   0.838  -0.895  0.00  0.00    -0.072 A 
ENDROOT
TORSDOF 0
ENDMDL
