MODEL 1
REMARK minimizedAffinity -0.59793824
REMARK minimizedRMSD -1
REMARK  0 active torsions:
REMARK  status: ('A' for Active; 'I' for Inactive)
ROOT
ATOM      1  C1  DEN d   1       1.606  -0.620  -1.978  0.00  0.00     0.130 A 
ATOM      2  C2  DEN d   1       1.825  -1.916  -1.343  0.00  0.00    -0.031 A 
ATOM      3  C3  DEN d   1       1.164  -1.895  -0.022  0.00  0.00     0.027 A 
ATOM      4  C4  DEN d   1      -0.175   0.008   1.091  0.00  0.00     0.027 A 
ATOM      5  C5  DEN d   1      -0.621   1.303   0.942  0.00  0.00    -0.003 A 
ATOM      6  C6  DEN d   1      -0.330   2.053  -0.167  0.00  0.00     0.001 A 
ATOM      7  C7  DEN d   1       0.391   1.498  -1.191  0.00  0.00     0.017 A 
ATOM      8  C8  DEN d   1       0.851   0.196  -1.045  0.00  0.00    -0.094 A 
ATOM      9  C9  DEN d   1       0.535  -0.550   0.078  0.00  0.00    -0.072 A 
ENDROOT
TORSDOF 0
ENDMDL
