MODEL 1
REMARK minimizedAffinity -3.19404864
REMARK minimizedRMSD -1
REMARK  0 active torsions:
REMARK  status: ('A' for Active; 'I' for Inactive)
ROOT
ATOM      1  C1  DEN d   1      -0.874   1.459  -0.612  0.00  0.00     0.130 A 
ATOM      2  C2  DEN d   1      -1.759   0.950   0.432  0.00  0.00    -0.031 A 
ATOM      3  C3  DEN d   1      -1.269  -0.383   0.836  0.00  0.00     0.027 A 
ATOM      4  C4  DEN d   1       0.766  -1.699  -0.047  0.00  0.00     0.027 A 
ATOM      5  C5  DEN d   1       1.812  -1.681  -0.942  0.00  0.00    -0.003 A 
ATOM      6  C6  DEN d   1       2.015  -0.638  -1.807  0.00  0.00     0.001 A 
ATOM      7  C7  DEN d   1       1.185   0.451  -1.764  0.00  0.00     0.017 A 
ATOM      8  C8  DEN d   1       0.123   0.436  -0.869  0.00  0.00    -0.094 A 
ATOM      9  C9  DEN d   1      -0.057  -0.622   0.006  0.00  0.00    -0.072 A 
ENDROOT
TORSDOF 0
ENDMDL
