MODEL 1
REMARK minimizedAffinity 1.94700348
REMARK minimizedRMSD -1
REMARK  0 active torsions:
REMARK  status: ('A' for Active; 'I' for Inactive)
ROOT
ATOM      1  C1  DEN d   1      -0.997   0.038   0.982  0.00  0.00     0.130 A 
ATOM      2  C2  DEN d   1       0.316  -0.488   0.619  0.00  0.00    -0.031 A 
ATOM      3  C3  DEN d   1       1.249  -0.187   1.724  0.00  0.00     0.027 A 
ATOM      4  C4  DEN d   1       0.789   1.031   3.950  0.00  0.00     0.027 A 
ATOM      5  C5  DEN d   1      -0.172   1.670   4.703  0.00  0.00    -0.003 A 
ATOM      6  C6  DEN d   1      -1.456   1.838   4.257  0.00  0.00     0.001 A 
ATOM      7  C7  DEN d   1      -1.826   1.321   3.044  0.00  0.00     0.017 A 
ATOM      8  C8  DEN d   1      -0.861   0.683   2.276  0.00  0.00    -0.094 A 
ATOM      9  C9  DEN d   1       0.429   0.513   2.749  0.00  0.00    -0.072 A 
ENDROOT
TORSDOF 0
ENDMDL
