MODEL 1
REMARK minimizedAffinity -0.889854729
REMARK minimizedRMSD -1
REMARK  0 active torsions:
REMARK  status: ('A' for Active; 'I' for Inactive)
ROOT
ATOM      1  C1  DEN d   1       0.621  -1.510   0.963  0.00  0.00     0.130 A 
ATOM      2  C2  DEN d   1       0.899  -1.191  -0.435  0.00  0.00    -0.031 A 
ATOM      3  C3  DEN d   1      -0.037  -0.129  -0.856  0.00  0.00     0.027 A 
ATOM      4  C4  DEN d   1      -1.877   1.049   0.514  0.00  0.00     0.027 A 
ATOM      5  C5  DEN d   1      -2.497   1.109   1.742  0.00  0.00    -0.003 A 
ATOM      6  C6  DEN d   1      -2.148   0.283   2.778  0.00  0.00     0.001 A 
ATOM      7  C7  DEN d   1      -1.119  -0.608   2.618  0.00  0.00     0.017 A 
ATOM      8  C8  DEN d   1      -0.494  -0.679   1.380  0.00  0.00    -0.094 A 
ATOM      9  C9  DEN d   1      -0.854   0.173   0.350  0.00  0.00    -0.072 A 
ENDROOT
TORSDOF 0
ENDMDL
