MODEL 1
REMARK minimizedAffinity -5.07783079
REMARK minimizedRMSD -1
REMARK  0 active torsions:
REMARK  status: ('A' for Active; 'I' for Inactive)
ROOT
ATOM      1  C1  DEN d   1       0.299  -1.650   0.076  0.00  0.00     0.130 A 
ATOM      2  C2  DEN d   1       1.641  -1.603  -0.499  0.00  0.00    -0.031 A 
ATOM      3  C3  DEN d   1       1.836  -0.266  -1.095  0.00  0.00     0.027 A 
ATOM      4  C4  DEN d   1       0.201   1.727  -1.179  0.00  0.00     0.027 A 
ATOM      5  C5  DEN d   1      -1.061   2.159  -0.835  0.00  0.00    -0.003 A 
ATOM      6  C6  DEN d   1      -1.962   1.347  -0.199  0.00  0.00     0.001 A 
ATOM      7  C7  DEN d   1      -1.599   0.075   0.154  0.00  0.00     0.017 A 
ATOM      8  C8  DEN d   1      -0.331  -0.371  -0.196  0.00  0.00    -0.094 A 
ATOM      9  C9  DEN d   1       0.570   0.469  -0.829  0.00  0.00    -0.072 A 
ENDROOT
TORSDOF 0
ENDMDL
