MODEL 1
REMARK minimizedAffinity -3.67373323
REMARK minimizedRMSD -1
REMARK  0 active torsions:
REMARK  status: ('A' for Active; 'I' for Inactive)
ROOT
ATOM      1  C1  DEN d   1       2.022   0.364  -3.105  0.00  0.00     0.130 A 
ATOM      2  C2  DEN d   1       1.433   1.686  -3.300  0.00  0.00    -0.031 A 
ATOM      3  C3  DEN d   1       0.457   1.916  -2.216  0.00  0.00     0.027 A 
ATOM      4  C4  DEN d   1      -0.192   0.364  -0.260  0.00  0.00     0.027 A 
ATOM      5  C5  DEN d   1       0.031  -0.866   0.318  0.00  0.00    -0.003 A 
ATOM      6  C6  DEN d   1       0.901  -1.778  -0.218  0.00  0.00     0.001 A 
ATOM      7  C7  DEN d   1       1.614  -1.456  -1.343  0.00  0.00     0.017 A 
ATOM      8  C8  DEN d   1       1.389  -0.221  -1.936  0.00  0.00    -0.094 A 
ATOM      9  C9  DEN d   1       0.515   0.692  -1.372  0.00  0.00    -0.072 A 
ENDROOT
TORSDOF 0
ENDMDL
