MODEL 1
REMARK minimizedAffinity -6.32459593
REMARK minimizedRMSD -1
REMARK  0 active torsions:
REMARK  status: ('A' for Active; 'I' for Inactive)
ROOT
ATOM      1  C1  DEN d   1       2.159  -1.450  -0.090  0.00  0.00     0.130 A 
ATOM      2  C2  DEN d   1       1.203  -1.253   0.996  0.00  0.00    -0.031 A 
ATOM      3  C3  DEN d   1       0.429  -0.029   0.706  0.00  0.00     0.027 A 
ATOM      4  C4  DEN d   1       0.616   1.568  -1.311  0.00  0.00     0.027 A 
ATOM      5  C5  DEN d   1       1.291   1.820  -2.485  0.00  0.00    -0.003 A 
ATOM      6  C6  DEN d   1       2.317   1.025  -2.922  0.00  0.00     0.001 A 
ATOM      7  C7  DEN d   1       2.669  -0.086  -2.202  0.00  0.00     0.017 A 
ATOM      8  C8  DEN d   1       1.997  -0.343  -1.014  0.00  0.00    -0.094 A 
ATOM      9  C9  DEN d   1       0.954   0.466  -0.596  0.00  0.00    -0.072 A 
ENDROOT
TORSDOF 0
ENDMDL
