MODEL 1
REMARK minimizedAffinity -2.88046813
REMARK minimizedRMSD -1
REMARK  0 active torsions:
REMARK  status: ('A' for Active; 'I' for Inactive)
ROOT
ATOM      1  C1  DEN d   1       0.946  -0.512  -2.112  0.00  0.00     0.130 A 
ATOM      2  C2  DEN d   1       1.849  -1.656  -2.009  0.00  0.00    -0.031 A 
ATOM      3  C3  DEN d   1       1.765  -2.182  -0.632  0.00  0.00     0.027 A 
ATOM      4  C4  DEN d   1       0.328  -1.345   1.340  0.00  0.00     0.027 A 
ATOM      5  C5  DEN d   1      -0.588  -0.396   1.738  0.00  0.00    -0.003 A 
ATOM      6  C6  DEN d   1      -1.027   0.593   0.898  0.00  0.00     0.001 A 
ATOM      7  C7  DEN d   1      -0.585   0.628  -0.398  0.00  0.00     0.017 A 
ATOM      8  C8  DEN d   1       0.344  -0.320  -0.805  0.00  0.00    -0.094 A 
ATOM      9  C9  DEN d   1       0.767  -1.319   0.056  0.00  0.00    -0.072 A 
ENDROOT
TORSDOF 0
ENDMDL
