MODEL 1
REMARK minimizedAffinity -0.519170821
REMARK minimizedRMSD -1
REMARK  0 active torsions:
REMARK  status: ('A' for Active; 'I' for Inactive)
ROOT
ATOM      1  C1  DEN d   1       2.154  -0.620  -2.896  0.00  0.00     0.130 A 
ATOM      2  C2  DEN d   1       1.855   0.651  -3.550  0.00  0.00    -0.031 A 
ATOM      3  C3  DEN d   1       0.840   1.354  -2.741  0.00  0.00     0.027 A 
ATOM      4  C4  DEN d   1      -0.289   0.604  -0.546  0.00  0.00     0.027 A 
ATOM      5  C5  DEN d   1      -0.367  -0.405   0.389  0.00  0.00    -0.003 A 
ATOM      6  C6  DEN d   1       0.359  -1.561   0.277  0.00  0.00     0.001 A 
ATOM      7  C7  DEN d   1       1.229  -1.718  -0.769  0.00  0.00     0.017 A 
ATOM      8  C8  DEN d   1       1.307  -0.709  -1.720  0.00  0.00    -0.094 A 
ATOM      9  C9  DEN d   1       0.575   0.458  -1.582  0.00  0.00    -0.072 A 
ENDROOT
TORSDOF 0
ENDMDL
