MODEL 1
REMARK minimizedAffinity 5.00048876
REMARK minimizedRMSD -1
REMARK  0 active torsions:
REMARK  status: ('A' for Active; 'I' for Inactive)
ROOT
ATOM      1  C1  DEN d   1      -6.000   0.717   2.399  0.00  0.00     0.130 A 
ATOM      2  C2  DEN d   1      -5.992  -0.654   1.896  0.00  0.00    -0.031 A 
ATOM      3  C3  DEN d   1      -4.677  -1.247   2.209  0.00  0.00     0.027 A 
ATOM      4  C4  DEN d   1      -2.663  -0.183   3.420  0.00  0.00     0.027 A 
ATOM      5  C5  DEN d   1      -2.192   0.963   4.021  0.00  0.00    -0.003 A 
ATOM      6  C6  DEN d   1      -2.939   2.110   4.092  0.00  0.00     0.001 A 
ATOM      7  C7  DEN d   1      -4.215   2.121   3.593  0.00  0.00     0.017 A 
ATOM      8  C8  DEN d   1      -4.694   0.971   2.980  0.00  0.00    -0.094 A 
ATOM      9  C9  DEN d   1      -3.928  -0.182   2.929  0.00  0.00    -0.072 A 
ENDROOT
TORSDOF 0
ENDMDL
