MODEL 1
REMARK minimizedAffinity -3.84454894
REMARK minimizedRMSD -1
REMARK  0 active torsions:
REMARK  status: ('A' for Active; 'I' for Inactive)
ROOT
ATOM      1  C1  DEN d   1      -1.879   1.759   1.356  0.00  0.00     0.130 A 
ATOM      2  C2  DEN d   1      -1.616   1.681   2.790  0.00  0.00    -0.031 A 
ATOM      3  C3  DEN d   1      -0.503   0.733   2.999  0.00  0.00     0.027 A 
ATOM      4  C4  DEN d   1       0.834  -0.611   1.251  0.00  0.00     0.027 A 
ATOM      5  C5  DEN d   1       0.968  -0.884  -0.093  0.00  0.00    -0.003 A 
ATOM      6  C6  DEN d   1       0.147  -0.325  -1.037  0.00  0.00     0.001 A 
ATOM      7  C7  DEN d   1      -0.816   0.570  -0.654  0.00  0.00     0.017 A 
ATOM      8  C8  DEN d   1      -0.962   0.844   0.699  0.00  0.00    -0.094 A 
ATOM      9  C9  DEN d   1      -0.115   0.279   1.637  0.00  0.00    -0.072 A 
ENDROOT
TORSDOF 0
ENDMDL
