MODEL 1
REMARK minimizedAffinity -1.98445415
REMARK minimizedRMSD -1
REMARK  0 active torsions:
REMARK  status: ('A' for Active; 'I' for Inactive)
ROOT
ATOM      1  C1  DEN d   1      -1.655   1.541   1.763  0.00  0.00     0.130 A 
ATOM      2  C2  DEN d   1      -1.550   1.143   3.164  0.00  0.00    -0.031 A 
ATOM      3  C3  DEN d   1      -0.568   0.044   3.254  0.00  0.00     0.027 A 
ATOM      4  C4  DEN d   1       0.796  -1.072   1.371  0.00  0.00     0.027 A 
ATOM      5  C5  DEN d   1       1.038  -1.082   0.015  0.00  0.00    -0.003 A 
ATOM      6  C6  DEN d   1       0.380  -0.249  -0.850  0.00  0.00     0.001 A 
ATOM      7  C7  DEN d   1      -0.520   0.661  -0.364  0.00  0.00     0.017 A 
ATOM      8  C8  DEN d   1      -0.775   0.673   1.002  0.00  0.00    -0.094 A 
ATOM      9  C9  DEN d   1      -0.091  -0.169   1.862  0.00  0.00    -0.072 A 
ENDROOT
TORSDOF 0
ENDMDL
