MODEL 1
REMARK minimizedAffinity 5.07972097
REMARK minimizedRMSD -1
REMARK  0 active torsions:
REMARK  status: ('A' for Active; 'I' for Inactive)
ROOT
ATOM      1  C1  BNZ d   1       0.904  -2.700   0.115  0.00  0.00     0.000 A 
ATOM      2  C2  BNZ d   1       2.256  -2.515   0.229  0.00  0.00     0.000 A 
ATOM      3  C3  BNZ d   1       2.939  -1.759  -0.682  0.00  0.00     0.000 A 
ATOM      4  C4  BNZ d   1       2.277  -1.222  -1.727  0.00  0.00     0.000 A 
ATOM      5  C5  BNZ d   1       0.915  -1.407  -1.861  0.00  0.00     0.000 A 
ATOM      6  C6  BNZ d   1       0.225  -2.136  -0.921  0.00  0.00     0.000 A 
ENDROOT
TORSDOF 0
ENDMDL
