MODEL 1
REMARK minimizedAffinity -1.20238841
REMARK minimizedRMSD -1
REMARK  0 active torsions:
REMARK  status: ('A' for Active; 'I' for Inactive)
ROOT
ATOM      1  C1  BNZ d   1       4.021  -0.377  -1.576  0.00  0.00     0.000 A 
ATOM      2  C2  BNZ d   1       4.028   0.944  -1.936  0.00  0.00     0.000 A 
ATOM      3  C3  BNZ d   1       2.859   1.608  -2.185  0.00  0.00     0.000 A 
ATOM      4  C4  BNZ d   1       1.690   0.940  -2.114  0.00  0.00     0.000 A 
ATOM      5  C5  BNZ d   1       1.667  -0.394  -1.761  0.00  0.00     0.000 A 
ATOM      6  C6  BNZ d   1       2.843  -1.049  -1.472  0.00  0.00     0.000 A 
ENDROOT
TORSDOF 0
ENDMDL
