MODEL 1
REMARK minimizedAffinity 5.82256269
REMARK minimizedRMSD -1
REMARK  0 active torsions:
REMARK  status: ('A' for Active; 'I' for Inactive)
ROOT
ATOM      1  C1  BNZ d   1       2.380  -0.715  -1.237  0.00  0.00     0.000 A 
ATOM      2  C2  BNZ d   1       1.849  -1.973  -1.140  0.00  0.00     0.000 A 
ATOM      3  C3  BNZ d   1       0.495  -2.163  -1.136  0.00  0.00     0.000 A 
ATOM      4  C4  BNZ d   1      -0.324  -1.093  -1.189  0.00  0.00     0.000 A 
ATOM      5  C5  BNZ d   1       0.196   0.183  -1.278  0.00  0.00     0.000 A 
ATOM      6  C6  BNZ d   1       1.559   0.367  -1.321  0.00  0.00     0.000 A 
ENDROOT
TORSDOF 0
ENDMDL
