MODEL 1
REMARK minimizedAffinity -0.957834959
REMARK minimizedRMSD -1
REMARK  0 active torsions:
REMARK  status: ('A' for Active; 'I' for Inactive)
ROOT
ATOM      1  C1  BNZ d   1      -4.159   0.016   3.830  0.00  0.00     0.000 A 
ATOM      2  C2  BNZ d   1      -4.166  -0.837   4.901  0.00  0.00     0.000 A 
ATOM      3  C3  BNZ d   1      -5.100  -0.710   5.890  0.00  0.00     0.000 A 
ATOM      4  C4  BNZ d   1      -6.000   0.293   5.828  0.00  0.00     0.000 A 
ATOM      5  C5  BNZ d   1      -6.000   1.167   4.759  0.00  0.00     0.000 A 
ATOM      6  C6  BNZ d   1      -5.082   1.012   3.746  0.00  0.00     0.000 A 
ENDROOT
TORSDOF 0
ENDMDL
