MODEL 1
REMARK minimizedAffinity 4.11701488
REMARK minimizedRMSD -1
REMARK  0 active torsions:
REMARK  status: ('A' for Active; 'I' for Inactive)
ROOT
ATOM      1  C1  BNZ d   1       0.755   1.252  -0.974  0.00  0.00     0.000 A 
ATOM      2  C2  BNZ d   1       0.826   2.246  -1.913  0.00  0.00     0.000 A 
ATOM      3  C3  BNZ d   1       1.593   2.096  -3.034  0.00  0.00     0.000 A 
ATOM      4  C4  BNZ d   1       2.318   0.970  -3.196  0.00  0.00     0.000 A 
ATOM      5  C5  BNZ d   1       2.265  -0.037  -2.253  0.00  0.00     0.000 A 
ATOM      6  C6  BNZ d   1       1.461   0.101  -1.145  0.00  0.00     0.000 A 
ENDROOT
TORSDOF 0
ENDMDL
