MODEL 1
REMARK minimizedAffinity -1.17724597
REMARK minimizedRMSD -1
REMARK  0 active torsions:
REMARK  status: ('A' for Active; 'I' for Inactive)
ROOT
ATOM      1  C1  BNZ d   1      -2.222  -0.558   3.623  0.00  0.00     0.000 A 
ATOM      2  C2  BNZ d   1      -2.405   0.567   4.381  0.00  0.00     0.000 A 
ATOM      3  C3  BNZ d   1      -3.662   0.990   4.714  0.00  0.00     0.000 A 
ATOM      4  C4  BNZ d   1      -4.733   0.310   4.256  0.00  0.00     0.000 A 
ATOM      5  C5  BNZ d   1      -4.564  -0.821   3.482  0.00  0.00     0.000 A 
ATOM      6  C6  BNZ d   1      -3.297  -1.265   3.182  0.00  0.00     0.000 A 
ENDROOT
TORSDOF 0
ENDMDL
