MODEL 1
REMARK minimizedAffinity 1.53650117
REMARK minimizedRMSD -1
REMARK  0 active torsions:
REMARK  status: ('A' for Active; 'I' for Inactive)
ROOT
ATOM      1  C1  BNZ d   1      -3.654  -1.548   1.132  0.00  0.00     0.000 A 
ATOM      2  C2  BNZ d   1      -4.830  -2.160   1.474  0.00  0.00     0.000 A 
ATOM      3  C3  BNZ d   1      -5.997  -1.839   0.838  0.00  0.00     0.000 A 
ATOM      4  C4  BNZ d   1      -5.993  -0.880  -0.110  0.00  0.00     0.000 A 
ATOM      5  C5  BNZ d   1      -4.816  -0.247  -0.459  0.00  0.00     0.000 A 
ATOM      6  C6  BNZ d   1      -3.637  -0.600   0.156  0.00  0.00     0.000 A 
ENDROOT
TORSDOF 0
ENDMDL
