MODEL 1
REMARK minimizedAffinity -2.76005507
REMARK minimizedRMSD -1
REMARK  0 active torsions:
REMARK  status: ('A' for Active; 'I' for Inactive)
ROOT
ATOM      1  C1  BNZ d   1       1.185   0.191  -1.143  0.00  0.00     0.000 A 
ATOM      2  C2  BNZ d   1       1.411   1.318  -1.889  0.00  0.00     0.000 A 
ATOM      3  C3  BNZ d   1       2.470   1.386  -2.751  0.00  0.00     0.000 A 
ATOM      4  C4  BNZ d   1       3.323   0.345  -2.836  0.00  0.00     0.000 A 
ATOM      5  C5  BNZ d   1       3.115  -0.794  -2.084  0.00  0.00     0.000 A 
ATOM      6  C6  BNZ d   1       2.026  -0.874  -1.247  0.00  0.00     0.000 A 
ENDROOT
TORSDOF 0
ENDMDL
