MODEL 1
REMARK minimizedAffinity 0.170214266
REMARK minimizedRMSD -1
REMARK  0 active torsions:
REMARK  status: ('A' for Active; 'I' for Inactive)
ROOT
ATOM      1  C1  BNZ d   1       1.903   2.961  -2.812  0.00  0.00     0.000 A 
ATOM      2  C2  BNZ d   1       1.642   4.004  -3.660  0.00  0.00     0.000 A 
ATOM      3  C3  BNZ d   1       1.256   3.778  -4.951  0.00  0.00     0.000 A 
ATOM      4  C4  BNZ d   1       1.170   2.510  -5.405  0.00  0.00     0.000 A 
ATOM      5  C5  BNZ d   1       1.438   1.448  -4.565  0.00  0.00     0.000 A 
ATOM      6  C6  BNZ d   1       1.789   1.679  -3.255  0.00  0.00     0.000 A 
ENDROOT
TORSDOF 0
ENDMDL
