MODEL 1
REMARK minimizedAffinity 2.21987677
REMARK minimizedRMSD -1
REMARK  0 active torsions:
REMARK  status: ('A' for Active; 'I' for Inactive)
ROOT
ATOM      1  C1  BNZ d   1       1.237  -1.810  -2.417  0.00  0.00     0.000 A 
ATOM      2  C2  BNZ d   1       1.292  -2.870  -1.551  0.00  0.00     0.000 A 
ATOM      3  C3  BNZ d   1       2.201  -2.892  -0.530  0.00  0.00     0.000 A 
ATOM      4  C4  BNZ d   1       3.079  -1.877  -0.402  0.00  0.00     0.000 A 
ATOM      5  C5  BNZ d   1       3.042  -0.806  -1.273  0.00  0.00     0.000 A 
ATOM      6  C6  BNZ d   1       2.100  -0.768  -2.275  0.00  0.00     0.000 A 
ENDROOT
TORSDOF 0
ENDMDL
