MODEL 1
REMARK minimizedAffinity 0.732617438
REMARK minimizedRMSD -1
REMARK  0 active torsions:
REMARK  status: ('A' for Active; 'I' for Inactive)
ROOT
ATOM      1  C1  BNZ d   1       1.052   2.085   0.545  0.00  0.00     0.000 A 
ATOM      2  C2  BNZ d   1       2.082   1.695  -0.269  0.00  0.00     0.000 A 
ATOM      3  C3  BNZ d   1       1.840   1.239  -1.535  0.00  0.00     0.000 A 
ATOM      4  C4  BNZ d   1       0.568   1.136  -1.970  0.00  0.00     0.000 A 
ATOM      5  C5  BNZ d   1      -0.482   1.516  -1.158  0.00  0.00     0.000 A 
ATOM      6  C6  BNZ d   1      -0.232   2.011   0.101  0.00  0.00     0.000 A 
ENDROOT
TORSDOF 0
ENDMDL
