MODEL 1
REMARK minimizedAffinity 3.74728894
REMARK minimizedRMSD -1
REMARK  0 active torsions:
REMARK  status: ('A' for Active; 'I' for Inactive)
ROOT
ATOM      1  C1  BNZ d   1      -5.755   0.159   5.964  0.00  0.00     0.000 A 
ATOM      2  C2  BNZ d   1      -5.998   0.908   4.844  0.00  0.00     0.000 A 
ATOM      3  C3  BNZ d   1      -5.195   0.802   3.743  0.00  0.00     0.000 A 
ATOM      4  C4  BNZ d   1      -4.128  -0.021   3.777  0.00  0.00     0.000 A 
ATOM      5  C5  BNZ d   1      -3.864  -0.776   4.903  0.00  0.00     0.000 A 
ATOM      6  C6  BNZ d   1      -4.697  -0.696   5.995  0.00  0.00     0.000 A 
ENDROOT
TORSDOF 0
ENDMDL
