MODEL 1
REMARK minimizedAffinity 3.87668228
REMARK minimizedRMSD -1
REMARK  0 active torsions:
REMARK  status: ('A' for Active; 'I' for Inactive)
ROOT
ATOM      1  C1  BNZ d   1       2.732   0.005  -2.511  0.00  0.00     0.000 A 
ATOM      2  C2  BNZ d   1       2.221   1.263  -2.336  0.00  0.00     0.000 A 
ATOM      3  C3  BNZ d   1       0.926   1.443  -1.939  0.00  0.00     0.000 A 
ATOM      4  C4  BNZ d   1       0.132   0.368  -1.756  0.00  0.00     0.000 A 
ATOM      5  C5  BNZ d   1       0.630  -0.907  -1.938  0.00  0.00     0.000 A 
ATOM      6  C6  BNZ d   1       1.946  -1.086  -2.300  0.00  0.00     0.000 A 
ENDROOT
TORSDOF 0
ENDMDL
