MODEL 1
REMARK minimizedAffinity 3.68852711
REMARK minimizedRMSD -1
REMARK  0 active torsions:
REMARK  status: ('A' for Active; 'I' for Inactive)
ROOT
ATOM      1  C1  BNZ d   1       2.555  -1.858  -0.969  0.00  0.00     0.000 A 
ATOM      2  C2  BNZ d   1       3.152  -0.654  -1.233  0.00  0.00     0.000 A 
ATOM      3  C3  BNZ d   1       2.634   0.193  -2.173  0.00  0.00     0.000 A 
ATOM      4  C4  BNZ d   1       1.545  -0.182  -2.874  0.00  0.00     0.000 A 
ATOM      5  C5  BNZ d   1       0.937  -1.397  -2.626  0.00  0.00     0.000 A 
ATOM      6  C6  BNZ d   1       1.439  -2.229  -1.652  0.00  0.00     0.000 A 
ENDROOT
TORSDOF 0
ENDMDL
