MODEL 1
REMARK minimizedAffinity 0.302435219
REMARK minimizedRMSD -1
REMARK  0 active torsions:
REMARK  status: ('A' for Active; 'I' for Inactive)
ROOT
ATOM      1  C1  BNZ d   1       1.798   0.748  -2.251  0.00  0.00     0.000 A 
ATOM      2  C2  BNZ d   1       1.056   0.579  -1.112  0.00  0.00     0.000 A 
ATOM      3  C3  BNZ d   1       0.114   1.500  -0.748  0.00  0.00     0.000 A 
ATOM      4  C4  BNZ d   1      -0.057   2.607  -1.500  0.00  0.00     0.000 A 
ATOM      5  C5  BNZ d   1       0.691   2.796  -2.645  0.00  0.00     0.000 A 
ATOM      6  C6  BNZ d   1       1.611   1.848  -3.030  0.00  0.00     0.000 A 
ENDROOT
TORSDOF 0
ENDMDL
