MODEL 1
REMARK minimizedAffinity 0.283428371
REMARK minimizedRMSD -1
REMARK  0 active torsions:
REMARK  status: ('A' for Active; 'I' for Inactive)
ROOT
ATOM      1  C1  BNZ d   1       1.815  -0.257  -1.608  0.00  0.00     0.000 A 
ATOM      2  C2  BNZ d   1       1.033   0.854  -1.440  0.00  0.00     0.000 A 
ATOM      3  C3  BNZ d   1       1.309   2.012  -2.111  0.00  0.00     0.000 A 
ATOM      4  C4  BNZ d   1       2.388   2.070  -2.919  0.00  0.00     0.000 A 
ATOM      5  C5  BNZ d   1       3.191   0.960  -3.092  0.00  0.00     0.000 A 
ATOM      6  C6  BNZ d   1       2.888  -0.215  -2.444  0.00  0.00     0.000 A 
ENDROOT
TORSDOF 0
ENDMDL
