MODEL 1
REMARK minimizedAffinity -4.67884064
REMARK minimizedRMSD -1
REMARK  0 active torsions:
REMARK  status: ('A' for Active; 'I' for Inactive)
ROOT
ATOM      1  C   UNL d   1      -1.605   1.313   1.551  0.00  0.00    -0.002 A 
ATOM      2  C1  UNL d   1      -1.540   1.815   2.843  0.00  0.00     0.010 A 
ATOM      3  C2  UNL d   1      -2.285   1.233   3.870  0.00  0.00     0.041 A 
ATOM      4  C3  UNL d   1      -3.104   0.126   3.574  0.00  0.00    -0.075 A 
ATOM      5  S   UNL d   1      -4.105  -0.749   4.672  0.00  0.00     0.015 SA
ATOM      6  C4  UNL d   1      -4.643  -1.811   3.452  0.00  0.00     0.022 A 
ATOM      7  C5  UNL d   1      -4.082  -1.520   2.231  0.00  0.00     0.026 A 
ATOM      8  C6  UNL d   1      -3.186  -0.399   2.281  0.00  0.00    -0.082 A 
ATOM      9  C7  UNL d   1      -2.419   0.214   1.262  0.00  0.00     0.045 A 
ENDROOT
TORSDOF 0
ENDMDL
