MODEL 1
REMARK minimizedAffinity -0.899226546
REMARK minimizedRMSD -1
REMARK  0 active torsions:
REMARK  status: ('A' for Active; 'I' for Inactive)
ROOT
ATOM      1  C   UNL d   1       2.949  -0.394  -1.883  0.00  0.00    -0.002 A 
ATOM      2  C1  UNL d   1       2.682   0.963  -1.995  0.00  0.00     0.010 A 
ATOM      3  C2  UNL d   1       1.484   1.494  -1.511  0.00  0.00     0.041 A 
ATOM      4  C3  UNL d   1       0.551   0.629  -0.907  0.00  0.00    -0.075 A 
ATOM      5  S   UNL d   1      -0.982   1.054  -0.242  0.00  0.00     0.015 SA
ATOM      6  C4  UNL d   1      -1.318  -0.555   0.206  0.00  0.00     0.022 A 
ATOM      7  C5  UNL d   1      -0.297  -1.410  -0.135  0.00  0.00     0.026 A 
ATOM      8  C6  UNL d   1       0.798  -0.741  -0.782  0.00  0.00    -0.082 A 
ATOM      9  C7  UNL d   1       2.021  -1.249  -1.282  0.00  0.00     0.045 A 
ENDROOT
TORSDOF 0
ENDMDL
