MODEL 1
REMARK minimizedAffinity -1.19155908
REMARK minimizedRMSD -1
REMARK  0 active torsions:
REMARK  status: ('A' for Active; 'I' for Inactive)
ROOT
ATOM      1  C   UNL d   1      -2.778   0.182   3.428  0.00  0.00    -0.002 A 
ATOM      2  C1  UNL d   1      -2.053   1.354   3.596  0.00  0.00     0.010 A 
ATOM      3  C2  UNL d   1      -1.145   1.772   2.621  0.00  0.00     0.041 A 
ATOM      4  C3  UNL d   1      -0.977   0.987   1.463  0.00  0.00    -0.075 A 
ATOM      5  S   UNL d   1       0.078   1.303   0.137  0.00  0.00     0.015 SA
ATOM      6  C4  UNL d   1      -0.410  -0.109  -0.684  0.00  0.00     0.022 A 
ATOM      7  C5  UNL d   1      -1.353  -0.817   0.023  0.00  0.00     0.026 A 
ATOM      8  C6  UNL d   1      -1.696  -0.196   1.272  0.00  0.00    -0.082 A 
ATOM      9  C7  UNL d   1      -2.608  -0.594   2.279  0.00  0.00     0.045 A 
ENDROOT
TORSDOF 0
ENDMDL
