MODEL 1
REMARK minimizedAffinity -2.51539516
REMARK minimizedRMSD -1
REMARK  0 active torsions:
REMARK  status: ('A' for Active; 'I' for Inactive)
ROOT
ATOM      1  C   UNL d   1       0.861  -2.197  -0.729  0.00  0.00    -0.002 A 
ATOM      2  C1  UNL d   1      -0.468  -1.807  -0.645  0.00  0.00     0.010 A 
ATOM      3  C2  UNL d   1      -0.805  -0.458  -0.511  0.00  0.00     0.041 A 
ATOM      4  C3  UNL d   1       0.226   0.501  -0.464  0.00  0.00    -0.075 A 
ATOM      5  S   UNL d   1       0.051   2.208  -0.305  0.00  0.00     0.015 SA
ATOM      6  C4  UNL d   1       1.736   2.460  -0.345  0.00  0.00     0.022 A 
ATOM      7  C5  UNL d   1       2.431   1.281  -0.476  0.00  0.00     0.026 A 
ATOM      8  C6  UNL d   1       1.572   0.132  -0.547  0.00  0.00    -0.082 A 
ATOM      9  C7  UNL d   1       1.881  -1.243  -0.682  0.00  0.00     0.045 A 
ENDROOT
TORSDOF 0
ENDMDL
