MODEL 1
REMARK minimizedAffinity 8.40518665
REMARK minimizedRMSD -1
REMARK  0 active torsions:
REMARK  status: ('A' for Active; 'I' for Inactive)
ROOT
ATOM      1  C   UNL d   1      -2.969  -1.069   3.769  0.00  0.00    -0.002 A 
ATOM      2  C1  UNL d   1      -3.173   0.266   3.446  0.00  0.00     0.010 A 
ATOM      3  C2  UNL d   1      -2.593   0.816   2.302  0.00  0.00     0.041 A 
ATOM      4  C3  UNL d   1      -1.798  -0.005   1.478  0.00  0.00    -0.075 A 
ATOM      5  S   UNL d   1      -0.988   0.452   0.026  0.00  0.00     0.015 SA
ATOM      6  C4  UNL d   1      -0.354  -1.114  -0.201  0.00  0.00     0.022 A 
ATOM      7  C5  UNL d   1      -0.740  -1.977   0.797  0.00  0.00     0.026 A 
ATOM      8  C6  UNL d   1      -1.579  -1.352   1.781  0.00  0.00    -0.082 A 
ATOM      9  C7  UNL d   1      -2.181  -1.880   2.949  0.00  0.00     0.045 A 
ENDROOT
TORSDOF 0
ENDMDL
