MODEL 1
REMARK minimizedAffinity 6.94471359
REMARK minimizedRMSD -1
REMARK  0 active torsions:
REMARK  status: ('A' for Active; 'I' for Inactive)
ROOT
ATOM      1  C   UNL d   1       2.429  -1.157  -0.592  0.00  0.00    -0.002 A 
ATOM      2  C1  UNL d   1       2.055  -2.231  -1.388  0.00  0.00     0.010 A 
ATOM      3  C2  UNL d   1       1.567  -2.022  -2.679  0.00  0.00     0.041 A 
ATOM      4  C3  UNL d   1       1.462  -0.703  -3.163  0.00  0.00    -0.075 A 
ATOM      5  S   UNL d   1       0.893  -0.207  -4.713  0.00  0.00     0.015 SA
ATOM      6  C4  UNL d   1       1.135   1.442  -4.356  0.00  0.00     0.022 A 
ATOM      7  C5  UNL d   1       1.637   1.628  -3.090  0.00  0.00     0.026 A 
ATOM      8  C6  UNL d   1       1.834   0.394  -2.381  0.00  0.00    -0.082 A 
ATOM      9  C7  UNL d   1       2.325   0.149  -1.076  0.00  0.00     0.045 A 
ENDROOT
TORSDOF 0
ENDMDL
