MODEL 1
REMARK minimizedAffinity -0.915818274
REMARK minimizedRMSD -1
REMARK  0 active torsions:
REMARK  status: ('A' for Active; 'I' for Inactive)
ROOT
ATOM      1  C   UNL d   1       2.536  -1.050  -1.355  0.00  0.00    -0.002 A 
ATOM      2  C1  UNL d   1       1.799  -2.176  -1.017  0.00  0.00     0.010 A 
ATOM      3  C2  UNL d   1       0.501  -2.051  -0.517  0.00  0.00     0.041 A 
ATOM      4  C3  UNL d   1      -0.050  -0.763  -0.363  0.00  0.00    -0.075 A 
ATOM      5  S   UNL d   1      -1.620  -0.368   0.228  0.00  0.00     0.015 SA
ATOM      6  C4  UNL d   1      -1.349   1.305   0.046  0.00  0.00     0.022 A 
ATOM      7  C5  UNL d   1      -0.096   1.573  -0.453  0.00  0.00     0.026 A 
ATOM      8  C6  UNL d   1       0.673   0.386  -0.698  0.00  0.00    -0.082 A 
ATOM      9  C7  UNL d   1       1.987   0.226  -1.200  0.00  0.00     0.045 A 
ENDROOT
TORSDOF 0
ENDMDL
