MODEL 1
REMARK minimizedAffinity -1.52285087
REMARK minimizedRMSD -1
REMARK  0 active torsions:
REMARK  status: ('A' for Active; 'I' for Inactive)
ROOT
ATOM      1  C   UNL d   1      -1.095   1.865  -0.841  0.00  0.00    -0.002 A 
ATOM      2  C1  UNL d   1      -0.016   2.453  -1.486  0.00  0.00     0.010 A 
ATOM      3  C2  UNL d   1       1.145   1.721  -1.739  0.00  0.00     0.041 A 
ATOM      4  C3  UNL d   1       1.204   0.374  -1.331  0.00  0.00    -0.075 A 
ATOM      5  S   UNL d   1       2.522  -0.718  -1.536  0.00  0.00     0.015 SA
ATOM      6  C4  UNL d   1       1.684  -1.991  -0.773  0.00  0.00     0.022 A 
ATOM      7  C5  UNL d   1       0.428  -1.610  -0.365  0.00  0.00     0.026 A 
ATOM      8  C6  UNL d   1       0.130  -0.241  -0.681  0.00  0.00    -0.082 A 
ATOM      9  C7  UNL d   1      -1.033   0.529  -0.438  0.00  0.00     0.045 A 
ENDROOT
TORSDOF 0
ENDMDL
