MODEL 1
REMARK minimizedAffinity 3.61027384
REMARK minimizedRMSD -1
REMARK  0 active torsions:
REMARK  status: ('A' for Active; 'I' for Inactive)
ROOT
ATOM      1  C   UNL d   1       2.017  -2.156  -0.802  0.00  0.00    -0.002 A 
ATOM      2  C1  UNL d   1       1.327  -2.480  -1.962  0.00  0.00     0.010 A 
ATOM      3  C2  UNL d   1       0.965  -1.487  -2.874  0.00  0.00     0.041 A 
ATOM      4  C3  UNL d   1       1.314  -0.150  -2.600  0.00  0.00    -0.075 A 
ATOM      5  S   UNL d   1       0.977   1.233  -3.573  0.00  0.00     0.015 SA
ATOM      6  C4  UNL d   1       1.742   2.286  -2.473  0.00  0.00     0.022 A 
ATOM      7  C5  UNL d   1       2.247   1.616  -1.384  0.00  0.00     0.026 A 
ATOM      8  C6  UNL d   1       2.009   0.201  -1.440  0.00  0.00    -0.082 A 
ATOM      9  C7  UNL d   1       2.361  -0.828  -0.534  0.00  0.00     0.045 A 
ENDROOT
TORSDOF 0
ENDMDL
