MODEL 1
REMARK minimizedAffinity -4.13649511
REMARK minimizedRMSD -1
REMARK  1 active torsions:
REMARK  status: ('A' for Active; 'I' for Inactive)
REMARK    1  A    between atoms: C1_2  and  C2_3 
ROOT
ATOM      1  C2  UNL d   1       0.008   0.324  -1.090  0.00  0.00    -0.081 A 
ATOM      2  C3  UNL d   1       0.407  -0.747  -1.898  0.00  0.00     0.006 A 
ATOM      3  C4  UNL d   1       0.370  -2.055  -1.409  0.00  0.00     0.002 A 
ATOM      4  C5  UNL d   1      -0.073  -2.314  -0.108  0.00  0.00    -0.080 A 
ATOM      5  C6  UNL d   1      -0.146  -3.717   0.419  0.00  0.00     0.076 C 
ATOM      6  C7  UNL d   1      -0.454  -1.242   0.706  0.00  0.00     0.002 A 
ATOM      7  C8  UNL d   1      -0.417   0.066   0.218  0.00  0.00     0.006 A 
ENDROOT
BRANCH   1   8
ATOM      8  C1  UNL d   1      -0.014   1.729  -1.636  0.00  0.00     0.054 C 
ATOM      9  C   UNL d   1      -1.114   2.557  -0.986  0.00  0.00     0.018 C 
ENDBRANCH   1   8
TORSDOF 1
ENDMDL
