MODEL 1
REMARK minimizedAffinity -5.52737522
REMARK minimizedRMSD -1
REMARK  1 active torsions:
REMARK  status: ('A' for Active; 'I' for Inactive)
REMARK    1  A    between atoms: C1_2  and  C2_3 
ROOT
ATOM      1  C2  UNL d   1       0.347   0.921   0.408  0.00  0.00    -0.081 A 
ATOM      2  C3  UNL d   1       0.098   0.205   1.586  0.00  0.00     0.006 A 
ATOM      3  C4  UNL d   1      -0.030  -1.185   1.556  0.00  0.00     0.002 A 
ATOM      4  C5  UNL d   1       0.098  -1.884   0.350  0.00  0.00    -0.080 A 
ATOM      5  C6  UNL d   1      -0.007  -3.380   0.309  0.00  0.00     0.076 C 
ATOM      6  C7  UNL d   1       0.330  -1.168  -0.829  0.00  0.00     0.002 A 
ATOM      7  C8  UNL d   1       0.457   0.223  -0.800  0.00  0.00     0.006 A 
ENDROOT
BRANCH   1   8
ATOM      8  C1  UNL d   1       0.550   2.414   0.447  0.00  0.00     0.054 C 
ATOM      9  C   UNL d   1       2.027   2.774   0.385  0.00  0.00     0.018 C 
ENDBRANCH   1   8
TORSDOF 1
ENDMDL
