MODEL 1
REMARK minimizedAffinity -3.35028887
REMARK minimizedRMSD -1
REMARK  1 active torsions:
REMARK  status: ('A' for Active; 'I' for Inactive)
REMARK    1  A    between atoms: C1_2  and  C2_3 
ROOT
ATOM      1  C2  UNL d   1       0.659   1.084   0.371  0.00  0.00    -0.081 A 
ATOM      2  C3  UNL d   1       0.280   0.500   1.586  0.00  0.00     0.006 A 
ATOM      3  C4  UNL d   1      -0.224  -0.802   1.619  0.00  0.00     0.002 A 
ATOM      4  C5  UNL d   1      -0.350  -1.545   0.440  0.00  0.00    -0.080 A 
ATOM      5  C6  UNL d   1      -0.862  -2.954   0.465  0.00  0.00     0.076 C 
ATOM      6  C7  UNL d   1       0.011  -0.955  -0.776  0.00  0.00     0.002 A 
ATOM      7  C8  UNL d   1       0.515   0.347  -0.810  0.00  0.00     0.006 A 
ENDROOT
BRANCH   1   8
ATOM      8  C1  UNL d   1       1.263   2.464   0.339  0.00  0.00     0.054 C 
ATOM      9  C   UNL d   1       2.632   2.454  -0.326  0.00  0.00     0.018 C 
ENDBRANCH   1   8
TORSDOF 1
ENDMDL
