MODEL 1
REMARK minimizedAffinity -3.78940225
REMARK minimizedRMSD -1
REMARK  1 active torsions:
REMARK  status: ('A' for Active; 'I' for Inactive)
REMARK    1  A    between atoms: C1_2  and  C2_3 
ROOT
ATOM      1  C2  UNL d   1      -0.006   0.808   0.254  0.00  0.00    -0.081 A 
ATOM      2  C3  UNL d   1      -0.733   0.071   1.197  0.00  0.00     0.006 A 
ATOM      3  C4  UNL d   1      -0.761  -1.324   1.137  0.00  0.00     0.002 A 
ATOM      4  C5  UNL d   1      -0.058  -2.005   0.138  0.00  0.00    -0.080 A 
ATOM      5  C6  UNL d   1      -0.055  -3.504   0.080  0.00  0.00     0.076 C 
ATOM      6  C7  UNL d   1       0.654  -1.269  -0.815  0.00  0.00     0.002 A 
ATOM      7  C8  UNL d   1       0.682   0.126  -0.755  0.00  0.00     0.006 A 
ENDROOT
BRANCH   1   8
ATOM      8  C1  UNL d   1       0.079   2.310   0.355  0.00  0.00     0.054 C 
ATOM      9  C   UNL d   1       1.507   2.797   0.160  0.00  0.00     0.018 C 
ENDBRANCH   1   8
TORSDOF 1
ENDMDL
