MODEL 1
REMARK minimizedAffinity -3.69464493
REMARK minimizedRMSD -1
REMARK  1 active torsions:
REMARK  status: ('A' for Active; 'I' for Inactive)
REMARK    1  A    between atoms: C1_2  and  C2_3 
ROOT
ATOM      1  C2  UNL d   1       0.068   0.983   0.188  0.00  0.00    -0.081 A 
ATOM      2  C3  UNL d   1      -0.768   0.439   1.171  0.00  0.00     0.006 A 
ATOM      3  C4  UNL d   1      -0.807  -0.942   1.382  0.00  0.00     0.002 A 
ATOM      4  C5  UNL d   1      -0.005  -1.799   0.620  0.00  0.00    -0.080 A 
ATOM      5  C6  UNL d   1      -0.014  -3.280   0.857  0.00  0.00     0.076 C 
ATOM      6  C7  UNL d   1       0.817  -1.256  -0.373  0.00  0.00     0.002 A 
ATOM      7  C8  UNL d   1       0.856   0.124  -0.585  0.00  0.00     0.006 A 
ENDROOT
BRANCH   1   8
ATOM      8  C1  UNL d   1       0.160   2.476   0.002  0.00  0.00     0.054 C 
ATOM      9  C   UNL d   1       1.526   3.003   0.419  0.00  0.00     0.018 C 
ENDBRANCH   1   8
TORSDOF 1
ENDMDL
