MODEL 1
REMARK minimizedAffinity -1.56255341
REMARK minimizedRMSD -1
REMARK  1 active torsions:
REMARK  status: ('A' for Active; 'I' for Inactive)
REMARK    1  A    between atoms: C1_2  and  C2_3 
ROOT
ATOM      1  C2  UNL d   1      -0.295   1.258   0.127  0.00  0.00    -0.081 A 
ATOM      2  C3  UNL d   1       0.158   0.416  -0.896  0.00  0.00     0.006 A 
ATOM      3  C4  UNL d   1      -0.096  -0.957  -0.847  0.00  0.00     0.002 A 
ATOM      4  C5  UNL d   1      -0.813  -1.509   0.220  0.00  0.00    -0.080 A 
ATOM      5  C6  UNL d   1      -1.119  -2.976   0.270  0.00  0.00     0.076 C 
ATOM      6  C7  UNL d   1      -1.250  -0.670   1.251  0.00  0.00     0.002 A 
ATOM      7  C8  UNL d   1      -0.996   0.703   1.203  0.00  0.00     0.006 A 
ENDROOT
BRANCH   1   8
ATOM      8  C1  UNL d   1      -0.079   2.748   0.044  0.00  0.00     0.054 C 
ATOM      9  C   UNL d   1       1.269   3.144   0.629  0.00  0.00     0.018 C 
ENDBRANCH   1   8
TORSDOF 1
ENDMDL
