MODEL 1
REMARK minimizedAffinity 4.91915607
REMARK minimizedRMSD -1
REMARK  0 active torsions:
REMARK  status: ('A' for Active; 'I' for Inactive)
ROOT
ATOM      1  C1  DEN d   1       3.487  -0.790  -3.350  0.00  0.00     0.130 A 
ATOM      2  C2  DEN d   1       2.103  -0.551  -3.751  0.00  0.00    -0.031 A 
ATOM      3  C3  DEN d   1       1.785  -1.471  -4.862  0.00  0.00     0.027 A 
ATOM      4  C4  DEN d   1       3.292  -3.235  -5.989  0.00  0.00     0.027 A 
ATOM      5  C5  DEN d   1       4.550  -3.795  -6.000  0.00  0.00    -0.003 A 
ATOM      6  C6  DEN d   1       5.544  -3.373  -5.158  0.00  0.00     0.001 A 
ATOM      7  C7  DEN d   1       5.283  -2.391  -4.238  0.00  0.00     0.017 A 
ATOM      8  C8  DEN d   1       4.019  -1.817  -4.226  0.00  0.00    -0.094 A 
ATOM      9  C9  DEN d   1       3.024  -2.266  -5.077  0.00  0.00    -0.072 A 
ENDROOT
TORSDOF 0
ENDMDL
