MODEL 1
REMARK minimizedAffinity 8.74126244
REMARK minimizedRMSD -1
REMARK  0 active torsions:
REMARK  status: ('A' for Active; 'I' for Inactive)
ROOT
ATOM      1  C1  DEN d   1       1.058  -4.675   2.873  0.00  0.00     0.130 A 
ATOM      2  C2  DEN d   1       0.788  -5.997   2.314  0.00  0.00    -0.031 A 
ATOM      3  C3  DEN d   1      -0.534  -5.955   1.657  0.00  0.00     0.027 A 
ATOM      4  C4  DEN d   1      -2.179  -3.979   1.448  0.00  0.00     0.027 A 
ATOM      5  C5  DEN d   1      -2.393  -2.658   1.774  0.00  0.00    -0.003 A 
ATOM      6  C6  DEN d   1      -1.496  -1.932   2.512  0.00  0.00     0.001 A 
ATOM      7  C7  DEN d   1      -0.320  -2.511   2.910  0.00  0.00     0.017 A 
ATOM      8  C8  DEN d   1      -0.100  -3.845   2.592  0.00  0.00    -0.094 A 
ATOM      9  C9  DEN d   1      -1.014  -4.558   1.835  0.00  0.00    -0.072 A 
ENDROOT
TORSDOF 0
ENDMDL
