MODEL 1
REMARK minimizedAffinity 20.4276829
REMARK minimizedRMSD -1
REMARK  0 active torsions:
REMARK  status: ('A' for Active; 'I' for Inactive)
ROOT
ATOM      1  C1  DEN d   1       2.819  -3.013   0.590  0.00  0.00     0.130 A 
ATOM      2  C2  DEN d   1       3.664  -1.827   0.476  0.00  0.00    -0.031 A 
ATOM      3  C3  DEN d   1       4.758  -1.949   1.461  0.00  0.00     0.027 A 
ATOM      4  C4  DEN d   1       5.227  -3.852   3.137  0.00  0.00     0.027 A 
ATOM      5  C5  DEN d   1       4.780  -5.065   3.612  0.00  0.00    -0.003 A 
ATOM      6  C6  DEN d   1       3.638  -5.658   3.141  0.00  0.00     0.001 A 
ATOM      7  C7  DEN d   1       2.929  -5.060   2.133  0.00  0.00     0.017 A 
ATOM      8  C8  DEN d   1       3.370  -3.833   1.654  0.00  0.00    -0.094 A 
ATOM      9  C9  DEN d   1       4.533  -3.256   2.135  0.00  0.00    -0.072 A 
ENDROOT
TORSDOF 0
ENDMDL
