MODEL 1
REMARK minimizedAffinity 10.526186
REMARK minimizedRMSD -1
REMARK  0 active torsions:
REMARK  status: ('A' for Active; 'I' for Inactive)
ROOT
ATOM      1  C1  DEN d   1      -3.643  -1.130   4.717  0.00  0.00     0.130 A 
ATOM      2  C2  DEN d   1      -4.861  -0.744   5.424  0.00  0.00    -0.031 A 
ATOM      3  C3  DEN d   1      -6.000  -0.914   4.500  0.00  0.00     0.027 A 
ATOM      4  C4  DEN d   1      -5.996  -1.738   2.055  0.00  0.00     0.027 A 
ATOM      5  C5  DEN d   1      -5.200  -2.171   1.018  0.00  0.00    -0.003 A 
ATOM      6  C6  DEN d   1      -3.837  -2.254   1.129  0.00  0.00     0.001 A 
ATOM      7  C7  DEN d   1      -3.233  -1.942   2.318  0.00  0.00     0.017 A 
ATOM      8  C8  DEN d   1      -4.028  -1.498   3.366  0.00  0.00    -0.094 A 
ATOM      9  C9  DEN d   1      -5.405  -1.432   3.238  0.00  0.00    -0.072 A 
ENDROOT
TORSDOF 0
ENDMDL
