MODEL 1
REMARK minimizedAffinity 16.0349159
REMARK minimizedRMSD -1
REMARK  0 active torsions:
REMARK  status: ('A' for Active; 'I' for Inactive)
ROOT
ATOM      1  C1  DEN d   1      -1.782  -5.964  -0.332  0.00  0.00     0.130 A 
ATOM      2  C2  DEN d   1      -0.410  -5.855  -0.820  0.00  0.00    -0.031 A 
ATOM      3  C3  DEN d   1       0.487  -5.780   0.351  0.00  0.00     0.027 A 
ATOM      4  C4  DEN d   1      -0.112  -5.827   2.859  0.00  0.00     0.027 A 
ATOM      5  C5  DEN d   1      -1.148  -5.898   3.765  0.00  0.00    -0.003 A 
ATOM      6  C6  DEN d   1      -2.458  -5.961   3.372  0.00  0.00     0.001 A 
ATOM      7  C7  DEN d   1      -2.766  -6.000   2.038  0.00  0.00     0.017 A 
ATOM      8  C8  DEN d   1      -1.728  -5.922   1.119  0.00  0.00    -0.094 A 
ATOM      9  C9  DEN d   1      -0.409  -5.871   1.536  0.00  0.00    -0.072 A 
ENDROOT
TORSDOF 0
ENDMDL
