MODEL 1
REMARK minimizedAffinity 3.77288604
REMARK minimizedRMSD -1
REMARK  0 active torsions:
REMARK  status: ('A' for Active; 'I' for Inactive)
ROOT
ATOM      1  C1  DEN d   1       5.830  -0.728   4.773  0.00  0.00     0.130 A 
ATOM      2  C2  DEN d   1       5.868  -0.385   3.355  0.00  0.00    -0.031 A 
ATOM      3  C3  DEN d   1       5.943  -1.641   2.582  0.00  0.00     0.027 A 
ATOM      4  C4  DEN d   1       5.999  -4.073   3.441  0.00  0.00     0.027 A 
ATOM      5  C5  DEN d   1       6.000  -4.866   4.567  0.00  0.00    -0.003 A 
ATOM      6  C6  DEN d   1       5.978  -4.339   5.831  0.00  0.00     0.001 A 
ATOM      7  C7  DEN d   1       5.910  -2.981   6.000  0.00  0.00     0.017 A 
ATOM      8  C8  DEN d   1       5.916  -2.175   4.869  0.00  0.00    -0.094 A 
ATOM      9  C9  DEN d   1       5.926  -2.727   3.599  0.00  0.00    -0.072 A 
ENDROOT
TORSDOF 0
ENDMDL
