MODEL 1
REMARK minimizedAffinity 3.16005754
REMARK minimizedRMSD -1
REMARK  0 active torsions:
REMARK  status: ('A' for Active; 'I' for Inactive)
ROOT
ATOM      1  C1  DEN d   1      -0.880  -2.668   0.791  0.00  0.00     0.130 A 
ATOM      2  C2  DEN d   1      -2.076  -2.987   0.018  0.00  0.00    -0.031 A 
ATOM      3  C3  DEN d   1      -2.311  -1.884  -0.936  0.00  0.00     0.027 A 
ATOM      4  C4  DEN d   1      -0.941   0.272  -1.292  0.00  0.00     0.027 A 
ATOM      5  C5  DEN d   1       0.153   0.991  -0.863  0.00  0.00    -0.003 A 
ATOM      6  C6  DEN d   1       0.953   0.560   0.162  0.00  0.00     0.001 A 
ATOM      7  C7  DEN d   1       0.698  -0.644   0.763  0.00  0.00     0.017 A 
ATOM      8  C8  DEN d   1      -0.408  -1.371   0.341  0.00  0.00    -0.094 A 
ATOM      9  C9  DEN d   1      -1.198  -0.924  -0.705  0.00  0.00    -0.072 A 
ENDROOT
TORSDOF 0
ENDMDL
