MODEL 1
REMARK minimizedAffinity 3.54010963
REMARK minimizedRMSD -1
REMARK  0 active torsions:
REMARK  status: ('A' for Active; 'I' for Inactive)
ROOT
ATOM      1  C1  DEN d   1      -2.138  -1.922  -0.725  0.00  0.00     0.130 A 
ATOM      2  C2  DEN d   1      -2.386  -1.265  -2.006  0.00  0.00    -0.031 A 
ATOM      3  C3  DEN d   1      -1.658   0.019  -2.009  0.00  0.00     0.027 A 
ATOM      4  C4  DEN d   1      -0.173   1.047  -0.167  0.00  0.00     0.027 A 
ATOM      5  C5  DEN d   1       0.326   0.865   1.104  0.00  0.00    -0.003 A 
ATOM      6  C6  DEN d   1       0.015  -0.233   1.861  0.00  0.00     0.001 A 
ATOM      7  C7  DEN d   1      -0.784  -1.215   1.336  0.00  0.00     0.017 A 
ATOM      8  C8  DEN d   1      -1.298  -1.035   0.059  0.00  0.00    -0.094 A 
ATOM      9  C9  DEN d   1      -0.961   0.076  -0.695  0.00  0.00    -0.072 A 
ENDROOT
TORSDOF 0
ENDMDL
