MODEL 1
REMARK minimizedAffinity 12.1170826
REMARK minimizedRMSD -1
REMARK  0 active torsions:
REMARK  status: ('A' for Active; 'I' for Inactive)
ROOT
ATOM      1  C1  DEN d   1       2.976   2.214  -4.671  0.00  0.00     0.130 A 
ATOM      2  C2  DEN d   1       3.350   1.736  -5.999  0.00  0.00    -0.031 A 
ATOM      3  C3  DEN d   1       4.115   0.483  -5.835  0.00  0.00     0.027 A 
ATOM      4  C4  DEN d   1       4.747  -0.759  -3.664  0.00  0.00     0.027 A 
ATOM      5  C5  DEN d   1       4.661  -0.731  -2.289  0.00  0.00    -0.003 A 
ATOM      6  C6  DEN d   1       4.041   0.288  -1.617  0.00  0.00     0.001 A 
ATOM      7  C7  DEN d   1       3.444   1.301  -2.320  0.00  0.00     0.017 A 
ATOM      8  C8  DEN d   1       3.533   1.285  -3.705  0.00  0.00    -0.094 A 
ATOM      9  C9  DEN d   1       4.153   0.238  -4.367  0.00  0.00    -0.072 A 
ENDROOT
TORSDOF 0
ENDMDL
