MODEL 1
REMARK minimizedAffinity 3.74121666
REMARK minimizedRMSD -1
REMARK  0 active torsions:
REMARK  status: ('A' for Active; 'I' for Inactive)
ROOT
ATOM      1  C1  DEN d   1       0.233   0.842  -0.218  0.00  0.00     0.130 A 
ATOM      2  C2  DEN d   1       0.500   1.261   1.155  0.00  0.00    -0.031 A 
ATOM      3  C3  DEN d   1      -0.168   0.306   2.062  0.00  0.00     0.027 A 
ATOM      4  C4  DEN d   1      -1.579  -1.772   1.476  0.00  0.00     0.027 A 
ATOM      5  C5  DEN d   1      -2.094  -2.525   0.444  0.00  0.00    -0.003 A 
ATOM      6  C6  DEN d   1      -1.899  -2.191  -0.871  0.00  0.00     0.001 A 
ATOM      7  C7  DEN d   1      -1.133  -1.101  -1.188  0.00  0.00     0.017 A 
ATOM      8  C8  DEN d   1      -0.617  -0.333  -0.153  0.00  0.00    -0.094 A 
ATOM      9  C9  DEN d   1      -0.815  -0.693   1.170  0.00  0.00    -0.072 A 
ENDROOT
TORSDOF 0
ENDMDL
