MODEL 1
REMARK minimizedAffinity 18.4078007
REMARK minimizedRMSD -1
REMARK  0 active torsions:
REMARK  status: ('A' for Active; 'I' for Inactive)
ROOT
ATOM      1  C1  DEN d   1       4.295   2.599   1.514  0.00  0.00     0.130 A 
ATOM      2  C2  DEN d   1       5.127   3.718   1.080  0.00  0.00    -0.031 A 
ATOM      3  C3  DEN d   1       4.563   4.246  -0.178  0.00  0.00     0.027 A 
ATOM      4  C4  DEN d   1       2.489   3.447  -1.488  0.00  0.00     0.027 A 
ATOM      5  C5  DEN d   1       1.469   2.523  -1.519  0.00  0.00    -0.003 A 
ATOM      6  C6  DEN d   1       1.339   1.546  -0.567  0.00  0.00     0.001 A 
ATOM      7  C7  DEN d   1       2.219   1.499   0.481  0.00  0.00     0.017 A 
ATOM      8  C8  DEN d   1       3.256   2.422   0.515  0.00  0.00    -0.094 A 
ATOM      9  C9  DEN d   1       3.363   3.410  -0.450  0.00  0.00    -0.072 A 
ENDROOT
TORSDOF 0
ENDMDL
