MODEL 1
REMARK minimizedAffinity 12.5293236
REMARK minimizedRMSD -1
REMARK  0 active torsions:
REMARK  status: ('A' for Active; 'I' for Inactive)
ROOT
ATOM      1  C1  DEN d   1      -0.058  -5.126   2.431  0.00  0.00     0.130 A 
ATOM      2  C2  DEN d   1      -1.405  -5.529   2.829  0.00  0.00    -0.031 A 
ATOM      3  C3  DEN d   1      -1.357  -5.945   4.245  0.00  0.00     0.027 A 
ATOM      4  C4  DEN d   1       0.658  -6.000   5.854  0.00  0.00     0.027 A 
ATOM      5  C5  DEN d   1       2.010  -5.762   5.968  0.00  0.00    -0.003 A 
ATOM      6  C6  DEN d   1       2.767  -5.331   4.911  0.00  0.00     0.001 A 
ATOM      7  C7  DEN d   1       2.169  -5.082   3.704  0.00  0.00     0.017 A 
ATOM      8  C8  DEN d   1       0.808  -5.327   3.579  0.00  0.00    -0.094 A 
ATOM      9  C9  DEN d   1       0.057  -5.750   4.663  0.00  0.00    -0.072 A 
ENDROOT
TORSDOF 0
ENDMDL
