MODEL 1
REMARK minimizedAffinity 13.469512
REMARK minimizedRMSD -1
REMARK  0 active torsions:
REMARK  status: ('A' for Active; 'I' for Inactive)
ROOT
ATOM      1  C1  DEN d   1      -5.946  -1.834   1.725  0.00  0.00     0.130 A 
ATOM      2  C2  DEN d   1      -6.000  -1.124   3.000  0.00  0.00    -0.031 A 
ATOM      3  C3  DEN d   1      -4.643  -1.127   3.582  0.00  0.00     0.027 A 
ATOM      4  C4  DEN d   1      -2.474  -2.154   2.636  0.00  0.00     0.027 A 
ATOM      5  C5  DEN d   1      -1.933  -2.867   1.590  0.00  0.00    -0.003 A 
ATOM      6  C6  DEN d   1      -2.692  -3.312   0.540  0.00  0.00     0.001 A 
ATOM      7  C7  DEN d   1      -4.027  -3.009   0.491  0.00  0.00     0.017 A 
ATOM      8  C8  DEN d   1      -4.581  -2.296   1.547  0.00  0.00    -0.094 A 
ATOM      9  C9  DEN d   1      -3.794  -1.845   2.593  0.00  0.00    -0.072 A 
ENDROOT
TORSDOF 0
ENDMDL
