MODEL 1
REMARK minimizedAffinity 6.5033226
REMARK minimizedRMSD -1
REMARK  0 active torsions:
REMARK  status: ('A' for Active; 'I' for Inactive)
ROOT
ATOM      1  O1  BZF d   1       0.082  -1.642   1.651  0.00  0.00    -0.204 OA
ATOM      2  C2  BZF d   1       0.385  -0.358   1.239  0.00  0.00     0.174 A 
ATOM      3  C3  BZF d   1       0.177  -0.220  -0.087  0.00  0.00    -0.012 A 
ATOM      4  C3A BZF d   1      -0.372  -1.471  -0.514  0.00  0.00    -0.107 A 
ATOM      5  C4  BZF d   1      -0.800  -1.944  -1.721  0.00  0.00     0.055 A 
ATOM      6  C5  BZF d   1      -1.213  -3.236  -1.815  0.00  0.00    -0.016 A 
ATOM      7  C6  BZF d   1      -1.206  -4.081  -0.725  0.00  0.00     0.022 A 
ATOM      8  C7  BZF d   1      -0.795  -3.655   0.494  0.00  0.00     0.029 A 
ATOM      9  C7A BZF d   1      -0.408  -2.341   0.600  0.00  0.00     0.058 A 
ENDROOT
TORSDOF 0
ENDMDL
