MODEL 1
REMARK minimizedAffinity 5.36207628
REMARK minimizedRMSD -1
REMARK  0 active torsions:
REMARK  status: ('A' for Active; 'I' for Inactive)
ROOT
ATOM      1  O1  BZF d   1      -2.290   5.236  -5.957  0.00  0.00    -0.204 OA
ATOM      2  C2  BZF d   1      -3.561   4.695  -5.947  0.00  0.00     0.174 A 
ATOM      3  C3  BZF d   1      -3.509   3.349  -6.000  0.00  0.00    -0.012 A 
ATOM      4  C3A BZF d   1      -2.116   3.024  -5.953  0.00  0.00    -0.107 A 
ATOM      5  C4  BZF d   1      -1.426   1.845  -5.958  0.00  0.00     0.055 A 
ATOM      6  C5  BZF d   1      -0.068   1.875  -5.978  0.00  0.00    -0.016 A 
ATOM      7  C6  BZF d   1       0.632   3.064  -5.999  0.00  0.00     0.022 A 
ATOM      8  C7  BZF d   1      -0.008   4.258  -5.991  0.00  0.00     0.029 A 
ATOM      9  C7A BZF d   1      -1.381   4.231  -5.937  0.00  0.00     0.058 A 
ENDROOT
TORSDOF 0
ENDMDL
