MODEL 1
REMARK minimizedAffinity 6.79519606
REMARK minimizedRMSD -1
REMARK  0 active torsions:
REMARK  status: ('A' for Active; 'I' for Inactive)
ROOT
ATOM      1  O1  BZF d   1      -3.016  -2.800  -1.472  0.00  0.00    -0.204 OA
ATOM      2  C2  BZF d   1      -1.879  -3.286  -2.090  0.00  0.00     0.174 A 
ATOM      3  C3  BZF d   1      -1.597  -4.533  -1.660  0.00  0.00    -0.012 A 
ATOM      4  C3A BZF d   1      -2.673  -4.881  -0.784  0.00  0.00    -0.107 A 
ATOM      5  C4  BZF d   1      -2.969  -6.000  -0.058  0.00  0.00     0.055 A 
ATOM      6  C5  BZF d   1      -4.058  -5.992   0.754  0.00  0.00    -0.016 A 
ATOM      7  C6  BZF d   1      -4.870  -4.882   0.869  0.00  0.00     0.022 A 
ATOM      8  C7  BZF d   1      -4.620  -3.751   0.165  0.00  0.00     0.029 A 
ATOM      9  C7A BZF d   1      -3.539  -3.768  -0.682  0.00  0.00     0.058 A 
ENDROOT
TORSDOF 0
ENDMDL
