MODEL 1
REMARK minimizedAffinity 1.83577168
REMARK minimizedRMSD -1
REMARK  0 active torsions:
REMARK  status: ('A' for Active; 'I' for Inactive)
ROOT
ATOM      1  O1  BZF d   1       2.817   3.032   2.573  0.00  0.00    -0.204 OA
ATOM      2  C2  BZF d   1       3.854   3.834   2.135  0.00  0.00     0.174 A 
ATOM      3  C3  BZF d   1       3.759   4.056   0.808  0.00  0.00    -0.012 A 
ATOM      4  C3A BZF d   1       2.539   3.425   0.407  0.00  0.00    -0.107 A 
ATOM      5  C4  BZF d   1       1.889   3.313  -0.789  0.00  0.00     0.055 A 
ATOM      6  C5  BZF d   1       0.754   2.568  -0.856  0.00  0.00    -0.016 A 
ATOM      7  C6  BZF d   1       0.244   1.920   0.250  0.00  0.00     0.022 A 
ATOM      8  C7  BZF d   1       0.851   2.006   1.459  0.00  0.00     0.029 A 
ATOM      9  C7A BZF d   1       1.980   2.785   1.537  0.00  0.00     0.058 A 
ENDROOT
TORSDOF 0
ENDMDL
