MODEL 1
REMARK minimizedAffinity -2.88155842
REMARK minimizedRMSD -1
REMARK  0 active torsions:
REMARK  status: ('A' for Active; 'I' for Inactive)
ROOT
ATOM      1  O1  BZF d   1       1.398   4.606  -5.962  0.00  0.00    -0.204 OA
ATOM      2  C2  BZF d   1       2.128   3.433  -5.970  0.00  0.00     0.174 A 
ATOM      3  C3  BZF d   1       1.310   2.361  -5.930  0.00  0.00    -0.012 A 
ATOM      4  C3A BZF d   1      -0.015   2.896  -5.988  0.00  0.00    -0.107 A 
ATOM      5  C4  BZF d   1      -1.258   2.329  -6.000  0.00  0.00     0.055 A 
ATOM      6  C5  BZF d   1      -2.352   3.134  -5.988  0.00  0.00    -0.016 A 
ATOM      7  C6  BZF d   1      -2.241   4.509  -5.959  0.00  0.00     0.022 A 
ATOM      8  C7  BZF d   1      -1.030   5.118  -5.951  0.00  0.00     0.029 A 
ATOM      9  C7A BZF d   1       0.077   4.307  -5.997  0.00  0.00     0.058 A 
ENDROOT
TORSDOF 0
ENDMDL
