MODEL 1
REMARK minimizedAffinity -0.556001186
REMARK minimizedRMSD -1
REMARK  0 active torsions:
REMARK  status: ('A' for Active; 'I' for Inactive)
ROOT
ATOM      1  O1  BZF d   1      -1.762   2.180  -5.944  0.00  0.00    -0.204 OA
ATOM      2  C2  BZF d   1      -0.547   2.836  -5.935  0.00  0.00     0.174 A 
ATOM      3  C3  BZF d   1      -0.724   4.172  -5.995  0.00  0.00    -0.012 A 
ATOM      4  C3A BZF d   1      -2.141   4.366  -5.951  0.00  0.00    -0.107 A 
ATOM      5  C4  BZF d   1      -2.938   5.475  -5.961  0.00  0.00     0.055 A 
ATOM      6  C5  BZF d   1      -4.288   5.318  -5.982  0.00  0.00    -0.016 A 
ATOM      7  C6  BZF d   1      -4.874   4.069  -5.998  0.00  0.00     0.022 A 
ATOM      8  C7  BZF d   1      -4.124   2.940  -5.984  0.00  0.00     0.029 A 
ATOM      9  C7A BZF d   1      -2.761   3.095  -5.929  0.00  0.00     0.058 A 
ENDROOT
TORSDOF 0
ENDMDL
