MODEL 1
REMARK minimizedAffinity 6.59785604
REMARK minimizedRMSD -1
REMARK  0 active torsions:
REMARK  status: ('A' for Active; 'I' for Inactive)
ROOT
ATOM      1  O1  BZF d   1      -0.046  -0.294  -0.207  0.00  0.00    -0.204 OA
ATOM      2  C2  BZF d   1      -0.321  -0.208   1.144  0.00  0.00     0.174 A 
ATOM      3  C3  BZF d   1       0.043   0.995   1.631  0.00  0.00    -0.012 A 
ATOM      4  C3A BZF d   1       0.495   1.740   0.496  0.00  0.00    -0.107 A 
ATOM      5  C4  BZF d   1       0.970   3.010   0.334  0.00  0.00     0.055 A 
ATOM      6  C5  BZF d   1       1.394   3.406  -0.895  0.00  0.00    -0.016 A 
ATOM      7  C6  BZF d   1       1.362   2.557  -1.981  0.00  0.00     0.022 A 
ATOM      8  C7  BZF d   1       0.895   1.289  -1.872  0.00  0.00     0.029 A 
ATOM      9  C7A BZF d   1       0.435   0.897  -0.638  0.00  0.00     0.058 A 
ENDROOT
TORSDOF 0
ENDMDL
