MODEL 1
REMARK minimizedAffinity 2.75549674
REMARK minimizedRMSD -1
REMARK  0 active torsions:
REMARK  status: ('A' for Active; 'I' for Inactive)
ROOT
ATOM      1  O1  BZF d   1       0.069   1.208  -1.181  0.00  0.00    -0.204 OA
ATOM      2  C2  BZF d   1      -0.634   0.273  -0.445  0.00  0.00     0.174 A 
ATOM      3  C3  BZF d   1      -0.371   0.404   0.871  0.00  0.00    -0.012 A 
ATOM      4  C3A BZF d   1       0.482   1.548   0.972  0.00  0.00    -0.107 A 
ATOM      5  C4  BZF d   1       1.070   2.191   2.024  0.00  0.00     0.055 A 
ATOM      6  C5  BZF d   1       1.905   3.234   1.778  0.00  0.00    -0.016 A 
ATOM      7  C6  BZF d   1       2.179   3.657   0.494  0.00  0.00     0.022 A 
ATOM      8  C7  BZF d   1       1.616   3.054  -0.581  0.00  0.00     0.029 A 
ATOM      9  C7A BZF d   1       0.746   2.020  -0.334  0.00  0.00     0.058 A 
ENDROOT
TORSDOF 0
ENDMDL
