MODEL 1
REMARK minimizedAffinity 10.5741587
REMARK minimizedRMSD -1
REMARK  0 active torsions:
REMARK  status: ('A' for Active; 'I' for Inactive)
ROOT
ATOM      1  O1  BZF d   1      -3.121   2.885  -5.953  0.00  0.00    -0.204 OA
ATOM      2  C2  BZF d   1      -3.419   4.234  -5.963  0.00  0.00     0.174 A 
ATOM      3  C3  BZF d   1      -2.292   4.973  -5.927  0.00  0.00    -0.012 A 
ATOM      4  C3A BZF d   1      -1.220   4.027  -5.984  0.00  0.00    -0.107 A 
ATOM      5  C4  BZF d   1       0.140   4.149  -5.998  0.00  0.00     0.055 A 
ATOM      6  C5  BZF d   1       0.905   3.026  -5.985  0.00  0.00    -0.016 A 
ATOM      7  C6  BZF d   1       0.343   1.766  -5.952  0.00  0.00     0.022 A 
ATOM      8  C7  BZF d   1      -1.001   1.594  -5.943  0.00  0.00     0.029 A 
ATOM      9  C7A BZF d   1      -1.776   2.727  -5.990  0.00  0.00     0.058 A 
ENDROOT
TORSDOF 0
ENDMDL
