MODEL 1
REMARK minimizedAffinity -2.05875015
REMARK minimizedRMSD -1
REMARK  0 active torsions:
REMARK  status: ('A' for Active; 'I' for Inactive)
ROOT
ATOM      1  O1  BZF d   1      -3.309   2.604  -5.972  0.00  0.00    -0.204 OA
ATOM      2  C2  BZF d   1      -3.913   3.846  -5.988  0.00  0.00     0.174 A 
ATOM      3  C3  BZF d   1      -2.990   4.828  -5.946  0.00  0.00    -0.012 A 
ATOM      4  C3A BZF d   1      -1.726   4.158  -5.995  0.00  0.00    -0.107 A 
ATOM      5  C4  BZF d   1      -0.432   4.594  -6.000  0.00  0.00     0.055 A 
ATOM      6  C5  BZF d   1       0.573   3.680  -5.979  0.00  0.00    -0.016 A 
ATOM      7  C6  BZF d   1       0.321   2.324  -5.947  0.00  0.00     0.022 A 
ATOM      8  C7  BZF d   1      -0.947   1.844  -5.945  0.00  0.00     0.029 A 
ATOM      9  C7A BZF d   1      -1.964   2.765  -6.000  0.00  0.00     0.058 A 
ENDROOT
TORSDOF 0
ENDMDL
