MODEL 1
REMARK minimizedAffinity 5.80770302
REMARK minimizedRMSD -1
REMARK  0 active torsions:
REMARK  status: ('A' for Active; 'I' for Inactive)
ROOT
ATOM      1  O1  BZF d   1       4.104   4.873  -5.960  0.00  0.00    -0.204 OA
ATOM      2  C2  BZF d   1       5.232   4.075  -5.953  0.00  0.00     0.174 A 
ATOM      3  C3  BZF d   1       4.894   2.770  -5.908  0.00  0.00    -0.012 A 
ATOM      4  C3A BZF d   1       3.465   2.748  -5.978  0.00  0.00    -0.107 A 
ATOM      5  C4  BZF d   1       2.541   1.743  -5.991  0.00  0.00     0.055 A 
ATOM      6  C5  BZF d   1       1.220   2.060  -5.993  0.00  0.00    -0.016 A 
ATOM      7  C6  BZF d   1       0.788   3.370  -5.976  0.00  0.00     0.022 A 
ATOM      8  C7  BZF d   1       1.667   4.401  -5.968  0.00  0.00     0.029 A 
ATOM      9  C7A BZF d   1       3.003   4.084  -6.000  0.00  0.00     0.058 A 
ENDROOT
TORSDOF 0
ENDMDL
