MODEL 1
REMARK minimizedAffinity 5.28395271
REMARK minimizedRMSD -1
REMARK  0 active torsions:
REMARK  status: ('A' for Active; 'I' for Inactive)
ROOT
ATOM      1  O1  BZF d   1       0.112   2.518  -5.995  0.00  0.00    -0.204 OA
ATOM      2  C2  BZF d   1       1.196   3.374  -5.977  0.00  0.00     0.174 A 
ATOM      3  C3  BZF d   1       0.790   4.660  -6.000  0.00  0.00    -0.012 A 
ATOM      4  C3A BZF d   1      -0.638   4.605  -5.941  0.00  0.00    -0.107 A 
ATOM      5  C4  BZF d   1      -1.614   5.560  -5.917  0.00  0.00     0.055 A 
ATOM      6  C5  BZF d   1      -2.917   5.173  -5.933  0.00  0.00    -0.016 A 
ATOM      7  C6  BZF d   1      -3.279   3.843  -5.979  0.00  0.00     0.022 A 
ATOM      8  C7  BZF d   1      -2.347   2.860  -5.999  0.00  0.00     0.029 A 
ATOM      9  C7A BZF d   1      -1.030   3.246  -5.950  0.00  0.00     0.058 A 
ENDROOT
TORSDOF 0
ENDMDL
