MODEL 1
REMARK minimizedAffinity -2.96419334
REMARK minimizedRMSD -1
REMARK  0 active torsions:
REMARK  status: ('A' for Active; 'I' for Inactive)
ROOT
ATOM      1  O1  BZF d   1      -1.160   4.370  -5.961  0.00  0.00    -0.204 OA
ATOM      2  C2  BZF d   1      -0.963   3.003  -6.000  0.00  0.00     0.174 A 
ATOM      3  C3  BZF d   1      -2.142   2.349  -5.967  0.00  0.00    -0.012 A 
ATOM      4  C3A BZF d   1      -3.141   3.372  -5.996  0.00  0.00    -0.107 A 
ATOM      5  C4  BZF d   1      -4.507   3.351  -6.000  0.00  0.00     0.055 A 
ATOM      6  C5  BZF d   1      -5.186   4.527  -5.958  0.00  0.00    -0.016 A 
ATOM      7  C6  BZF d   1      -4.532   5.741  -5.906  0.00  0.00     0.022 A 
ATOM      8  C7  BZF d   1      -3.179   5.813  -5.906  0.00  0.00     0.029 A 
ATOM      9  C7A BZF d   1      -2.490   4.627  -5.982  0.00  0.00     0.058 A 
ENDROOT
TORSDOF 0
ENDMDL
