MODEL 1
REMARK minimizedAffinity 6.68314552
REMARK minimizedRMSD -1
REMARK  0 active torsions:
REMARK  status: ('A' for Active; 'I' for Inactive)
ROOT
ATOM      1  O1  BZF d   1       1.763   4.431  -5.977  0.00  0.00    -0.204 OA
ATOM      2  C2  BZF d   1       1.247   3.149  -5.961  0.00  0.00     0.174 A 
ATOM      3  C3  BZF d   1       2.237   2.234  -6.000  0.00  0.00    -0.012 A 
ATOM      4  C3A BZF d   1       3.451   2.991  -5.949  0.00  0.00    -0.107 A 
ATOM      5  C4  BZF d   1       4.772   2.646  -5.941  0.00  0.00     0.055 A 
ATOM      6  C5  BZF d   1       5.711   3.629  -5.961  0.00  0.00    -0.016 A 
ATOM      7  C6  BZF d   1       5.365   4.963  -5.995  0.00  0.00     0.022 A 
ATOM      8  C7  BZF d   1       4.067   5.354  -5.999  0.00  0.00     0.029 A 
ATOM      9  C7A BZF d   1       3.116   4.364  -5.946  0.00  0.00     0.058 A 
ENDROOT
TORSDOF 0
ENDMDL
