MODEL 1
REMARK minimizedAffinity 5.54885149
REMARK minimizedRMSD -1
REMARK  0 active torsions:
REMARK  status: ('A' for Active; 'I' for Inactive)
ROOT
ATOM      1  O1  BZF d   1       1.032   4.450  -5.965  0.00  0.00    -0.204 OA
ATOM      2  C2  BZF d   1       1.576   3.180  -5.974  0.00  0.00     0.174 A 
ATOM      3  C3  BZF d   1       0.606   2.244  -5.932  0.00  0.00    -0.012 A 
ATOM      4  C3A BZF d   1      -0.624   2.974  -5.989  0.00  0.00    -0.107 A 
ATOM      5  C4  BZF d   1      -1.937   2.601  -5.999  0.00  0.00     0.055 A 
ATOM      6  C5  BZF d   1      -2.897   3.563  -5.985  0.00  0.00    -0.016 A 
ATOM      7  C6  BZF d   1      -2.580   4.905  -5.957  0.00  0.00     0.022 A 
ATOM      8  C7  BZF d   1      -1.291   5.324  -5.952  0.00  0.00     0.029 A 
ATOM      9  C7A BZF d   1      -0.319   4.355  -5.998  0.00  0.00     0.058 A 
ENDROOT
TORSDOF 0
ENDMDL
