MODEL 1
REMARK minimizedAffinity -1.31584549
REMARK minimizedRMSD -1
REMARK  0 active torsions:
REMARK  status: ('A' for Active; 'I' for Inactive)
ROOT
ATOM      1  O1  BZF d   1      -2.417   4.294  -5.918  0.00  0.00    -0.204 OA
ATOM      2  C2  BZF d   1      -2.923   3.009  -5.920  0.00  0.00     0.174 A 
ATOM      3  C3  BZF d   1      -1.927   2.103  -6.000  0.00  0.00    -0.012 A 
ATOM      4  C3A BZF d   1      -0.719   2.867  -5.957  0.00  0.00    -0.107 A 
ATOM      5  C4  BZF d   1       0.605   2.533  -5.982  0.00  0.00     0.055 A 
ATOM      6  C5  BZF d   1       1.536   3.523  -5.999  0.00  0.00    -0.016 A 
ATOM      7  C6  BZF d   1       1.179   4.855  -5.996  0.00  0.00     0.022 A 
ATOM      8  C7  BZF d   1      -0.121   5.236  -5.966  0.00  0.00     0.029 A 
ATOM      9  C7A BZF d   1      -1.063   4.238  -5.916  0.00  0.00     0.058 A 
ENDROOT
TORSDOF 0
ENDMDL
