MODEL 1
REMARK minimizedAffinity 4.92359161
REMARK minimizedRMSD -1
REMARK  0 active torsions:
REMARK  status: ('A' for Active; 'I' for Inactive)
ROOT
ATOM      1  O1  BZF d   1       1.008   3.767  -5.959  0.00  0.00    -0.204 OA
ATOM      2  C2  BZF d   1       1.521   2.484  -5.956  0.00  0.00     0.174 A 
ATOM      3  C3  BZF d   1       0.528   1.573  -5.913  0.00  0.00    -0.012 A 
ATOM      4  C3A BZF d   1      -0.683   2.332  -5.982  0.00  0.00    -0.107 A 
ATOM      5  C4  BZF d   1      -2.006   1.991  -5.996  0.00  0.00     0.055 A 
ATOM      6  C5  BZF d   1      -2.942   2.976  -5.995  0.00  0.00    -0.016 A 
ATOM      7  C6  BZF d   1      -2.592   4.310  -5.975  0.00  0.00     0.022 A 
ATOM      8  C7  BZF d   1      -1.293   4.697  -5.966  0.00  0.00     0.029 A 
ATOM      9  C7A BZF d   1      -0.345   3.704  -6.000  0.00  0.00     0.058 A 
ENDROOT
TORSDOF 0
ENDMDL
