MODEL 1
REMARK minimizedAffinity -3.76495147
REMARK minimizedRMSD -1
REMARK  1 active torsions:
REMARK  status: ('A' for Active; 'I' for Inactive)
REMARK    1  A    between atoms: N_2  and  C1_3 
ROOT
ATOM      1  C1  UNL d   1       0.139  -0.662  -2.543  0.00  0.00     0.143 A 
ATOM      2  C2  UNL d   1      -0.293  -0.731  -3.872  0.00  0.00    -0.057 A 
ATOM      3  C3  UNL d   1       0.409  -0.089  -4.899  0.00  0.00     0.033 A 
ATOM      4  C4  UNL d   1       1.544   0.661  -4.610  0.00  0.00    -0.042 A 
ATOM      5  C5  UNL d   1       1.978   0.765  -3.293  0.00  0.00     0.033 A 
ATOM      6  C6  UNL d   1       1.276   0.116  -2.273  0.00  0.00    -0.057 A 
ENDROOT
BRANCH   1   7
ATOM      7  N   UNL d   1      -0.571  -1.196  -1.466  0.00  0.00    -0.732 N 
ATOM      8  C   UNL d   1      -1.087  -2.547  -1.520  0.00  0.00     0.284 C 
ATOM      9  H3  UNL d   1      -0.164  -0.943  -0.568  0.00  0.00     0.395 HD
ENDBRANCH   1   7
TORSDOF 1
ENDMDL
