MODEL 1
REMARK minimizedAffinity -2.98640299
REMARK minimizedRMSD -1
REMARK  1 active torsions:
REMARK  status: ('A' for Active; 'I' for Inactive)
REMARK    1  A    between atoms: N_2  and  C1_3 
ROOT
ATOM      1  C1  UNL d   1      -0.701  -1.497  -0.762  0.00  0.00     0.143 A 
ATOM      2  C2  UNL d   1       0.274  -0.609  -1.229  0.00  0.00    -0.057 A 
ATOM      3  C3  UNL d   1       0.292   0.730  -0.820  0.00  0.00     0.033 A 
ATOM      4  C4  UNL d   1      -0.686   1.213   0.043  0.00  0.00    -0.042 A 
ATOM      5  C5  UNL d   1      -1.679   0.354   0.501  0.00  0.00     0.033 A 
ATOM      6  C6  UNL d   1      -1.688  -0.984   0.094  0.00  0.00    -0.057 A 
ENDROOT
BRANCH   1   7
ATOM      7  N   UNL d   1      -0.830  -2.815  -1.208  0.00  0.00    -0.732 N 
ATOM      8  C   UNL d   1      -2.023  -3.579  -0.913  0.00  0.00     0.284 C 
ATOM      9  H3  UNL d   1      -0.480  -2.941  -2.155  0.00  0.00     0.395 HD
ENDBRANCH   1   7
TORSDOF 1
ENDMDL
