MODEL 1
REMARK minimizedAffinity -1.05439174
REMARK minimizedRMSD -1
REMARK  1 active torsions:
REMARK  status: ('A' for Active; 'I' for Inactive)
REMARK    1  A    between atoms: N_2  and  C1_3 
ROOT
ATOM      1  C1  UNL d   1       0.932  -0.465  -0.840  0.00  0.00     0.143 A 
ATOM      2  C2  UNL d   1       1.665  -0.854   0.286  0.00  0.00    -0.057 A 
ATOM      3  C3  UNL d   1       1.350  -0.367   1.561  0.00  0.00     0.033 A 
ATOM      4  C4  UNL d   1       0.311   0.543   1.727  0.00  0.00    -0.042 A 
ATOM      5  C5  UNL d   1      -0.414   0.963   0.617  0.00  0.00     0.033 A 
ATOM      6  C6  UNL d   1      -0.099   0.468  -0.652  0.00  0.00    -0.057 A 
ENDROOT
BRANCH   1   7
ATOM      7  N   UNL d   1       1.259  -0.838  -2.147  0.00  0.00    -0.732 N 
ATOM      8  C   UNL d   1       1.590   0.163  -3.138  0.00  0.00     0.284 C 
ATOM      9  H3  UNL d   1       1.849  -1.666  -2.178  0.00  0.00     0.395 HD
ENDBRANCH   1   7
TORSDOF 1
ENDMDL
