MODEL 1
REMARK minimizedAffinity 1.81176448
REMARK minimizedRMSD -1
REMARK  1 active torsions:
REMARK  status: ('A' for Active; 'I' for Inactive)
REMARK    1  A    between atoms: N_2  and  C1_3 
ROOT
ATOM      1  C1  UNL d   1       0.388   0.612  -0.766  0.00  0.00     0.143 A 
ATOM      2  C2  UNL d   1       1.110  -0.467  -0.245  0.00  0.00    -0.057 A 
ATOM      3  C3  UNL d   1       1.492  -0.503   1.101  0.00  0.00     0.033 A 
ATOM      4  C4  UNL d   1       1.182   0.557   1.947  0.00  0.00    -0.042 A 
ATOM      5  C5  UNL d   1       0.486   1.651   1.445  0.00  0.00     0.033 A 
ATOM      6  C6  UNL d   1       0.102   1.678   0.101  0.00  0.00    -0.057 A 
ENDROOT
BRANCH   1   7
ATOM      7  N   UNL d   1       0.065   0.752  -2.118  0.00  0.00    -0.732 N 
ATOM      8  C   UNL d   1       1.098   1.001  -3.101  0.00  0.00     0.284 C 
ATOM      9  H3  UNL d   1      -0.643   0.086  -2.419  0.00  0.00     0.395 HD
ENDBRANCH   1   7
TORSDOF 1
ENDMDL
