MODEL 1
REMARK minimizedAffinity 1.95222008
REMARK minimizedRMSD -1
REMARK  1 active torsions:
REMARK  status: ('A' for Active; 'I' for Inactive)
REMARK    1  A    between atoms: N_2  and  C1_3 
ROOT
ATOM      1  C1  UNL d   1       0.774  -0.061  -1.297  0.00  0.00     0.143 A 
ATOM      2  C2  UNL d   1       1.594  -0.771  -0.413  0.00  0.00    -0.057 A 
ATOM      3  C3  UNL d   1       1.608  -0.479   0.956  0.00  0.00     0.033 A 
ATOM      4  C4  UNL d   1       0.822   0.550   1.463  0.00  0.00    -0.042 A 
ATOM      5  C5  UNL d   1       0.019   1.286   0.598  0.00  0.00     0.033 A 
ATOM      6  C6  UNL d   1       0.003   0.985  -0.767  0.00  0.00    -0.057 A 
ENDROOT
BRANCH   1   7
ATOM      7  N   UNL d   1       0.788  -0.238  -2.683  0.00  0.00    -0.732 N 
ATOM      8  C   UNL d   1       1.557   0.647  -3.531  0.00  0.00     0.284 C 
ATOM      9  H3  UNL d   1       0.841  -1.219  -2.949  0.00  0.00     0.395 HD
ENDBRANCH   1   7
TORSDOF 1
ENDMDL
