MODEL 1
REMARK minimizedAffinity -2.70269942
REMARK minimizedRMSD -1
REMARK  1 active torsions:
REMARK  status: ('A' for Active; 'I' for Inactive)
REMARK    1  A    between atoms: N_2  and  C1_3 
ROOT
ATOM      1  C1  UNL d   1       2.270   0.668  -4.283  0.00  0.00     0.143 A 
ATOM      2  C2  UNL d   1       1.850   1.115  -5.540  0.00  0.00    -0.057 A 
ATOM      3  C3  UNL d   1       0.549   0.875  -5.999  0.00  0.00     0.033 A 
ATOM      4  C4  UNL d   1      -0.349   0.155  -5.217  0.00  0.00    -0.042 A 
ATOM      5  C5  UNL d   1       0.055  -0.321  -3.974  0.00  0.00     0.033 A 
ATOM      6  C6  UNL d   1       1.354  -0.071  -3.520  0.00  0.00    -0.057 A 
ENDROOT
BRANCH   1   7
ATOM      7  N   UNL d   1       3.580   0.790  -3.813  0.00  0.00    -0.732 N 
ATOM      8  C   UNL d   1       4.484  -0.340  -3.846  0.00  0.00     0.284 C 
ATOM      9  H3  UNL d   1       4.009   1.673  -4.081  0.00  0.00     0.395 HD
ENDBRANCH   1   7
TORSDOF 1
ENDMDL
