MODEL 1
REMARK minimizedAffinity 1.96816409
REMARK minimizedRMSD -1
REMARK  1 active torsions:
REMARK  status: ('A' for Active; 'I' for Inactive)
REMARK    1  A    between atoms: N_2  and  C1_3 
ROOT
ATOM      1  C1  UNL d   1      -1.005   0.120   2.040  0.00  0.00     0.143 A 
ATOM      2  C2  UNL d   1       0.288   0.048   2.568  0.00  0.00    -0.057 A 
ATOM      3  C3  UNL d   1       1.411  -0.016   1.735  0.00  0.00     0.033 A 
ATOM      4  C4  UNL d   1       1.258  -0.039   0.352  0.00  0.00    -0.042 A 
ATOM      5  C5  UNL d   1      -0.019   0.006  -0.195  0.00  0.00     0.033 A 
ATOM      6  C6  UNL d   1      -1.136   0.076   0.643  0.00  0.00    -0.057 A 
ENDROOT
BRANCH   1   7
ATOM      7  N   UNL d   1      -2.166   0.086   2.816  0.00  0.00    -0.732 N 
ATOM      8  C   UNL d   1      -2.512  -1.098   3.573  0.00  0.00     0.284 C 
ATOM      9  H3  UNL d   1      -2.326   0.959   3.314  0.00  0.00     0.395 HD
ENDBRANCH   1   7
TORSDOF 1
ENDMDL
