MODEL 1
REMARK minimizedAffinity -0.201746374
REMARK minimizedRMSD -1
REMARK  1 active torsions:
REMARK  status: ('A' for Active; 'I' for Inactive)
REMARK    1  A    between atoms: N_2  and  C1_3 
ROOT
ATOM      1  C1  UNL d   1       0.083  -0.471  -0.313  0.00  0.00     0.143 A 
ATOM      2  C2  UNL d   1      -0.213   0.756   0.290  0.00  0.00    -0.057 A 
ATOM      3  C3  UNL d   1       0.529   1.228   1.380  0.00  0.00     0.033 A 
ATOM      4  C4  UNL d   1       1.565   0.465   1.906  0.00  0.00    -0.042 A 
ATOM      5  C5  UNL d   1       1.862  -0.770   1.338  0.00  0.00     0.033 A 
ATOM      6  C6  UNL d   1       1.122  -1.232   0.246  0.00  0.00    -0.057 A 
ENDROOT
BRANCH   1   7
ATOM      7  N   UNL d   1      -0.680  -1.039  -1.336  0.00  0.00    -0.732 N 
ATOM      8  C   UNL d   1      -1.582  -2.137  -1.060  0.00  0.00     0.284 C 
ATOM      9  H3  UNL d   1      -1.057  -0.341  -1.973  0.00  0.00     0.395 HD
ENDBRANCH   1   7
TORSDOF 1
ENDMDL
