MODEL 1
REMARK minimizedAffinity 0.0807942897
REMARK minimizedRMSD -1
REMARK  0 active torsions:
REMARK  status: ('A' for Active; 'I' for Inactive)
ROOT
ATOM      1  C4' PXY d   1       1.065  -1.332   2.075  0.00  0.00     0.077 C 
ATOM      2  C1' PXY d   1      -2.336   3.315   1.559  0.00  0.00     0.077 C 
ATOM      3  C1  PXY d   1      -1.450   2.090   1.685  0.00  0.00    -0.082 A 
ATOM      4  C2  PXY d   1      -0.838   1.840   2.831  0.00  0.00     0.003 A 
ATOM      5  C3  PXY d   1      -0.009   0.755   2.952  0.00  0.00     0.003 A 
ATOM      6  C4  PXY d   1       0.154  -0.112   1.905  0.00  0.00    -0.082 A 
ATOM      7  C5  PXY d   1      -0.475   0.130   0.736  0.00  0.00     0.003 A 
ATOM      8  C6  PXY d   1      -1.280   1.259   0.621  0.00  0.00     0.003 A 
ENDROOT
TORSDOF 0
ENDMDL
