MODEL 1
REMARK minimizedAffinity 6.73251009
REMARK minimizedRMSD -1
REMARK  0 active torsions:
REMARK  status: ('A' for Active; 'I' for Inactive)
ROOT
ATOM      1  C4' PXY d   1      -0.058   3.290   3.023  0.00  0.00     0.077 C 
ATOM      2  C1' PXY d   1      -1.677   1.237  -2.133  0.00  0.00     0.077 C 
ATOM      3  C1  PXY d   1      -1.264   1.782  -0.780  0.00  0.00    -0.082 A 
ATOM      4  C2  PXY d   1       0.020   1.850  -0.466  0.00  0.00     0.003 A 
ATOM      5  C3  PXY d   1       0.410   2.310   0.765  0.00  0.00     0.003 A 
ATOM      6  C4  PXY d   1      -0.521   2.755   1.665  0.00  0.00    -0.082 A 
ATOM      7  C5  PXY d   1      -1.832   2.699   1.349  0.00  0.00     0.003 A 
ATOM      8  C6  PXY d   1      -2.210   2.190   0.109  0.00  0.00     0.003 A 
ENDROOT
TORSDOF 0
ENDMDL
