MODEL 1
REMARK minimizedAffinity -0.178813756
REMARK minimizedRMSD -1
REMARK  0 active torsions:
REMARK  status: ('A' for Active; 'I' for Inactive)
ROOT
ATOM      1  C4' PXY d   1       3.360  -6.000   1.111  0.00  0.00     0.077 C 
ATOM      2  C1' PXY d   1       0.038  -3.258  -2.744  0.00  0.00     0.077 C 
ATOM      3  C1  PXY d   1       0.903  -3.988  -1.736  0.00  0.00    -0.082 A 
ATOM      4  C2  PXY d   1       1.454  -3.316  -0.738  0.00  0.00     0.003 A 
ATOM      5  C3  PXY d   1       2.265  -3.955   0.164  0.00  0.00     0.003 A 
ATOM      6  C4  PXY d   1       2.471  -5.305   0.075  0.00  0.00    -0.082 A 
ATOM      7  C5  PXY d   1       1.904  -6.000  -0.934  0.00  0.00     0.003 A 
ATOM      8  C6  PXY d   1       1.118  -5.326  -1.863  0.00  0.00     0.003 A 
ENDROOT
TORSDOF 0
ENDMDL
