MODEL 1
REMARK minimizedAffinity -3.83244848
REMARK minimizedRMSD -1
REMARK  0 active torsions:
REMARK  status: ('A' for Active; 'I' for Inactive)
ROOT
ATOM      1  C4' PXY d   1       0.010  -0.904   3.153  0.00  0.00     0.077 C 
ATOM      2  C1' PXY d   1      -0.768   2.868  -1.157  0.00  0.00     0.077 C 
ATOM      3  C1  PXY d   1      -0.565   1.869  -0.035  0.00  0.00    -0.082 A 
ATOM      4  C2  PXY d   1      -0.852   2.216   1.209  0.00  0.00     0.003 A 
ATOM      5  C3  PXY d   1      -0.644   1.336   2.240  0.00  0.00     0.003 A 
ATOM      6  C4  PXY d   1      -0.188   0.069   1.988  0.00  0.00    -0.082 A 
ATOM      7  C5  PXY d   1       0.096  -0.295   0.720  0.00  0.00     0.003 A 
ATOM      8  C6  PXY d   1      -0.082   0.627  -0.308  0.00  0.00     0.003 A 
ENDROOT
TORSDOF 0
ENDMDL
