MODEL 1
REMARK minimizedAffinity -3.38818336
REMARK minimizedRMSD -1
REMARK  0 active torsions:
REMARK  status: ('A' for Active; 'I' for Inactive)
ROOT
ATOM      1  C4' PXY d   1       0.882  -1.541  -0.466  0.00  0.00     0.077 C 
ATOM      2  C1' PXY d   1      -2.242   2.856   1.614  0.00  0.00     0.077 C 
ATOM      3  C1  PXY d   1      -1.418   1.700   1.080  0.00  0.00    -0.082 A 
ATOM      4  C2  PXY d   1      -1.111   1.655  -0.206  0.00  0.00     0.003 A 
ATOM      5  C3  PXY d   1      -0.394   0.601  -0.711  0.00  0.00     0.003 A 
ATOM      6  C4  PXY d   1       0.060  -0.389   0.119  0.00  0.00    -0.082 A 
ATOM      7  C5  PXY d   1      -0.241  -0.345   1.434  0.00  0.00     0.003 A 
ATOM      8  C6  PXY d   1      -1.005   0.712   1.920  0.00  0.00     0.003 A 
ENDROOT
TORSDOF 0
ENDMDL
