MODEL 1
REMARK minimizedAffinity -5.90395832
REMARK minimizedRMSD -1
REMARK  0 active torsions:
REMARK  status: ('A' for Active; 'I' for Inactive)
ROOT
ATOM      1  C4' PXY d   1       1.039  -1.819  -1.406  0.00  0.00     0.077 C 
ATOM      2  C1' PXY d   1      -1.964   1.800   1.955  0.00  0.00     0.077 C 
ATOM      3  C1  PXY d   1      -1.169   0.847   1.084  0.00  0.00    -0.082 A 
ATOM      4  C2  PXY d   1      -1.068   1.079  -0.215  0.00  0.00     0.003 A 
ATOM      5  C3  PXY d   1      -0.380   0.210  -1.022  0.00  0.00     0.003 A 
ATOM      6  C4  PXY d   1       0.255  -0.879  -0.487  0.00  0.00    -0.082 A 
ATOM      7  C5  PXY d   1       0.165  -1.116   0.839  0.00  0.00     0.003 A 
ATOM      8  C6  PXY d   1      -0.572  -0.244   1.635  0.00  0.00     0.003 A 
ENDROOT
TORSDOF 0
ENDMDL
