MODEL 1
REMARK minimizedAffinity -4.31531191
REMARK minimizedRMSD -1
REMARK  0 active torsions:
REMARK  status: ('A' for Active; 'I' for Inactive)
ROOT
ATOM      1  C4' PXY d   1      -2.300   2.252   1.638  0.00  0.00     0.077 C 
ATOM      2  C1' PXY d   1       1.258  -1.943  -0.139  0.00  0.00     0.077 C 
ATOM      3  C1  PXY d   1       0.321  -0.850   0.337  0.00  0.00    -0.082 A 
ATOM      4  C2  PXY d   1      -0.138   0.041  -0.527  0.00  0.00     0.003 A 
ATOM      5  C3  PXY d   1      -0.960   1.054  -0.108  0.00  0.00     0.003 A 
ATOM      6  C4  PXY d   1      -1.360   1.126   1.200  0.00  0.00    -0.082 A 
ATOM      7  C5  PXY d   1      -0.904   0.215   2.086  0.00  0.00     0.003 A 
ATOM      8  C6  PXY d   1      -0.037  -0.782   1.648  0.00  0.00     0.003 A 
ENDROOT
TORSDOF 0
ENDMDL
