MODEL 1
REMARK minimizedAffinity -4.76046038
REMARK minimizedRMSD -1
REMARK  0 active torsions:
REMARK  status: ('A' for Active; 'I' for Inactive)
ROOT
ATOM      1  C4' PXY d   1       1.606  -1.847  -1.112  0.00  0.00     0.077 C 
ATOM      2  C1' PXY d   1      -1.731   2.229   1.268  0.00  0.00     0.077 C 
ATOM      3  C1  PXY d   1      -0.860   1.164   0.632  0.00  0.00    -0.082 A 
ATOM      4  C2  PXY d   1      -0.530   0.088   1.327  0.00  0.00     0.003 A 
ATOM      5  C3  PXY d   1       0.283  -0.870   0.778  0.00  0.00     0.003 A 
ATOM      6  C4  PXY d   1       0.721  -0.750  -0.514  0.00  0.00    -0.082 A 
ATOM      7  C5  PXY d   1       0.380   0.340  -1.233  0.00  0.00     0.003 A 
ATOM      8  C6  PXY d   1      -0.413   1.321  -0.644  0.00  0.00     0.003 A 
ENDROOT
TORSDOF 0
ENDMDL
