MODEL 1
REMARK minimizedAffinity -3.39910531
REMARK minimizedRMSD -1
REMARK  0 active torsions:
REMARK  status: ('A' for Active; 'I' for Inactive)
ROOT
ATOM      1  C4' PXY d   1       1.297  -1.518  -0.864  0.00  0.00     0.077 C 
ATOM      2  C1' PXY d   1      -2.127   2.511   1.472  0.00  0.00     0.077 C 
ATOM      3  C1  PXY d   1      -1.233   1.458   0.847  0.00  0.00    -0.082 A 
ATOM      4  C2  PXY d   1      -0.896   0.387   1.548  0.00  0.00     0.003 A 
ATOM      5  C3  PXY d   1      -0.062  -0.559   1.010  0.00  0.00     0.003 A 
ATOM      6  C4  PXY d   1       0.388  -0.434  -0.277  0.00  0.00    -0.082 A 
ATOM      7  C5  PXY d   1       0.040   0.650  -1.002  0.00  0.00     0.003 A 
ATOM      8  C6  PXY d   1      -0.774   1.620  -0.423  0.00  0.00     0.003 A 
ENDROOT
TORSDOF 0
ENDMDL
