MODEL 1
REMARK minimizedAffinity -4.35455799
REMARK minimizedRMSD -1
REMARK  0 active torsions:
REMARK  status: ('A' for Active; 'I' for Inactive)
ROOT
ATOM      1  C4' PXY d   1      -1.941   1.814   1.678  0.00  0.00     0.077 C 
ATOM      2  C1' PXY d   1       0.576  -2.187  -1.649  0.00  0.00     0.077 C 
ATOM      3  C1  PXY d   1      -0.073  -1.131  -0.777  0.00  0.00    -0.082 A 
ATOM      4  C2  PXY d   1      -1.103  -1.456  -0.012  0.00  0.00     0.003 A 
ATOM      5  C3  PXY d   1      -1.722  -0.506   0.759  0.00  0.00     0.003 A 
ATOM      6  C4  PXY d   1      -1.249   0.778   0.788  0.00  0.00    -0.082 A 
ATOM      7  C5  PXY d   1      -0.192   1.116   0.019  0.00  0.00     0.003 A 
ATOM      8  C6  PXY d   1       0.397   0.146  -0.788  0.00  0.00     0.003 A 
ENDROOT
TORSDOF 0
ENDMDL
