MODEL 1
REMARK minimizedAffinity -5.07361603
REMARK minimizedRMSD -1
REMARK  0 active torsions:
REMARK  status: ('A' for Active; 'I' for Inactive)
ROOT
ATOM      1  C4' PXY d   1      -0.273   1.293   4.456  0.00  0.00     0.077 C 
ATOM      2  C1' PXY d   1      -0.021  -0.858  -0.903  0.00  0.00     0.077 C 
ATOM      3  C1  PXY d   1      -0.093  -0.283   0.497  0.00  0.00    -0.082 A 
ATOM      4  C2  PXY d   1       0.762  -0.697   1.419  0.00  0.00     0.003 A 
ATOM      5  C3  PXY d   1       0.691  -0.211   2.699  0.00  0.00     0.003 A 
ATOM      6  C4  PXY d   1      -0.231   0.747   3.026  0.00  0.00    -0.082 A 
ATOM      7  C5  PXY d   1      -1.100   1.182   2.089  0.00  0.00     0.003 A 
ATOM      8  C6  PXY d   1      -1.037   0.646   0.806  0.00  0.00     0.003 A 
ENDROOT
TORSDOF 0
ENDMDL
