MODEL 1
REMARK minimizedAffinity -4.67211342
REMARK minimizedRMSD -1
REMARK  0 active torsions:
REMARK  status: ('A' for Active; 'I' for Inactive)
ROOT
ATOM      1  C4' PXY d   1      -2.181   1.778   1.756  0.00  0.00     0.077 C 
ATOM      2  C1' PXY d   1       1.766  -1.262  -1.176  0.00  0.00     0.077 C 
ATOM      3  C1  PXY d   1       0.729  -0.475  -0.400  0.00  0.00    -0.082 A 
ATOM      4  C2  PXY d   1       0.127   0.556  -0.971  0.00  0.00     0.003 A 
ATOM      5  C3  PXY d   1      -0.790   1.298  -0.272  0.00  0.00     0.003 A 
ATOM      6  C4  PXY d   1      -1.134   0.949   1.006  0.00  0.00    -0.082 A 
ATOM      7  C5  PXY d   1      -0.532  -0.108   1.592  0.00  0.00     0.003 A 
ATOM      8  C6  PXY d   1       0.426  -0.823   0.880  0.00  0.00     0.003 A 
ENDROOT
TORSDOF 0
ENDMDL
