MODEL 1
REMARK minimizedAffinity -2.85424542
REMARK minimizedRMSD -1
REMARK  0 active torsions:
REMARK  status: ('A' for Active; 'I' for Inactive)
ROOT
ATOM      1  C4' PXY d   1       1.154  -1.818  -1.363  0.00  0.00     0.077 C 
ATOM      2  C1' PXY d   1      -1.726   2.187   1.649  0.00  0.00     0.077 C 
ATOM      3  C1  PXY d   1      -0.966   1.131   0.871  0.00  0.00    -0.082 A 
ATOM      4  C2  PXY d   1      -0.640   1.358  -0.391  0.00  0.00     0.003 A 
ATOM      5  C3  PXY d   1       0.020   0.402  -1.120  0.00  0.00     0.003 A 
ATOM      6  C4  PXY d   1       0.395  -0.778  -0.535  0.00  0.00    -0.082 A 
ATOM      7  C5  PXY d   1       0.075  -1.012   0.755  0.00  0.00     0.003 A 
ATOM      8  C6  PXY d   1      -0.630  -0.045   1.465  0.00  0.00     0.003 A 
ENDROOT
TORSDOF 0
ENDMDL
