MODEL 1
REMARK minimizedAffinity -5.55986929
REMARK minimizedRMSD -1
REMARK  0 active torsions:
REMARK  status: ('A' for Active; 'I' for Inactive)
ROOT
ATOM      1  C4' PXY d   1      -0.546   2.353  -1.015  0.00  0.00     0.077 C 
ATOM      2  C1' PXY d   1      -0.568  -1.599   3.204  0.00  0.00     0.077 C 
ATOM      3  C1  PXY d   1      -0.574  -0.558   2.102  0.00  0.00    -0.082 A 
ATOM      4  C2  PXY d   1       0.143  -0.760   1.008  0.00  0.00     0.003 A 
ATOM      5  C3  PXY d   1       0.175   0.186   0.016  0.00  0.00     0.003 A 
ATOM      6  C4  PXY d   1      -0.578   1.325   0.120  0.00  0.00    -0.082 A 
ATOM      7  C5  PXY d   1      -1.321   1.532   1.227  0.00  0.00     0.003 A 
ATOM      8  C6  PXY d   1      -1.307   0.579   2.242  0.00  0.00     0.003 A 
ENDROOT
TORSDOF 0
ENDMDL
