MODEL 1
REMARK minimizedAffinity -4.3143363
REMARK minimizedRMSD -1
REMARK  0 active torsions:
REMARK  status: ('A' for Active; 'I' for Inactive)
ROOT
ATOM      1  C4' PXY d   1      -0.019  -2.183  -2.761  0.00  0.00     0.077 C 
ATOM      2  C1' PXY d   1       3.035  -5.916   0.426  0.00  0.00     0.077 C 
ATOM      3  C1  PXY d   1       2.231  -4.946  -0.419  0.00  0.00    -0.082 A 
ATOM      4  C2  PXY d   1       2.474  -3.648  -0.335  0.00  0.00     0.003 A 
ATOM      5  C3  PXY d   1       1.736  -2.755  -1.067  0.00  0.00     0.003 A 
ATOM      6  C4  PXY d   1       0.774  -3.199  -1.935  0.00  0.00    -0.082 A 
ATOM      7  C5  PXY d   1       0.527  -4.522  -2.034  0.00  0.00     0.003 A 
ATOM      8  C6  PXY d   1       1.260  -5.410  -1.252  0.00  0.00     0.003 A 
ENDROOT
TORSDOF 0
ENDMDL
