MODEL 1
REMARK minimizedAffinity -5.9010272
REMARK minimizedRMSD -1
REMARK  0 active torsions:
REMARK  status: ('A' for Active; 'I' for Inactive)
ROOT
ATOM      1  C4' PXY d   1      -0.591  -1.488   3.289  0.00  0.00     0.077 C 
ATOM      2  C1' PXY d   1      -0.701   2.356  -1.027  0.00  0.00     0.077 C 
ATOM      3  C1  PXY d   1      -0.671   1.338   0.096  0.00  0.00    -0.082 A 
ATOM      4  C2  PXY d   1      -1.228   1.632   1.260  0.00  0.00     0.003 A 
ATOM      5  C3  PXY d   1      -1.182   0.736   2.296  0.00  0.00     0.003 A 
ATOM      6  C4  PXY d   1      -0.606  -0.494   2.124  0.00  0.00    -0.082 A 
ATOM      7  C5  PXY d   1      -0.045  -0.806   0.936  0.00  0.00     0.003 A 
ATOM      8  C6  PXY d   1      -0.066   0.134  -0.091  0.00  0.00     0.003 A 
ENDROOT
TORSDOF 0
ENDMDL
