MODEL 1
REMARK minimizedAffinity -5.26143026
REMARK minimizedRMSD -1
REMARK  0 active torsions:
REMARK  status: ('A' for Active; 'I' for Inactive)
ROOT
ATOM      1  C4' PXY d   1       1.142  -1.594  -0.588  0.00  0.00     0.077 C 
ATOM      2  C1' PXY d   1      -2.255   2.514   1.647  0.00  0.00     0.077 C 
ATOM      3  C1  PXY d   1      -1.360   1.433   1.073  0.00  0.00    -0.082 A 
ATOM      4  C2  PXY d   1      -0.912   1.546  -0.167  0.00  0.00     0.003 A 
ATOM      5  C3  PXY d   1      -0.128   0.562  -0.713  0.00  0.00     0.003 A 
ATOM      6  C4  PXY d   1       0.244  -0.522   0.036  0.00  0.00    -0.082 A 
ATOM      7  C5  PXY d   1      -0.200  -0.639   1.305  0.00  0.00     0.003 A 
ATOM      8  C6  PXY d   1      -1.029   0.350   1.827  0.00  0.00     0.003 A 
ENDROOT
TORSDOF 0
ENDMDL
