MODEL 1
REMARK minimizedAffinity -5.74553204
REMARK minimizedRMSD -1
REMARK  0 active torsions:
REMARK  status: ('A' for Active; 'I' for Inactive)
ROOT
ATOM      1  C4' PXY d   1       1.498  -1.879  -0.747  0.00  0.00     0.077 C 
ATOM      2  C1' PXY d   1      -2.221   2.126   1.135  0.00  0.00     0.077 C 
ATOM      3  C1  PXY d   1      -1.242   1.073   0.654  0.00  0.00    -0.082 A 
ATOM      4  C2  PXY d   1      -0.749   1.150  -0.571  0.00  0.00     0.003 A 
ATOM      5  C3  PXY d   1       0.113   0.189  -1.034  0.00  0.00     0.003 A 
ATOM      6  C4  PXY d   1       0.514  -0.833  -0.216  0.00  0.00    -0.082 A 
ATOM      7  C5  PXY d   1       0.023  -0.913   1.039  0.00  0.00     0.003 A 
ATOM      8  C6  PXY d   1      -0.882   0.050   1.476  0.00  0.00     0.003 A 
ENDROOT
TORSDOF 0
ENDMDL
