MODEL 1
REMARK minimizedAffinity -5.55760384
REMARK minimizedRMSD -1
REMARK  0 active torsions:
REMARK  status: ('A' for Active; 'I' for Inactive)
ROOT
ATOM      1  C4' PXY d   1       1.406  -1.827  -1.124  0.00  0.00     0.077 C 
ATOM      2  C1' PXY d   1      -1.923   1.886   1.799  0.00  0.00     0.077 C 
ATOM      3  C1  PXY d   1      -1.045   0.909   1.044  0.00  0.00    -0.082 A 
ATOM      4  C2  PXY d   1      -0.769   1.128  -0.232  0.00  0.00     0.003 A 
ATOM      5  C3  PXY d   1      -0.002   0.237  -0.938  0.00  0.00     0.003 A 
ATOM      6  C4  PXY d   1       0.531  -0.861  -0.319  0.00  0.00    -0.082 A 
ATOM      7  C5  PXY d   1       0.263  -1.086   0.985  0.00  0.00     0.003 A 
ATOM      8  C6  PXY d   1      -0.551  -0.192   1.673  0.00  0.00     0.003 A 
ENDROOT
TORSDOF 0
ENDMDL
