MODEL 1
REMARK minimizedAffinity -1.83754325
REMARK minimizedRMSD -1
REMARK  0 active torsions:
REMARK  status: ('A' for Active; 'I' for Inactive)
ROOT
ATOM      1  C4' PXY d   1       3.056  -6.000   0.722  0.00  0.00     0.077 C 
ATOM      2  C1' PXY d   1       0.058  -2.605  -2.871  0.00  0.00     0.077 C 
ATOM      3  C1  PXY d   1       0.834  -3.503  -1.927  0.00  0.00    -0.082 A 
ATOM      4  C2  PXY d   1       1.916  -3.038  -1.324  0.00  0.00     0.003 A 
ATOM      5  C3  PXY d   1       2.647  -3.846  -0.491  0.00  0.00     0.003 A 
ATOM      6  C4  PXY d   1       2.236  -5.126  -0.232  0.00  0.00    -0.082 A 
ATOM      7  C5  PXY d   1       1.127  -5.604  -0.836  0.00  0.00     0.003 A 
ATOM      8  C6  PXY d   1       0.422  -4.781  -1.709  0.00  0.00     0.003 A 
ENDROOT
TORSDOF 0
ENDMDL
