MODEL 1
REMARK minimizedAffinity -5.32741308
REMARK minimizedRMSD -1
REMARK  0 active torsions:
REMARK  status: ('A' for Active; 'I' for Inactive)
ROOT
ATOM      1  C   UNL d   1       1.022   1.051  -0.013  0.00  0.00     0.078 C 
ATOM      2  C1  UNL d   1       0.094  -0.102   0.226  0.00  0.00    -0.077 A 
ATOM      3  C2  UNL d   1      -1.288   0.094   0.329  0.00  0.00    -0.001 A 
ATOM      4  C3  UNL d   1      -2.139  -0.988   0.562  0.00  0.00     0.003 A 
ATOM      5  C4  UNL d   1      -1.617  -2.273   0.695  0.00  0.00    -0.005 A 
ATOM      6  C5  UNL d   1      -0.243  -2.477   0.596  0.00  0.00     0.003 A 
ATOM      7  C6  UNL d   1       0.610  -1.397   0.364  0.00  0.00    -0.001 A 
ENDROOT
TORSDOF 0
ENDMDL
