MODEL 1
REMARK minimizedAffinity -5.94428253
REMARK minimizedRMSD -1
REMARK  0 active torsions:
REMARK  status: ('A' for Active; 'I' for Inactive)
ROOT
ATOM      1  C   UNL d   1       0.489   0.770  -0.055  0.00  0.00     0.078 C 
ATOM      2  C1  UNL d   1      -0.336  -0.294   0.606  0.00  0.00    -0.077 A 
ATOM      3  C2  UNL d   1      -1.590   0.001   1.154  0.00  0.00    -0.001 A 
ATOM      4  C3  UNL d   1      -2.342  -0.997   1.775  0.00  0.00     0.003 A 
ATOM      5  C4  UNL d   1      -1.848  -2.298   1.854  0.00  0.00    -0.005 A 
ATOM      6  C5  UNL d   1      -0.600  -2.601   1.313  0.00  0.00     0.003 A 
ATOM      7  C6  UNL d   1       0.153  -1.604   0.692  0.00  0.00    -0.001 A 
ENDROOT
TORSDOF 0
ENDMDL
