MODEL 1
REMARK minimizedAffinity -4.2938695
REMARK minimizedRMSD -1
REMARK  0 active torsions:
REMARK  status: ('A' for Active; 'I' for Inactive)
ROOT
ATOM      1  C   UNL d   1       0.737   1.197  -0.498  0.00  0.00     0.078 C 
ATOM      2  C1  UNL d   1       0.109  -0.104  -0.095  0.00  0.00    -0.077 A 
ATOM      3  C2  UNL d   1      -1.179  -0.446  -0.524  0.00  0.00    -0.001 A 
ATOM      4  C3  UNL d   1      -1.755  -1.656  -0.133  0.00  0.00     0.003 A 
ATOM      5  C4  UNL d   1      -1.050  -2.533   0.690  0.00  0.00    -0.005 A 
ATOM      6  C5  UNL d   1       0.231  -2.200   1.124  0.00  0.00     0.003 A 
ATOM      7  C6  UNL d   1       0.809  -0.990   0.734  0.00  0.00    -0.001 A 
ENDROOT
TORSDOF 0
ENDMDL
