MODEL 1
REMARK minimizedAffinity -4.99999189
REMARK minimizedRMSD -1
REMARK  0 active torsions:
REMARK  status: ('A' for Active; 'I' for Inactive)
ROOT
ATOM      1  C   UNL d   1      -2.069  -2.347   0.534  0.00  0.00     0.078 C 
ATOM      2  C1  UNL d   1      -1.117  -1.189   0.524  0.00  0.00    -0.077 A 
ATOM      3  C2  UNL d   1      -1.510   0.064   0.038  0.00  0.00    -0.001 A 
ATOM      4  C3  UNL d   1      -0.609   1.130   0.025  0.00  0.00     0.003 A 
ATOM      5  C4  UNL d   1       0.690   0.955   0.497  0.00  0.00    -0.005 A 
ATOM      6  C5  UNL d   1       1.091  -0.289   0.981  0.00  0.00     0.003 A 
ATOM      7  C6  UNL d   1       0.192  -1.357   0.994  0.00  0.00    -0.001 A 
ENDROOT
TORSDOF 0
ENDMDL
