MODEL 1
REMARK minimizedAffinity -5.48740625
REMARK minimizedRMSD -1
REMARK  0 active torsions:
REMARK  status: ('A' for Active; 'I' for Inactive)
ROOT
ATOM      1  C   UNL d   1       0.610   1.339  -0.222  0.00  0.00     0.078 C 
ATOM      2  C1  UNL d   1      -0.107   0.087   0.186  0.00  0.00    -0.077 A 
ATOM      3  C2  UNL d   1       0.598  -1.092   0.459  0.00  0.00    -0.001 A 
ATOM      4  C3  UNL d   1      -0.084  -2.252   0.829  0.00  0.00     0.003 A 
ATOM      5  C4  UNL d   1      -1.474  -2.246   0.929  0.00  0.00    -0.005 A 
ATOM      6  C5  UNL d   1      -2.184  -1.078   0.657  0.00  0.00     0.003 A 
ATOM      7  C6  UNL d   1      -1.504   0.083   0.287  0.00  0.00    -0.001 A 
ENDROOT
TORSDOF 0
ENDMDL
