MODEL 1
REMARK minimizedAffinity -4.54021406
REMARK minimizedRMSD -1
REMARK  0 active torsions:
REMARK  status: ('A' for Active; 'I' for Inactive)
ROOT
ATOM      1  C   UNL d   1      -1.623  -2.558   1.019  0.00  0.00     0.078 C 
ATOM      2  C1  UNL d   1      -0.845  -1.335   0.633  0.00  0.00    -0.077 A 
ATOM      3  C2  UNL d   1      -1.488  -0.110   0.417  0.00  0.00    -0.001 A 
ATOM      4  C3  UNL d   1      -0.753   1.017   0.048  0.00  0.00     0.003 A 
ATOM      5  C4  UNL d   1       0.629   0.931  -0.110  0.00  0.00    -0.005 A 
ATOM      6  C5  UNL d   1       1.277  -0.285   0.101  0.00  0.00     0.003 A 
ATOM      7  C6  UNL d   1       0.543  -1.413   0.470  0.00  0.00    -0.001 A 
ENDROOT
TORSDOF 0
ENDMDL
