MODEL 1
REMARK minimizedAffinity -4.5732007
REMARK minimizedRMSD -1
REMARK  0 active torsions:
REMARK  status: ('A' for Active; 'I' for Inactive)
ROOT
ATOM      1  C   UNL d   1      -1.848  -2.559   1.135  0.00  0.00     0.078 C 
ATOM      2  C1  UNL d   1      -0.915  -1.456   0.734  0.00  0.00    -0.077 A 
ATOM      3  C2  UNL d   1       0.458  -1.690   0.589  0.00  0.00    -0.001 A 
ATOM      4  C3  UNL d   1       1.317  -0.651   0.225  0.00  0.00     0.003 A 
ATOM      5  C4  UNL d   1       0.812   0.629   0.004  0.00  0.00    -0.005 A 
ATOM      6  C5  UNL d   1      -0.553   0.872   0.148  0.00  0.00     0.003 A 
ATOM      7  C6  UNL d   1      -1.412  -0.166   0.512  0.00  0.00    -0.001 A 
ENDROOT
TORSDOF 0
ENDMDL
