MODEL 1
REMARK minimizedAffinity -2.71702528
REMARK minimizedRMSD -1
REMARK  0 active torsions:
REMARK  status: ('A' for Active; 'I' for Inactive)
ROOT
ATOM      1  C   UNL d   1      -1.831  -2.500   0.799  0.00  0.00     0.078 C 
ATOM      2  C1  UNL d   1      -0.897  -1.344   0.597  0.00  0.00    -0.077 A 
ATOM      3  C2  UNL d   1      -1.386  -0.047   0.400  0.00  0.00    -0.001 A 
ATOM      4  C3  UNL d   1      -0.505   1.017   0.204  0.00  0.00     0.003 A 
ATOM      5  C4  UNL d   1       0.870   0.796   0.201  0.00  0.00    -0.005 A 
ATOM      6  C5  UNL d   1       1.367  -0.492   0.394  0.00  0.00     0.003 A 
ATOM      7  C6  UNL d   1       0.487  -1.558   0.590  0.00  0.00    -0.001 A 
ENDROOT
TORSDOF 0
ENDMDL
