MODEL 1
REMARK minimizedAffinity -4.4939909
REMARK minimizedRMSD -1
REMARK  0 active torsions:
REMARK  status: ('A' for Active; 'I' for Inactive)
ROOT
ATOM      1  C   UNL d   1      -1.741  -2.737   0.942  0.00  0.00     0.078 C 
ATOM      2  C1  UNL d   1      -0.823  -1.612   0.566  0.00  0.00    -0.077 A 
ATOM      3  C2  UNL d   1       0.567  -1.782   0.577  0.00  0.00    -0.001 A 
ATOM      4  C3  UNL d   1       1.410  -0.724   0.234  0.00  0.00     0.003 A 
ATOM      5  C4  UNL d   1       0.873   0.512  -0.120  0.00  0.00    -0.005 A 
ATOM      6  C5  UNL d   1      -0.509   0.692  -0.131  0.00  0.00     0.003 A 
ATOM      7  C6  UNL d   1      -1.353  -0.366   0.211  0.00  0.00    -0.001 A 
ENDROOT
TORSDOF 0
ENDMDL
