MODEL 1
REMARK minimizedAffinity -3.63065267
REMARK minimizedRMSD -1
REMARK  0 active torsions:
REMARK  status: ('A' for Active; 'I' for Inactive)
ROOT
ATOM      1  C   UNL d   1       0.545   0.748  -0.630  0.00  0.00     0.078 C 
ATOM      2  C1  UNL d   1       0.020  -0.487   0.040  0.00  0.00    -0.077 A 
ATOM      3  C2  UNL d   1      -1.356  -0.710   0.165  0.00  0.00    -0.001 A 
ATOM      4  C3  UNL d   1      -1.830  -1.859   0.800  0.00  0.00     0.003 A 
ATOM      5  C4  UNL d   1      -0.935  -2.794   1.315  0.00  0.00    -0.005 A 
ATOM      6  C5  UNL d   1       0.437  -2.580   1.197  0.00  0.00     0.003 A 
ATOM      7  C6  UNL d   1       0.913  -1.431   0.563  0.00  0.00    -0.001 A 
ENDROOT
TORSDOF 0
ENDMDL
