MODEL 1
REMARK minimizedAffinity -2.55712461
REMARK minimizedRMSD -1
REMARK  0 active torsions:
REMARK  status: ('A' for Active; 'I' for Inactive)
ROOT
ATOM      1  C   UNL d   1      -0.717  -2.610   1.336  0.00  0.00     0.078 C 
ATOM      2  C1  UNL d   1      -0.064  -1.282   1.095  0.00  0.00    -0.077 A 
ATOM      3  C2  UNL d   1       1.330  -1.162   1.041  0.00  0.00    -0.001 A 
ATOM      4  C3  UNL d   1       1.923   0.083   0.826  0.00  0.00     0.003 A 
ATOM      5  C4  UNL d   1       1.131   1.217   0.665  0.00  0.00    -0.005 A 
ATOM      6  C5  UNL d   1      -0.257   1.109   0.720  0.00  0.00     0.003 A 
ATOM      7  C6  UNL d   1      -0.853  -0.135   0.935  0.00  0.00    -0.001 A 
ENDROOT
TORSDOF 0
ENDMDL
