MODEL 1
REMARK minimizedAffinity -2.31495023
REMARK minimizedRMSD -1
REMARK  0 active torsions:
REMARK  status: ('A' for Active; 'I' for Inactive)
ROOT
ATOM      1  C   UNL d   1      -1.938  -1.772   0.392  0.00  0.00     0.078 C 
ATOM      2  C1  UNL d   1      -1.188  -0.477   0.302  0.00  0.00    -0.077 A 
ATOM      3  C2  UNL d   1      -1.839   0.748   0.495  0.00  0.00    -0.001 A 
ATOM      4  C3  UNL d   1      -1.130   1.946   0.399  0.00  0.00     0.003 A 
ATOM      5  C4  UNL d   1       0.233   1.932   0.108  0.00  0.00    -0.005 A 
ATOM      6  C5  UNL d   1       0.888   0.718  -0.088  0.00  0.00     0.003 A 
ATOM      7  C6  UNL d   1       0.181  -0.481   0.008  0.00  0.00    -0.001 A 
ENDROOT
TORSDOF 0
ENDMDL
