MODEL 1
REMARK minimizedAffinity -5.57476139
REMARK minimizedRMSD -1
REMARK  0 active torsions:
REMARK  status: ('A' for Active; 'I' for Inactive)
ROOT
ATOM      1  C   UNL d   1       0.591   0.600   0.002  0.00  0.00     0.078 C 
ATOM      2  C1  UNL d   1      -0.560  -0.074   0.687  0.00  0.00    -0.077 A 
ATOM      3  C2  UNL d   1      -0.597  -1.466   0.834  0.00  0.00    -0.001 A 
ATOM      4  C3  UNL d   1      -1.679  -2.081   1.466  0.00  0.00     0.003 A 
ATOM      5  C4  UNL d   1      -2.734  -1.311   1.954  0.00  0.00    -0.005 A 
ATOM      6  C5  UNL d   1      -2.707   0.074   1.810  0.00  0.00     0.003 A 
ATOM      7  C6  UNL d   1      -1.626   0.691   1.179  0.00  0.00    -0.001 A 
ENDROOT
TORSDOF 0
ENDMDL
