MODEL 1
REMARK minimizedAffinity -4.8695941
REMARK minimizedRMSD -1
REMARK  0 active torsions:
REMARK  status: ('A' for Active; 'I' for Inactive)
ROOT
ATOM      1  C   UNL d   1       0.621   0.871  -1.102  0.00  0.00     0.078 C 
ATOM      2  C1  UNL d   1       0.034  -0.224  -0.263  0.00  0.00    -0.077 A 
ATOM      3  C2  UNL d   1       0.785  -0.843   0.744  0.00  0.00    -0.001 A 
ATOM      4  C3  UNL d   1       0.229  -1.868   1.511  0.00  0.00     0.003 A 
ATOM      5  C4  UNL d   1      -1.080  -2.285   1.277  0.00  0.00    -0.005 A 
ATOM      6  C5  UNL d   1      -1.835  -1.677   0.276  0.00  0.00     0.003 A 
ATOM      7  C6  UNL d   1      -1.280  -0.652  -0.492  0.00  0.00    -0.001 A 
ENDROOT
TORSDOF 0
ENDMDL
