MODEL 1
REMARK minimizedAffinity -0.794399738
REMARK minimizedRMSD -1
REMARK  0 active torsions:
REMARK  status: ('A' for Active; 'I' for Inactive)
ROOT
ATOM      1  C   UNL d   1       4.337  -5.170  -2.150  0.00  0.00     0.023 A 
ATOM      2  C1  UNL d   1       3.889  -4.547  -0.985  0.00  0.00     0.003 A 
ATOM      3  C2  UNL d   1       3.214  -3.328  -1.059  0.00  0.00     0.048 A 
ATOM      4  C3  UNL d   1       2.988  -2.737  -2.302  0.00  0.00     0.023 A 
ATOM      5  C4  UNL d   1       3.433  -3.357  -3.471  0.00  0.00     0.048 A 
ATOM      6  C5  UNL d   1       4.109  -4.576  -3.391  0.00  0.00     0.003 A 
ATOM      7  I   UNL d   1       1.983  -0.921  -2.415  0.00  0.00    -0.146 I 
ENDROOT
TORSDOF 0
ENDMDL
