MODEL 1
REMARK minimizedAffinity 6.09270763
REMARK minimizedRMSD -1
REMARK  0 active torsions:
REMARK  status: ('A' for Active; 'I' for Inactive)
ROOT
ATOM      1  C   UNL d   1       3.735  -3.777  -4.687  0.00  0.00     0.023 A 
ATOM      2  C1  UNL d   1       2.627  -3.319  -3.974  0.00  0.00     0.003 A 
ATOM      3  C2  UNL d   1       2.628  -3.356  -2.579  0.00  0.00     0.048 A 
ATOM      4  C3  UNL d   1       3.741  -3.852  -1.901  0.00  0.00     0.023 A 
ATOM      5  C4  UNL d   1       4.853  -4.310  -2.610  0.00  0.00     0.048 A 
ATOM      6  C5  UNL d   1       4.847  -4.272  -4.005  0.00  0.00     0.003 A 
ATOM      7  I   UNL d   1       3.746  -3.908   0.176  0.00  0.00    -0.146 I 
ENDROOT
TORSDOF 0
ENDMDL
