MODEL 1
REMARK minimizedAffinity 2.2209394
REMARK minimizedRMSD -1
REMARK  0 active torsions:
REMARK  status: ('A' for Active; 'I' for Inactive)
ROOT
ATOM      1  C   UNL d   1       3.483  -4.537  -1.912  0.00  0.00     0.023 A 
ATOM      2  C1  UNL d   1       3.344  -3.849  -0.706  0.00  0.00     0.003 A 
ATOM      3  C2  UNL d   1       3.005  -2.494  -0.709  0.00  0.00     0.048 A 
ATOM      4  C3  UNL d   1       2.804  -1.834  -1.921  0.00  0.00     0.023 A 
ATOM      5  C4  UNL d   1       2.940  -2.519  -3.129  0.00  0.00     0.048 A 
ATOM      6  C5  UNL d   1       3.281  -3.873  -3.122  0.00  0.00     0.003 A 
ATOM      7  I   UNL d   1       2.298   0.182  -1.927  0.00  0.00    -0.146 I 
ENDROOT
TORSDOF 0
ENDMDL
