MODEL 1
REMARK minimizedAffinity 3.46779418
REMARK minimizedRMSD -1
REMARK  0 active torsions:
REMARK  status: ('A' for Active; 'I' for Inactive)
ROOT
ATOM      1  C   UNL d   1       4.241  -5.591  -1.979  0.00  0.00     0.023 A 
ATOM      2  C1  UNL d   1       4.449  -4.949  -0.758  0.00  0.00     0.003 A 
ATOM      3  C2  UNL d   1       3.841  -3.718  -0.503  0.00  0.00     0.048 A 
ATOM      4  C3  UNL d   1       3.027  -3.134  -1.473  0.00  0.00     0.023 A 
ATOM      5  C4  UNL d   1       2.816  -3.773  -2.696  0.00  0.00     0.048 A 
ATOM      6  C5  UNL d   1       3.426  -5.004  -2.947  0.00  0.00     0.003 A 
ATOM      7  I   UNL d   1       2.122  -1.302  -1.095  0.00  0.00    -0.146 I 
ENDROOT
TORSDOF 0
ENDMDL
