MODEL 1
REMARK minimizedAffinity -2.95246553
REMARK minimizedRMSD -1
REMARK  0 active torsions:
REMARK  status: ('A' for Active; 'I' for Inactive)
ROOT
ATOM      1  C   UNL d   1       2.894  -1.437  -0.654  0.00  0.00     0.023 A 
ATOM      2  C1  UNL d   1       3.382  -2.637  -0.137  0.00  0.00     0.003 A 
ATOM      3  C2  UNL d   1       3.522  -3.750  -0.968  0.00  0.00     0.048 A 
ATOM      4  C3  UNL d   1       3.175  -3.656  -2.315  0.00  0.00     0.023 A 
ATOM      5  C4  UNL d   1       2.687  -2.457  -2.837  0.00  0.00     0.048 A 
ATOM      6  C5  UNL d   1       2.547  -1.346  -2.002  0.00  0.00     0.003 A 
ATOM      7  I   UNL d   1       3.384  -5.312  -3.554  0.00  0.00    -0.146 I 
ENDROOT
TORSDOF 0
ENDMDL
