MODEL 1
REMARK minimizedAffinity 3.50935912
REMARK minimizedRMSD -1
REMARK  0 active torsions:
REMARK  status: ('A' for Active; 'I' for Inactive)
ROOT
ATOM      1  C   UNL d   1       2.893  -3.820  -4.373  0.00  0.00     0.023 A 
ATOM      2  C1  UNL d   1       4.191  -4.247  -4.093  0.00  0.00     0.003 A 
ATOM      3  C2  UNL d   1       4.555  -4.569  -2.783  0.00  0.00     0.048 A 
ATOM      4  C3  UNL d   1       3.614  -4.462  -1.759  0.00  0.00     0.023 A 
ATOM      5  C4  UNL d   1       2.314  -4.036  -2.035  0.00  0.00     0.048 A 
ATOM      6  C5  UNL d   1       1.956  -3.715  -3.345  0.00  0.00     0.003 A 
ATOM      7  I   UNL d   1       4.153  -4.940   0.191  0.00  0.00    -0.146 I 
ENDROOT
TORSDOF 0
ENDMDL
