MODEL 1
REMARK minimizedAffinity 10.2701397
REMARK minimizedRMSD -1
REMARK  0 active torsions:
REMARK  status: ('A' for Active; 'I' for Inactive)
ROOT
ATOM      1  C   UNL d   1       1.876  -4.337  -3.878  0.00  0.00     0.023 A 
ATOM      2  C1  UNL d   1       3.162  -4.862  -4.008  0.00  0.00     0.003 A 
ATOM      3  C2  UNL d   1       3.977  -5.002  -2.883  0.00  0.00     0.048 A 
ATOM      4  C3  UNL d   1       3.500  -4.617  -1.631  0.00  0.00     0.023 A 
ATOM      5  C4  UNL d   1       2.213  -4.092  -1.496  0.00  0.00     0.048 A 
ATOM      6  C5  UNL d   1       1.402  -3.953  -2.624  0.00  0.00     0.003 A 
ATOM      7  I   UNL d   1       4.711  -4.825   0.045  0.00  0.00    -0.146 I 
ENDROOT
TORSDOF 0
ENDMDL
