MODEL 1
REMARK minimizedAffinity -0.0533372276
REMARK minimizedRMSD -1
REMARK  0 active torsions:
REMARK  status: ('A' for Active; 'I' for Inactive)
ROOT
ATOM      1  C   UNL d   1       4.111  -4.744  -3.517  0.00  0.00     0.023 A 
ATOM      2  C1  UNL d   1       4.336  -4.820  -2.143  0.00  0.00     0.003 A 
ATOM      3  C2  UNL d   1       3.724  -3.908  -1.282  0.00  0.00     0.048 A 
ATOM      4  C3  UNL d   1       2.886  -2.922  -1.801  0.00  0.00     0.023 A 
ATOM      5  C4  UNL d   1       2.656  -2.842  -3.176  0.00  0.00     0.048 A 
ATOM      6  C5  UNL d   1       3.272  -3.756  -4.033  0.00  0.00     0.003 A 
ATOM      7  I   UNL d   1       1.973  -1.562  -0.521  0.00  0.00    -0.146 I 
ENDROOT
TORSDOF 0
ENDMDL
