MODEL 1
REMARK minimizedAffinity 1.84207749
REMARK minimizedRMSD -1
REMARK  0 active torsions:
REMARK  status: ('A' for Active; 'I' for Inactive)
ROOT
ATOM      1  C   UNL d   1       2.583  -3.491  -3.996  0.00  0.00     0.023 A 
ATOM      2  C1  UNL d   1       3.688  -4.340  -3.924  0.00  0.00     0.003 A 
ATOM      3  C2  UNL d   1       4.203  -4.712  -2.680  0.00  0.00     0.048 A 
ATOM      4  C3  UNL d   1       3.608  -4.234  -1.514  0.00  0.00     0.023 A 
ATOM      5  C4  UNL d   1       2.501  -3.386  -1.582  0.00  0.00     0.048 A 
ATOM      6  C5  UNL d   1       1.991  -3.015  -2.827  0.00  0.00     0.003 A 
ATOM      7  I   UNL d   1       4.372  -4.788   0.338  0.00  0.00    -0.146 I 
ENDROOT
TORSDOF 0
ENDMDL
