MODEL 1
REMARK minimizedAffinity 0.709136784
REMARK minimizedRMSD -1
REMARK  0 active torsions:
REMARK  status: ('A' for Active; 'I' for Inactive)
ROOT
ATOM      1  C   UNL d   1      -0.345  -2.184   5.148  0.00  0.00     0.023 A 
ATOM      2  C1  UNL d   1      -1.276  -1.966   4.133  0.00  0.00     0.003 A 
ATOM      3  C2  UNL d   1      -1.847  -0.702   3.968  0.00  0.00     0.048 A 
ATOM      4  C3  UNL d   1      -1.483   0.338   4.822  0.00  0.00     0.023 A 
ATOM      5  C4  UNL d   1      -0.551   0.124   5.839  0.00  0.00     0.048 A 
ATOM      6  C5  UNL d   1       0.018  -1.141   6.000  0.00  0.00     0.003 A 
ATOM      7  I   UNL d   1      -2.332   2.220   4.579  0.00  0.00    -0.146 I 
ENDROOT
TORSDOF 0
ENDMDL
