MODEL 1
REMARK minimizedAffinity 6.95286751
REMARK minimizedRMSD -1
REMARK  0 active torsions:
REMARK  status: ('A' for Active; 'I' for Inactive)
ROOT
ATOM      1  C   UNL d   1      -1.895  -4.138  -1.360  0.00  0.00     0.023 A 
ATOM      2  C1  UNL d   1      -1.532  -5.241  -2.132  0.00  0.00     0.003 A 
ATOM      3  C2  UNL d   1      -1.942  -5.329  -3.464  0.00  0.00     0.048 A 
ATOM      4  C3  UNL d   1      -2.715  -4.308  -4.018  0.00  0.00     0.023 A 
ATOM      5  C4  UNL d   1      -3.080  -3.202  -3.249  0.00  0.00     0.048 A 
ATOM      6  C5  UNL d   1      -2.668  -3.119  -1.918  0.00  0.00     0.003 A 
ATOM      7  I   UNL d   1      -3.327  -4.435  -6.000  0.00  0.00    -0.146 I 
ENDROOT
TORSDOF 0
ENDMDL
