MODEL 1
REMARK minimizedAffinity 2.09527183
REMARK minimizedRMSD -1
REMARK  0 active torsions:
REMARK  status: ('A' for Active; 'I' for Inactive)
ROOT
ATOM      1  C   UNL d   1      -2.250   0.934   4.601  0.00  0.00     0.023 A 
ATOM      2  C1  UNL d   1      -2.597   1.792   3.557  0.00  0.00     0.003 A 
ATOM      3  C2  UNL d   1      -1.638   2.171   2.615  0.00  0.00     0.048 A 
ATOM      4  C3  UNL d   1      -0.334   1.688   2.723  0.00  0.00     0.023 A 
ATOM      5  C4  UNL d   1       0.017   0.828   3.765  0.00  0.00     0.048 A 
ATOM      6  C5  UNL d   1      -0.945   0.453   4.704  0.00  0.00     0.003 A 
ATOM      7  I   UNL d   1       1.094   2.251   1.322  0.00  0.00    -0.146 I 
ENDROOT
TORSDOF 0
ENDMDL
