MODEL 1
REMARK minimizedAffinity 6.72906494
REMARK minimizedRMSD -1
REMARK  0 active torsions:
REMARK  status: ('A' for Active; 'I' for Inactive)
ROOT
ATOM      1  C   UNL d   1       1.996   5.885   0.344  0.00  0.00     0.023 A 
ATOM      2  C1  UNL d   1       2.296   5.998  -1.014  0.00  0.00     0.003 A 
ATOM      3  C2  UNL d   1       2.092   4.913  -1.868  0.00  0.00     0.048 A 
ATOM      4  C3  UNL d   1       1.587   3.717  -1.358  0.00  0.00     0.023 A 
ATOM      5  C4  UNL d   1       1.285   3.600  -0.000  0.00  0.00     0.048 A 
ATOM      6  C5  UNL d   1       1.491   4.688   0.850  0.00  0.00     0.003 A 
ATOM      7  I   UNL d   1       1.283   2.100  -2.627  0.00  0.00    -0.146 I 
ENDROOT
TORSDOF 0
ENDMDL
