MODEL 1
REMARK minimizedAffinity 3.25174308
REMARK minimizedRMSD -1
REMARK  0 active torsions:
REMARK  status: ('A' for Active; 'I' for Inactive)
ROOT
ATOM      1  C   UNL d   1       1.734   5.234  -0.038  0.00  0.00     0.023 A 
ATOM      2  C1  UNL d   1       2.212   5.125  -1.343  0.00  0.00     0.003 A 
ATOM      3  C2  UNL d   1       2.229   3.883  -1.981  0.00  0.00     0.048 A 
ATOM      4  C3  UNL d   1       1.764   2.754  -1.308  0.00  0.00     0.023 A 
ATOM      5  C4  UNL d   1       1.284   2.858  -0.001  0.00  0.00     0.048 A 
ATOM      6  C5  UNL d   1       1.270   4.102   0.633  0.00  0.00     0.003 A 
ATOM      7  I   UNL d   1       1.787   0.904  -2.255  0.00  0.00    -0.146 I 
ENDROOT
TORSDOF 0
ENDMDL
