MODEL 1
REMARK minimizedAffinity 5.76345825
REMARK minimizedRMSD -1
REMARK  0 active torsions:
REMARK  status: ('A' for Active; 'I' for Inactive)
ROOT
ATOM      1  C   UNL d   1       2.509  -0.426  -1.157  0.00  0.00     0.023 A 
ATOM      2  C1  UNL d   1       2.742  -0.248   0.207  0.00  0.00     0.003 A 
ATOM      3  C2  UNL d   1       2.534   1.001   0.795  0.00  0.00     0.048 A 
ATOM      4  C3  UNL d   1       2.091   2.068   0.014  0.00  0.00     0.023 A 
ATOM      5  C4  UNL d   1       1.855   1.895  -1.351  0.00  0.00     0.048 A 
ATOM      6  C5  UNL d   1       2.066   0.644  -1.935  0.00  0.00     0.003 A 
ATOM      7  I   UNL d   1       1.779   3.928   0.888  0.00  0.00    -0.146 I 
ENDROOT
TORSDOF 0
ENDMDL
