MODEL 1
REMARK minimizedAffinity 11.1887302
REMARK minimizedRMSD -1
REMARK  0 active torsions:
REMARK  status: ('A' for Active; 'I' for Inactive)
ROOT
ATOM      1  C   UNL d   1      -1.237  -3.381   3.253  0.00  0.00     0.023 A 
ATOM      2  C1  UNL d   1      -1.690  -2.392   4.126  0.00  0.00     0.003 A 
ATOM      3  C2  UNL d   1      -3.057  -2.250   4.375  0.00  0.00     0.048 A 
ATOM      4  C3  UNL d   1      -3.965  -3.102   3.748  0.00  0.00     0.023 A 
ATOM      5  C4  UNL d   1      -3.517  -4.094   2.874  0.00  0.00     0.048 A 
ATOM      6  C5  UNL d   1      -2.149  -4.231   2.628  0.00  0.00     0.003 A 
ATOM      7  I   UNL d   1      -6.000  -2.894   4.117  0.00  0.00    -0.146 I 
ENDROOT
TORSDOF 0
ENDMDL
