MODEL 1
REMARK minimizedAffinity 18.9893131
REMARK minimizedRMSD -1
REMARK  1 active torsions:
REMARK  status: ('A' for Active; 'I' for Inactive)
REMARK    1  A    between atoms: C1_2  and  C2_3 
ROOT
ATOM      1  C2  UNL d   1      -0.346   3.767  -0.911  0.00  0.00    -0.073 A 
ATOM      2  C3  UNL d   1      -0.748   2.815  -1.854  0.00  0.00    -0.002 A 
ATOM      3  C4  UNL d   1      -0.707   1.455  -1.545  0.00  0.00     0.004 A 
ATOM      4  C5  UNL d   1      -0.272   1.034  -0.288  0.00  0.00    -0.004 A 
ATOM      5  C6  UNL d   1       0.122   1.971   0.672  0.00  0.00    -0.075 A 
ATOM      6  C7  UNL d   1       0.595   1.534   2.028  0.00  0.00     0.076 C 
ATOM      7  C8  UNL d   1       0.081   3.335   0.353  0.00  0.00     0.001 A 
ENDROOT
BRANCH   1   8
ATOM      8  C1  UNL d   1      -0.395   5.237  -1.239  0.00  0.00     0.053 C 
ATOM      9  C   UNL d   1      -1.319   6.000  -0.303  0.00  0.00     0.018 C 
ENDBRANCH   1   8
TORSDOF 1
ENDMDL
