MODEL 1
REMARK minimizedAffinity 0.306410581
REMARK minimizedRMSD -1
REMARK  1 active torsions:
REMARK  status: ('A' for Active; 'I' for Inactive)
REMARK    1  A    between atoms: C1_2  and  C2_3 
ROOT
ATOM      1  C2  UNL d   1      -0.791   5.390  -3.032  0.00  0.00    -0.073 A 
ATOM      2  C3  UNL d   1       0.517   5.812  -3.299  0.00  0.00    -0.002 A 
ATOM      3  C4  UNL d   1       1.594   5.241  -2.621  0.00  0.00     0.004 A 
ATOM      4  C5  UNL d   1       1.377   4.240  -1.674  0.00  0.00    -0.004 A 
ATOM      5  C6  UNL d   1       0.079   3.797  -1.402  0.00  0.00    -0.075 A 
ATOM      6  C7  UNL d   1      -0.172   2.722  -0.385  0.00  0.00     0.076 C 
ATOM      7  C8  UNL d   1      -0.998   4.377  -2.086  0.00  0.00     0.001 A 
ENDROOT
BRANCH   1   8
ATOM      8  C1  UNL d   1      -1.957   5.999  -3.767  0.00  0.00     0.053 C 
ATOM      9  C   UNL d   1      -1.827   5.840  -5.273  0.00  0.00     0.018 C 
ENDBRANCH   1   8
TORSDOF 1
ENDMDL
