MODEL 1
REMARK minimizedAffinity 3.0797019
REMARK minimizedRMSD -1
REMARK  1 active torsions:
REMARK  status: ('A' for Active; 'I' for Inactive)
REMARK    1  A    between atoms: C1_2  and  C2_3 
ROOT
ATOM      1  C2  UNL d   1       0.636  -5.556   0.388  0.00  0.00    -0.073 A 
ATOM      2  C3  UNL d   1       1.886  -5.665  -0.232  0.00  0.00    -0.002 A 
ATOM      3  C4  UNL d   1       1.973  -5.890  -1.607  0.00  0.00     0.004 A 
ATOM      4  C5  UNL d   1       0.815  -6.000  -2.376  0.00  0.00    -0.004 A 
ATOM      5  C6  UNL d   1      -0.443  -5.881  -1.776  0.00  0.00    -0.075 A 
ATOM      6  C7  UNL d   1      -1.699  -6.000  -2.589  0.00  0.00     0.076 C 
ATOM      7  C8  UNL d   1      -0.523  -5.659  -0.395  0.00  0.00     0.001 A 
ENDROOT
BRANCH   1   8
ATOM      8  C1  UNL d   1       0.536  -5.307   1.871  0.00  0.00     0.053 C 
ATOM      9  C   UNL d   1       1.881  -5.449   2.564  0.00  0.00     0.018 C 
ENDBRANCH   1   8
TORSDOF 1
ENDMDL
