MODEL 1
REMARK minimizedAffinity -1.49611306
REMARK minimizedRMSD -1
REMARK  0 active torsions:
REMARK  status: ('A' for Active; 'I' for Inactive)
ROOT
ATOM      1  O1  BZF d   1      -2.520   0.667   0.239  0.00  0.00    -0.204 OA
ATOM      2  C2  BZF d   1      -3.402   0.939   1.266  0.00  0.00     0.174 A 
ATOM      3  C3  BZF d   1      -2.785   0.855   2.462  0.00  0.00    -0.012 A 
ATOM      4  C3A BZF d   1      -1.410   0.598   2.158  0.00  0.00    -0.107 A 
ATOM      5  C4  BZF d   1      -0.294   0.428   2.928  0.00  0.00     0.055 A 
ATOM      6  C5  BZF d   1       0.883   0.120   2.324  0.00  0.00    -0.016 A 
ATOM      7  C6  BZF d   1       0.980  -0.032   0.956  0.00  0.00     0.022 A 
ATOM      8  C7  BZF d   1      -0.098   0.132   0.151  0.00  0.00     0.029 A 
ATOM      9  C7A BZF d   1      -1.282   0.477   0.755  0.00  0.00     0.058 A 
ENDROOT
TORSDOF 0
ENDMDL
