MODEL 1
REMARK minimizedAffinity -3.65967941
REMARK minimizedRMSD -1
REMARK  0 active torsions:
REMARK  status: ('A' for Active; 'I' for Inactive)
ROOT
ATOM      1  O1  BZF d   1      -2.632   0.500   0.656  0.00  0.00    -0.204 OA
ATOM      2  C2  BZF d   1      -3.364   0.857   1.772  0.00  0.00     0.174 A 
ATOM      3  C3  BZF d   1      -2.594   0.829   2.879  0.00  0.00    -0.012 A 
ATOM      4  C3A BZF d   1      -1.277   0.520   2.413  0.00  0.00    -0.107 A 
ATOM      5  C4  BZF d   1      -0.072   0.368   3.038  0.00  0.00     0.055 A 
ATOM      6  C5  BZF d   1       1.009  -0.006   2.304  0.00  0.00    -0.016 A 
ATOM      7  C6  BZF d   1       0.920  -0.242   0.948  0.00  0.00     0.022 A 
ATOM      8  C7  BZF d   1      -0.252  -0.100   0.284  0.00  0.00     0.029 A 
ATOM      9  C7A BZF d   1      -1.340   0.310   1.016  0.00  0.00     0.058 A 
ENDROOT
TORSDOF 0
ENDMDL
