MODEL 1
REMARK minimizedAffinity 1.69139647
REMARK minimizedRMSD -1
REMARK  0 active torsions:
REMARK  status: ('A' for Active; 'I' for Inactive)
ROOT
ATOM      1  O1  BZF d   1      -1.487   0.385  -0.699  0.00  0.00    -0.204 OA
ATOM      2  C2  BZF d   1      -0.377   0.094  -1.468  0.00  0.00     0.174 A 
ATOM      3  C3  BZF d   1       0.735   0.049  -0.706  0.00  0.00    -0.012 A 
ATOM      4  C3A BZF d   1       0.279   0.239   0.636  0.00  0.00    -0.107 A 
ATOM      5  C4  BZF d   1       0.911   0.278   1.846  0.00  0.00     0.055 A 
ATOM      6  C5  BZF d   1       0.186   0.554   2.962  0.00  0.00    -0.016 A 
ATOM      7  C6  BZF d   1      -1.170   0.801   2.904  0.00  0.00     0.022 A 
ATOM      8  C7  BZF d   1      -1.842   0.768   1.728  0.00  0.00     0.029 A 
ATOM      9  C7A BZF d   1      -1.118   0.456   0.603  0.00  0.00     0.058 A 
ENDROOT
TORSDOF 0
ENDMDL
