MODEL 1
REMARK minimizedAffinity -0.341087282
REMARK minimizedRMSD -1
REMARK  0 active torsions:
REMARK  status: ('A' for Active; 'I' for Inactive)
ROOT
ATOM      1  O1  BZF d   1      -1.005   0.536  -1.040  0.00  0.00    -0.204 OA
ATOM      2  C2  BZF d   1      -0.029   0.358  -2.001  0.00  0.00     0.174 A 
ATOM      3  C3  BZF d   1       1.167   0.115  -1.429  0.00  0.00    -0.012 A 
ATOM      4  C3A BZF d   1       0.906   0.051  -0.023  0.00  0.00    -0.107 A 
ATOM      5  C4  BZF d   1       1.693  -0.178   1.068  0.00  0.00     0.055 A 
ATOM      6  C5  BZF d   1       1.142  -0.101   2.308  0.00  0.00    -0.016 A 
ATOM      7  C6  BZF d   1      -0.189   0.209   2.493  0.00  0.00     0.022 A 
ATOM      8  C7  BZF d   1      -1.011   0.440   1.440  0.00  0.00     0.029 A 
ATOM      9  C7A BZF d   1      -0.465   0.330   0.185  0.00  0.00     0.058 A 
ENDROOT
TORSDOF 0
ENDMDL
