MODEL 1
REMARK minimizedAffinity -1.431903
REMARK minimizedRMSD -1
REMARK  0 active torsions:
REMARK  status: ('A' for Active; 'I' for Inactive)
ROOT
ATOM      1  O1  BZF d   1      -1.180   0.226  -0.705  0.00  0.00    -0.204 OA
ATOM      2  C2  BZF d   1       0.148  -0.130  -0.839  0.00  0.00     0.174 A 
ATOM      3  C3  BZF d   1       0.745  -0.213   0.367  0.00  0.00    -0.012 A 
ATOM      4  C3A BZF d   1      -0.297   0.021   1.320  0.00  0.00    -0.107 A 
ATOM      5  C4  BZF d   1      -0.331   0.052   2.684  0.00  0.00     0.055 A 
ATOM      6  C5  BZF d   1      -1.493   0.381   3.308  0.00  0.00    -0.016 A 
ATOM      7  C6  BZF d   1      -2.635   0.690   2.600  0.00  0.00     0.022 A 
ATOM      8  C7  BZF d   1      -2.651   0.668   1.245  0.00  0.00     0.029 A 
ATOM      9  C7A BZF d   1      -1.488   0.303   0.612  0.00  0.00     0.058 A 
ENDROOT
TORSDOF 0
ENDMDL
