MODEL 1
REMARK minimizedAffinity -1.07631528
REMARK minimizedRMSD -1
REMARK  0 active torsions:
REMARK  status: ('A' for Active; 'I' for Inactive)
ROOT
ATOM      1  O1  BZF d   1       1.361   0.200  -2.925  0.00  0.00    -0.204 OA
ATOM      2  C2  BZF d   1       1.268  -1.092  -3.404  0.00  0.00     0.174 A 
ATOM      3  C3  BZF d   1       0.934  -1.946  -2.415  0.00  0.00    -0.012 A 
ATOM      4  C3A BZF d   1       0.719  -1.123  -1.264  0.00  0.00    -0.107 A 
ATOM      5  C4  BZF d   1       0.349  -1.388   0.023  0.00  0.00     0.055 A 
ATOM      6  C5  BZF d   1       0.301  -0.368   0.920  0.00  0.00    -0.016 A 
ATOM      7  C6  BZF d   1       0.620   0.926   0.565  0.00  0.00     0.022 A 
ATOM      8  C7  BZF d   1       0.988   1.239  -0.702  0.00  0.00     0.029 A 
ATOM      9  C7A BZF d   1       1.006   0.216  -1.618  0.00  0.00     0.058 A 
ENDROOT
TORSDOF 0
ENDMDL
