MODEL 1
REMARK minimizedAffinity -1.83257735
REMARK minimizedRMSD -1
REMARK  0 active torsions:
REMARK  status: ('A' for Active; 'I' for Inactive)
ROOT
ATOM      1  O1  BZF d   1      -0.491   0.439   0.322  0.00  0.00    -0.204 OA
ATOM      2  C2  BZF d   1       0.674   0.266   1.044  0.00  0.00     0.174 A 
ATOM      3  C3  BZF d   1       1.695  -0.072   0.231  0.00  0.00    -0.012 A 
ATOM      4  C3A BZF d   1       1.154  -0.022  -1.093  0.00  0.00    -0.107 A 
ATOM      5  C4  BZF d   1       1.683  -0.242  -2.333  0.00  0.00     0.055 A 
ATOM      6  C5  BZF d   1       0.868  -0.183  -3.419  0.00  0.00    -0.016 A 
ATOM      7  C6  BZF d   1      -0.479   0.089  -3.301  0.00  0.00     0.022 A 
ATOM      8  C7  BZF d   1      -1.049   0.319  -2.093  0.00  0.00     0.029 A 
ATOM      9  C7A BZF d   1      -0.221   0.292  -0.997  0.00  0.00     0.058 A 
ENDROOT
TORSDOF 0
ENDMDL
