MODEL 1
REMARK minimizedAffinity -2.37882185
REMARK minimizedRMSD -1
REMARK  0 active torsions:
REMARK  status: ('A' for Active; 'I' for Inactive)
ROOT
ATOM      1  O1  BZF d   1      -1.960   0.548   1.094  0.00  0.00    -0.204 OA
ATOM      2  C2  BZF d   1      -2.408   0.765   2.382  0.00  0.00     0.174 A 
ATOM      3  C3  BZF d   1      -1.408   0.601   3.271  0.00  0.00    -0.012 A 
ATOM      4  C3A BZF d   1      -0.241   0.351   2.483  0.00  0.00    -0.107 A 
ATOM      5  C4  BZF d   1       1.070   0.124   2.791  0.00  0.00     0.055 A 
ATOM      6  C5  BZF d   1       1.945  -0.157   1.790  0.00  0.00    -0.016 A 
ATOM      7  C6  BZF d   1       1.543  -0.225   0.472  0.00  0.00     0.022 A 
ATOM      8  C7  BZF d   1       0.255  -0.002   0.117  0.00  0.00     0.029 A 
ATOM      9  C7A BZF d   1      -0.625   0.315   1.122  0.00  0.00     0.058 A 
ENDROOT
TORSDOF 0
ENDMDL
