MODEL 1
REMARK minimizedAffinity -3.59178972
REMARK minimizedRMSD -1
REMARK  0 active torsions:
REMARK  status: ('A' for Active; 'I' for Inactive)
ROOT
ATOM      1  O1  BZF d   1      -2.458   0.826   0.626  0.00  0.00    -0.204 OA
ATOM      2  C2  BZF d   1      -2.883   1.062   1.919  0.00  0.00     0.174 A 
ATOM      3  C3  BZF d   1      -1.886   0.838   2.799  0.00  0.00    -0.012 A 
ATOM      4  C3A BZF d   1      -0.741   0.526   1.999  0.00  0.00    -0.107 A 
ATOM      5  C4  BZF d   1       0.557   0.223   2.295  0.00  0.00     0.055 A 
ATOM      6  C5  BZF d   1       1.406  -0.103   1.285  0.00  0.00    -0.016 A 
ATOM      7  C6  BZF d   1       0.989  -0.142  -0.030  0.00  0.00     0.022 A 
ATOM      8  C7  BZF d   1      -0.288   0.155  -0.373  0.00  0.00     0.029 A 
ATOM      9  C7A BZF d   1      -1.139   0.517   0.642  0.00  0.00     0.058 A 
ENDROOT
TORSDOF 0
ENDMDL
