MODEL 1
REMARK minimizedAffinity -2.70393682
REMARK minimizedRMSD -1
REMARK  0 active torsions:
REMARK  status: ('A' for Active; 'I' for Inactive)
ROOT
ATOM      1  O1  BZF d   1      -0.888   0.419  -0.953  0.00  0.00    -0.204 OA
ATOM      2  C2  BZF d   1       0.478   0.212  -0.950  0.00  0.00     0.174 A 
ATOM      3  C3  BZF d   1       0.977   0.327   0.297  0.00  0.00    -0.012 A 
ATOM      4  C3A BZF d   1      -0.160   0.533   1.140  0.00  0.00    -0.107 A 
ATOM      5  C4  BZF d   1      -0.313   0.702   2.487  0.00  0.00     0.055 A 
ATOM      6  C5  BZF d   1      -1.552   0.953   2.985  0.00  0.00    -0.016 A 
ATOM      7  C6  BZF d   1      -2.658   1.048   2.166  0.00  0.00     0.022 A 
ATOM      8  C7  BZF d   1      -2.557   0.882   0.825  0.00  0.00     0.029 A 
ATOM      9  C7A BZF d   1      -1.312   0.595   0.322  0.00  0.00     0.058 A 
ENDROOT
TORSDOF 0
ENDMDL
