MODEL 1
REMARK minimizedAffinity -5.50902176
REMARK minimizedRMSD -1
REMARK  0 active torsions:
REMARK  status: ('A' for Active; 'I' for Inactive)
ROOT
ATOM      1  O1  BZF d   1       2.311  -1.898  -2.408  0.00  0.00    -0.204 OA
ATOM      2  C2  BZF d   1       1.741  -1.564  -3.621  0.00  0.00     0.174 A 
ATOM      3  C3  BZF d   1       0.717  -0.704  -3.447  0.00  0.00    -0.012 A 
ATOM      4  C3A BZF d   1       0.702  -0.414  -2.046  0.00  0.00    -0.107 A 
ATOM      5  C4  BZF d   1      -0.076   0.388  -1.261  0.00  0.00     0.055 A 
ATOM      6  C5  BZF d   1       0.123   0.391   0.083  0.00  0.00    -0.016 A 
ATOM      7  C6  BZF d   1       1.086  -0.400   0.676  0.00  0.00     0.022 A 
ATOM      8  C7  BZF d   1       1.885  -1.208  -0.062  0.00  0.00     0.029 A 
ATOM      9  C7A BZF d   1       1.709  -1.188  -1.424  0.00  0.00     0.058 A 
ENDROOT
TORSDOF 0
ENDMDL
