MODEL 1
REMARK minimizedAffinity -0.0626375154
REMARK minimizedRMSD -1
REMARK  0 active torsions:
REMARK  status: ('A' for Active; 'I' for Inactive)
ROOT
ATOM      1  O1  BZF d   1      -0.432   0.154  -0.943  0.00  0.00    -0.204 OA
ATOM      2  C2  BZF d   1       0.890   0.044  -0.560  0.00  0.00     0.174 A 
ATOM      3  C3  BZF d   1       1.034   0.326   0.751  0.00  0.00    -0.012 A 
ATOM      4  C3A BZF d   1      -0.295   0.541   1.237  0.00  0.00    -0.107 A 
ATOM      5  C4  BZF d   1      -0.807   0.842   2.467  0.00  0.00     0.055 A 
ATOM      6  C5  BZF d   1      -2.143   1.059   2.590  0.00  0.00    -0.016 A 
ATOM      7  C6  BZF d   1      -2.994   0.988   1.507  0.00  0.00     0.022 A 
ATOM      8  C7  BZF d   1      -2.532   0.687   0.268  0.00  0.00     0.029 A 
ATOM      9  C7A BZF d   1      -1.188   0.436   0.146  0.00  0.00     0.058 A 
ENDROOT
TORSDOF 0
ENDMDL
