MODEL 1
REMARK minimizedAffinity -3.79435229
REMARK minimizedRMSD -1
REMARK  0 active torsions:
REMARK  status: ('A' for Active; 'I' for Inactive)
ROOT
ATOM      1  O1  BZF d   1       1.394  -2.111  -2.418  0.00  0.00    -0.204 OA
ATOM      2  C2  BZF d   1       1.129  -1.425  -3.588  0.00  0.00     0.174 A 
ATOM      3  C3  BZF d   1       0.638  -0.197  -3.321  0.00  0.00    -0.012 A 
ATOM      4  C3A BZF d   1       0.680  -0.076  -1.896  0.00  0.00    -0.107 A 
ATOM      5  C4  BZF d   1       0.339   0.921  -1.028  0.00  0.00     0.055 A 
ATOM      6  C5  BZF d   1       0.433   0.694   0.309  0.00  0.00    -0.016 A 
ATOM      7  C6  BZF d   1       0.858  -0.518   0.811  0.00  0.00     0.022 A 
ATOM      8  C7  BZF d   1       1.212  -1.536  -0.011  0.00  0.00     0.029 A 
ATOM      9  C7A BZF d   1       1.150  -1.299  -1.362  0.00  0.00     0.058 A 
ENDROOT
TORSDOF 0
ENDMDL
