MODEL 1
REMARK minimizedAffinity -4.37509537
REMARK minimizedRMSD -1
REMARK  0 active torsions:
REMARK  status: ('A' for Active; 'I' for Inactive)
ROOT
ATOM      1  O1  BZF d   1      -2.206   0.920   0.297  0.00  0.00    -0.204 OA
ATOM      2  C2  BZF d   1      -3.000   0.913   1.427  0.00  0.00     0.174 A 
ATOM      3  C3  BZF d   1      -2.285   0.554   2.512  0.00  0.00    -0.012 A 
ATOM      4  C3A BZF d   1      -0.940   0.412   2.046  0.00  0.00    -0.107 A 
ATOM      5  C4  BZF d   1       0.236   0.086   2.659  0.00  0.00     0.055 A 
ATOM      6  C5  BZF d   1       1.361  -0.038   1.906  0.00  0.00    -0.016 A 
ATOM      7  C6  BZF d   1       1.345   0.151   0.540  0.00  0.00     0.022 A 
ATOM      8  C7  BZF d   1       0.203   0.480  -0.112  0.00  0.00     0.029 A 
ATOM      9  C7A BZF d   1      -0.929   0.639   0.651  0.00  0.00     0.058 A 
ENDROOT
TORSDOF 0
ENDMDL
