MODEL 1
REMARK minimizedAffinity -2.55913734
REMARK minimizedRMSD -1
REMARK  0 active torsions:
REMARK  status: ('A' for Active; 'I' for Inactive)
ROOT
ATOM      1  O1  BZF d   1       1.967  -2.111  -1.832  0.00  0.00    -0.204 OA
ATOM      2  C2  BZF d   1       1.587  -1.814  -3.126  0.00  0.00     0.174 A 
ATOM      3  C3  BZF d   1       0.627  -0.867  -3.138  0.00  0.00    -0.012 A 
ATOM      4  C3A BZF d   1       0.456  -0.487  -1.769  0.00  0.00    -0.107 A 
ATOM      5  C4  BZF d   1      -0.345   0.423  -1.141  0.00  0.00     0.055 A 
ATOM      6  C5  BZF d   1      -0.321   0.497   0.216  0.00  0.00    -0.016 A 
ATOM      7  C6  BZF d   1       0.486  -0.325   0.974  0.00  0.00     0.022 A 
ATOM      8  C7  BZF d   1       1.302  -1.239   0.395  0.00  0.00     0.029 A 
ATOM      9  C7A BZF d   1       1.305  -1.294  -0.977  0.00  0.00     0.058 A 
ENDROOT
TORSDOF 0
ENDMDL
