MODEL 1
REMARK minimizedAffinity -2.49065757
REMARK minimizedRMSD -1
REMARK  0 active torsions:
REMARK  status: ('A' for Active; 'I' for Inactive)
ROOT
ATOM      1  O1  BZF d   1      -2.617   0.401   0.367  0.00  0.00    -0.204 OA
ATOM      2  C2  BZF d   1      -3.249   0.725   1.552  0.00  0.00     0.174 A 
ATOM      3  C3  BZF d   1      -2.374   0.721   2.578  0.00  0.00    -0.012 A 
ATOM      4  C3A BZF d   1      -1.098   0.462   1.984  0.00  0.00    -0.107 A 
ATOM      5  C4  BZF d   1       0.167   0.352   2.486  0.00  0.00     0.055 A 
ATOM      6  C5  BZF d   1       1.184   0.020   1.648  0.00  0.00    -0.016 A 
ATOM      7  C6  BZF d   1       0.972  -0.213   0.305  0.00  0.00     0.022 A 
ATOM      8  C7  BZF d   1      -0.265  -0.111  -0.240  0.00  0.00     0.029 A 
ATOM      9  C7A BZF d   1      -1.289   0.256   0.598  0.00  0.00     0.058 A 
ENDROOT
TORSDOF 0
ENDMDL
