MODEL 1
REMARK minimizedAffinity -5.20994902
REMARK minimizedRMSD -1
REMARK  0 active torsions:
REMARK  status: ('A' for Active; 'I' for Inactive)
ROOT
ATOM      1  O1  BZF d   1       1.868  -2.203  -2.102  0.00  0.00    -0.204 OA
ATOM      2  C2  BZF d   1       1.403  -1.699  -3.301  0.00  0.00     0.174 A 
ATOM      3  C3  BZF d   1       0.571  -0.658  -3.093  0.00  0.00    -0.012 A 
ATOM      4  C3A BZF d   1       0.584  -0.443  -1.678  0.00  0.00    -0.107 A 
ATOM      5  C4  BZF d   1      -0.032   0.460  -0.860  0.00  0.00     0.055 A 
ATOM      6  C5  BZF d   1       0.134   0.353   0.485  0.00  0.00    -0.016 A 
ATOM      7  C6  BZF d   1       0.904  -0.645   1.044  0.00  0.00     0.022 A 
ATOM      8  C7  BZF d   1       1.539  -1.561   0.273  0.00  0.00     0.029 A 
ATOM      9  C7A BZF d   1       1.400  -1.436  -1.088  0.00  0.00     0.058 A 
ENDROOT
TORSDOF 0
ENDMDL
