MODEL 1
REMARK minimizedAffinity -2.27557397
REMARK minimizedRMSD -1
REMARK  0 active torsions:
REMARK  status: ('A' for Active; 'I' for Inactive)
ROOT
ATOM      1  O1  BZF d   1       1.152  -1.372   0.547  0.00  0.00    -0.204 OA
ATOM      2  C2  BZF d   1       0.945  -0.200   1.250  0.00  0.00     0.174 A 
ATOM      3  C3  BZF d   1       0.768   0.838   0.407  0.00  0.00    -0.012 A 
ATOM      4  C3A BZF d   1       0.780   0.265  -0.904  0.00  0.00    -0.107 A 
ATOM      5  C4  BZF d   1       0.636   0.787  -2.157  0.00  0.00     0.055 A 
ATOM      6  C5  BZF d   1       0.771  -0.032  -3.233  0.00  0.00    -0.016 A 
ATOM      7  C6  BZF d   1       1.055  -1.375  -3.092  0.00  0.00     0.022 A 
ATOM      8  C7  BZF d   1       1.202  -1.939  -1.869  0.00  0.00     0.029 A 
ATOM      9  C7A BZF d   1       1.033  -1.121  -0.779  0.00  0.00     0.058 A 
ENDROOT
TORSDOF 0
ENDMDL
