MODEL 1
REMARK minimizedAffinity -4.10449076
REMARK minimizedRMSD -1
REMARK  0 active torsions:
REMARK  status: ('A' for Active; 'I' for Inactive)
ROOT
ATOM      1  C   UNL d   1      -1.506  -0.424   4.338  0.00  0.00     0.077 C 
ATOM      2  C1  UNL d   1      -0.906  -0.420   2.963  0.00  0.00    -0.074 A 
ATOM      3  C2  UNL d   1       0.417  -0.823   2.755  0.00  0.00    -0.005 A 
ATOM      4  C3  UNL d   1       0.959  -0.823   1.470  0.00  0.00     0.006 A 
ATOM      5  C4  UNL d   1       0.184  -0.420   0.381  0.00  0.00    -0.005 A 
ATOM      6  C5  UNL d   1      -1.141  -0.014   0.570  0.00  0.00    -0.074 A 
ATOM      7  C6  UNL d   1      -1.990   0.412  -0.591  0.00  0.00     0.077 C 
ATOM      8  C7  UNL d   1      -1.680  -0.024   1.863  0.00  0.00    -0.001 A 
ENDROOT
TORSDOF 0
ENDMDL
