MODEL 1
REMARK minimizedAffinity -3.10599279
REMARK minimizedRMSD -1
REMARK  0 active torsions:
REMARK  status: ('A' for Active; 'I' for Inactive)
ROOT
ATOM      1  C   UNL d   1       0.426   0.039  -1.143  0.00  0.00     0.077 C 
ATOM      2  C1  UNL d   1      -0.132  -0.168   0.234  0.00  0.00    -0.074 A 
ATOM      3  C2  UNL d   1      -0.725  -1.381   0.595  0.00  0.00    -0.005 A 
ATOM      4  C3  UNL d   1      -1.231  -1.562   1.882  0.00  0.00     0.006 A 
ATOM      5  C4  UNL d   1      -1.148  -0.533   2.821  0.00  0.00    -0.005 A 
ATOM      6  C5  UNL d   1      -0.557   0.688   2.479  0.00  0.00    -0.074 A 
ATOM      7  C6  UNL d   1      -0.451   1.801   3.478  0.00  0.00     0.077 C 
ATOM      8  C7  UNL d   1      -0.045   0.859   1.185  0.00  0.00    -0.001 A 
ENDROOT
TORSDOF 0
ENDMDL
