MODEL 1
REMARK minimizedAffinity -2.59401345
REMARK minimizedRMSD -1
REMARK  0 active torsions:
REMARK  status: ('A' for Active; 'I' for Inactive)
ROOT
ATOM      1  C   UNL d   1       2.435   0.376   2.557  0.00  0.00     0.077 C 
ATOM      2  C1  UNL d   1       1.156  -0.069   1.913  0.00  0.00    -0.074 A 
ATOM      3  C2  UNL d   1       0.067  -0.483   2.688  0.00  0.00    -0.005 A 
ATOM      4  C3  UNL d   1      -1.120  -0.885   2.075  0.00  0.00     0.006 A 
ATOM      5  C4  UNL d   1      -1.230  -0.879   0.684  0.00  0.00    -0.005 A 
ATOM      6  C5  UNL d   1      -0.152  -0.468  -0.107  0.00  0.00    -0.074 A 
ATOM      7  C6  UNL d   1      -0.257  -0.446  -1.603  0.00  0.00     0.077 C 
ATOM      8  C7  UNL d   1       1.035  -0.058   0.517  0.00  0.00    -0.001 A 
ENDROOT
TORSDOF 0
ENDMDL
