MODEL 1
REMARK minimizedAffinity -3.94871497
REMARK minimizedRMSD -1
REMARK  0 active torsions:
REMARK  status: ('A' for Active; 'I' for Inactive)
ROOT
ATOM      1  C   UNL d   1      -1.677   0.738  -1.533  0.00  0.00     0.077 C 
ATOM      2  C1  UNL d   1      -0.704   0.021  -0.644  0.00  0.00    -0.074 A 
ATOM      3  C2  UNL d   1       0.415  -0.626  -1.178  0.00  0.00    -0.005 A 
ATOM      4  C3  UNL d   1       1.316  -1.280  -0.338  0.00  0.00     0.006 A 
ATOM      5  C4  UNL d   1       1.108  -1.294   1.041  0.00  0.00    -0.005 A 
ATOM      6  C5  UNL d   1      -0.006  -0.653   1.593  0.00  0.00    -0.074 A 
ATOM      7  C6  UNL d   1      -0.240  -0.650   3.075  0.00  0.00     0.077 C 
ATOM      8  C7  UNL d   1      -0.903   0.009   0.743  0.00  0.00    -0.001 A 
ENDROOT
TORSDOF 0
ENDMDL
