MODEL 1
REMARK minimizedAffinity -5.67719316
REMARK minimizedRMSD -1
REMARK  0 active torsions:
REMARK  status: ('A' for Active; 'I' for Inactive)
ROOT
ATOM      1  C   UNL d   1      -0.767  -0.738   3.335  0.00  0.00     0.077 C 
ATOM      2  C1  UNL d   1      -1.096  -0.214   1.968  0.00  0.00    -0.074 A 
ATOM      3  C2  UNL d   1      -2.417   0.068   1.605  0.00  0.00    -0.005 A 
ATOM      4  C3  UNL d   1      -2.706   0.563   0.334  0.00  0.00     0.006 A 
ATOM      5  C4  UNL d   1      -1.679   0.781  -0.586  0.00  0.00    -0.005 A 
ATOM      6  C5  UNL d   1      -0.353   0.505  -0.241  0.00  0.00    -0.074 A 
ATOM      7  C6  UNL d   1       0.764   0.743  -1.214  0.00  0.00     0.077 C 
ATOM      8  C7  UNL d   1      -0.069   0.014   1.041  0.00  0.00    -0.001 A 
ENDROOT
TORSDOF 0
ENDMDL
