MODEL 1
REMARK minimizedAffinity -4.58627319
REMARK minimizedRMSD -1
REMARK  0 active torsions:
REMARK  status: ('A' for Active; 'I' for Inactive)
ROOT
ATOM      1  C   UNL d   1       1.085   1.146  -1.220  0.00  0.00     0.077 C 
ATOM      2  C1  UNL d   1      -0.002   0.762  -0.260  0.00  0.00    -0.074 A 
ATOM      3  C2  UNL d   1      -1.316   1.204  -0.448  0.00  0.00    -0.005 A 
ATOM      4  C3  UNL d   1      -2.318   0.831   0.447  0.00  0.00     0.006 A 
ATOM      5  C4  UNL d   1      -2.018   0.014   1.538  0.00  0.00    -0.005 A 
ATOM      6  C5  UNL d   1      -0.710  -0.438   1.741  0.00  0.00    -0.074 A 
ATOM      7  C6  UNL d   1      -0.372  -1.325   2.903  0.00  0.00     0.077 C 
ATOM      8  C7  UNL d   1       0.290  -0.065   0.833  0.00  0.00    -0.001 A 
ENDROOT
TORSDOF 0
ENDMDL
