MODEL 1
REMARK minimizedAffinity -5.37277079
REMARK minimizedRMSD -1
REMARK  0 active torsions:
REMARK  status: ('A' for Active; 'I' for Inactive)
ROOT
ATOM      1  C   UNL d   1      -1.419  -0.596   2.884  0.00  0.00     0.077 C 
ATOM      2  C1  UNL d   1      -0.335  -0.257   1.904  0.00  0.00    -0.074 A 
ATOM      3  C2  UNL d   1       0.923   0.168   2.344  0.00  0.00    -0.005 A 
ATOM      4  C3  UNL d   1       1.925   0.470   1.421  0.00  0.00     0.006 A 
ATOM      5  C4  UNL d   1       1.679   0.351   0.053  0.00  0.00    -0.005 A 
ATOM      6  C5  UNL d   1       0.428  -0.073  -0.405  0.00  0.00    -0.074 A 
ATOM      7  C6  UNL d   1       0.150  -0.215  -1.872  0.00  0.00     0.077 C 
ATOM      8  C7  UNL d   1      -0.572  -0.382   0.528  0.00  0.00    -0.001 A 
ENDROOT
TORSDOF 0
ENDMDL
