MODEL 1
REMARK minimizedAffinity -4.13742828
REMARK minimizedRMSD -1
REMARK  0 active torsions:
REMARK  status: ('A' for Active; 'I' for Inactive)
ROOT
ATOM      1  C   UNL d   1      -1.081  -1.586   2.811  0.00  0.00     0.077 C 
ATOM      2  C1  UNL d   1      -0.965  -0.649   1.646  0.00  0.00    -0.074 A 
ATOM      3  C2  UNL d   1      -1.959  -0.597   0.663  0.00  0.00    -0.005 A 
ATOM      4  C3  UNL d   1      -1.843   0.286  -0.410  0.00  0.00     0.006 A 
ATOM      5  C4  UNL d   1      -0.733   1.125  -0.511  0.00  0.00    -0.005 A 
ATOM      6  C5  UNL d   1       0.271   1.089   0.462  0.00  0.00    -0.074 A 
ATOM      7  C6  UNL d   1       1.465   1.991   0.373  0.00  0.00     0.077 C 
ATOM      8  C7  UNL d   1       0.143   0.203   1.541  0.00  0.00    -0.001 A 
ENDROOT
TORSDOF 0
ENDMDL
