MODEL 1
REMARK minimizedAffinity 3.33869219
REMARK minimizedRMSD -1
REMARK  0 active torsions:
REMARK  status: ('A' for Active; 'I' for Inactive)
ROOT
ATOM      1  C   UNL d   1      -0.874   0.355   3.914  0.00  0.00     0.077 C 
ATOM      2  C1  UNL d   1      -0.267   0.551   2.557  0.00  0.00    -0.074 A 
ATOM      3  C2  UNL d   1      -0.983   0.237   1.397  0.00  0.00    -0.005 A 
ATOM      4  C3  UNL d   1      -0.409   0.433   0.141  0.00  0.00     0.006 A 
ATOM      5  C4  UNL d   1       0.885   0.945   0.032  0.00  0.00    -0.005 A 
ATOM      6  C5  UNL d   1       1.616   1.265   1.180  0.00  0.00    -0.074 A 
ATOM      7  C6  UNL d   1       3.004   1.825   1.081  0.00  0.00     0.077 C 
ATOM      8  C7  UNL d   1       1.029   1.072   2.439  0.00  0.00    -0.001 A 
ENDROOT
TORSDOF 0
ENDMDL
