MODEL 1
REMARK minimizedAffinity -4.3952384
REMARK minimizedRMSD -1
REMARK  0 active torsions:
REMARK  status: ('A' for Active; 'I' for Inactive)
ROOT
ATOM      1  C   UNL d   1      -1.014  -0.697   3.225  0.00  0.00     0.077 C 
ATOM      2  C1  UNL d   1      -1.154  -0.258   1.798  0.00  0.00    -0.074 A 
ATOM      3  C2  UNL d   1      -2.396   0.125   1.282  0.00  0.00    -0.005 A 
ATOM      4  C3  UNL d   1      -2.508   0.540  -0.045  0.00  0.00     0.006 A 
ATOM      5  C4  UNL d   1      -1.382   0.577  -0.868  0.00  0.00    -0.005 A 
ATOM      6  C5  UNL d   1      -0.131   0.199  -0.369  0.00  0.00    -0.074 A 
ATOM      7  C6  UNL d   1       1.091   0.242  -1.237  0.00  0.00     0.077 C 
ATOM      8  C7  UNL d   1      -0.025  -0.211   0.967  0.00  0.00    -0.001 A 
ENDROOT
TORSDOF 0
ENDMDL
