MODEL 1
REMARK minimizedAffinity -2.64694548
REMARK minimizedRMSD -1
REMARK  0 active torsions:
REMARK  status: ('A' for Active; 'I' for Inactive)
ROOT
ATOM      1  C   UNL d   1       0.006   1.499   3.339  0.00  0.00     0.077 C 
ATOM      2  C1  UNL d   1      -0.014   0.526   2.198  0.00  0.00    -0.074 A 
ATOM      3  C2  UNL d   1      -0.331  -0.820   2.406  0.00  0.00    -0.005 A 
ATOM      4  C3  UNL d   1      -0.355  -1.712   1.334  0.00  0.00     0.006 A 
ATOM      5  C4  UNL d   1      -0.063  -1.267   0.044  0.00  0.00    -0.005 A 
ATOM      6  C5  UNL d   1       0.255   0.076  -0.184  0.00  0.00    -0.074 A 
ATOM      7  C6  UNL d   1       0.562   0.572  -1.566  0.00  0.00     0.077 C 
ATOM      8  C7  UNL d   1       0.270   0.967   0.898  0.00  0.00    -0.001 A 
ENDROOT
TORSDOF 0
ENDMDL
