MODEL 1
REMARK minimizedAffinity 4.47794676
REMARK minimizedRMSD -1
REMARK  0 active torsions:
REMARK  status: ('A' for Active; 'I' for Inactive)
ROOT
ATOM      1  C   UNL d   1       0.754   1.462  -1.066  0.00  0.00     0.077 C 
ATOM      2  C1  UNL d   1      -0.341   0.565  -0.570  0.00  0.00    -0.074 A 
ATOM      3  C2  UNL d   1      -1.685   0.910  -0.742  0.00  0.00    -0.005 A 
ATOM      4  C3  UNL d   1      -2.693   0.061  -0.283  0.00  0.00     0.006 A 
ATOM      5  C4  UNL d   1      -2.367  -1.139   0.351  0.00  0.00    -0.005 A 
ATOM      6  C5  UNL d   1      -1.028  -1.500   0.531  0.00  0.00    -0.074 A 
ATOM      7  C6  UNL d   1      -0.661  -2.791   1.201  0.00  0.00     0.077 C 
ATOM      8  C7  UNL d   1      -0.021  -0.646   0.061  0.00  0.00    -0.001 A 
ENDROOT
TORSDOF 0
ENDMDL
