MODEL 1
REMARK minimizedAffinity -3.19182539
REMARK minimizedRMSD -1
REMARK  0 active torsions:
REMARK  status: ('A' for Active; 'I' for Inactive)
ROOT
ATOM      1  C   UNL d   1       0.873  -0.095  -1.792  0.00  0.00     0.077 C 
ATOM      2  C1  UNL d   1      -0.322  -0.096  -0.885  0.00  0.00    -0.074 A 
ATOM      3  C2  UNL d   1      -1.490   0.589  -1.235  0.00  0.00    -0.005 A 
ATOM      4  C3  UNL d   1      -2.597   0.571  -0.386  0.00  0.00     0.006 A 
ATOM      5  C4  UNL d   1      -2.547  -0.131   0.819  0.00  0.00    -0.005 A 
ATOM      6  C5  UNL d   1      -1.388  -0.822   1.185  0.00  0.00    -0.074 A 
ATOM      7  C6  UNL d   1      -1.321  -1.589   2.472  0.00  0.00     0.077 C 
ATOM      8  C7  UNL d   1      -0.283  -0.805   0.323  0.00  0.00    -0.001 A 
ENDROOT
TORSDOF 0
ENDMDL
