MODEL 1
REMARK minimizedAffinity -0.640442848
REMARK minimizedRMSD -1
REMARK  0 active torsions:
REMARK  status: ('A' for Active; 'I' for Inactive)
ROOT
ATOM      1  C   UNL d   1      -0.455   0.863   3.700  0.00  0.00     0.077 C 
ATOM      2  C1  UNL d   1      -0.297   0.724   2.214  0.00  0.00    -0.074 A 
ATOM      3  C2  UNL d   1       0.971   0.654   1.629  0.00  0.00    -0.005 A 
ATOM      4  C3  UNL d   1       1.101   0.516   0.248  0.00  0.00     0.006 A 
ATOM      5  C4  UNL d   1      -0.033   0.447  -0.562  0.00  0.00    -0.005 A 
ATOM      6  C5  UNL d   1      -1.310   0.515   0.005  0.00  0.00    -0.074 A 
ATOM      7  C6  UNL d   1      -2.540   0.432  -0.849  0.00  0.00     0.077 C 
ATOM      8  C7  UNL d   1      -1.432   0.647   1.395  0.00  0.00    -0.001 A 
ENDROOT
TORSDOF 0
ENDMDL
