MODEL 1
REMARK minimizedAffinity -3.43045402
REMARK minimizedRMSD -1
REMARK  0 active torsions:
REMARK  status: ('A' for Active; 'I' for Inactive)
ROOT
ATOM      1  C   UNL d   1      -1.348  -1.167   3.455  0.00  0.00     0.077 C 
ATOM      2  C1  UNL d   1      -0.473  -0.499   2.436  0.00  0.00    -0.074 A 
ATOM      3  C2  UNL d   1       0.722   0.122   2.812  0.00  0.00    -0.005 A 
ATOM      4  C3  UNL d   1       1.531   0.731   1.853  0.00  0.00     0.006 A 
ATOM      5  C4  UNL d   1       1.153   0.725   0.509  0.00  0.00    -0.005 A 
ATOM      6  C5  UNL d   1      -0.038   0.108   0.114  0.00  0.00    -0.074 A 
ATOM      7  C6  UNL d   1      -0.454   0.084  -1.326  0.00  0.00     0.077 C 
ATOM      8  C7  UNL d   1      -0.842  -0.508   1.084  0.00  0.00    -0.001 A 
ENDROOT
TORSDOF 0
ENDMDL
