MODEL 1
REMARK minimizedAffinity -3.68900013
REMARK minimizedRMSD -1
REMARK  0 active torsions:
REMARK  status: ('A' for Active; 'I' for Inactive)
ROOT
ATOM      1  C   UNL d   1      -2.646   0.544  -0.960  0.00  0.00     0.077 C 
ATOM      2  C1  UNL d   1      -1.399   0.291  -0.166  0.00  0.00    -0.074 A 
ATOM      3  C2  UNL d   1      -0.143   0.648  -0.667  0.00  0.00    -0.005 A 
ATOM      4  C3  UNL d   1       1.008   0.416   0.087  0.00  0.00     0.006 A 
ATOM      5  C4  UNL d   1       0.914  -0.176   1.347  0.00  0.00    -0.005 A 
ATOM      6  C5  UNL d   1      -0.333  -0.539   1.865  0.00  0.00    -0.074 A 
ATOM      7  C6  UNL d   1      -0.452  -1.166   3.222  0.00  0.00     0.077 C 
ATOM      8  C7  UNL d   1      -1.485  -0.295   1.105  0.00  0.00    -0.001 A 
ENDROOT
TORSDOF 0
ENDMDL
