MODEL 1
REMARK minimizedAffinity -0.66422087
REMARK minimizedRMSD -1
REMARK  2 active torsions:
REMARK  status: ('A' for Active; 'I' for Inactive)
REMARK    1  A    between atoms: C2'_3  and  C1'_4 
REMARK    2  A    between atoms: C1'_4  and  C1_5 
ROOT
ATOM      1  C1  I4B d   1      -1.958  -2.139  -1.904  0.00  0.00    -0.075 A 
ATOM      2  C2  I4B d   1      -2.314  -1.571  -3.102  0.00  0.00     0.003 A 
ATOM      3  C3  I4B d   1      -2.548  -2.387  -4.236  0.00  0.00     0.002 A 
ATOM      4  C4  I4B d   1      -2.366  -3.751  -4.140  0.00  0.00    -0.004 A 
ATOM      5  C5  I4B d   1      -2.027  -4.327  -2.919  0.00  0.00     0.002 A 
ATOM      6  C6  I4B d   1      -1.834  -3.517  -1.791  0.00  0.00     0.003 A 
ENDROOT
BRANCH   1   7
ATOM      7  C1' I4B d   1      -1.687  -1.245  -0.736  0.00  0.00     0.060 C 
BRANCH   7   8
ATOM      8  C2' I4B d   1      -0.434  -0.448  -1.038  0.00  0.00    -0.013 C 
ATOM      9  C4' I4B d   1      -0.606   1.001  -0.665  0.00  0.00     0.013 C 
ATOM     10  C3' I4B d   1       0.703  -1.070  -0.284  0.00  0.00     0.013 C 
ENDBRANCH   7   8
ENDBRANCH   1   7
TORSDOF 2
ENDMDL
