MODEL 1
REMARK minimizedAffinity -0.771403849
REMARK minimizedRMSD -1
REMARK  2 active torsions:
REMARK  status: ('A' for Active; 'I' for Inactive)
REMARK    1  A    between atoms: C2'_3  and  C1'_4 
REMARK    2  A    between atoms: C1'_4  and  C1_5 
ROOT
ATOM      1  C1  I4B d   1      -2.075  -1.784  -1.218  0.00  0.00    -0.075 A 
ATOM      2  C2  I4B d   1      -2.880  -2.681  -0.561  0.00  0.00     0.003 A 
ATOM      3  C3  I4B d   1      -3.544  -3.704  -1.281  0.00  0.00     0.002 A 
ATOM      4  C4  I4B d   1      -3.416  -3.761  -2.654  0.00  0.00    -0.004 A 
ATOM      5  C5  I4B d   1      -2.582  -2.864  -3.316  0.00  0.00     0.002 A 
ATOM      6  C6  I4B d   1      -1.898  -1.877  -2.592  0.00  0.00     0.003 A 
ENDROOT
BRANCH   1   7
ATOM      7  C1' I4B d   1      -1.415  -0.697  -0.431  0.00  0.00     0.060 C 
BRANCH   7   8
ATOM      8  C2' I4B d   1      -0.326  -0.091  -1.293  0.00  0.00    -0.013 C 
ATOM      9  C4' I4B d   1      -0.616   1.354  -1.602  0.00  0.00     0.013 C 
ATOM     10  C3' I4B d   1       0.976  -0.239  -0.564  0.00  0.00     0.013 C 
ENDBRANCH   7   8
ENDBRANCH   1   7
TORSDOF 2
ENDMDL
