MODEL 1
REMARK minimizedAffinity -2.39501595
REMARK minimizedRMSD -1
REMARK  2 active torsions:
REMARK  status: ('A' for Active; 'I' for Inactive)
REMARK    1  A    between atoms: C2'_3  and  C1'_4 
REMARK    2  A    between atoms: C1'_4  and  C1_5 
ROOT
ATOM      1  C1  I4B d   1      -1.384  -2.123  -0.188  0.00  0.00    -0.075 A 
ATOM      2  C2  I4B d   1      -1.770  -1.445   0.941  0.00  0.00     0.003 A 
ATOM      3  C3  I4B d   1      -1.351  -0.109   1.148  0.00  0.00     0.002 A 
ATOM      4  C4  I4B d   1      -0.511   0.490   0.231  0.00  0.00    -0.004 A 
ATOM      5  C5  I4B d   1      -0.140  -0.191  -0.924  0.00  0.00     0.002 A 
ATOM      6  C6  I4B d   1      -0.588  -1.502  -1.142  0.00  0.00     0.003 A 
ENDROOT
BRANCH   1   7
ATOM      7  C1' I4B d   1      -1.817  -3.545  -0.359  0.00  0.00     0.060 C 
BRANCH   7   8
ATOM      8  C2' I4B d   1      -3.126  -3.545  -1.123  0.00  0.00    -0.013 C 
ATOM      9  C4' I4B d   1      -4.203  -2.821  -0.360  0.00  0.00     0.013 C 
ATOM     10  C3' I4B d   1      -2.883  -2.905  -2.457  0.00  0.00     0.013 C 
ENDBRANCH   7   8
ENDBRANCH   1   7
TORSDOF 2
ENDMDL
