MODEL 1
REMARK minimizedAffinity 0.251849353
REMARK minimizedRMSD -1
REMARK  2 active torsions:
REMARK  status: ('A' for Active; 'I' for Inactive)
REMARK    1  A    between atoms: C2'_3  and  C1'_4 
REMARK    2  A    between atoms: C1'_4  and  C1_5 
ROOT
ATOM      1  C1  I4B d   1      -2.042  -2.084  -1.386  0.00  0.00    -0.075 A 
ATOM      2  C2  I4B d   1      -1.880  -3.439  -1.233  0.00  0.00     0.003 A 
ATOM      3  C3  I4B d   1      -1.835  -4.283  -2.369  0.00  0.00     0.002 A 
ATOM      4  C4  I4B d   1      -2.005  -3.741  -3.626  0.00  0.00    -0.004 A 
ATOM      5  C5  I4B d   1      -2.146  -2.365  -3.780  0.00  0.00     0.002 A 
ATOM      6  C6  I4B d   1      -2.152  -1.529  -2.654  0.00  0.00     0.003 A 
ENDROOT
BRANCH   1   7
ATOM      7  C1' I4B d   1      -2.118  -1.226  -0.163  0.00  0.00     0.060 C 
BRANCH   7   8
ATOM      8  C2' I4B d   1      -0.765  -0.573   0.034  0.00  0.00    -0.013 C 
ATOM      9  C4' I4B d   1      -0.584   0.598  -0.896  0.00  0.00     0.013 C 
ATOM     10  C3' I4B d   1      -0.662  -0.146   1.468  0.00  0.00     0.013 C 
ENDBRANCH   7   8
ENDBRANCH   1   7
TORSDOF 2
ENDMDL
