MODEL 1
REMARK minimizedAffinity 0.872190893
REMARK minimizedRMSD -1
REMARK  2 active torsions:
REMARK  status: ('A' for Active; 'I' for Inactive)
REMARK    1  A    between atoms: C2'_3  and  C1'_4 
REMARK    2  A    between atoms: C1'_4  and  C1_5 
ROOT
ATOM      1  C1  I4B d   1      -1.654  -1.134  -1.608  0.00  0.00    -0.075 A 
ATOM      2  C2  I4B d   1      -1.971  -0.978  -2.935  0.00  0.00     0.003 A 
ATOM      3  C3  I4B d   1      -2.510  -2.061  -3.671  0.00  0.00     0.002 A 
ATOM      4  C4  I4B d   1      -2.667  -3.288  -3.058  0.00  0.00    -0.004 A 
ATOM      5  C5  I4B d   1      -2.367  -3.438  -1.708  0.00  0.00     0.002 A 
ATOM      6  C6  I4B d   1      -1.868  -2.351  -0.974  0.00  0.00     0.003 A 
ENDROOT
BRANCH   1   7
ATOM      7  C1' I4B d   1      -1.056   0.021  -0.870  0.00  0.00     0.060 C 
BRANCH   7   8
ATOM      8  C2' I4B d   1       0.151  -0.487  -0.107  0.00  0.00    -0.013 C 
ATOM      9  C4' I4B d   1       1.430   0.064  -0.681  0.00  0.00     0.013 C 
ATOM     10  C3' I4B d   1      -0.011  -0.094   1.331  0.00  0.00     0.013 C 
ENDBRANCH   7   8
ENDBRANCH   1   7
TORSDOF 2
ENDMDL
