MODEL 1
REMARK minimizedAffinity 8.15234566
REMARK minimizedRMSD -1
REMARK  2 active torsions:
REMARK  status: ('A' for Active; 'I' for Inactive)
REMARK    1  A    between atoms: C2'_3  and  C1'_4 
REMARK    2  A    between atoms: C1'_4  and  C1_5 
ROOT
ATOM      1  C1  I4B d   1      -1.695   0.059   0.851  0.00  0.00    -0.075 A 
ATOM      2  C2  I4B d   1      -1.826   1.343   0.384  0.00  0.00     0.003 A 
ATOM      3  C3  I4B d   1      -1.010   1.802  -0.679  0.00  0.00     0.002 A 
ATOM      4  C4  I4B d   1      -0.049   0.965  -1.207  0.00  0.00    -0.004 A 
ATOM      5  C5  I4B d   1       0.067  -0.343  -0.748  0.00  0.00     0.002 A 
ATOM      6  C6  I4B d   1      -0.769  -0.804   0.279  0.00  0.00     0.003 A 
ENDROOT
BRANCH   1   7
ATOM      7  C1' I4B d   1      -2.551  -0.382   1.996  0.00  0.00     0.060 C 
BRANCH   7   8
ATOM      8  C2' I4B d   1      -1.983   0.225   3.263  0.00  0.00    -0.013 C 
ATOM      9  C4' I4B d   1      -3.007   1.078   3.965  0.00  0.00     0.013 C 
ATOM     10  C3' I4B d   1      -1.516  -0.895   4.144  0.00  0.00     0.013 C 
ENDBRANCH   7   8
ENDBRANCH   1   7
TORSDOF 2
ENDMDL
