MODEL 1
REMARK minimizedAffinity 1.73904335
REMARK minimizedRMSD -1
REMARK  2 active torsions:
REMARK  status: ('A' for Active; 'I' for Inactive)
REMARK    1  A    between atoms: C2'_3  and  C1'_4 
REMARK    2  A    between atoms: C1'_4  and  C1_5 
ROOT
ATOM      1  C1  I4B d   1      -3.400  -3.769  -2.088  0.00  0.00    -0.075 A 
ATOM      2  C2  I4B d   1      -3.371  -4.195  -3.392  0.00  0.00     0.003 A 
ATOM      3  C3  I4B d   1      -2.916  -3.328  -4.415  0.00  0.00     0.002 A 
ATOM      4  C4  I4B d   1      -2.550  -2.036  -4.098  0.00  0.00    -0.004 A 
ATOM      5  C5  I4B d   1      -2.558  -1.613  -2.772  0.00  0.00     0.002 A 
ATOM      6  C6  I4B d   1      -2.974  -2.489  -1.758  0.00  0.00     0.003 A 
ENDROOT
BRANCH   1   7
ATOM      7  C1' I4B d   1      -3.917  -4.700  -1.037  0.00  0.00     0.060 C 
BRANCH   7   8
ATOM      8  C2' I4B d   1      -5.422  -4.786  -1.189  0.00  0.00    -0.013 C 
ATOM      9  C4' I4B d   1      -5.998  -5.863  -0.309  0.00  0.00     0.013 C 
ATOM     10  C3' I4B d   1      -5.999  -3.443  -0.852  0.00  0.00     0.013 C 
ENDBRANCH   7   8
ENDBRANCH   1   7
TORSDOF 2
ENDMDL
