MODEL 1
REMARK minimizedAffinity 6.50415802
REMARK minimizedRMSD -1
REMARK  2 active torsions:
REMARK  status: ('A' for Active; 'I' for Inactive)
REMARK    1  A    between atoms: C2'_3  and  C1'_4 
REMARK    2  A    between atoms: C1'_4  and  C1_5 
ROOT
ATOM      1  C1  I4B d   1      -2.280   0.177   1.722  0.00  0.00    -0.075 A 
ATOM      2  C2  I4B d   1      -2.968   1.317   2.057  0.00  0.00     0.003 A 
ATOM      3  C3  I4B d   1      -3.351   1.549   3.400  0.00  0.00     0.002 A 
ATOM      4  C4  I4B d   1      -3.073   0.598   4.361  0.00  0.00    -0.004 A 
ATOM      5  C5  I4B d   1      -2.356  -0.546   4.023  0.00  0.00     0.002 A 
ATOM      6  C6  I4B d   1      -1.946  -0.753   2.698  0.00  0.00     0.003 A 
ENDROOT
BRANCH   1   7
ATOM      7  C1' I4B d   1      -1.920  -0.051   0.288  0.00  0.00     0.060 C 
BRANCH   7   8
ATOM      8  C2' I4B d   1      -0.866  -1.139   0.240  0.00  0.00    -0.013 C 
ATOM      9  C4' I4B d   1      -1.385  -2.371  -0.452  0.00  0.00     0.013 C 
ATOM     10  C3' I4B d   1       0.337  -0.587  -0.467  0.00  0.00     0.013 C 
ENDBRANCH   7   8
ENDBRANCH   1   7
TORSDOF 2
ENDMDL
