MODEL 1
REMARK minimizedAffinity -0.550474405
REMARK minimizedRMSD -1
REMARK  2 active torsions:
REMARK  status: ('A' for Active; 'I' for Inactive)
REMARK    1  A    between atoms: C2'_3  and  C1'_4 
REMARK    2  A    between atoms: C1'_4  and  C1_5 
ROOT
ATOM      1  C1  I4B d   1      -5.411   5.299   3.714  0.00  0.00    -0.075 A 
ATOM      2  C2  I4B d   1      -5.038   3.981   3.620  0.00  0.00     0.003 A 
ATOM      3  C3  I4B d   1      -4.457   3.325   4.732  0.00  0.00     0.002 A 
ATOM      4  C4  I4B d   1      -4.221   4.033   5.893  0.00  0.00    -0.004 A 
ATOM      5  C5  I4B d   1      -4.620   5.362   5.993  0.00  0.00     0.002 A 
ATOM      6  C6  I4B d   1      -5.230   5.997   4.901  0.00  0.00     0.003 A 
ENDROOT
BRANCH   1   7
ATOM      7  C1' I4B d   1      -5.992   5.971   2.510  0.00  0.00     0.060 C 
BRANCH   7   8
ATOM      8  C2' I4B d   1      -5.236   5.481   1.292  0.00  0.00    -0.013 C 
ATOM      9  C4' I4B d   1      -5.899   5.938   0.019  0.00  0.00     0.013 C 
ATOM     10  C3' I4B d   1      -3.829   5.993   1.384  0.00  0.00     0.013 C 
ENDBRANCH   7   8
ENDBRANCH   1   7
TORSDOF 2
ENDMDL
