MODEL 1
REMARK minimizedAffinity -3.86980343
REMARK minimizedRMSD -1
REMARK  2 active torsions:
REMARK  status: ('A' for Active; 'I' for Inactive)
REMARK    1  A    between atoms: C2'_3  and  C1'_4 
REMARK    2  A    between atoms: C1'_4  and  C1_5 
ROOT
ATOM      1  C1  I4B d   1      -4.668   3.096   4.621  0.00  0.00    -0.075 A 
ATOM      2  C2  I4B d   1      -4.221   3.917   3.616  0.00  0.00     0.003 A 
ATOM      3  C3  I4B d   1      -4.278   5.324   3.768  0.00  0.00     0.002 A 
ATOM      4  C4  I4B d   1      -4.832   5.863   4.911  0.00  0.00    -0.004 A 
ATOM      5  C5  I4B d   1      -5.264   5.029   5.937  0.00  0.00     0.002 A 
ATOM      6  C6  I4B d   1      -5.171   3.637   5.798  0.00  0.00     0.003 A 
ENDROOT
BRANCH   1   7
ATOM      7  C1' I4B d   1      -4.624   1.615   4.415  0.00  0.00     0.060 C 
BRANCH   7   8
ATOM      8  C2' I4B d   1      -3.370   1.291   3.628  0.00  0.00    -0.013 C 
ATOM      9  C4' I4B d   1      -2.881  -0.101   3.931  0.00  0.00     0.013 C 
ATOM     10  C3' I4B d   1      -3.685   1.449   2.170  0.00  0.00     0.013 C 
ENDBRANCH   7   8
ENDBRANCH   1   7
TORSDOF 2
ENDMDL
