MODEL 1
REMARK minimizedAffinity 9.96626282
REMARK minimizedRMSD -1
REMARK  2 active torsions:
REMARK  status: ('A' for Active; 'I' for Inactive)
REMARK    1  A    between atoms: C2'_3  and  C1'_4 
REMARK    2  A    between atoms: C1'_4  and  C1_5 
ROOT
ATOM      1  C1  I4B d   1      -4.129   5.327   2.929  0.00  0.00    -0.075 A 
ATOM      2  C2  I4B d   1      -3.461   4.882   1.815  0.00  0.00     0.003 A 
ATOM      3  C3  I4B d   1      -4.051   5.005   0.534  0.00  0.00     0.002 A 
ATOM      4  C4  I4B d   1      -5.322   5.528   0.418  0.00  0.00    -0.004 A 
ATOM      5  C5  I4B d   1      -5.988   5.999   1.546  0.00  0.00     0.002 A 
ATOM      6  C6  I4B d   1      -5.383   5.910   2.808  0.00  0.00     0.003 A 
ENDROOT
BRANCH   1   7
ATOM      7  C1' I4B d   1      -3.490   5.152   4.270  0.00  0.00     0.060 C 
BRANCH   7   8
ATOM      8  C2' I4B d   1      -3.231   3.673   4.475  0.00  0.00    -0.013 C 
ATOM      9  C4' I4B d   1      -1.806   3.422   4.891  0.00  0.00     0.013 C 
ATOM     10  C3' I4B d   1      -4.194   3.174   5.510  0.00  0.00     0.013 C 
ENDBRANCH   7   8
ENDBRANCH   1   7
TORSDOF 2
ENDMDL
