MODEL 1
REMARK minimizedAffinity -4.43394089
REMARK minimizedRMSD -1
REMARK  2 active torsions:
REMARK  status: ('A' for Active; 'I' for Inactive)
REMARK    1  A    between atoms: C2'_3  and  C1'_4 
REMARK    2  A    between atoms: C1'_4  and  C1_5 
ROOT
ATOM      1  C1  I4B d   1      -4.719   2.961   5.280  0.00  0.00    -0.075 A 
ATOM      2  C2  I4B d   1      -4.845   4.124   5.996  0.00  0.00     0.003 A 
ATOM      3  C3  I4B d   1      -5.189   5.331   5.341  0.00  0.00     0.002 A 
ATOM      4  C4  I4B d   1      -5.348   5.339   3.970  0.00  0.00    -0.004 A 
ATOM      5  C5  I4B d   1      -5.243   4.153   3.248  0.00  0.00     0.002 A 
ATOM      6  C6  I4B d   1      -4.939   2.954   3.908  0.00  0.00     0.003 A 
ENDROOT
BRANCH   1   7
ATOM      7  C1' I4B d   1      -4.322   1.711   5.999  0.00  0.00     0.060 C 
BRANCH   7   8
ATOM      8  C2' I4B d   1      -4.476   0.550   5.038  0.00  0.00    -0.013 C 
ATOM      9  C4' I4B d   1      -3.327  -0.416   5.160  0.00  0.00     0.013 C 
ATOM     10  C3' I4B d   1      -5.784  -0.124   5.331  0.00  0.00     0.013 C 
ENDBRANCH   7   8
ENDBRANCH   1   7
TORSDOF 2
ENDMDL
