MODEL 1
REMARK minimizedAffinity -5.44981956
REMARK minimizedRMSD -1
REMARK  2 active torsions:
REMARK  status: ('A' for Active; 'I' for Inactive)
REMARK    1  A    between atoms: C2'_3  and  C1'_4 
REMARK    2  A    between atoms: C1'_4  and  C1_5 
ROOT
ATOM      1  C1  I4B d   1      -4.940   1.902   4.833  0.00  0.00    -0.075 A 
ATOM      2  C2  I4B d   1      -5.153   3.124   5.421  0.00  0.00     0.003 A 
ATOM      3  C3  I4B d   1      -5.248   4.291   4.626  0.00  0.00     0.002 A 
ATOM      4  C4  I4B d   1      -5.073   4.199   3.260  0.00  0.00    -0.004 A 
ATOM      5  C5  I4B d   1      -4.880   2.957   2.663  0.00  0.00     0.002 A 
ATOM      6  C6  I4B d   1      -4.825   1.799   3.453  0.00  0.00     0.003 A 
ENDROOT
BRANCH   1   7
ATOM      7  C1' I4B d   1      -4.813   0.694   5.706  0.00  0.00     0.060 C 
BRANCH   7   8
ATOM      8  C2' I4B d   1      -4.818  -0.530   4.812  0.00  0.00    -0.013 C 
ATOM      9  C4' I4B d   1      -3.433  -1.103   4.666  0.00  0.00     0.013 C 
ATOM     10  C3' I4B d   1      -5.759  -1.534   5.408  0.00  0.00     0.013 C 
ENDBRANCH   7   8
ENDBRANCH   1   7
TORSDOF 2
ENDMDL
