MODEL 1
REMARK minimizedAffinity 0.95230329
REMARK minimizedRMSD -1
REMARK  2 active torsions:
REMARK  status: ('A' for Active; 'I' for Inactive)
REMARK    1  A    between atoms: C2'_3  and  C1'_4 
REMARK    2  A    between atoms: C1'_4  and  C1_5 
ROOT
ATOM      1  C1  I4B d   1      -5.223   4.414   3.463  0.00  0.00    -0.075 A 
ATOM      2  C2  I4B d   1      -5.993   5.394   4.040  0.00  0.00     0.003 A 
ATOM      3  C3  I4B d   1      -5.650   5.913   5.312  0.00  0.00     0.002 A 
ATOM      4  C4  I4B d   1      -4.567   5.392   5.989  0.00  0.00    -0.004 A 
ATOM      5  C5  I4B d   1      -3.774   4.415   5.394  0.00  0.00     0.002 A 
ATOM      6  C6  I4B d   1      -4.097   3.932   4.117  0.00  0.00     0.003 A 
ENDROOT
BRANCH   1   7
ATOM      7  C1' I4B d   1      -5.632   3.866   2.133  0.00  0.00     0.060 C 
BRANCH   7   8
ATOM      8  C2' I4B d   1      -5.836   5.033   1.189  0.00  0.00    -0.013 C 
ATOM      9  C4' I4B d   1      -4.684   6.000   1.261  0.00  0.00     0.013 C 
ATOM     10  C3' I4B d   1      -5.998   4.484  -0.197  0.00  0.00     0.013 C 
ENDBRANCH   7   8
ENDBRANCH   1   7
TORSDOF 2
ENDMDL
