MODEL 1
REMARK minimizedAffinity -3.82725143
REMARK minimizedRMSD -1
REMARK  1 active torsions:
REMARK  status: ('A' for Active; 'I' for Inactive)
REMARK    1  A    between atoms: C1_2  and  C2_3 
ROOT
ATOM      1  C2  UNL d   1       0.276   0.205  -0.983  0.00  0.00    -0.073 A 
ATOM      2  C3  UNL d   1      -0.475  -0.896  -1.409  0.00  0.00    -0.002 A 
ATOM      3  C4  UNL d   1      -1.371  -1.517  -0.539  0.00  0.00     0.004 A 
ATOM      4  C5  UNL d   1      -1.532  -1.040   0.762  0.00  0.00    -0.004 A 
ATOM      5  C6  UNL d   1      -0.799   0.066   1.203  0.00  0.00    -0.075 A 
ATOM      6  C7  UNL d   1      -0.959   0.590   2.600  0.00  0.00     0.076 C 
ATOM      7  C8  UNL d   1       0.101   0.683   0.324  0.00  0.00     0.001 A 
ENDROOT
BRANCH   1   8
ATOM      8  C1  UNL d   1       1.241   0.884  -1.921  0.00  0.00     0.053 C 
ATOM      9  C   UNL d   1       1.007   0.481  -3.369  0.00  0.00     0.018 C 
ENDBRANCH   1   8
TORSDOF 1
ENDMDL
