MODEL 1
REMARK minimizedAffinity -4.62251759
REMARK minimizedRMSD -1
REMARK  1 active torsions:
REMARK  status: ('A' for Active; 'I' for Inactive)
REMARK    1  A    between atoms: C1_2  and  C2_3 
ROOT
ATOM      1  C2  UNL d   1      -0.537   0.257   1.893  0.00  0.00    -0.073 A 
ATOM      2  C3  UNL d   1      -1.916   0.368   1.687  0.00  0.00    -0.002 A 
ATOM      3  C4  UNL d   1      -2.445   0.284   0.398  0.00  0.00     0.004 A 
ATOM      4  C5  UNL d   1      -1.603   0.081  -0.694  0.00  0.00    -0.004 A 
ATOM      5  C6  UNL d   1      -0.223  -0.045  -0.507  0.00  0.00    -0.075 A 
ATOM      6  C7  UNL d   1       0.697  -0.261  -1.673  0.00  0.00     0.076 C 
ATOM      7  C8  UNL d   1       0.301   0.044   0.789  0.00  0.00     0.001 A 
ENDROOT
BRANCH   1   8
ATOM      8  C1  UNL d   1       0.039   0.341   3.283  0.00  0.00     0.053 C 
ATOM      9  C   UNL d   1       1.415  -0.300   3.371  0.00  0.00     0.018 C 
ENDBRANCH   1   8
TORSDOF 1
ENDMDL
