MODEL 1
REMARK minimizedAffinity -3.64908099
REMARK minimizedRMSD -1
REMARK  1 active torsions:
REMARK  status: ('A' for Active; 'I' for Inactive)
REMARK    1  A    between atoms: C1_2  and  C2_3 
ROOT
ATOM      1  C2  UNL d   1      -0.040  -0.224  -0.861  0.00  0.00    -0.073 A 
ATOM      2  C3  UNL d   1       1.208  -0.015  -0.262  0.00  0.00    -0.002 A 
ATOM      3  C4  UNL d   1       2.330   0.255  -1.047  0.00  0.00     0.004 A 
ATOM      4  C5  UNL d   1       2.215   0.326  -2.435  0.00  0.00    -0.004 A 
ATOM      5  C6  UNL d   1       0.975   0.133  -3.051  0.00  0.00    -0.075 A 
ATOM      6  C7  UNL d   1       0.835   0.205  -4.544  0.00  0.00     0.076 C 
ATOM      7  C8  UNL d   1      -0.147  -0.140  -2.257  0.00  0.00     0.001 A 
ENDROOT
BRANCH   1   8
ATOM      8  C1  UNL d   1      -1.255  -0.509  -0.018  0.00  0.00     0.053 C 
ATOM      9  C   UNL d   1      -1.571   0.634   0.933  0.00  0.00     0.018 C 
ENDBRANCH   1   8
TORSDOF 1
ENDMDL
