MODEL 1
REMARK minimizedAffinity -1.45975792
REMARK minimizedRMSD -1
REMARK  1 active torsions:
REMARK  status: ('A' for Active; 'I' for Inactive)
REMARK    1  A    between atoms: C1_2  and  C2_3 
ROOT
ATOM      1  C2  UNL d   1      -0.040  -0.087  -1.075  0.00  0.00    -0.073 A 
ATOM      2  C3  UNL d   1      -1.248   0.271  -0.466  0.00  0.00    -0.002 A 
ATOM      3  C4  UNL d   1      -1.358   0.292   0.925  0.00  0.00     0.004 A 
ATOM      4  C5  UNL d   1      -0.261  -0.038   1.721  0.00  0.00    -0.004 A 
ATOM      5  C6  UNL d   1       0.958  -0.388   1.131  0.00  0.00    -0.075 A 
ATOM      6  C7  UNL d   1       2.147  -0.748   1.973  0.00  0.00     0.076 C 
ATOM      7  C8  UNL d   1       1.060  -0.408  -0.266  0.00  0.00     0.001 A 
ENDROOT
BRANCH   1   8
ATOM      8  C1  UNL d   1       0.085  -0.104  -2.576  0.00  0.00     0.053 C 
ATOM      9  C   UNL d   1       1.462   0.346  -3.039  0.00  0.00     0.018 C 
ENDBRANCH   1   8
TORSDOF 1
ENDMDL
