MODEL 1
REMARK minimizedAffinity -2.35997581
REMARK minimizedRMSD -1
REMARK  1 active torsions:
REMARK  status: ('A' for Active; 'I' for Inactive)
REMARK    1  A    between atoms: C1_2  and  C2_3 
ROOT
ATOM      1  C2  UNL d   1      -0.118  -0.010  -0.791  0.00  0.00    -0.073 A 
ATOM      2  C3  UNL d   1      -1.275   0.367  -0.100  0.00  0.00    -0.002 A 
ATOM      3  C4  UNL d   1      -1.260   0.478   1.291  0.00  0.00     0.004 A 
ATOM      4  C5  UNL d   1      -0.088   0.222   2.003  0.00  0.00    -0.004 A 
ATOM      5  C6  UNL d   1       1.081  -0.144   1.329  0.00  0.00    -0.075 A 
ATOM      6  C7  UNL d   1       2.349  -0.425   2.081  0.00  0.00     0.076 C 
ATOM      7  C8  UNL d   1       1.058  -0.256  -0.067  0.00  0.00     0.001 A 
ENDROOT
BRANCH   1   8
ATOM      8  C1  UNL d   1      -0.127  -0.126  -2.294  0.00  0.00     0.053 C 
ATOM      9  C   UNL d   1       0.900   0.788  -2.942  0.00  0.00     0.018 C 
ENDBRANCH   1   8
TORSDOF 1
ENDMDL
