MODEL 1
REMARK minimizedAffinity -1.69368398
REMARK minimizedRMSD -1
REMARK  1 active torsions:
REMARK  status: ('A' for Active; 'I' for Inactive)
REMARK    1  A    between atoms: C1_2  and  C2_3 
ROOT
ATOM      1  C2  UNL d   1       0.649  -0.052  -1.535  0.00  0.00    -0.073 A 
ATOM      2  C3  UNL d   1       1.765   0.749  -1.802  0.00  0.00    -0.002 A 
ATOM      3  C4  UNL d   1       2.139   1.020  -3.118  0.00  0.00     0.004 A 
ATOM      4  C5  UNL d   1       1.398   0.500  -4.180  0.00  0.00    -0.004 A 
ATOM      5  C6  UNL d   1       0.273  -0.292  -3.933  0.00  0.00    -0.075 A 
ATOM      6  C7  UNL d   1      -0.533  -0.861  -5.064  0.00  0.00     0.076 C 
ATOM      7  C8  UNL d   1      -0.095  -0.563  -2.608  0.00  0.00     0.001 A 
ENDROOT
BRANCH   1   8
ATOM      8  C1  UNL d   1       0.237  -0.343  -0.115  0.00  0.00     0.053 C 
ATOM      9  C   UNL d   1      -1.265  -0.537   0.015  0.00  0.00     0.018 C 
ENDBRANCH   1   8
TORSDOF 1
ENDMDL
