MODEL 1
REMARK minimizedAffinity 4.99516773
REMARK minimizedRMSD -1
REMARK  1 active torsions:
REMARK  status: ('A' for Active; 'I' for Inactive)
REMARK    1  A    between atoms: C1_2  and  C2_3 
ROOT
ATOM      1  C2  UNL d   1       5.210   1.518   4.502  0.00  0.00    -0.073 A 
ATOM      2  C3  UNL d   1       4.479   2.496   3.818  0.00  0.00    -0.002 A 
ATOM      3  C4  UNL d   1       3.750   2.161   2.676  0.00  0.00     0.004 A 
ATOM      4  C5  UNL d   1       3.738   0.846   2.211  0.00  0.00    -0.004 A 
ATOM      5  C6  UNL d   1       4.453  -0.148   2.888  0.00  0.00    -0.075 A 
ATOM      6  C7  UNL d   1       4.452  -1.567   2.399  0.00  0.00     0.076 C 
ATOM      7  C8  UNL d   1       5.185   0.197   4.032  0.00  0.00     0.001 A 
ENDROOT
BRANCH   1   8
ATOM      8  C1  UNL d   1       5.994   1.873   5.739  0.00  0.00     0.053 C 
ATOM      9  C   UNL d   1       6.000   3.371   5.999  0.00  0.00     0.018 C 
ENDBRANCH   1   8
TORSDOF 1
ENDMDL
