MODEL 1
REMARK minimizedAffinity -2.39257383
REMARK minimizedRMSD -1
REMARK  0 active torsions:
REMARK  status: ('A' for Active; 'I' for Inactive)
ROOT
ATOM      1  C4' PXY d   1      -0.947   0.704   1.816  0.00  0.00     0.077 C 
ATOM      2  C1' PXY d   1       1.842  -3.735  -0.621  0.00  0.00     0.077 C 
ATOM      3  C1  PXY d   1       1.122  -2.566   0.023  0.00  0.00    -0.082 A 
ATOM      4  C2  PXY d   1      -0.163  -2.674   0.321  0.00  0.00     0.003 A 
ATOM      5  C3  PXY d   1      -0.837  -1.615   0.874  0.00  0.00     0.003 A 
ATOM      6  C4  PXY d   1      -0.177  -0.454   1.174  0.00  0.00    -0.082 A 
ATOM      7  C5  PXY d   1       1.136  -0.340   0.882  0.00  0.00     0.003 A 
ATOM      8  C6  PXY d   1       1.793  -1.412   0.283  0.00  0.00     0.003 A 
ENDROOT
TORSDOF 0
ENDMDL
