MODEL 1
REMARK minimizedAffinity -3.79919887
REMARK minimizedRMSD -1
REMARK  0 active torsions:
REMARK  status: ('A' for Active; 'I' for Inactive)
ROOT
ATOM      1  C4' PXY d   1      -1.216   0.167   1.262  0.00  0.00     0.077 C 
ATOM      2  C1' PXY d   1       2.722  -3.724  -0.401  0.00  0.00     0.077 C 
ATOM      3  C1  PXY d   1       1.698  -2.698   0.042  0.00  0.00    -0.082 A 
ATOM      4  C2  PXY d   1       0.412  -3.008   0.029  0.00  0.00     0.003 A 
ATOM      5  C3  PXY d   1      -0.529  -2.082   0.396  0.00  0.00     0.003 A 
ATOM      6  C4  PXY d   1      -0.147  -0.841   0.832  0.00  0.00    -0.082 A 
ATOM      7  C5  PXY d   1       1.164  -0.520   0.858  0.00  0.00     0.003 A 
ATOM      8  C6  PXY d   1       2.101  -1.461   0.442  0.00  0.00     0.003 A 
ENDROOT
TORSDOF 0
ENDMDL
