MODEL 1
REMARK minimizedAffinity -1.10162127
REMARK minimizedRMSD -1
REMARK  0 active torsions:
REMARK  status: ('A' for Active; 'I' for Inactive)
ROOT
ATOM      1  C4' PXY d   1       4.129   1.819  -2.718  0.00  0.00     0.077 C 
ATOM      2  C1' PXY d   1       5.286   5.996   1.106  0.00  0.00     0.077 C 
ATOM      3  C1  PXY d   1       4.987   4.909   0.093  0.00  0.00    -0.082 A 
ATOM      4  C2  PXY d   1       4.095   3.974   0.381  0.00  0.00     0.003 A 
ATOM      5  C3  PXY d   1       3.836   2.965  -0.510  0.00  0.00     0.003 A 
ATOM      6  C4  PXY d   1       4.456   2.942  -1.730  0.00  0.00    -0.082 A 
ATOM      7  C5  PXY d   1       5.359   3.898  -2.036  0.00  0.00     0.003 A 
ATOM      8  C6  PXY d   1       5.639   4.890  -1.101  0.00  0.00     0.003 A 
ENDROOT
TORSDOF 0
ENDMDL
