MODEL 1
REMARK minimizedAffinity -4.29393768
REMARK minimizedRMSD -1
REMARK  0 active torsions:
REMARK  status: ('A' for Active; 'I' for Inactive)
ROOT
ATOM      1  C4' PXY d   1      -1.832   0.039   2.274  0.00  0.00     0.077 C 
ATOM      2  C1' PXY d   1       2.874  -2.107  -0.308  0.00  0.00     0.077 C 
ATOM      3  C1  PXY d   1       1.634  -1.556   0.368  0.00  0.00    -0.082 A 
ATOM      4  C2  PXY d   1       1.411  -0.252   0.363  0.00  0.00     0.003 A 
ATOM      5  C3  PXY d   1       0.312   0.267   0.997  0.00  0.00     0.003 A 
ATOM      6  C4  PXY d   1      -0.598  -0.563   1.596  0.00  0.00    -0.082 A 
ATOM      7  C5  PXY d   1      -0.384  -1.896   1.596  0.00  0.00     0.003 A 
ATOM      8  C6  PXY d   1       0.760  -2.399   0.983  0.00  0.00     0.003 A 
ENDROOT
TORSDOF 0
ENDMDL
