MODEL 1
REMARK minimizedAffinity -1.7716378
REMARK minimizedRMSD -1
REMARK  0 active torsions:
REMARK  status: ('A' for Active; 'I' for Inactive)
ROOT
ATOM      1  C4' PXY d   1       2.357  -3.794  -0.417  0.00  0.00     0.077 C 
ATOM      2  C1' PXY d   1      -1.222   0.272   1.602  0.00  0.00     0.077 C 
ATOM      3  C1  PXY d   1      -0.275  -0.785   1.068  0.00  0.00    -0.082 A 
ATOM      4  C2  PXY d   1      -0.738  -1.990   0.776  0.00  0.00     0.003 A 
ATOM      5  C3  PXY d   1       0.110  -2.967   0.322  0.00  0.00     0.003 A 
ATOM      6  C4  PXY d   1       1.436  -2.693   0.115  0.00  0.00    -0.082 A 
ATOM      7  C5  PXY d   1       1.913  -1.463   0.401  0.00  0.00     0.003 A 
ATOM      8  C6  PXY d   1       1.044  -0.497   0.899  0.00  0.00     0.003 A 
ENDROOT
TORSDOF 0
ENDMDL
