MODEL 1
REMARK minimizedAffinity -2.13324666
REMARK minimizedRMSD -1
REMARK  0 active torsions:
REMARK  status: ('A' for Active; 'I' for Inactive)
ROOT
ATOM      1  C4' PXY d   1       1.410  -3.478   0.008  0.00  0.00     0.077 C 
ATOM      2  C1' PXY d   1      -1.997   0.765   1.957  0.00  0.00     0.077 C 
ATOM      3  C1  PXY d   1      -1.098  -0.339   1.438  0.00  0.00    -0.082 A 
ATOM      4  C2  PXY d   1      -1.494  -1.599   1.520  0.00  0.00     0.003 A 
ATOM      5  C3  PXY d   1      -0.680  -2.612   1.085  0.00  0.00     0.003 A 
ATOM      6  C4  PXY d   1       0.531  -2.330   0.511  0.00  0.00    -0.082 A 
ATOM      7  C5  PXY d   1       0.938  -1.047   0.414  0.00  0.00     0.003 A 
ATOM      8  C6  PXY d   1       0.114  -0.035   0.899  0.00  0.00     0.003 A 
ENDROOT
TORSDOF 0
ENDMDL
