MODEL 1
REMARK minimizedAffinity -0.171127558
REMARK minimizedRMSD -1
REMARK  0 active torsions:
REMARK  status: ('A' for Active; 'I' for Inactive)
ROOT
ATOM      1  C4' PXY d   1       1.890   0.873   2.236  0.00  0.00     0.077 C 
ATOM      2  C1' PXY d   1      -0.563  -3.438  -0.734  0.00  0.00     0.077 C 
ATOM      3  C1  PXY d   1       0.069  -2.301   0.045  0.00  0.00    -0.082 A 
ATOM      4  C2  PXY d   1       1.370  -2.081  -0.058  0.00  0.00     0.003 A 
ATOM      5  C3  PXY d   1       1.962  -1.077   0.664  0.00  0.00     0.003 A 
ATOM      6  C4  PXY d   1       1.208  -0.258   1.460  0.00  0.00    -0.082 A 
ATOM      7  C5  PXY d   1      -0.122  -0.470   1.562  0.00  0.00     0.003 A 
ATOM      8  C6  PXY d   1      -0.697  -1.519   0.853  0.00  0.00     0.003 A 
ENDROOT
TORSDOF 0
ENDMDL
