MODEL 1
REMARK minimizedAffinity 1.35148215
REMARK minimizedRMSD -1
REMARK  0 active torsions:
REMARK  status: ('A' for Active; 'I' for Inactive)
ROOT
ATOM      1  C4' PXY d   1       2.077  -3.572  -0.806  0.00  0.00     0.077 C 
ATOM      2  C1' PXY d   1      -0.822   0.736   1.733  0.00  0.00     0.077 C 
ATOM      3  C1  PXY d   1      -0.068  -0.402   1.075  0.00  0.00    -0.082 A 
ATOM      4  C2  PXY d   1       1.063  -0.153   0.435  0.00  0.00     0.003 A 
ATOM      5  C3  PXY d   1       1.742  -1.166  -0.193  0.00  0.00     0.003 A 
ATOM      6  C4  PXY d   1       1.286  -2.455  -0.119  0.00  0.00    -0.082 A 
ATOM      7  C5  PXY d   1       0.139  -2.719   0.541  0.00  0.00     0.003 A 
ATOM      8  C6  PXY d   1      -0.557  -1.670   1.137  0.00  0.00     0.003 A 
ENDROOT
TORSDOF 0
ENDMDL
