MODEL 1
REMARK minimizedAffinity -1.75705028
REMARK minimizedRMSD -1
REMARK  0 active torsions:
REMARK  status: ('A' for Active; 'I' for Inactive)
ROOT
ATOM      1  C4' PXY d   1       3.144  -4.199  -0.585  0.00  0.00     0.077 C 
ATOM      2  C1' PXY d   1      -0.659  -0.052   0.739  0.00  0.00     0.077 C 
ATOM      3  C1  PXY d   1       0.330  -1.148   0.397  0.00  0.00    -0.082 A 
ATOM      4  C2  PXY d   1       1.615  -0.856   0.277  0.00  0.00     0.003 A 
ATOM      5  C3  PXY d   1       2.519  -1.830  -0.063  0.00  0.00     0.003 A 
ATOM      6  C4  PXY d   1       2.111  -3.126  -0.231  0.00  0.00    -0.082 A 
ATOM      7  C5  PXY d   1       0.803  -3.434  -0.101  0.00  0.00     0.003 A 
ATOM      8  C6  PXY d   1      -0.104  -2.424   0.205  0.00  0.00     0.003 A 
ENDROOT
TORSDOF 0
ENDMDL
