MODEL 1
REMARK minimizedAffinity 2.64855146
REMARK minimizedRMSD -1
REMARK  0 active torsions:
REMARK  status: ('A' for Active; 'I' for Inactive)
ROOT
ATOM      1  C4' PXY d   1      -1.614   0.931   2.425  0.00  0.00     0.077 C 
ATOM      2  C1' PXY d   1       1.411  -3.180  -0.289  0.00  0.00     0.077 C 
ATOM      3  C1  PXY d   1       0.626  -2.101   0.432  0.00  0.00    -0.082 A 
ATOM      4  C2  PXY d   1      -0.674  -1.982   0.216  0.00  0.00     0.003 A 
ATOM      5  C3  PXY d   1      -1.392  -0.992   0.835  0.00  0.00     0.003 A 
ATOM      6  C4  PXY d   1      -0.784  -0.149   1.726  0.00  0.00    -0.082 A 
ATOM      7  C5  PXY d   1       0.540  -0.271   1.961  0.00  0.00     0.003 A 
ATOM      8  C6  PXY d   1       1.259  -1.256   1.290  0.00  0.00     0.003 A 
ENDROOT
TORSDOF 0
ENDMDL
