MODEL 1
REMARK minimizedAffinity -1.48602402
REMARK minimizedRMSD -1
REMARK  0 active torsions:
REMARK  status: ('A' for Active; 'I' for Inactive)
ROOT
ATOM      1  C4' PXY d   1       3.003  -3.999  -0.832  0.00  0.00     0.077 C 
ATOM      2  C1' PXY d   1      -1.183  -0.334   0.737  0.00  0.00     0.077 C 
ATOM      3  C1  PXY d   1      -0.079  -1.285   0.320  0.00  0.00    -0.082 A 
ATOM      4  C2  PXY d   1      -0.347  -2.571   0.167  0.00  0.00     0.003 A 
ATOM      5  C3  PXY d   1       0.647  -3.451  -0.179  0.00  0.00     0.003 A 
ATOM      6  C4  PXY d   1       1.917  -3.000  -0.422  0.00  0.00    -0.082 A 
ATOM      7  C5  PXY d   1       2.196  -1.687  -0.278  0.00  0.00     0.003 A 
ATOM      8  C6  PXY d   1       1.182  -0.818   0.114  0.00  0.00     0.003 A 
ENDROOT
TORSDOF 0
ENDMDL
