MODEL 1
REMARK minimizedAffinity -1.4428066
REMARK minimizedRMSD -1
REMARK  0 active torsions:
REMARK  status: ('A' for Active; 'I' for Inactive)
ROOT
ATOM      1  C4' PXY d   1       3.758  -3.652  -0.764  0.00  0.00     0.077 C 
ATOM      2  C1' PXY d   1      -0.997  -0.953   1.112  0.00  0.00     0.077 C 
ATOM      3  C1  PXY d   1       0.256  -1.649   0.618  0.00  0.00    -0.082 A 
ATOM      4  C2  PXY d   1       0.168  -2.863   0.100  0.00  0.00     0.003 A 
ATOM      5  C3  PXY d   1       1.295  -3.520  -0.322  0.00  0.00     0.003 A 
ATOM      6  C4  PXY d   1       2.518  -2.907  -0.261  0.00  0.00    -0.082 A 
ATOM      7  C5  PXY d   1       2.614  -1.665   0.257  0.00  0.00     0.003 A 
ATOM      8  C6  PXY d   1       1.464  -1.031   0.718  0.00  0.00     0.003 A 
ENDROOT
TORSDOF 0
ENDMDL
