MODEL 1
REMARK minimizedAffinity 2.44544768
REMARK minimizedRMSD -1
REMARK  0 active torsions:
REMARK  status: ('A' for Active; 'I' for Inactive)
ROOT
ATOM      1  C4' PXY d   1       0.664  -1.584   0.424  0.00  0.00     0.077 C 
ATOM      2  C1' PXY d   1      -4.013   1.812   0.517  0.00  0.00     0.077 C 
ATOM      3  C1  PXY d   1      -2.792   0.914   0.484  0.00  0.00    -0.082 A 
ATOM      4  C2  PXY d   1      -1.945   0.924   1.500  0.00  0.00     0.003 A 
ATOM      5  C3  PXY d   1      -0.819   0.142   1.473  0.00  0.00     0.003 A 
ATOM      6  C4  PXY d   1      -0.586  -0.700   0.418  0.00  0.00    -0.082 A 
ATOM      7  C5  PXY d   1      -1.452  -0.725  -0.617  0.00  0.00     0.003 A 
ATOM      8  C6  PXY d   1      -2.567   0.108  -0.589  0.00  0.00     0.003 A 
ENDROOT
TORSDOF 0
ENDMDL
