MODEL 1
REMARK minimizedAffinity 3.58316255
REMARK minimizedRMSD -1
REMARK  0 active torsions:
REMARK  status: ('A' for Active; 'I' for Inactive)
ROOT
ATOM      1  C4' PXY d   1       3.669  -0.837   0.743  0.00  0.00     0.077 C 
ATOM      2  C1' PXY d   1      -2.107  -0.629   0.835  0.00  0.00     0.077 C 
ATOM      3  C1  PXY d   1      -0.592  -0.673   0.818  0.00  0.00    -0.082 A 
ATOM      4  C2  PXY d   1       0.033  -1.319  -0.152  0.00  0.00     0.003 A 
ATOM      5  C3  PXY d   1       1.402  -1.396  -0.166  0.00  0.00     0.003 A 
ATOM      6  C4  PXY d   1       2.141  -0.759   0.796  0.00  0.00    -0.082 A 
ATOM      7  C5  PXY d   1       1.511  -0.089   1.783  0.00  0.00     0.003 A 
ATOM      8  C6  PXY d   1       0.119  -0.058   1.802  0.00  0.00     0.003 A 
ENDROOT
TORSDOF 0
ENDMDL
