MODEL 1
REMARK minimizedAffinity -2.90437531
REMARK minimizedRMSD -1
REMARK  0 active torsions:
REMARK  status: ('A' for Active; 'I' for Inactive)
ROOT
ATOM      1  C4' PXY d   1       0.121  -2.902  -0.293  0.00  0.00     0.077 C 
ATOM      2  C1' PXY d   1      -0.406   0.352   4.455  0.00  0.00     0.077 C 
ATOM      3  C1  PXY d   1      -0.279  -0.498   3.206  0.00  0.00    -0.082 A 
ATOM      4  C2  PXY d   1       0.556  -1.524   3.194  0.00  0.00     0.003 A 
ATOM      5  C3  PXY d   1       0.706  -2.283   2.063  0.00  0.00     0.003 A 
ATOM      6  C4  PXY d   1      -0.046  -2.023   0.949  0.00  0.00    -0.082 A 
ATOM      7  C5  PXY d   1      -0.908  -0.984   0.956  0.00  0.00     0.003 A 
ATOM      8  C6  PXY d   1      -1.016  -0.200   2.101  0.00  0.00     0.003 A 
ENDROOT
TORSDOF 0
ENDMDL
