MODEL 1
REMARK minimizedAffinity -2.17834377
REMARK minimizedRMSD -1
REMARK  0 active torsions:
REMARK  status: ('A' for Active; 'I' for Inactive)
ROOT
ATOM      1  C4' PXY d   1       3.598  -3.826  -0.620  0.00  0.00     0.077 C 
ATOM      2  C1' PXY d   1      -0.851  -0.433   0.832  0.00  0.00     0.077 C 
ATOM      3  C1  PXY d   1       0.322  -1.313   0.447  0.00  0.00    -0.082 A 
ATOM      4  C2  PXY d   1       0.128  -2.603   0.227  0.00  0.00     0.003 A 
ATOM      5  C3  PXY d   1       1.184  -3.419  -0.091  0.00  0.00     0.003 A 
ATOM      6  C4  PXY d   1       2.442  -2.898  -0.238  0.00  0.00    -0.082 A 
ATOM      7  C5  PXY d   1       2.646  -1.581  -0.026  0.00  0.00     0.003 A 
ATOM      8  C6  PXY d   1       1.568  -0.778   0.336  0.00  0.00     0.003 A 
ENDROOT
TORSDOF 0
ENDMDL
