MODEL 1
REMARK minimizedAffinity -1.06591153
REMARK minimizedRMSD -1
REMARK  0 active torsions:
REMARK  status: ('A' for Active; 'I' for Inactive)
ROOT
ATOM      1  C4' PXY d   1       3.681  -3.382  -0.368  0.00  0.00     0.077 C 
ATOM      2  C1' PXY d   1      -1.345  -0.719   0.662  0.00  0.00     0.077 C 
ATOM      3  C1  PXY d   1      -0.021  -1.406   0.389  0.00  0.00    -0.082 A 
ATOM      4  C2  PXY d   1      -0.007  -2.676   0.019  0.00  0.00     0.003 A 
ATOM      5  C3  PXY d   1       1.182  -3.322  -0.201  0.00  0.00     0.003 A 
ATOM      6  C4  PXY d   1       2.368  -2.645  -0.092  0.00  0.00    -0.082 A 
ATOM      7  C5  PXY d   1       2.362  -1.347   0.276  0.00  0.00     0.003 A 
ATOM      8  C6  PXY d   1       1.145  -0.721   0.534  0.00  0.00     0.003 A 
ENDROOT
TORSDOF 0
ENDMDL
