MODEL 1
REMARK minimizedAffinity 3.59402776
REMARK minimizedRMSD -1
REMARK  0 active torsions:
REMARK  status: ('A' for Active; 'I' for Inactive)
ROOT
ATOM      1  C4' PXY d   1       0.890  -0.453   2.358  0.00  0.00     0.077 C 
ATOM      2  C1' PXY d   1       0.039  -2.969  -2.777  0.00  0.00     0.077 C 
ATOM      3  C1  PXY d   1       0.249  -2.309  -1.428  0.00  0.00    -0.082 A 
ATOM      4  C2  PXY d   1       1.353  -1.615  -1.205  0.00  0.00     0.003 A 
ATOM      5  C3  PXY d   1       1.575  -1.039   0.020  0.00  0.00     0.003 A 
ATOM      6  C4  PXY d   1       0.631  -1.129   1.008  0.00  0.00    -0.082 A 
ATOM      7  C5  PXY d   1      -0.503  -1.826   0.784  0.00  0.00     0.003 A 
ATOM      8  C6  PXY d   1      -0.690  -2.438  -0.452  0.00  0.00     0.003 A 
ENDROOT
TORSDOF 0
ENDMDL
