MODEL 1
REMARK minimizedAffinity 9.52926826
REMARK minimizedRMSD -1
REMARK  0 active torsions:
REMARK  status: ('A' for Active; 'I' for Inactive)
ROOT
ATOM      1  C4' PXY d   1       1.116  -0.028   3.907  0.00  0.00     0.077 C 
ATOM      2  C1' PXY d   1       0.119  -1.946  -1.455  0.00  0.00     0.077 C 
ATOM      3  C1  PXY d   1       0.393  -1.447  -0.050  0.00  0.00    -0.082 A 
ATOM      4  C2  PXY d   1      -0.609  -1.310   0.803  0.00  0.00     0.003 A 
ATOM      5  C3  PXY d   1      -0.384  -0.830   2.067  0.00  0.00     0.003 A 
ATOM      6  C4  PXY d   1       0.888  -0.538   2.481  0.00  0.00    -0.082 A 
ATOM      7  C5  PXY d   1       1.918  -0.685   1.620  0.00  0.00     0.003 A 
ATOM      8  C6  PXY d   1       1.662  -1.134   0.328  0.00  0.00     0.003 A 
ENDROOT
TORSDOF 0
ENDMDL
