MODEL 1
REMARK minimizedAffinity 1.73539424
REMARK minimizedRMSD -1
REMARK  0 active torsions:
REMARK  status: ('A' for Active; 'I' for Inactive)
ROOT
ATOM      1  C4' PXY d   1       3.768   3.728  -5.265  0.00  0.00     0.077 C 
ATOM      2  C1' PXY d   1      -1.230   6.000  -3.458  0.00  0.00     0.077 C 
ATOM      3  C1  PXY d   1       0.083   5.399  -3.920  0.00  0.00    -0.082 A 
ATOM      4  C2  PXY d   1       0.708   5.917  -4.965  0.00  0.00     0.003 A 
ATOM      5  C3  PXY d   1       1.880   5.367  -5.416  0.00  0.00     0.003 A 
ATOM      6  C4  PXY d   1       2.445   4.307  -4.758  0.00  0.00    -0.082 A 
ATOM      7  C5  PXY d   1       1.819   3.780  -3.684  0.00  0.00     0.003 A 
ATOM      8  C6  PXY d   1       0.610   4.328  -3.268  0.00  0.00     0.003 A 
ENDROOT
TORSDOF 0
ENDMDL
