MODEL 1
REMARK minimizedAffinity -5.03848171
REMARK minimizedRMSD -1
REMARK  1 active torsions:
REMARK  status: ('A' for Active; 'I' for Inactive)
REMARK    1  A    between atoms: N_2  and  C1_3 
ROOT
ATOM      1  C1  UNL d   1      -0.410   0.985  -0.303  0.00  0.00     0.143 A 
ATOM      2  C2  UNL d   1      -1.168   0.638   0.820  0.00  0.00    -0.057 A 
ATOM      3  C3  UNL d   1      -1.879   1.603   1.543  0.00  0.00     0.033 A 
ATOM      4  C4  UNL d   1      -1.821   2.942   1.171  0.00  0.00    -0.042 A 
ATOM      5  C5  UNL d   1      -1.054   3.314   0.073  0.00  0.00     0.033 A 
ATOM      6  C6  UNL d   1      -0.351   2.345  -0.649  0.00  0.00    -0.057 A 
ENDROOT
BRANCH   1   7
ATOM      7  N   UNL d   1       0.399   0.087  -1.004  0.00  0.00    -0.732 N 
ATOM      8  C   UNL d   1       0.689  -1.222  -0.461  0.00  0.00     0.284 C 
ATOM      9  H3  UNL d   1       0.205   0.089  -2.003  0.00  0.00     0.395 HD
ENDBRANCH   1   7
TORSDOF 1
ENDMDL
