MODEL 1
REMARK minimizedAffinity -2.81938696
REMARK minimizedRMSD -1
REMARK  1 active torsions:
REMARK  status: ('A' for Active; 'I' for Inactive)
REMARK    1  A    between atoms: N_2  and  C1_3 
ROOT
ATOM      1  C1  UNL d   1       0.408  -0.261   0.139  0.00  0.00     0.143 A 
ATOM      2  C2  UNL d   1      -0.103   1.040   0.076  0.00  0.00    -0.057 A 
ATOM      3  C3  UNL d   1      -0.990   1.520   1.047  0.00  0.00     0.033 A 
ATOM      4  C4  UNL d   1      -1.405   0.695   2.087  0.00  0.00    -0.042 A 
ATOM      5  C5  UNL d   1      -0.930  -0.610   2.156  0.00  0.00     0.033 A 
ATOM      6  C6  UNL d   1      -0.039  -1.081   1.187  0.00  0.00    -0.057 A 
ENDROOT
BRANCH   1   7
ATOM      7  N   UNL d   1       1.215  -0.829  -0.849  0.00  0.00    -0.732 N 
ATOM      8  C   UNL d   1       0.746  -1.955  -1.627  0.00  0.00     0.284 C 
ATOM      9  H3  UNL d   1       1.715  -0.128  -1.392  0.00  0.00     0.395 HD
ENDBRANCH   1   7
TORSDOF 1
ENDMDL
