MODEL 1
REMARK minimizedAffinity -4.19452
REMARK minimizedRMSD -1
REMARK  1 active torsions:
REMARK  status: ('A' for Active; 'I' for Inactive)
REMARK    1  A    between atoms: N_2  and  C1_3 
ROOT
ATOM      1  C1  UNL d   1       0.344   0.302   0.214  0.00  0.00     0.143 A 
ATOM      2  C2  UNL d   1      -0.429  -0.223   1.255  0.00  0.00    -0.057 A 
ATOM      3  C3  UNL d   1      -1.273   0.595   2.017  0.00  0.00     0.033 A 
ATOM      4  C4  UNL d   1      -1.337   1.962   1.767  0.00  0.00    -0.042 A 
ATOM      5  C5  UNL d   1      -0.558   2.510   0.754  0.00  0.00     0.033 A 
ATOM      6  C6  UNL d   1       0.277   1.687  -0.007  0.00  0.00    -0.057 A 
ENDROOT
BRANCH   1   7
ATOM      7  N   UNL d   1       1.276  -0.442  -0.514  0.00  0.00    -0.732 N 
ATOM      8  C   UNL d   1       0.900  -1.699  -1.124  0.00  0.00     0.284 C 
ATOM      9  H3  UNL d   1       1.868   0.143  -1.099  0.00  0.00     0.395 HD
ENDBRANCH   1   7
TORSDOF 1
ENDMDL
