MODEL 1
REMARK minimizedAffinity -4.88619375
REMARK minimizedRMSD -1
REMARK  1 active torsions:
REMARK  status: ('A' for Active; 'I' for Inactive)
REMARK    1  A    between atoms: N_2  and  C1_3 
ROOT
ATOM      1  C1  UNL d   1      -1.095   1.023   0.485  0.00  0.00     0.143 A 
ATOM      2  C2  UNL d   1      -1.667   1.552   1.646  0.00  0.00    -0.057 A 
ATOM      3  C3  UNL d   1      -2.107   2.881   1.699  0.00  0.00     0.033 A 
ATOM      4  C4  UNL d   1      -1.955   3.714   0.595  0.00  0.00    -0.042 A 
ATOM      5  C5  UNL d   1      -1.367   3.216  -0.562  0.00  0.00     0.033 A 
ATOM      6  C6  UNL d   1      -0.936   1.887  -0.610  0.00  0.00    -0.057 A 
ENDROOT
BRANCH   1   7
ATOM      7  N   UNL d   1      -0.549  -0.260   0.402  0.00  0.00    -0.732 N 
ATOM      8  C   UNL d   1       0.287  -0.635  -0.719  0.00  0.00     0.284 C 
ATOM      9  H3  UNL d   1      -0.215  -0.599   1.301  0.00  0.00     0.395 HD
ENDBRANCH   1   7
TORSDOF 1
ENDMDL
