MODEL 1
REMARK minimizedAffinity -4.81003141
REMARK minimizedRMSD -1
REMARK  1 active torsions:
REMARK  status: ('A' for Active; 'I' for Inactive)
REMARK    1  A    between atoms: N_2  and  C1_3 
ROOT
ATOM      1  C1  UNL d   1      -0.442   0.697   0.611  0.00  0.00     0.143 A 
ATOM      2  C2  UNL d   1      -0.373   1.816  -0.225  0.00  0.00    -0.057 A 
ATOM      3  C3  UNL d   1      -1.252   2.896  -0.068  0.00  0.00     0.033 A 
ATOM      4  C4  UNL d   1      -2.236   2.861   0.914  0.00  0.00    -0.042 A 
ATOM      5  C5  UNL d   1      -2.339   1.748   1.740  0.00  0.00     0.033 A 
ATOM      6  C6  UNL d   1      -1.455   0.677   1.583  0.00  0.00    -0.057 A 
ENDROOT
BRANCH   1   7
ATOM      7  N   UNL d   1       0.338  -0.449   0.442  0.00  0.00    -0.732 N 
ATOM      8  C   UNL d   1       0.914  -0.765  -0.847  0.00  0.00     0.284 C 
ATOM      9  H3  UNL d   1       0.963  -0.613   1.228  0.00  0.00     0.395 HD
ENDBRANCH   1   7
TORSDOF 1
ENDMDL
