MODEL 1
REMARK minimizedAffinity -4.96425486
REMARK minimizedRMSD -1
REMARK  1 active torsions:
REMARK  status: ('A' for Active; 'I' for Inactive)
REMARK    1  A    between atoms: N_2  and  C1_3 
ROOT
ATOM      1  C1  UNL d   1      -0.496   1.320  -0.245  0.00  0.00     0.143 A 
ATOM      2  C2  UNL d   1      -0.957   0.935   1.018  0.00  0.00    -0.057 A 
ATOM      3  C3  UNL d   1      -1.667   1.824   1.834  0.00  0.00     0.033 A 
ATOM      4  C4  UNL d   1      -1.904   3.128   1.411  0.00  0.00    -0.042 A 
ATOM      5  C5  UNL d   1      -1.433   3.540   0.170  0.00  0.00     0.033 A 
ATOM      6  C6  UNL d   1      -0.731   2.646  -0.643  0.00  0.00    -0.057 A 
ENDROOT
BRANCH   1   7
ATOM      7  N   UNL d   1       0.300   0.513  -1.062  0.00  0.00    -0.732 N 
ATOM      8  C   UNL d   1       0.873  -0.714  -0.552  0.00  0.00     0.284 C 
ATOM      9  H3  UNL d   1      -0.064   0.440  -2.009  0.00  0.00     0.395 HD
ENDBRANCH   1   7
TORSDOF 1
ENDMDL
