MODEL 1
REMARK minimizedAffinity -4.74688148
REMARK minimizedRMSD -1
REMARK  1 active torsions:
REMARK  status: ('A' for Active; 'I' for Inactive)
REMARK    1  A    between atoms: N_2  and  C1_3 
ROOT
ATOM      1  C1  UNL d   1      -0.156   0.584   0.117  0.00  0.00     0.143 A 
ATOM      2  C2  UNL d   1      -0.911   0.141   1.208  0.00  0.00    -0.057 A 
ATOM      3  C3  UNL d   1      -1.866   0.967   1.813  0.00  0.00     0.033 A 
ATOM      4  C4  UNL d   1      -2.062   2.266   1.355  0.00  0.00    -0.042 A 
ATOM      5  C5  UNL d   1      -1.305   2.736   0.288  0.00  0.00     0.033 A 
ATOM      6  C6  UNL d   1      -0.358   1.904  -0.317  0.00  0.00    -0.057 A 
ENDROOT
BRANCH   1   7
ATOM      7  N   UNL d   1       0.877  -0.154  -0.466  0.00  0.00    -0.732 N 
ATOM      8  C   UNL d   1       0.599  -1.402  -1.144  0.00  0.00     0.284 C 
ATOM      9  H3  UNL d   1       1.556   0.436  -0.942  0.00  0.00     0.395 HD
ENDBRANCH   1   7
TORSDOF 1
ENDMDL
