MODEL 1
REMARK minimizedAffinity -5.39590454
REMARK minimizedRMSD -1
REMARK  1 active torsions:
REMARK  status: ('A' for Active; 'I' for Inactive)
REMARK    1  A    between atoms: N_2  and  C1_3 
ROOT
ATOM      1  C1  UNL d   1      -0.314   0.940  -0.175  0.00  0.00     0.143 A 
ATOM      2  C2  UNL d   1      -1.094   0.711   0.963  0.00  0.00    -0.057 A 
ATOM      3  C3  UNL d   1      -1.919   1.712   1.491  0.00  0.00     0.033 A 
ATOM      4  C4  UNL d   1      -1.954   2.973   0.905  0.00  0.00    -0.042 A 
ATOM      5  C5  UNL d   1      -1.167   3.231  -0.212  0.00  0.00     0.033 A 
ATOM      6  C6  UNL d   1      -0.352   2.225  -0.738  0.00  0.00    -0.057 A 
ENDROOT
BRANCH   1   7
ATOM      7  N   UNL d   1       0.600   0.017  -0.689  0.00  0.00    -0.732 N 
ATOM      8  C   UNL d   1       1.159  -1.017   0.156  0.00  0.00     0.284 C 
ATOM      9  H3  UNL d   1       0.348  -0.301  -1.623  0.00  0.00     0.395 HD
ENDBRANCH   1   7
TORSDOF 1
ENDMDL
