MODEL 1
REMARK minimizedAffinity -4.42327452
REMARK minimizedRMSD -1
REMARK  1 active torsions:
REMARK  status: ('A' for Active; 'I' for Inactive)
REMARK    1  A    between atoms: N_2  and  C1_3 
ROOT
ATOM      1  C1  UNL d   1       0.102   1.021  -0.006  0.00  0.00     0.143 A 
ATOM      2  C2  UNL d   1      -0.755   0.730   1.060  0.00  0.00    -0.057 A 
ATOM      3  C3  UNL d   1      -1.593   1.710   1.606  0.00  0.00     0.033 A 
ATOM      4  C4  UNL d   1      -1.566   3.010   1.113  0.00  0.00    -0.042 A 
ATOM      5  C5  UNL d   1      -0.703   3.328   0.070  0.00  0.00     0.033 A 
ATOM      6  C6  UNL d   1       0.126   2.344  -0.476  0.00  0.00    -0.057 A 
ENDROOT
BRANCH   1   7
ATOM      7  N   UNL d   1       1.030   0.115  -0.528  0.00  0.00    -0.732 N 
ATOM      8  C   UNL d   1       0.756  -1.306  -0.523  0.00  0.00     0.284 C 
ATOM      9  H3  UNL d   1       1.462   0.452  -1.385  0.00  0.00     0.395 HD
ENDBRANCH   1   7
TORSDOF 1
ENDMDL
