MODEL 1
REMARK minimizedAffinity -3.4809947
REMARK minimizedRMSD -1
REMARK  0 active torsions:
REMARK  status: ('A' for Active; 'I' for Inactive)
ROOT
ATOM      1  C   UNL d   1       0.181  -0.898   2.391  0.00  0.00     0.023 A 
ATOM      2  C1  UNL d   1       1.029  -1.044   1.293  0.00  0.00     0.003 A 
ATOM      3  C2  UNL d   1       0.774  -0.341   0.114  0.00  0.00     0.048 A 
ATOM      4  C3  UNL d   1      -0.331   0.508   0.040  0.00  0.00     0.023 A 
ATOM      5  C4  UNL d   1      -1.181   0.658   1.136  0.00  0.00     0.048 A 
ATOM      6  C5  UNL d   1      -0.923  -0.048   2.313  0.00  0.00     0.003 A 
ATOM      7  I   UNL d   1      -0.712   1.556  -1.714  0.00  0.00    -0.146 I 
ENDROOT
TORSDOF 0
ENDMDL
