MODEL 1
REMARK minimizedAffinity -0.885122061
REMARK minimizedRMSD -1
REMARK  0 active torsions:
REMARK  status: ('A' for Active; 'I' for Inactive)
ROOT
ATOM      1  C   UNL d   1      -0.582  -0.307   1.957  0.00  0.00     0.023 A 
ATOM      2  C1  UNL d   1       0.197  -0.632   0.847  0.00  0.00     0.003 A 
ATOM      3  C2  UNL d   1       0.033   0.067  -0.351  0.00  0.00     0.048 A 
ATOM      4  C3  UNL d   1      -0.911   1.090  -0.431  0.00  0.00     0.023 A 
ATOM      5  C4  UNL d   1      -1.692   1.420   0.678  0.00  0.00     0.048 A 
ATOM      6  C5  UNL d   1      -1.525   0.717   1.873  0.00  0.00     0.003 A 
ATOM      7  I   UNL d   1      -1.155   2.132  -2.212  0.00  0.00    -0.146 I 
ENDROOT
TORSDOF 0
ENDMDL
