MODEL 1
REMARK minimizedAffinity -3.67566657
REMARK minimizedRMSD -1
REMARK  0 active torsions:
REMARK  status: ('A' for Active; 'I' for Inactive)
ROOT
ATOM      1  C   UNL d   1      -0.028  -1.116   1.958  0.00  0.00     0.023 A 
ATOM      2  C1  UNL d   1      -0.839  -0.007   2.199  0.00  0.00     0.003 A 
ATOM      3  C2  UNL d   1      -1.121   0.891   1.167  0.00  0.00     0.048 A 
ATOM      4  C3  UNL d   1      -0.589   0.674  -0.104  0.00  0.00     0.023 A 
ATOM      5  C4  UNL d   1       0.222  -0.435  -0.350  0.00  0.00     0.048 A 
ATOM      6  C5  UNL d   1       0.502  -1.330   0.685  0.00  0.00     0.003 A 
ATOM      7  I   UNL d   1      -1.007   2.009  -1.641  0.00  0.00    -0.146 I 
ENDROOT
TORSDOF 0
ENDMDL
