MODEL 1
REMARK minimizedAffinity -0.457010567
REMARK minimizedRMSD -1
REMARK  0 active torsions:
REMARK  status: ('A' for Active; 'I' for Inactive)
ROOT
ATOM      1  C   UNL d   1       0.252  -0.936   0.710  0.00  0.00     0.023 A 
ATOM      2  C1  UNL d   1       0.898  -0.945  -0.526  0.00  0.00     0.003 A 
ATOM      3  C2  UNL d   1       0.550  -0.012  -1.505  0.00  0.00     0.048 A 
ATOM      4  C3  UNL d   1      -0.445   0.928  -1.240  0.00  0.00     0.023 A 
ATOM      5  C4  UNL d   1      -1.094   0.942  -0.004  0.00  0.00     0.048 A 
ATOM      6  C5  UNL d   1      -0.743   0.006   0.971  0.00  0.00     0.003 A 
ATOM      7  I   UNL d   1      -0.966   2.318  -2.695  0.00  0.00    -0.146 I 
ENDROOT
TORSDOF 0
ENDMDL
