MODEL 1
REMARK minimizedAffinity -0.387144208
REMARK minimizedRMSD -1
REMARK  0 active torsions:
REMARK  status: ('A' for Active; 'I' for Inactive)
ROOT
ATOM      1  C   UNL d   1      -0.509   3.725  -3.260  0.00  0.00     0.023 A 
ATOM      2  C1  UNL d   1       0.754   3.208  -2.972  0.00  0.00     0.003 A 
ATOM      3  C2  UNL d   1       0.875   2.001  -2.280  0.00  0.00     0.048 A 
ATOM      4  C3  UNL d   1      -0.271   1.316  -1.880  0.00  0.00     0.023 A 
ATOM      5  C4  UNL d   1      -1.537   1.829  -2.166  0.00  0.00     0.048 A 
ATOM      6  C5  UNL d   1      -1.653   3.036  -2.858  0.00  0.00     0.003 A 
ATOM      7  I   UNL d   1      -0.094  -0.481  -0.850  0.00  0.00    -0.146 I 
ENDROOT
TORSDOF 0
ENDMDL
