MODEL 1
REMARK minimizedAffinity -2.70983124
REMARK minimizedRMSD -1
REMARK  0 active torsions:
REMARK  status: ('A' for Active; 'I' for Inactive)
ROOT
ATOM      1  C   UNL d   1      -0.096  -0.700   0.486  0.00  0.00     0.023 A 
ATOM      2  C1  UNL d   1      -0.376   0.576   0.975  0.00  0.00     0.003 A 
ATOM      3  C2  UNL d   1      -0.677   1.614   0.090  0.00  0.00     0.048 A 
ATOM      4  C3  UNL d   1      -0.698   1.368  -1.282  0.00  0.00     0.023 A 
ATOM      5  C4  UNL d   1      -0.420   0.092  -1.776  0.00  0.00     0.048 A 
ATOM      6  C5  UNL d   1      -0.118  -0.942  -0.887  0.00  0.00     0.003 A 
ATOM      7  I   UNL d   1      -1.147   2.910  -2.601  0.00  0.00    -0.146 I 
ENDROOT
TORSDOF 0
ENDMDL
