MODEL 1
REMARK minimizedAffinity -0.621791005
REMARK minimizedRMSD -1
REMARK  0 active torsions:
REMARK  status: ('A' for Active; 'I' for Inactive)
ROOT
ATOM      1  C   UNL d   1       4.275   2.007  -1.159  0.00  0.00     0.078 C 
ATOM      2  C1  UNL d   1       3.254   0.938  -0.903  0.00  0.00    -0.077 A 
ATOM      3  C2  UNL d   1       2.464   0.957   0.253  0.00  0.00    -0.001 A 
ATOM      4  C3  UNL d   1       1.524  -0.049   0.483  0.00  0.00     0.003 A 
ATOM      5  C4  UNL d   1       1.367  -1.082  -0.439  0.00  0.00    -0.005 A 
ATOM      6  C5  UNL d   1       2.150  -1.111  -1.591  0.00  0.00     0.003 A 
ATOM      7  C6  UNL d   1       3.090  -0.106  -1.822  0.00  0.00    -0.001 A 
ENDROOT
TORSDOF 0
ENDMDL
