MODEL 1
REMARK minimizedAffinity 3.52131724
REMARK minimizedRMSD -1
REMARK  0 active torsions:
REMARK  status: ('A' for Active; 'I' for Inactive)
ROOT
ATOM      1  C   UNL d   1       0.844  -1.083  -0.321  0.00  0.00     0.078 C 
ATOM      2  C1  UNL d   1       1.866  -0.069  -0.741  0.00  0.00    -0.077 A 
ATOM      3  C2  UNL d   1       2.464  -0.129  -2.006  0.00  0.00    -0.001 A 
ATOM      4  C3  UNL d   1       3.421   0.816  -2.380  0.00  0.00     0.003 A 
ATOM      5  C4  UNL d   1       3.789   1.827  -1.495  0.00  0.00    -0.005 A 
ATOM      6  C5  UNL d   1       3.200   1.894  -0.234  0.00  0.00     0.003 A 
ATOM      7  C6  UNL d   1       2.243   0.950   0.142  0.00  0.00    -0.001 A 
ENDROOT
TORSDOF 0
ENDMDL
