MODEL 1
REMARK minimizedAffinity 1.3973732
REMARK minimizedRMSD -1
REMARK  0 active torsions:
REMARK  status: ('A' for Active; 'I' for Inactive)
ROOT
ATOM      1  C   UNL d   1       4.484   2.345  -1.518  0.00  0.00     0.078 C 
ATOM      2  C1  UNL d   1       3.656   1.098  -1.612  0.00  0.00    -0.077 A 
ATOM      3  C2  UNL d   1       2.895   0.654  -0.524  0.00  0.00    -0.001 A 
ATOM      4  C3  UNL d   1       2.136  -0.513  -0.623  0.00  0.00     0.003 A 
ATOM      5  C4  UNL d   1       2.132  -1.247  -1.808  0.00  0.00    -0.005 A 
ATOM      6  C5  UNL d   1       2.889  -0.814  -2.895  0.00  0.00     0.003 A 
ATOM      7  C6  UNL d   1       3.648   0.353  -2.798  0.00  0.00    -0.001 A 
ENDROOT
TORSDOF 0
ENDMDL
