MODEL 1
REMARK minimizedAffinity 0.908951283
REMARK minimizedRMSD -1
REMARK  0 active torsions:
REMARK  status: ('A' for Active; 'I' for Inactive)
ROOT
ATOM      1  C   UNL d   1       2.152   0.811   2.422  0.00  0.00     0.078 C 
ATOM      2  C1  UNL d   1       2.433   0.622   0.961  0.00  0.00    -0.077 A 
ATOM      3  C2  UNL d   1       3.433   1.360   0.317  0.00  0.00    -0.001 A 
ATOM      4  C3  UNL d   1       3.677   1.181  -1.045  0.00  0.00     0.003 A 
ATOM      5  C4  UNL d   1       2.924   0.264  -1.776  0.00  0.00    -0.005 A 
ATOM      6  C5  UNL d   1       1.925  -0.474  -1.144  0.00  0.00     0.003 A 
ATOM      7  C6  UNL d   1       1.679  -0.296   0.218  0.00  0.00    -0.001 A 
ENDROOT
TORSDOF 0
ENDMDL
