MODEL 1
REMARK minimizedAffinity -0.848477364
REMARK minimizedRMSD -1
REMARK  0 active torsions:
REMARK  status: ('A' for Active; 'I' for Inactive)
ROOT
ATOM      1  C   UNL d   1       3.792   1.736  -1.170  0.00  0.00     0.078 C 
ATOM      2  C1  UNL d   1       3.097   0.409  -1.258  0.00  0.00    -0.077 A 
ATOM      3  C2  UNL d   1       3.233  -0.402  -2.392  0.00  0.00    -0.001 A 
ATOM      4  C3  UNL d   1       2.573  -1.629  -2.464  0.00  0.00     0.003 A 
ATOM      5  C4  UNL d   1       1.772  -2.057  -1.407  0.00  0.00    -0.005 A 
ATOM      6  C5  UNL d   1       1.630  -1.256  -0.276  0.00  0.00     0.003 A 
ATOM      7  C6  UNL d   1       2.289  -0.028  -0.202  0.00  0.00    -0.001 A 
ENDROOT
TORSDOF 0
ENDMDL
