MODEL 1
REMARK minimizedAffinity 3.3822732
REMARK minimizedRMSD -1
REMARK  0 active torsions:
REMARK  status: ('A' for Active; 'I' for Inactive)
ROOT
ATOM      1  C   UNL d   1       2.284  -0.345  -1.118  0.00  0.00     0.078 C 
ATOM      2  C1  UNL d   1       1.004  -1.024  -0.729  0.00  0.00    -0.077 A 
ATOM      3  C2  UNL d   1       0.828  -1.545   0.559  0.00  0.00    -0.001 A 
ATOM      4  C3  UNL d   1      -0.365  -2.182   0.905  0.00  0.00     0.003 A 
ATOM      5  C4  UNL d   1      -1.390  -2.306  -0.031  0.00  0.00    -0.005 A 
ATOM      6  C5  UNL d   1      -1.222  -1.792  -1.316  0.00  0.00     0.003 A 
ATOM      7  C6  UNL d   1      -0.030  -1.154  -1.663  0.00  0.00    -0.001 A 
ENDROOT
TORSDOF 0
ENDMDL
