MODEL 1
REMARK minimizedAffinity 2.17541337
REMARK minimizedRMSD -1
REMARK  0 active torsions:
REMARK  status: ('A' for Active; 'I' for Inactive)
ROOT
ATOM      1  C   UNL d   1      -2.696   1.788  -5.282  0.00  0.00     0.078 C 
ATOM      2  C1  UNL d   1      -3.496   2.986  -4.866  0.00  0.00    -0.077 A 
ATOM      3  C2  UNL d   1      -2.925   3.998  -4.084  0.00  0.00    -0.001 A 
ATOM      4  C3  UNL d   1      -3.684   5.103  -3.696  0.00  0.00     0.003 A 
ATOM      5  C4  UNL d   1      -5.018   5.207  -4.084  0.00  0.00    -0.005 A 
ATOM      6  C5  UNL d   1      -5.595   4.204  -4.861  0.00  0.00     0.003 A 
ATOM      7  C6  UNL d   1      -4.838   3.098  -5.250  0.00  0.00    -0.001 A 
ENDROOT
TORSDOF 0
ENDMDL
