MODEL 1
REMARK minimizedAffinity 2.16198301
REMARK minimizedRMSD -1
REMARK  0 active torsions:
REMARK  status: ('A' for Active; 'I' for Inactive)
ROOT
ATOM      1  C   UNL d   1       1.035   1.543   1.282  0.00  0.00     0.078 C 
ATOM      2  C1  UNL d   1       1.737   0.768   0.207  0.00  0.00    -0.077 A 
ATOM      3  C2  UNL d   1       1.455  -0.587  -0.006  0.00  0.00    -0.001 A 
ATOM      4  C3  UNL d   1       2.122  -1.299  -1.005  0.00  0.00     0.003 A 
ATOM      5  C4  UNL d   1       3.077  -0.664  -1.797  0.00  0.00    -0.005 A 
ATOM      6  C5  UNL d   1       3.366   0.684  -1.591  0.00  0.00     0.003 A 
ATOM      7  C6  UNL d   1       2.699   1.397  -0.593  0.00  0.00    -0.001 A 
ENDROOT
TORSDOF 0
ENDMDL
