MODEL 1
REMARK minimizedAffinity -2.39680266
REMARK minimizedRMSD -1
REMARK  0 active torsions:
REMARK  status: ('A' for Active; 'I' for Inactive)
ROOT
ATOM      1  C   UNL d   1       4.290   2.083  -1.137  0.00  0.00     0.078 C 
ATOM      2  C1  UNL d   1       3.723   0.735  -1.469  0.00  0.00    -0.077 A 
ATOM      3  C2  UNL d   1       3.819   0.211  -2.764  0.00  0.00    -0.001 A 
ATOM      4  C3  UNL d   1       3.278  -1.041  -3.061  0.00  0.00     0.003 A 
ATOM      5  C4  UNL d   1       2.635  -1.778  -2.069  0.00  0.00    -0.005 A 
ATOM      6  C5  UNL d   1       2.532  -1.264  -0.778  0.00  0.00     0.003 A 
ATOM      7  C6  UNL d   1       3.073  -0.012  -0.479  0.00  0.00    -0.001 A 
ENDROOT
TORSDOF 0
ENDMDL
