MODEL 1
REMARK minimizedAffinity 1.48106813
REMARK minimizedRMSD -1
REMARK  0 active torsions:
REMARK  status: ('A' for Active; 'I' for Inactive)
ROOT
ATOM      1  C   UNL d   1       1.477  -1.761  -0.390  0.00  0.00     0.078 C 
ATOM      2  C1  UNL d   1       2.163  -0.446  -0.613  0.00  0.00    -0.077 A 
ATOM      3  C2  UNL d   1       1.599   0.749  -0.151  0.00  0.00    -0.001 A 
ATOM      4  C3  UNL d   1       2.243   1.967  -0.374  0.00  0.00     0.003 A 
ATOM      5  C4  UNL d   1       3.455   2.002  -1.061  0.00  0.00    -0.005 A 
ATOM      6  C5  UNL d   1       4.023   0.818  -1.527  0.00  0.00     0.003 A 
ATOM      7  C6  UNL d   1       3.380  -0.401  -1.305  0.00  0.00    -0.001 A 
ENDROOT
TORSDOF 0
ENDMDL
