MODEL 1
REMARK minimizedAffinity -4.88475657
REMARK minimizedRMSD -1
REMARK  0 active torsions:
REMARK  status: ('A' for Active; 'I' for Inactive)
ROOT
ATOM      1  C1  BNZ d   1      -0.774  -0.803   1.083  0.00  0.00     0.000 A 
ATOM      2  C2  BNZ d   1      -0.109  -0.232   0.031  0.00  0.00     0.000 A 
ATOM      3  C3  BNZ d   1       0.489  -1.008  -0.923  0.00  0.00     0.000 A 
ATOM      4  C4  BNZ d   1       0.454  -2.351  -0.803  0.00  0.00     0.000 A 
ATOM      5  C5  BNZ d   1      -0.204  -2.941   0.257  0.00  0.00     0.000 A 
ATOM      6  C6  BNZ d   1      -0.838  -2.158   1.194  0.00  0.00     0.000 A 
ENDROOT
TORSDOF 0
ENDMDL
