MODEL 1
REMARK minimizedAffinity -4.71682978
REMARK minimizedRMSD -1
REMARK  0 active torsions:
REMARK  status: ('A' for Active; 'I' for Inactive)
ROOT
ATOM      1  C1  BNZ d   1      -0.301   0.117  -0.900  0.00  0.00     0.000 A 
ATOM      2  C2  BNZ d   1      -0.102  -1.231  -1.033  0.00  0.00     0.000 A 
ATOM      3  C3  BNZ d   1      -0.599  -2.106  -0.108  0.00  0.00     0.000 A 
ATOM      4  C4  BNZ d   1      -1.259  -1.630   0.968  0.00  0.00     0.000 A 
ATOM      5  C5  BNZ d   1      -1.460  -0.273   1.120  0.00  0.00     0.000 A 
ATOM      6  C6  BNZ d   1      -0.992   0.602   0.167  0.00  0.00     0.000 A 
ENDROOT
TORSDOF 0
ENDMDL
