MODEL 1
REMARK minimizedAffinity -1.34438789
REMARK minimizedRMSD -1
REMARK  0 active torsions:
REMARK  status: ('A' for Active; 'I' for Inactive)
ROOT
ATOM      1  C1  BNZ d   1       0.063  -0.662  -1.080  0.00  0.00     0.000 A 
ATOM      2  C2  BNZ d   1       0.499   0.618  -1.295  0.00  0.00     0.000 A 
ATOM      3  C3  BNZ d   1       0.290   1.595  -0.362  0.00  0.00     0.000 A 
ATOM      4  C4  BNZ d   1      -0.390   1.301   0.765  0.00  0.00     0.000 A 
ATOM      5  C5  BNZ d   1      -0.845   0.018   0.992  0.00  0.00     0.000 A 
ATOM      6  C6  BNZ d   1      -0.598  -0.972   0.069  0.00  0.00     0.000 A 
ENDROOT
TORSDOF 0
ENDMDL
