MODEL 1
REMARK minimizedAffinity -5.01003122
REMARK minimizedRMSD -1
REMARK  0 active torsions:
REMARK  status: ('A' for Active; 'I' for Inactive)
ROOT
ATOM      1  C1  BNZ d   1      -0.104  -2.057  -1.720  0.00  0.00     0.000 A 
ATOM      2  C2  BNZ d   1      -0.101  -0.689  -1.666  0.00  0.00     0.000 A 
ATOM      3  C3  BNZ d   1      -0.595  -0.030  -0.575  0.00  0.00     0.000 A 
ATOM      4  C4  BNZ d   1      -1.127  -0.738   0.442  0.00  0.00     0.000 A 
ATOM      5  C5  BNZ d   1      -1.147  -2.118   0.398  0.00  0.00     0.000 A 
ATOM      6  C6  BNZ d   1      -0.613  -2.779  -0.684  0.00  0.00     0.000 A 
ENDROOT
TORSDOF 0
ENDMDL
