MODEL 1
REMARK minimizedAffinity -3.85444713
REMARK minimizedRMSD -1
REMARK  0 active torsions:
REMARK  status: ('A' for Active; 'I' for Inactive)
ROOT
ATOM      1  C1  BNZ d   1       0.069  -1.580  -0.877  0.00  0.00     0.000 A 
ATOM      2  C2  BNZ d   1      -0.058  -0.435  -1.616  0.00  0.00     0.000 A 
ATOM      3  C3  BNZ d   1      -0.395   0.749  -1.021  0.00  0.00     0.000 A 
ATOM      4  C4  BNZ d   1      -0.642   0.777   0.305  0.00  0.00     0.000 A 
ATOM      5  C5  BNZ d   1      -0.527  -0.371   1.063  0.00  0.00     0.000 A 
ATOM      6  C6  BNZ d   1      -0.150  -1.552   0.466  0.00  0.00     0.000 A 
ENDROOT
TORSDOF 0
ENDMDL
