MODEL 1
REMARK minimizedAffinity -5.12616014
REMARK minimizedRMSD -1
REMARK  0 active torsions:
REMARK  status: ('A' for Active; 'I' for Inactive)
ROOT
ATOM      1  C1  BNZ d   1       0.745  -2.101  -0.588  0.00  0.00     0.000 A 
ATOM      2  C2  BNZ d   1       0.613  -0.756  -0.806  0.00  0.00     0.000 A 
ATOM      3  C3  BNZ d   1      -0.254  -0.008  -0.060  0.00  0.00     0.000 A 
ATOM      4  C4  BNZ d   1      -1.015  -0.612   0.875  0.00  0.00     0.000 A 
ATOM      5  C5  BNZ d   1      -0.900  -1.969   1.101  0.00  0.00     0.000 A 
ATOM      6  C6  BNZ d   1       0.002  -2.712   0.374  0.00  0.00     0.000 A 
ENDROOT
TORSDOF 0
ENDMDL
