MODEL 1
REMARK minimizedAffinity -3.20159101
REMARK minimizedRMSD -1
REMARK  0 active torsions:
REMARK  status: ('A' for Active; 'I' for Inactive)
ROOT
ATOM      1  C1  BNZ d   1      -1.852  -1.245   1.007  0.00  0.00     0.000 A 
ATOM      2  C2  BNZ d   1      -1.203  -0.063   0.773  0.00  0.00     0.000 A 
ATOM      3  C3  BNZ d   1      -0.073  -0.025   0.004  0.00  0.00     0.000 A 
ATOM      4  C4  BNZ d   1       0.428  -1.173  -0.495  0.00  0.00     0.000 A 
ATOM      5  C5  BNZ d   1      -0.210  -2.375  -0.260  0.00  0.00     0.000 A 
ATOM      6  C6  BNZ d   1      -1.369  -2.404   0.482  0.00  0.00     0.000 A 
ENDROOT
TORSDOF 0
ENDMDL
