MODEL 1
REMARK minimizedAffinity -4.21989489
REMARK minimizedRMSD -1
REMARK  0 active torsions:
REMARK  status: ('A' for Active; 'I' for Inactive)
ROOT
ATOM      1  C1  BNZ d   1      -0.131  -2.159   1.443  0.00  0.00     0.000 A 
ATOM      2  C2  BNZ d   1      -0.511  -0.907   1.849  0.00  0.00     0.000 A 
ATOM      3  C3  BNZ d   1      -0.579   0.127   0.959  0.00  0.00     0.000 A 
ATOM      4  C4  BNZ d   1      -0.227  -0.080  -0.327  0.00  0.00     0.000 A 
ATOM      5  C5  BNZ d   1       0.167  -1.333  -0.750  0.00  0.00     0.000 A 
ATOM      6  C6  BNZ d   1       0.197  -2.382   0.141  0.00  0.00     0.000 A 
ENDROOT
TORSDOF 0
ENDMDL
