MODEL 1
REMARK minimizedAffinity -3.20469952
REMARK minimizedRMSD -1
REMARK  0 active torsions:
REMARK  status: ('A' for Active; 'I' for Inactive)
ROOT
ATOM      1  C1  BNZ d   1      -0.431  -2.115   0.323  0.00  0.00     0.000 A 
ATOM      2  C2  BNZ d   1       0.353  -1.345  -0.494  0.00  0.00     0.000 A 
ATOM      3  C3  BNZ d   1       0.184   0.010  -0.553  0.00  0.00     0.000 A 
ATOM      4  C4  BNZ d   1      -0.794   0.589   0.174  0.00  0.00     0.000 A 
ATOM      5  C5  BNZ d   1      -1.600  -0.175   0.995  0.00  0.00     0.000 A 
ATOM      6  C6  BNZ d   1      -1.401  -1.534   1.082  0.00  0.00     0.000 A 
ENDROOT
TORSDOF 0
ENDMDL
