MODEL 1
REMARK minimizedAffinity -3.60753775
REMARK minimizedRMSD -1
REMARK  0 active torsions:
REMARK  status: ('A' for Active; 'I' for Inactive)
ROOT
ATOM      1  C1  BNZ d   1       0.790  -1.138  -0.689  0.00  0.00     0.000 A 
ATOM      2  C2  BNZ d   1       0.540  -2.421  -0.278  0.00  0.00     0.000 A 
ATOM      3  C3  BNZ d   1      -0.540  -2.705   0.509  0.00  0.00     0.000 A 
ATOM      4  C4  BNZ d   1      -1.345  -1.703   0.918  0.00  0.00     0.000 A 
ATOM      5  C5  BNZ d   1      -1.101  -0.404   0.521  0.00  0.00     0.000 A 
ATOM      6  C6  BNZ d   1      -0.035  -0.127  -0.304  0.00  0.00     0.000 A 
ENDROOT
TORSDOF 0
ENDMDL
