MODEL 1
REMARK minimizedAffinity -4.83234167
REMARK minimizedRMSD -1
REMARK  0 active torsions:
REMARK  status: ('A' for Active; 'I' for Inactive)
ROOT
ATOM      1  C1  BNZ d   1      -0.668  -2.449   1.185  0.00  0.00     0.000 A 
ATOM      2  C2  BNZ d   1      -0.737  -1.130   1.547  0.00  0.00     0.000 A 
ATOM      3  C3  BNZ d   1      -0.311  -0.148   0.698  0.00  0.00     0.000 A 
ATOM      4  C4  BNZ d   1       0.219  -0.486  -0.495  0.00  0.00     0.000 A 
ATOM      5  C5  BNZ d   1       0.303  -1.812  -0.872  0.00  0.00     0.000 A 
ATOM      6  C6  BNZ d   1      -0.162  -2.796  -0.030  0.00  0.00     0.000 A 
ENDROOT
TORSDOF 0
ENDMDL
