MODEL 1
REMARK minimizedAffinity -3.36011887
REMARK minimizedRMSD -1
REMARK  0 active torsions:
REMARK  status: ('A' for Active; 'I' for Inactive)
ROOT
ATOM      1  C1  BNZ d   1       1.700  -1.964  -0.502  0.00  0.00     0.000 A 
ATOM      2  C2  BNZ d   1       1.526  -3.098   0.246  0.00  0.00     0.000 A 
ATOM      3  C3  BNZ d   1       0.273  -3.540   0.565  0.00  0.00     0.000 A 
ATOM      4  C4  BNZ d   1      -0.802  -2.826   0.172  0.00  0.00     0.000 A 
ATOM      5  C5  BNZ d   1      -0.643  -1.676  -0.574  0.00  0.00     0.000 A 
ATOM      6  C6  BNZ d   1       0.619  -1.255  -0.927  0.00  0.00     0.000 A 
ENDROOT
TORSDOF 0
ENDMDL
