MODEL 1
REMARK minimizedAffinity -4.07062006
REMARK minimizedRMSD -1
REMARK  0 active torsions:
REMARK  status: ('A' for Active; 'I' for Inactive)
ROOT
ATOM      1  C1  BNZ d   1      -0.173  -1.672  -1.813  0.00  0.00     0.000 A 
ATOM      2  C2  BNZ d   1       0.017  -0.729  -0.838  0.00  0.00     0.000 A 
ATOM      3  C3  BNZ d   1      -0.130  -1.048   0.483  0.00  0.00     0.000 A 
ATOM      4  C4  BNZ d   1      -0.505  -2.298   0.825  0.00  0.00     0.000 A 
ATOM      5  C5  BNZ d   1      -0.709  -3.257  -0.146  0.00  0.00     0.000 A 
ATOM      6  C6  BNZ d   1      -0.522  -2.943  -1.473  0.00  0.00     0.000 A 
ENDROOT
TORSDOF 0
ENDMDL
