MODEL 1
REMARK minimizedAffinity -2.04316902
REMARK minimizedRMSD -1
REMARK  1 active torsions:
REMARK  status: ('A' for Active; 'I' for Inactive)
REMARK    1  A    between atoms: C1_2  and  C2_3 
ROOT
ATOM      1  C2  UNL d   1       0.483  -1.237   3.260  0.00  0.00    -0.073 A 
ATOM      2  C3  UNL d   1      -0.491  -2.237   3.165  0.00  0.00    -0.002 A 
ATOM      3  C4  UNL d   1      -1.744  -1.950   2.621  0.00  0.00     0.004 A 
ATOM      4  C5  UNL d   1      -2.033  -0.665   2.162  0.00  0.00    -0.004 A 
ATOM      5  C6  UNL d   1      -1.068   0.344   2.238  0.00  0.00    -0.075 A 
ATOM      6  C7  UNL d   1      -1.364   1.732   1.750  0.00  0.00     0.076 C 
ATOM      7  C8  UNL d   1       0.187   0.050   2.787  0.00  0.00     0.001 A 
ENDROOT
BRANCH   1   8
ATOM      8  C1  UNL d   1       1.840  -1.543   3.841  0.00  0.00     0.053 C 
ATOM      9  C   UNL d   1       1.833  -1.498   5.361  0.00  0.00     0.018 C 
ENDBRANCH   1   8
TORSDOF 1
ENDMDL
