MODEL 1
REMARK minimizedAffinity -0.401314437
REMARK minimizedRMSD -1
REMARK  1 active torsions:
REMARK  status: ('A' for Active; 'I' for Inactive)
REMARK    1  A    between atoms: C1_2  and  C2_3 
ROOT
ATOM      1  C2  UNL d   1      -0.985  -0.123   1.979  0.00  0.00    -0.073 A 
ATOM      2  C3  UNL d   1      -2.196   0.555   2.163  0.00  0.00    -0.002 A 
ATOM      3  C4  UNL d   1      -3.195   0.490   1.191  0.00  0.00     0.004 A 
ATOM      4  C5  UNL d   1      -2.997  -0.258   0.030  0.00  0.00    -0.004 A 
ATOM      5  C6  UNL d   1      -1.799  -0.951  -0.167  0.00  0.00    -0.075 A 
ATOM      6  C7  UNL d   1      -1.570  -1.758  -1.411  0.00  0.00     0.076 C 
ATOM      7  C8  UNL d   1      -0.799  -0.879   0.813  0.00  0.00     0.001 A 
ENDROOT
BRANCH   1   8
ATOM      8  C1  UNL d   1       0.094  -0.060   3.028  0.00  0.00     0.053 C 
ATOM      9  C   UNL d   1       0.559  -1.445   3.451  0.00  0.00     0.018 C 
ENDBRANCH   1   8
TORSDOF 1
ENDMDL
