MODEL 1
REMARK minimizedAffinity -1.66716206
REMARK minimizedRMSD -1
REMARK  1 active torsions:
REMARK  status: ('A' for Active; 'I' for Inactive)
REMARK    1  A    between atoms: C1_2  and  C2_3 
ROOT
ATOM      1  C2  UNL d   1      -1.142  -1.621  -0.287  0.00  0.00    -0.073 A 
ATOM      2  C3  UNL d   1      -2.396  -1.507  -0.896  0.00  0.00    -0.002 A 
ATOM      3  C4  UNL d   1      -3.403  -0.745  -0.300  0.00  0.00     0.004 A 
ATOM      4  C5  UNL d   1      -3.163  -0.086   0.905  0.00  0.00    -0.004 A 
ATOM      5  C6  UNL d   1      -1.912  -0.178   1.524  0.00  0.00    -0.075 A 
ATOM      6  C7  UNL d   1      -1.639   0.523   2.822  0.00  0.00     0.076 C 
ATOM      7  C8  UNL d   1      -0.908  -0.947   0.920  0.00  0.00     0.001 A 
ENDROOT
BRANCH   1   8
ATOM      8  C1  UNL d   1      -0.050  -2.437  -0.930  0.00  0.00     0.053 C 
ATOM      9  C   UNL d   1      -0.160  -2.442  -2.446  0.00  0.00     0.018 C 
ENDBRANCH   1   8
TORSDOF 1
ENDMDL
