MODEL 1
REMARK minimizedAffinity 2.34705544
REMARK minimizedRMSD -1
REMARK  1 active torsions:
REMARK  status: ('A' for Active; 'I' for Inactive)
REMARK    1  A    between atoms: C1_2  and  C2_3 
ROOT
ATOM      1  C2  UNL d   1       0.068   1.103  -0.641  0.00  0.00    -0.081 A 
ATOM      2  C3  UNL d   1      -0.302   1.532   0.639  0.00  0.00     0.006 A 
ATOM      3  C4  UNL d   1      -0.182   0.674   1.735  0.00  0.00     0.002 A 
ATOM      4  C5  UNL d   1       0.315  -0.623   1.571  0.00  0.00    -0.080 A 
ATOM      5  C6  UNL d   1       0.477  -1.544   2.743  0.00  0.00     0.076 C 
ATOM      6  C7  UNL d   1       0.668  -1.057   0.288  0.00  0.00     0.002 A 
ATOM      7  C8  UNL d   1       0.549  -0.200  -0.808  0.00  0.00     0.006 A 
ENDROOT
BRANCH   1   8
ATOM      8  C1  UNL d   1       0.002   2.048  -1.814  0.00  0.00     0.054 C 
ATOM      9  C   UNL d   1      -1.433   2.456  -2.116  0.00  0.00     0.018 C 
ENDBRANCH   1   8
TORSDOF 1
ENDMDL
