MODEL 1
REMARK minimizedAffinity -2.26445889
REMARK minimizedRMSD -1
REMARK  1 active torsions:
REMARK  status: ('A' for Active; 'I' for Inactive)
REMARK    1  A    between atoms: C1_2  and  C2_3 
ROOT
ATOM      1  C2  UNL d   1      -0.032  -0.207  -0.579  0.00  0.00    -0.081 A 
ATOM      2  C3  UNL d   1       1.070  -1.039  -0.811  0.00  0.00     0.006 A 
ATOM      3  C4  UNL d   1       1.620  -1.792   0.229  0.00  0.00     0.002 A 
ATOM      4  C5  UNL d   1       1.073  -1.732   1.515  0.00  0.00    -0.080 A 
ATOM      5  C6  UNL d   1       1.636  -2.558   2.634  0.00  0.00     0.076 C 
ATOM      6  C7  UNL d   1      -0.017  -0.888   1.751  0.00  0.00     0.002 A 
ATOM      7  C8  UNL d   1      -0.567  -0.134   0.712  0.00  0.00     0.006 A 
ENDROOT
BRANCH   1   8
ATOM      8  C1  UNL d   1      -0.668   0.556  -1.713  0.00  0.00     0.054 C 
ATOM      9  C   UNL d   1      -0.086   1.957  -1.832  0.00  0.00     0.018 C 
ENDBRANCH   1   8
TORSDOF 1
ENDMDL
