MODEL 1
REMARK minimizedAffinity -3.84492612
REMARK minimizedRMSD -1
REMARK  1 active torsions:
REMARK  status: ('A' for Active; 'I' for Inactive)
REMARK    1  A    between atoms: C1_2  and  C2_3 
ROOT
ATOM      1  C2  UNL d   1      -0.695   1.447  -1.373  0.00  0.00    -0.081 A 
ATOM      2  C3  UNL d   1      -0.238   1.894  -0.127  0.00  0.00     0.006 A 
ATOM      3  C4  UNL d   1      -0.138   1.009   0.950  0.00  0.00     0.002 A 
ATOM      4  C5  UNL d   1      -0.486  -0.337   0.796  0.00  0.00    -0.080 A 
ATOM      5  C6  UNL d   1      -0.354  -1.304   1.935  0.00  0.00     0.076 C 
ATOM      6  C7  UNL d   1      -0.958  -0.780  -0.444  0.00  0.00     0.002 A 
ATOM      7  C8  UNL d   1      -1.059   0.105  -1.520  0.00  0.00     0.006 A 
ENDROOT
BRANCH   1   8
ATOM      8  C1  UNL d   1      -0.743   2.385  -2.552  0.00  0.00     0.054 C 
ATOM      9  C   UNL d   1      -0.415   3.812  -2.139  0.00  0.00     0.018 C 
ENDBRANCH   1   8
TORSDOF 1
ENDMDL
