MODEL 1
REMARK minimizedAffinity -4.33645201
REMARK minimizedRMSD -1
REMARK  1 active torsions:
REMARK  status: ('A' for Active; 'I' for Inactive)
REMARK    1  A    between atoms: C1_2  and  C2_3 
ROOT
ATOM      1  C2  UNL d   1      -0.097   0.249  -0.998  0.00  0.00    -0.081 A 
ATOM      2  C3  UNL d   1       1.123  -0.438  -0.946  0.00  0.00     0.006 A 
ATOM      3  C4  UNL d   1       1.638  -0.874   0.277  0.00  0.00     0.002 A 
ATOM      4  C5  UNL d   1       0.940  -0.638   1.466  0.00  0.00    -0.080 A 
ATOM      5  C6  UNL d   1       1.467  -1.127   2.782  0.00  0.00     0.076 C 
ATOM      6  C7  UNL d   1      -0.269   0.064   1.416  0.00  0.00     0.002 A 
ATOM      7  C8  UNL d   1      -0.785   0.501   0.194  0.00  0.00     0.006 A 
ENDROOT
BRANCH   1   8
ATOM      8  C1  UNL d   1      -0.687   0.664  -2.322  0.00  0.00     0.054 C 
ATOM      9  C   UNL d   1      -1.375   2.017  -2.221  0.00  0.00     0.018 C 
ENDBRANCH   1   8
TORSDOF 1
ENDMDL
