MODEL 1
REMARK minimizedAffinity 0.472894073
REMARK minimizedRMSD -1
REMARK  1 active torsions:
REMARK  status: ('A' for Active; 'I' for Inactive)
REMARK    1  A    between atoms: C1_2  and  C2_3 
ROOT
ATOM      1  C2  UNL d   1      -1.044   1.189  -1.820  0.00  0.00    -0.081 A 
ATOM      2  C3  UNL d   1      -1.499   0.226  -0.912  0.00  0.00     0.006 A 
ATOM      3  C4  UNL d   1      -0.619  -0.359   0.002  0.00  0.00     0.002 A 
ATOM      4  C5  UNL d   1       0.728   0.016   0.028  0.00  0.00    -0.080 A 
ATOM      5  C6  UNL d   1       1.677  -0.581   1.024  0.00  0.00     0.076 C 
ATOM      6  C7  UNL d   1       1.188   0.966  -0.891  0.00  0.00     0.002 A 
ATOM      7  C8  UNL d   1       0.308   1.550  -1.805  0.00  0.00     0.006 A 
ENDROOT
BRANCH   1   8
ATOM      8  C1  UNL d   1      -2.004   1.868  -2.764  0.00  0.00     0.054 C 
ATOM      9  C   UNL d   1      -1.560   3.290  -3.075  0.00  0.00     0.018 C 
ENDBRANCH   1   8
TORSDOF 1
ENDMDL
