MODEL 1
REMARK minimizedAffinity -3.62630057
REMARK minimizedRMSD -1
REMARK  1 active torsions:
REMARK  status: ('A' for Active; 'I' for Inactive)
REMARK    1  A    between atoms: C1_2  and  C2_3 
ROOT
ATOM      1  C2  UNL d   1       0.831  -0.217   0.177  0.00  0.00    -0.081 A 
ATOM      2  C3  UNL d   1       0.679   0.120   1.527  0.00  0.00     0.006 A 
ATOM      3  C4  UNL d   1       1.394  -0.564   2.513  0.00  0.00     0.002 A 
ATOM      4  C5  UNL d   1       2.278  -1.591   2.165  0.00  0.00    -0.080 A 
ATOM      5  C6  UNL d   1       3.074  -2.313   3.211  0.00  0.00     0.076 C 
ATOM      6  C7  UNL d   1       2.417  -1.940   0.818  0.00  0.00     0.002 A 
ATOM      7  C8  UNL d   1       1.702  -1.257  -0.169  0.00  0.00     0.006 A 
ENDROOT
BRANCH   1   8
ATOM      8  C1  UNL d   1       0.111   0.561  -0.894  0.00  0.00     0.054 C 
ATOM      9  C   UNL d   1      -1.394   0.550  -0.668  0.00  0.00     0.018 C 
ENDBRANCH   1   8
TORSDOF 1
ENDMDL
