MODEL 1
REMARK minimizedAffinity -4.82676649
REMARK minimizedRMSD -1
REMARK  1 active torsions:
REMARK  status: ('A' for Active; 'I' for Inactive)
REMARK    1  A    between atoms: C1_2  and  C2_3 
ROOT
ATOM      1  C2  UNL d   1       1.280   0.668   0.018  0.00  0.00    -0.081 A 
ATOM      2  C3  UNL d   1       1.813   1.932  -0.262  0.00  0.00     0.006 A 
ATOM      3  C4  UNL d   1       1.113   2.832  -1.070  0.00  0.00     0.002 A 
ATOM      4  C5  UNL d   1      -0.133   2.487  -1.604  0.00  0.00    -0.080 A 
ATOM      5  C6  UNL d   1      -0.908   3.455  -2.447  0.00  0.00     0.076 C 
ATOM      6  C7  UNL d   1      -0.657   1.217  -1.338  0.00  0.00     0.002 A 
ATOM      7  C8  UNL d   1       0.042   0.316  -0.532  0.00  0.00     0.006 A 
ENDROOT
BRANCH   1   8
ATOM      8  C1  UNL d   1       2.002  -0.280   0.941  0.00  0.00     0.054 C 
ATOM      9  C   UNL d   1       1.575  -0.076   2.388  0.00  0.00     0.018 C 
ENDBRANCH   1   8
TORSDOF 1
ENDMDL
