MODEL 1
REMARK minimizedAffinity -3.92574668
REMARK minimizedRMSD -1
REMARK  1 active torsions:
REMARK  status: ('A' for Active; 'I' for Inactive)
REMARK    1  A    between atoms: C1_2  and  C2_3 
ROOT
ATOM      1  C2  UNL d   1      -0.457   0.203  -0.742  0.00  0.00    -0.081 A 
ATOM      2  C3  UNL d   1      -1.090   0.187   0.507  0.00  0.00     0.006 A 
ATOM      3  C4  UNL d   1      -0.396  -0.224   1.648  0.00  0.00     0.002 A 
ATOM      4  C5  UNL d   1       0.944  -0.618   1.560  0.00  0.00    -0.080 A 
ATOM      5  C6  UNL d   1       1.709  -1.033   2.781  0.00  0.00     0.076 C 
ATOM      6  C7  UNL d   1       1.571  -0.619   0.310  0.00  0.00     0.002 A 
ATOM      7  C8  UNL d   1       0.877  -0.209  -0.831  0.00  0.00     0.006 A 
ENDROOT
BRANCH   1   8
ATOM      8  C1  UNL d   1      -1.183   0.707  -1.963  0.00  0.00     0.054 C 
ATOM      9  C   UNL d   1      -0.633   2.051  -2.418  0.00  0.00     0.018 C 
ENDBRANCH   1   8
TORSDOF 1
ENDMDL
