MODEL 1
REMARK minimizedAffinity 9.62070465
REMARK minimizedRMSD -1
REMARK  0 active torsions:
REMARK  status: ('A' for Active; 'I' for Inactive)
ROOT
ATOM      1  C   UNL d   1      -0.589  -4.959  -0.964  0.00  0.00     0.077 C 
ATOM      2  C1  UNL d   1      -1.259  -3.657  -0.640  0.00  0.00    -0.074 A 
ATOM      3  C2  UNL d   1      -0.768  -2.828   0.374  0.00  0.00    -0.005 A 
ATOM      4  C3  UNL d   1      -1.397  -1.615   0.657  0.00  0.00     0.006 A 
ATOM      5  C4  UNL d   1      -2.520  -1.220  -0.070  0.00  0.00    -0.005 A 
ATOM      6  C5  UNL d   1      -3.025  -2.035  -1.088  0.00  0.00    -0.074 A 
ATOM      7  C6  UNL d   1      -4.226  -1.621  -1.886  0.00  0.00     0.077 C 
ATOM      8  C7  UNL d   1      -2.384  -3.249  -1.371  0.00  0.00    -0.001 A 
ENDROOT
TORSDOF 0
ENDMDL
