MODEL 1
REMARK minimizedAffinity 4.76341391
REMARK minimizedRMSD -1
REMARK  0 active torsions:
REMARK  status: ('A' for Active; 'I' for Inactive)
ROOT
ATOM      1  C   UNL d   1       4.127   5.543   3.675  0.00  0.00     0.077 C 
ATOM      2  C1  UNL d   1       4.032   4.204   3.007  0.00  0.00    -0.074 A 
ATOM      3  C2  UNL d   1       5.184   3.479   2.683  0.00  0.00    -0.005 A 
ATOM      4  C3  UNL d   1       5.080   2.230   2.071  0.00  0.00     0.006 A 
ATOM      5  C4  UNL d   1       3.825   1.694   1.778  0.00  0.00    -0.005 A 
ATOM      6  C5  UNL d   1       2.663   2.403   2.095  0.00  0.00    -0.074 A 
ATOM      7  C6  UNL d   1       1.307   1.837   1.795  0.00  0.00     0.077 C 
ATOM      8  C7  UNL d   1       2.776   3.655   2.716  0.00  0.00    -0.001 A 
ENDROOT
TORSDOF 0
ENDMDL
