MODEL 1
REMARK minimizedAffinity 3.48503017
REMARK minimizedRMSD -1
REMARK  0 active torsions:
REMARK  status: ('A' for Active; 'I' for Inactive)
ROOT
ATOM      1  C   UNL d   1      -4.130  -5.352   0.170  0.00  0.00     0.077 C 
ATOM      2  C1  UNL d   1      -3.183  -4.198   0.319  0.00  0.00    -0.074 A 
ATOM      3  C2  UNL d   1      -3.558  -3.047   1.019  0.00  0.00    -0.005 A 
ATOM      4  C3  UNL d   1      -2.664  -1.986   1.158  0.00  0.00     0.006 A 
ATOM      5  C4  UNL d   1      -1.387  -2.065   0.599  0.00  0.00    -0.005 A 
ATOM      6  C5  UNL d   1      -0.995  -3.209  -0.103  0.00  0.00    -0.074 A 
ATOM      7  C6  UNL d   1       0.377  -3.314  -0.701  0.00  0.00     0.077 C 
ATOM      8  C7  UNL d   1      -1.897  -4.273  -0.232  0.00  0.00    -0.001 A 
ENDROOT
TORSDOF 0
ENDMDL
