MODEL 1
REMARK minimizedAffinity 5.57879305
REMARK minimizedRMSD -1
REMARK  0 active torsions:
REMARK  status: ('A' for Active; 'I' for Inactive)
ROOT
ATOM      1  C   UNL d   1       0.414  -3.136  -0.237  0.00  0.00     0.077 C 
ATOM      2  C1  UNL d   1       1.286  -1.918  -0.175  0.00  0.00    -0.074 A 
ATOM      3  C2  UNL d   1       2.419  -1.802  -0.987  0.00  0.00    -0.005 A 
ATOM      4  C3  UNL d   1       3.215  -0.658  -0.925  0.00  0.00     0.006 A 
ATOM      5  C4  UNL d   1       2.887   0.379  -0.052  0.00  0.00    -0.005 A 
ATOM      6  C5  UNL d   1       1.758   0.282   0.768  0.00  0.00    -0.074 A 
ATOM      7  C6  UNL d   1       1.387   1.392   1.705  0.00  0.00     0.077 C 
ATOM      8  C7  UNL d   1       0.959  -0.868   0.694  0.00  0.00    -0.001 A 
ENDROOT
TORSDOF 0
ENDMDL
