MODEL 1
REMARK minimizedAffinity 8.29961014
REMARK minimizedRMSD -1
REMARK  0 active torsions:
REMARK  status: ('A' for Active; 'I' for Inactive)
ROOT
ATOM      1  C   UNL d   1      -4.522  -6.000   0.363  0.00  0.00     0.077 C 
ATOM      2  C1  UNL d   1      -3.355  -5.241  -0.195  0.00  0.00    -0.074 A 
ATOM      3  C2  UNL d   1      -3.388  -3.846  -0.298  0.00  0.00    -0.005 A 
ATOM      4  C3  UNL d   1      -2.291  -3.153  -0.810  0.00  0.00     0.006 A 
ATOM      5  C4  UNL d   1      -1.152  -3.846  -1.223  0.00  0.00    -0.005 A 
ATOM      6  C5  UNL d   1      -1.101  -5.241  -1.127  0.00  0.00    -0.074 A 
ATOM      7  C6  UNL d   1       0.118  -6.000  -1.558  0.00  0.00     0.077 C 
ATOM      8  C7  UNL d   1      -2.205  -5.929  -0.605  0.00  0.00    -0.001 A 
ENDROOT
TORSDOF 0
ENDMDL
