MODEL 1
REMARK minimizedAffinity 14.3382044
REMARK minimizedRMSD -1
REMARK  0 active torsions:
REMARK  status: ('A' for Active; 'I' for Inactive)
ROOT
ATOM      1  C   UNL d   1       0.936  -4.499   1.984  0.00  0.00     0.077 C 
ATOM      2  C1  UNL d   1      -0.020  -3.851   1.028  0.00  0.00    -0.074 A 
ATOM      3  C2  UNL d   1      -0.265  -4.408  -0.231  0.00  0.00    -0.005 A 
ATOM      4  C3  UNL d   1      -1.165  -3.799  -1.107  0.00  0.00     0.006 A 
ATOM      5  C4  UNL d   1      -1.827  -2.630  -0.732  0.00  0.00    -0.005 A 
ATOM      6  C5  UNL d   1      -1.596  -2.059   0.524  0.00  0.00    -0.074 A 
ATOM      7  C6  UNL d   1      -2.308  -0.808   0.946  0.00  0.00     0.077 C 
ATOM      8  C7  UNL d   1      -0.696  -2.680   1.400  0.00  0.00    -0.001 A 
ENDROOT
TORSDOF 0
ENDMDL
