MODEL 1
REMARK minimizedAffinity 9.81114388
REMARK minimizedRMSD -1
REMARK  0 active torsions:
REMARK  status: ('A' for Active; 'I' for Inactive)
ROOT
ATOM      1  C   UNL d   1      -4.521   2.989   0.712  0.00  0.00     0.077 C 
ATOM      2  C1  UNL d   1      -5.032   2.490  -0.607  0.00  0.00    -0.074 A 
ATOM      3  C2  UNL d   1      -5.518   1.186  -0.743  0.00  0.00    -0.005 A 
ATOM      4  C3  UNL d   1      -5.999   0.739  -1.973  0.00  0.00     0.006 A 
ATOM      5  C4  UNL d   1      -6.000   1.590  -3.078  0.00  0.00    -0.005 A 
ATOM      6  C5  UNL d   1      -5.519   2.898  -2.962  0.00  0.00    -0.074 A 
ATOM      7  C6  UNL d   1      -5.522   3.830  -4.137  0.00  0.00     0.077 C 
ATOM      8  C7  UNL d   1      -5.044   3.342  -1.720  0.00  0.00    -0.001 A 
ENDROOT
TORSDOF 0
ENDMDL
