MODEL 1
REMARK minimizedAffinity 8.98568916
REMARK minimizedRMSD -1
REMARK  0 active torsions:
REMARK  status: ('A' for Active; 'I' for Inactive)
ROOT
ATOM      1  C   UNL d   1       1.470   1.644   1.455  0.00  0.00     0.077 C 
ATOM      2  C1  UNL d   1       2.743   2.257   1.959  0.00  0.00    -0.074 A 
ATOM      3  C2  UNL d   1       3.948   1.547   1.919  0.00  0.00    -0.005 A 
ATOM      4  C3  UNL d   1       5.125   2.134   2.382  0.00  0.00     0.006 A 
ATOM      5  C4  UNL d   1       5.110   3.434   2.889  0.00  0.00    -0.005 A 
ATOM      6  C5  UNL d   1       3.916   4.159   2.936  0.00  0.00    -0.074 A 
ATOM      7  C6  UNL d   1       3.884   5.561   3.469  0.00  0.00     0.077 C 
ATOM      8  C7  UNL d   1       2.738   3.565   2.462  0.00  0.00    -0.001 A 
ENDROOT
TORSDOF 0
ENDMDL
