MODEL 1
REMARK minimizedAffinity 10.638628
REMARK minimizedRMSD -1
REMARK  0 active torsions:
REMARK  status: ('A' for Active; 'I' for Inactive)
ROOT
ATOM      1  C   UNL d   1      -3.276  -3.010  -1.944  0.00  0.00     0.077 C 
ATOM      2  C1  UNL d   1      -2.002  -3.709  -1.576  0.00  0.00    -0.074 A 
ATOM      3  C2  UNL d   1      -1.653  -4.926  -2.170  0.00  0.00    -0.005 A 
ATOM      4  C3  UNL d   1      -0.459  -5.561  -1.826  0.00  0.00     0.006 A 
ATOM      5  C4  UNL d   1       0.396  -4.985  -0.885  0.00  0.00    -0.005 A 
ATOM      6  C5  UNL d   1       0.064  -3.768  -0.281  0.00  0.00    -0.074 A 
ATOM      7  C6  UNL d   1       0.977  -3.132   0.724  0.00  0.00     0.077 C 
ATOM      8  C7  UNL d   1      -1.133  -3.134  -0.638  0.00  0.00    -0.001 A 
ENDROOT
TORSDOF 0
ENDMDL
