MODEL 1
REMARK minimizedAffinity 9.64083195
REMARK minimizedRMSD -1
REMARK  0 active torsions:
REMARK  status: ('A' for Active; 'I' for Inactive)
ROOT
ATOM      1  C   UNL d   1      -1.508   1.552  -5.998  0.00  0.00     0.077 C 
ATOM      2  C1  UNL d   1      -0.116   1.393  -5.461  0.00  0.00    -0.074 A 
ATOM      3  C2  UNL d   1       0.174   0.429  -4.490  0.00  0.00    -0.005 A 
ATOM      4  C3  UNL d   1       1.475   0.286  -4.007  0.00  0.00     0.006 A 
ATOM      5  C4  UNL d   1       2.497   1.103  -4.490  0.00  0.00    -0.005 A 
ATOM      6  C5  UNL d   1       2.226   2.072  -5.462  0.00  0.00    -0.074 A 
ATOM      7  C6  UNL d   1       3.316   2.952  -5.999  0.00  0.00     0.077 C 
ATOM      8  C7  UNL d   1       0.918   2.205  -5.947  0.00  0.00    -0.001 A 
ENDROOT
TORSDOF 0
ENDMDL
