MODEL 1
REMARK minimizedAffinity 3.14952731
REMARK minimizedRMSD -1
REMARK  0 active torsions:
REMARK  status: ('A' for Active; 'I' for Inactive)
ROOT
ATOM      1  C   UNL d   1       5.203   5.997   5.790  0.00  0.00     0.077 C 
ATOM      2  C1  UNL d   1       5.235   4.818   4.863  0.00  0.00    -0.074 A 
ATOM      3  C2  UNL d   1       5.988   3.681   5.173  0.00  0.00    -0.005 A 
ATOM      4  C3  UNL d   1       6.000   2.588   4.306  0.00  0.00     0.006 A 
ATOM      5  C4  UNL d   1       5.261   2.621   3.123  0.00  0.00    -0.005 A 
ATOM      6  C5  UNL d   1       4.501   3.749   2.797  0.00  0.00    -0.074 A 
ATOM      7  C6  UNL d   1       3.693   3.798   1.534  0.00  0.00     0.077 C 
ATOM      8  C7  UNL d   1       4.489   4.841   3.677  0.00  0.00    -0.001 A 
ENDROOT
TORSDOF 0
ENDMDL
