MODEL 1
REMARK minimizedAffinity 1.28803718
REMARK minimizedRMSD -1
REMARK  0 active torsions:
REMARK  status: ('A' for Active; 'I' for Inactive)
ROOT
ATOM      1  C   UNL d   1       0.484  -2.318   0.602  0.00  0.00     0.077 C 
ATOM      2  C1  UNL d   1      -0.274  -3.383  -0.134  0.00  0.00    -0.074 A 
ATOM      3  C2  UNL d   1       0.212  -4.693  -0.202  0.00  0.00    -0.005 A 
ATOM      4  C3  UNL d   1      -0.509  -5.675  -0.881  0.00  0.00     0.006 A 
ATOM      5  C4  UNL d   1      -1.720  -5.358  -1.498  0.00  0.00    -0.005 A 
ATOM      6  C5  UNL d   1      -2.221  -4.054  -1.439  0.00  0.00    -0.074 A 
ATOM      7  C6  UNL d   1      -3.526  -3.699  -2.088  0.00  0.00     0.077 C 
ATOM      8  C7  UNL d   1      -1.495  -3.074  -0.749  0.00  0.00    -0.001 A 
ENDROOT
TORSDOF 0
ENDMDL
