MODEL 1
REMARK minimizedAffinity 7.60558271
REMARK minimizedRMSD -1
REMARK  0 active torsions:
REMARK  status: ('A' for Active; 'I' for Inactive)
ROOT
ATOM      1  C   UNL d   1      -3.766  -2.743  -1.421  0.00  0.00     0.077 C 
ATOM      2  C1  UNL d   1      -2.452  -3.033  -0.758  0.00  0.00    -0.074 A 
ATOM      3  C2  UNL d   1      -1.951  -2.195   0.244  0.00  0.00    -0.005 A 
ATOM      4  C3  UNL d   1      -0.732  -2.483   0.857  0.00  0.00     0.006 A 
ATOM      5  C4  UNL d   1      -0.002  -3.610   0.476  0.00  0.00    -0.005 A 
ATOM      6  C5  UNL d   1      -0.487  -4.459  -0.523  0.00  0.00    -0.074 A 
ATOM      7  C6  UNL d   1       0.279  -5.680  -0.937  0.00  0.00     0.077 C 
ATOM      8  C7  UNL d   1      -1.716  -4.167  -1.130  0.00  0.00    -0.001 A 
ENDROOT
TORSDOF 0
ENDMDL
