MODEL 1
REMARK minimizedAffinity 9.25895023
REMARK minimizedRMSD -1
REMARK  0 active torsions:
REMARK  status: ('A' for Active; 'I' for Inactive)
ROOT
ATOM      1  C   UNL d   1       1.832   3.996   3.072  0.00  0.00     0.077 C 
ATOM      2  C1  UNL d   1       2.807   3.015   2.490  0.00  0.00    -0.074 A 
ATOM      3  C2  UNL d   1       4.179   3.134   2.734  0.00  0.00    -0.005 A 
ATOM      4  C3  UNL d   1       5.072   2.209   2.194  0.00  0.00     0.006 A 
ATOM      5  C4  UNL d   1       4.603   1.157   1.406  0.00  0.00    -0.005 A 
ATOM      6  C5  UNL d   1       3.234   1.021   1.152  0.00  0.00    -0.074 A 
ATOM      7  C6  UNL d   1       2.712  -0.109   0.316  0.00  0.00     0.077 C 
ATOM      8  C7  UNL d   1       2.342   1.951   1.704  0.00  0.00    -0.001 A 
ENDROOT
TORSDOF 0
ENDMDL
