MODEL 1
REMARK minimizedAffinity 2.97244239
REMARK minimizedRMSD -1
REMARK  0 active torsions:
REMARK  status: ('A' for Active; 'I' for Inactive)
ROOT
ATOM      1  C   UNL d   1      -2.381  -4.321  -1.574  0.00  0.00     0.077 C 
ATOM      2  C1  UNL d   1      -1.692  -3.286  -0.735  0.00  0.00    -0.074 A 
ATOM      3  C2  UNL d   1      -2.424  -2.316  -0.044  0.00  0.00    -0.005 A 
ATOM      4  C3  UNL d   1      -1.770  -1.366   0.740  0.00  0.00     0.006 A 
ATOM      5  C4  UNL d   1      -0.378  -1.377   0.840  0.00  0.00    -0.005 A 
ATOM      6  C5  UNL d   1       0.371  -2.340   0.157  0.00  0.00    -0.074 A 
ATOM      7  C6  UNL d   1       1.867  -2.371   0.262  0.00  0.00     0.077 C 
ATOM      8  C7  UNL d   1      -0.294  -3.295  -0.623  0.00  0.00    -0.001 A 
ENDROOT
TORSDOF 0
ENDMDL
