MODEL 1
REMARK minimizedAffinity 8.36124802
REMARK minimizedRMSD -1
REMARK  2 active torsions:
REMARK  status: ('A' for Active; 'I' for Inactive)
REMARK    1  A    between atoms: C2'_3  and  C1'_4 
REMARK    2  A    between atoms: C1'_4  and  C1_5 
ROOT
ATOM      1  C1  I4B d   1      -0.118   4.553  -1.576  0.00  0.00    -0.075 A 
ATOM      2  C2  I4B d   1       0.751   5.244  -2.384  0.00  0.00     0.003 A 
ATOM      3  C3  I4B d   1       0.260   6.000  -3.476  0.00  0.00     0.002 A 
ATOM      4  C4  I4B d   1      -1.092   5.996  -3.752  0.00  0.00    -0.004 A 
ATOM      5  C5  I4B d   1      -1.974   5.313  -2.919  0.00  0.00     0.002 A 
ATOM      6  C6  I4B d   1      -1.485   4.597  -1.816  0.00  0.00     0.003 A 
ENDROOT
BRANCH   1   7
ATOM      7  C1' I4B d   1       0.438   3.738  -0.452  0.00  0.00     0.060 C 
BRANCH   7   8
ATOM      8  C2' I4B d   1      -0.655   2.809   0.036  0.00  0.00    -0.013 C 
ATOM      9  C4' I4B d   1      -0.371   1.382  -0.353  0.00  0.00     0.013 C 
ATOM     10  C3' I4B d   1      -0.756   2.954   1.525  0.00  0.00     0.013 C 
ENDBRANCH   7   8
ENDBRANCH   1   7
TORSDOF 2
ENDMDL
