MODEL 1
REMARK minimizedAffinity 10.9317341
REMARK minimizedRMSD -1
REMARK  2 active torsions:
REMARK  status: ('A' for Active; 'I' for Inactive)
REMARK    1  A    between atoms: C2'_3  and  C1'_4 
REMARK    2  A    between atoms: C1'_4  and  C1_5 
ROOT
ATOM      1  C1  I4B d   1       0.358   3.888  -0.431  0.00  0.00    -0.075 A 
ATOM      2  C2  I4B d   1       0.214   2.646   0.135  0.00  0.00     0.003 A 
ATOM      3  C3  I4B d   1       0.728   2.388   1.429  0.00  0.00     0.002 A 
ATOM      4  C4  I4B d   1       1.419   3.379   2.096  0.00  0.00    -0.004 A 
ATOM      5  C5  I4B d   1       1.545   4.645   1.530  0.00  0.00     0.002 A 
ATOM      6  C6  I4B d   1       1.000   4.905   0.264  0.00  0.00     0.003 A 
ENDROOT
BRANCH   1   7
ATOM      7  C1' I4B d   1      -0.168   4.117  -1.812  0.00  0.00     0.060 C 
BRANCH   7   8
ATOM      8  C2' I4B d   1      -0.306   5.612  -2.018  0.00  0.00    -0.013 C 
ATOM      9  C4' I4B d   1       0.026   6.000  -3.434  0.00  0.00     0.013 C 
ATOM     10  C3' I4B d   1      -1.711   6.000  -1.665  0.00  0.00     0.013 C 
ENDBRANCH   7   8
ENDBRANCH   1   7
TORSDOF 2
ENDMDL
