MODEL 1
REMARK minimizedAffinity 3.63095212
REMARK minimizedRMSD -1
REMARK  2 active torsions:
REMARK  status: ('A' for Active; 'I' for Inactive)
REMARK    1  A    between atoms: C2'_3  and  C1'_4 
REMARK    2  A    between atoms: C1'_4  and  C1_5 
ROOT
ATOM      1  C1  I4B d   1      -5.737   2.581  -3.308  0.00  0.00    -0.075 A 
ATOM      2  C2  I4B d   1      -5.921   2.864  -1.977  0.00  0.00     0.003 A 
ATOM      3  C3  I4B d   1      -5.721   4.179  -1.493  0.00  0.00     0.002 A 
ATOM      4  C4  I4B d   1      -5.292   5.164  -2.359  0.00  0.00    -0.004 A 
ATOM      5  C5  I4B d   1      -5.129   4.882  -3.712  0.00  0.00     0.002 A 
ATOM      6  C6  I4B d   1      -5.364   3.585  -4.192  0.00  0.00     0.003 A 
ENDROOT
BRANCH   1   7
ATOM      7  C1' I4B d   1      -5.925   1.174  -3.779  0.00  0.00     0.060 C 
BRANCH   7   8
ATOM      8  C2' I4B d   1      -5.994   1.194  -5.292  0.00  0.00    -0.013 C 
ATOM      9  C4' I4B d   1      -4.843   1.967  -5.880  0.00  0.00     0.013 C 
ATOM     10  C3' I4B d   1      -5.995  -0.226  -5.774  0.00  0.00     0.013 C 
ENDBRANCH   7   8
ENDBRANCH   1   7
TORSDOF 2
ENDMDL
