MODEL 1
REMARK minimizedAffinity -2.20107412
REMARK minimizedRMSD -1
REMARK  2 active torsions:
REMARK  status: ('A' for Active; 'I' for Inactive)
REMARK    1  A    between atoms: C2'_3  and  C1'_4 
REMARK    2  A    between atoms: C1'_4  and  C1_5 
ROOT
ATOM      1  C1  I4B d   1      -0.516   2.564  -1.468  0.00  0.00    -0.075 A 
ATOM      2  C2  I4B d   1      -0.166   3.680  -2.187  0.00  0.00     0.003 A 
ATOM      3  C3  I4B d   1       0.484   4.764  -1.548  0.00  0.00     0.002 A 
ATOM      4  C4  I4B d   1       0.716   4.712  -0.189  0.00  0.00    -0.004 A 
ATOM      5  C5  I4B d   1       0.381   3.571   0.534  0.00  0.00     0.002 A 
ATOM      6  C6  I4B d   1      -0.228   2.485  -0.112  0.00  0.00     0.003 A 
ENDROOT
BRANCH   1   7
ATOM      7  C1' I4B d   1      -1.230   1.452  -2.167  0.00  0.00     0.060 C 
BRANCH   7   8
ATOM      8  C2' I4B d   1      -1.121   0.211  -1.304  0.00  0.00    -0.013 C 
ATOM      9  C4' I4B d   1       0.289   0.011  -0.813  0.00  0.00     0.013 C 
ATOM     10  C3' I4B d   1      -2.077   0.359  -0.159  0.00  0.00     0.013 C 
ENDBRANCH   7   8
ENDBRANCH   1   7
TORSDOF 2
ENDMDL
