MODEL 1
REMARK minimizedAffinity 4.04966736
REMARK minimizedRMSD -1
REMARK  2 active torsions:
REMARK  status: ('A' for Active; 'I' for Inactive)
REMARK    1  A    between atoms: C2'_3  and  C1'_4 
REMARK    2  A    between atoms: C1'_4  and  C1_5 
ROOT
ATOM      1  C1  I4B d   1       0.694  -2.577   0.443  0.00  0.00    -0.075 A 
ATOM      2  C2  I4B d   1      -0.464  -1.841   0.430  0.00  0.00     0.003 A 
ATOM      3  C3  I4B d   1      -1.076  -1.497  -0.800  0.00  0.00     0.002 A 
ATOM      4  C4  I4B d   1      -0.473  -1.864  -1.985  0.00  0.00    -0.004 A 
ATOM      5  C5  I4B d   1       0.689  -2.630  -1.970  0.00  0.00     0.002 A 
ATOM      6  C6  I4B d   1       1.270  -3.000  -0.748  0.00  0.00     0.003 A 
ENDROOT
BRANCH   1   7
ATOM      7  C1' I4B d   1       1.332  -2.895   1.758  0.00  0.00     0.060 C 
BRANCH   7   8
ATOM      8  C2' I4B d   1       2.305  -1.780   2.086  0.00  0.00    -0.013 C 
ATOM      9  C4' I4B d   1       3.694  -2.111   1.607  0.00  0.00     0.013 C 
ATOM     10  C3' I4B d   1       1.798  -0.521   1.450  0.00  0.00     0.013 C 
ENDBRANCH   7   8
ENDBRANCH   1   7
TORSDOF 2
ENDMDL
