MODEL 1
REMARK minimizedAffinity 6.51045561
REMARK minimizedRMSD -1
REMARK  2 active torsions:
REMARK  status: ('A' for Active; 'I' for Inactive)
REMARK    1  A    between atoms: C2'_3  and  C1'_4 
REMARK    2  A    between atoms: C1'_4  and  C1_5 
ROOT
ATOM      1  C1  I4B d   1       0.803  -2.102   0.067  0.00  0.00    -0.075 A 
ATOM      2  C2  I4B d   1       0.973  -2.288  -1.282  0.00  0.00     0.003 A 
ATOM      3  C3  I4B d   1      -0.138  -2.595  -2.105  0.00  0.00     0.002 A 
ATOM      4  C4  I4B d   1      -1.384  -2.755  -1.533  0.00  0.00    -0.004 A 
ATOM      5  C5  I4B d   1      -1.558  -2.544  -0.168  0.00  0.00     0.002 A 
ATOM      6  C6  I4B d   1      -0.461  -2.203   0.636  0.00  0.00     0.003 A 
ENDROOT
BRANCH   1   7
ATOM      7  C1' I4B d   1       2.003  -1.812   0.912  0.00  0.00     0.060 C 
BRANCH   7   8
ATOM      8  C2' I4B d   1       2.049  -0.318   1.160  0.00  0.00    -0.013 C 
ATOM      9  C4' I4B d   1       1.647   0.012   2.573  0.00  0.00     0.013 C 
ATOM     10  C3' I4B d   1       3.441   0.157   0.868  0.00  0.00     0.013 C 
ENDBRANCH   7   8
ENDBRANCH   1   7
TORSDOF 2
ENDMDL
