MODEL 1
REMARK minimizedAffinity 0.794942498
REMARK minimizedRMSD -1
REMARK  2 active torsions:
REMARK  status: ('A' for Active; 'I' for Inactive)
REMARK    1  A    between atoms: C2'_3  and  C1'_4 
REMARK    2  A    between atoms: C1'_4  and  C1_5 
ROOT
ATOM      1  C1  I4B d   1       2.596  -0.916   1.108  0.00  0.00    -0.075 A 
ATOM      2  C2  I4B d   1       3.405  -1.340   2.132  0.00  0.00     0.003 A 
ATOM      3  C3  I4B d   1       3.021  -2.441   2.935  0.00  0.00     0.002 A 
ATOM      4  C4  I4B d   1       1.803  -3.052   2.713  0.00  0.00    -0.004 A 
ATOM      5  C5  I4B d   1       0.994  -2.634   1.660  0.00  0.00     0.002 A 
ATOM      6  C6  I4B d   1       1.399  -1.568   0.844  0.00  0.00     0.003 A 
ENDROOT
BRANCH   1   7
ATOM      7  C1' I4B d   1       3.018   0.271   0.300  0.00  0.00     0.060 C 
BRANCH   7   8
ATOM      8  C2' I4B d   1       2.216   1.466   0.773  0.00  0.00    -0.013 C 
ATOM      9  C4' I4B d   1       2.716   1.966   2.103  0.00  0.00     0.013 C 
ATOM     10  C3' I4B d   1       2.312   2.533  -0.277  0.00  0.00     0.013 C 
ENDBRANCH   7   8
ENDBRANCH   1   7
TORSDOF 2
ENDMDL
