MODEL 1
REMARK minimizedAffinity 0.902268291
REMARK minimizedRMSD -1
REMARK  2 active torsions:
REMARK  status: ('A' for Active; 'I' for Inactive)
REMARK    1  A    between atoms: C2'_3  and  C1'_4 
REMARK    2  A    between atoms: C1'_4  and  C1_5 
ROOT
ATOM      1  C1  I4B d   1      -3.808   1.779  -2.841  0.00  0.00    -0.075 A 
ATOM      2  C2  I4B d   1      -3.058   2.745  -3.465  0.00  0.00     0.003 A 
ATOM      3  C3  I4B d   1      -3.302   3.071  -4.821  0.00  0.00     0.002 A 
ATOM      4  C4  I4B d   1      -4.264   2.375  -5.525  0.00  0.00    -0.004 A 
ATOM      5  C5  I4B d   1      -5.038   1.412  -4.885  0.00  0.00     0.002 A 
ATOM      6  C6  I4B d   1      -4.818   1.120  -3.531  0.00  0.00     0.003 A 
ENDROOT
BRANCH   1   7
ATOM      7  C1' I4B d   1      -3.502   1.436  -1.417  0.00  0.00     0.060 C 
BRANCH   7   8
ATOM      8  C2' I4B d   1      -2.041   1.748  -1.166  0.00  0.00    -0.013 C 
ATOM      9  C4' I4B d   1      -1.660   1.462   0.263  0.00  0.00     0.013 C 
ATOM     10  C3' I4B d   1      -1.222   0.930  -2.119  0.00  0.00     0.013 C 
ENDBRANCH   7   8
ENDBRANCH   1   7
TORSDOF 2
ENDMDL
