MODEL 1
REMARK minimizedAffinity 1.08878815
REMARK minimizedRMSD -1
REMARK  1 active torsions:
REMARK  status: ('A' for Active; 'I' for Inactive)
REMARK    1  A    between atoms: C1_2  and  C2_3 
ROOT
ATOM      1  C2  UNL d   1      -3.600   3.568  -2.139  0.00  0.00    -0.073 A 
ATOM      2  C3  UNL d   1      -3.467   3.300  -3.506  0.00  0.00    -0.002 A 
ATOM      3  C4  UNL d   1      -2.658   2.250  -3.943  0.00  0.00     0.004 A 
ATOM      4  C5  UNL d   1      -1.980   1.455  -3.019  0.00  0.00    -0.004 A 
ATOM      5  C6  UNL d   1      -2.109   1.700  -1.648  0.00  0.00    -0.075 A 
ATOM      6  C7  UNL d   1      -1.385   0.855  -0.642  0.00  0.00     0.076 C 
ATOM      7  C8  UNL d   1      -2.921   2.757  -1.217  0.00  0.00     0.001 A 
ENDROOT
BRANCH   1   8
ATOM      8  C1  UNL d   1      -4.478   4.696  -1.662  0.00  0.00     0.053 C 
ATOM      9  C   UNL d   1      -5.940   4.287  -1.586  0.00  0.00     0.018 C 
ENDBRANCH   1   8
TORSDOF 1
ENDMDL
