MODEL 1
REMARK minimizedAffinity 3.01282191
REMARK minimizedRMSD -1
REMARK  1 active torsions:
REMARK  status: ('A' for Active; 'I' for Inactive)
REMARK    1  A    between atoms: C1_2  and  C2_3 
ROOT
ATOM      1  C2  UNL d   1      -0.410  -0.126   0.635  0.00  0.00    -0.073 A 
ATOM      2  C3  UNL d   1      -0.602  -0.889   1.792  0.00  0.00    -0.002 A 
ATOM      3  C4  UNL d   1      -0.768  -2.272   1.705  0.00  0.00     0.004 A 
ATOM      4  C5  UNL d   1      -0.736  -2.906   0.463  0.00  0.00    -0.004 A 
ATOM      5  C6  UNL d   1      -0.533  -2.161  -0.704  0.00  0.00    -0.075 A 
ATOM      6  C7  UNL d   1      -0.498  -2.828  -2.048  0.00  0.00     0.076 C 
ATOM      7  C8  UNL d   1      -0.370  -0.773  -0.608  0.00  0.00     0.001 A 
ENDROOT
BRANCH   1   8
ATOM      8  C1  UNL d   1      -0.224   1.367   0.725  0.00  0.00     0.053 C 
ATOM      9  C   UNL d   1       0.980   1.841  -0.073  0.00  0.00     0.018 C 
ENDBRANCH   1   8
TORSDOF 1
ENDMDL
