MODEL 1
REMARK minimizedAffinity 7.15112114
REMARK minimizedRMSD -1
REMARK  1 active torsions:
REMARK  status: ('A' for Active; 'I' for Inactive)
REMARK    1  A    between atoms: C1_2  and  C2_3 
ROOT
ATOM      1  C2  UNL d   1      -2.413  -1.524  -3.099  0.00  0.00    -0.073 A 
ATOM      2  C3  UNL d   1      -1.614  -2.584  -2.656  0.00  0.00    -0.002 A 
ATOM      3  C4  UNL d   1      -2.200  -3.754  -2.172  0.00  0.00     0.004 A 
ATOM      4  C5  UNL d   1      -3.588  -3.879  -2.130  0.00  0.00    -0.004 A 
ATOM      5  C6  UNL d   1      -4.404  -2.835  -2.579  0.00  0.00    -0.075 A 
ATOM      6  C7  UNL d   1      -5.899  -2.952  -2.539  0.00  0.00     0.076 C 
ATOM      7  C8  UNL d   1      -3.808  -1.662  -3.062  0.00  0.00     0.001 A 
ENDROOT
BRANCH   1   8
ATOM      8  C1  UNL d   1      -1.785  -0.261  -3.629  0.00  0.00     0.053 C 
ATOM      9  C   UNL d   1      -2.513   0.984  -3.147  0.00  0.00     0.018 C 
ENDBRANCH   1   8
TORSDOF 1
ENDMDL
