MODEL 1
REMARK minimizedAffinity -3.00252509
REMARK minimizedRMSD -1
REMARK  1 active torsions:
REMARK  status: ('A' for Active; 'I' for Inactive)
REMARK    1  A    between atoms: C1_2  and  C2_3 
ROOT
ATOM      1  C2  UNL d   1       3.624  -4.894  -2.996  0.00  0.00    -0.073 A 
ATOM      2  C3  UNL d   1       3.015  -5.904  -3.749  0.00  0.00    -0.002 A 
ATOM      3  C4  UNL d   1       3.251  -6.000  -5.121  0.00  0.00     0.004 A 
ATOM      4  C5  UNL d   1       4.103  -5.093  -5.752  0.00  0.00    -0.004 A 
ATOM      5  C6  UNL d   1       4.731  -4.084  -5.014  0.00  0.00    -0.075 A 
ATOM      6  C7  UNL d   1       5.648  -3.100  -5.678  0.00  0.00     0.076 C 
ATOM      7  C8  UNL d   1       4.486  -3.993  -3.637  0.00  0.00     0.001 A 
ENDROOT
BRANCH   1   8
ATOM      8  C1  UNL d   1       3.376  -4.790  -1.513  0.00  0.00     0.053 C 
ATOM      9  C   UNL d   1       2.622  -5.995  -0.975  0.00  0.00     0.018 C 
ENDBRANCH   1   8
TORSDOF 1
ENDMDL
