MODEL 1
REMARK minimizedAffinity -0.33492741
REMARK minimizedRMSD -1
REMARK  1 active torsions:
REMARK  status: ('A' for Active; 'I' for Inactive)
REMARK    1  A    between atoms: C1_2  and  C2_3 
ROOT
ATOM      1  C2  UNL d   1       0.087  -0.925   0.873  0.00  0.00    -0.073 A 
ATOM      2  C3  UNL d   1       0.790  -0.937   2.083  0.00  0.00    -0.002 A 
ATOM      3  C4  UNL d   1       1.474   0.201   2.512  0.00  0.00     0.004 A 
ATOM      4  C5  UNL d   1       1.457   1.363   1.741  0.00  0.00    -0.004 A 
ATOM      5  C6  UNL d   1       0.750   1.399   0.534  0.00  0.00    -0.075 A 
ATOM      6  C7  UNL d   1       0.723   2.640  -0.308  0.00  0.00     0.076 C 
ATOM      7  C8  UNL d   1       0.067   0.251   0.109  0.00  0.00     0.001 A 
ENDROOT
BRANCH   1   8
ATOM      8  C1  UNL d   1      -0.659  -2.149   0.409  0.00  0.00     0.053 C 
ATOM      9  C   UNL d   1       0.125  -2.935  -0.630  0.00  0.00     0.018 C 
ENDBRANCH   1   8
TORSDOF 1
ENDMDL
