MODEL 1
REMARK minimizedAffinity -3.74438834
REMARK minimizedRMSD -1
REMARK  1 active torsions:
REMARK  status: ('A' for Active; 'I' for Inactive)
REMARK    1  A    between atoms: C1_2  and  C2_3 
ROOT
ATOM      1  C2  UNL d   1       4.243  -1.575  -4.709  0.00  0.00    -0.073 A 
ATOM      2  C3  UNL d   1       3.405  -1.909  -5.779  0.00  0.00    -0.002 A 
ATOM      3  C4  UNL d   1       3.040  -3.238  -6.000  0.00  0.00     0.004 A 
ATOM      4  C5  UNL d   1       3.502  -4.244  -5.152  0.00  0.00    -0.004 A 
ATOM      5  C6  UNL d   1       4.331  -3.929  -4.070  0.00  0.00    -0.075 A 
ATOM      6  C7  UNL d   1       4.839  -4.999  -3.150  0.00  0.00     0.076 C 
ATOM      7  C8  UNL d   1       4.696  -2.592  -3.856  0.00  0.00     0.001 A 
ENDROOT
BRANCH   1   8
ATOM      8  C1  UNL d   1       4.636  -0.142  -4.462  0.00  0.00     0.053 C 
ATOM      9  C   UNL d   1       6.000  -0.029  -3.801  0.00  0.00     0.018 C 
ENDBRANCH   1   8
TORSDOF 1
ENDMDL
