MODEL 1
REMARK minimizedAffinity 8.78154278
REMARK minimizedRMSD -1
REMARK  1 active torsions:
REMARK  status: ('A' for Active; 'I' for Inactive)
REMARK    1  A    between atoms: C1_2  and  C2_3 
ROOT
ATOM      1  C2  UNL d   1       0.607  -0.575   1.407  0.00  0.00    -0.073 A 
ATOM      2  C3  UNL d   1       1.765  -0.598   2.193  0.00  0.00    -0.002 A 
ATOM      3  C4  UNL d   1       2.552   0.547   2.322  0.00  0.00     0.004 A 
ATOM      4  C5  UNL d   1       2.186   1.727   1.675  0.00  0.00    -0.004 A 
ATOM      5  C6  UNL d   1       1.026   1.773   0.895  0.00  0.00    -0.075 A 
ATOM      6  C7  UNL d   1       0.620   3.034   0.190  0.00  0.00     0.076 C 
ATOM      7  C8  UNL d   1       0.243   0.618   0.767  0.00  0.00     0.001 A 
ENDROOT
BRANCH   1   8
ATOM      8  C1  UNL d   1      -0.249  -1.808   1.270  0.00  0.00     0.053 C 
ATOM      9  C   UNL d   1       0.197  -2.919   2.207  0.00  0.00     0.018 C 
ENDBRANCH   1   8
TORSDOF 1
ENDMDL
