MODEL 1
REMARK minimizedAffinity 0.898831546
REMARK minimizedRMSD -1
REMARK  1 active torsions:
REMARK  status: ('A' for Active; 'I' for Inactive)
REMARK    1  A    between atoms: C1_2  and  C2_3 
ROOT
ATOM      1  C2  UNL d   1       1.961  -1.274   1.766  0.00  0.00    -0.073 A 
ATOM      2  C3  UNL d   1       2.777  -0.185   1.439  0.00  0.00    -0.002 A 
ATOM      3  C4  UNL d   1       2.280   0.859   0.659  0.00  0.00     0.004 A 
ATOM      4  C5  UNL d   1       0.961   0.830   0.205  0.00  0.00    -0.004 A 
ATOM      5  C6  UNL d   1       0.126  -0.243   0.531  0.00  0.00    -0.075 A 
ATOM      6  C7  UNL d   1      -1.293  -0.291   0.048  0.00  0.00     0.076 C 
ATOM      7  C8  UNL d   1       0.634  -1.290   1.312  0.00  0.00     0.001 A 
ENDROOT
BRANCH   1   8
ATOM      8  C1  UNL d   1       2.491  -2.401   2.614  0.00  0.00     0.053 C 
ATOM      9  C   UNL d   1       1.680  -2.588   3.886  0.00  0.00     0.018 C 
ENDBRANCH   1   8
TORSDOF 1
ENDMDL
