MODEL 1
REMARK minimizedAffinity -3.71681738
REMARK minimizedRMSD -1
REMARK  3 active torsions:
REMARK  status: ('A' for Active; 'I' for Inactive)
REMARK    1  A    between atoms: C3'_2  and  C2'_3 
REMARK    2  A    between atoms: C2'_3  and  C1'_4 
REMARK    3  A    between atoms: C1'_4  and  C1_5 
ROOT
ATOM      1  C1  N4B d   1       0.092  -0.072   1.304  0.00  0.00    -0.075 A 
ATOM      2  C2  N4B d   1      -0.586   0.203   2.512  0.00  0.00     0.002 A 
ATOM      3  C3  N4B d   1      -1.905   0.583   2.488  0.00  0.00     0.002 A 
ATOM      4  C4  N4B d   1      -2.559   0.713   1.272  0.00  0.00    -0.004 A 
ATOM      5  C5  N4B d   1      -1.905   0.420   0.111  0.00  0.00     0.002 A 
ATOM      6  C6  N4B d   1      -0.580   0.033   0.121  0.00  0.00     0.002 A 
ENDROOT
BRANCH   1   7
ATOM      7  C1' N4B d   1       1.558  -0.408   1.275  0.00  0.00     0.057 C 
BRANCH   7   8
ATOM      8  C2' N4B d   1       2.322   0.742   0.625  0.00  0.00     0.009 C 
BRANCH   8   9
ATOM      9  C3' N4B d   1       3.023   0.308  -0.651  0.00  0.00     0.004 C 
ATOM     10  C4' N4B d   1       4.315  -0.405  -0.391  0.00  0.00     0.003 C 
ENDBRANCH   8   9
ENDBRANCH   7   8
ENDBRANCH   1   7
TORSDOF 3
ENDMDL
