MODEL 1
REMARK minimizedAffinity -3.20736003
REMARK minimizedRMSD -1
REMARK  0 active torsions:
REMARK  status: ('A' for Active; 'I' for Inactive)
ROOT
ATOM      1  O1  BZF d   1      -1.646   0.721   2.103  0.00  0.00    -0.204 OA
ATOM      2  C2  BZF d   1      -0.803   1.433   2.934  0.00  0.00     0.174 A 
ATOM      3  C3  BZF d   1       0.431   1.526   2.398  0.00  0.00    -0.012 A 
ATOM      4  C3A BZF d   1       0.330   0.908   1.111  0.00  0.00    -0.107 A 
ATOM      5  C4  BZF d   1       1.219   0.702   0.096  0.00  0.00     0.055 A 
ATOM      6  C5  BZF d   1       0.821   0.001  -0.999  0.00  0.00    -0.016 A 
ATOM      7  C6  BZF d   1      -0.454  -0.513  -1.108  0.00  0.00     0.022 A 
ATOM      8  C7  BZF d   1      -1.373  -0.331  -0.128  0.00  0.00     0.029 A 
ATOM      9  C7A BZF d   1      -0.984   0.405   0.964  0.00  0.00     0.058 A 
ENDROOT
TORSDOF 0
ENDMDL
