MODEL 1
REMARK minimizedAffinity -3.09750652
REMARK minimizedRMSD -1
REMARK  0 active torsions:
REMARK  status: ('A' for Active; 'I' for Inactive)
ROOT
ATOM      1  O1  BZF d   1      -0.963  -0.669  -0.743  0.00  0.00    -0.204 OA
ATOM      2  C2  BZF d   1       0.235  -1.066  -1.307  0.00  0.00     0.174 A 
ATOM      3  C3  BZF d   1       1.278  -0.548  -0.626  0.00  0.00    -0.012 A 
ATOM      4  C3A BZF d   1       0.697   0.144   0.484  0.00  0.00    -0.107 A 
ATOM      5  C4  BZF d   1       1.222   0.849   1.529  0.00  0.00     0.055 A 
ATOM      6  C5  BZF d   1       0.379   1.463   2.400  0.00  0.00    -0.016 A 
ATOM      7  C6  BZF d   1      -0.991   1.396   2.254  0.00  0.00     0.022 A 
ATOM      8  C7  BZF d   1      -1.558   0.704   1.236  0.00  0.00     0.029 A 
ATOM      9  C7A BZF d   1      -0.710   0.056   0.373  0.00  0.00     0.058 A 
ENDROOT
TORSDOF 0
ENDMDL
