MODEL 1
REMARK minimizedAffinity -3.31730652
REMARK minimizedRMSD -1
REMARK  0 active torsions:
REMARK  status: ('A' for Active; 'I' for Inactive)
ROOT
ATOM      1  O1  BZF d   1      -1.385  -0.943  -0.311  0.00  0.00    -0.204 OA
ATOM      2  C2  BZF d   1      -0.333  -0.994  -1.205  0.00  0.00     0.174 A 
ATOM      3  C3  BZF d   1       0.659  -0.163  -0.826  0.00  0.00    -0.012 A 
ATOM      4  C3A BZF d   1       0.238   0.377   0.430  0.00  0.00    -0.107 A 
ATOM      5  C4  BZF d   1       0.804   1.251   1.314  0.00  0.00     0.055 A 
ATOM      6  C5  BZF d   1       0.099   1.628   2.413  0.00  0.00    -0.016 A 
ATOM      7  C6  BZF d   1      -1.174   1.155   2.657  0.00  0.00     0.022 A 
ATOM      8  C7  BZF d   1      -1.775   0.282   1.812  0.00  0.00     0.029 A 
ATOM      9  C7A BZF d   1      -1.052  -0.126   0.718  0.00  0.00     0.058 A 
ENDROOT
TORSDOF 0
ENDMDL
