MODEL 1
REMARK minimizedAffinity -5.21971655
REMARK minimizedRMSD -1
REMARK  0 active torsions:
REMARK  status: ('A' for Active; 'I' for Inactive)
ROOT
ATOM      1  O1  BZF d   1      -1.151   0.007   2.083  0.00  0.00    -0.204 OA
ATOM      2  C2  BZF d   1      -2.226   0.617   1.465  0.00  0.00     0.174 A 
ATOM      3  C3  BZF d   1      -2.112   0.541   0.123  0.00  0.00    -0.012 A 
ATOM      4  C3A BZF d   1      -0.937  -0.240  -0.111  0.00  0.00    -0.107 A 
ATOM      5  C4  BZF d   1      -0.309  -0.676  -1.243  0.00  0.00     0.055 A 
ATOM      6  C5  BZF d   1       0.861  -1.358  -1.129  0.00  0.00    -0.016 A 
ATOM      7  C6  BZF d   1       1.433  -1.618   0.099  0.00  0.00     0.022 A 
ATOM      8  C7  BZF d   1       0.845  -1.210   1.250  0.00  0.00     0.029 A 
ATOM      9  C7A BZF d   1      -0.354  -0.549   1.140  0.00  0.00     0.058 A 
ENDROOT
TORSDOF 0
ENDMDL
