MODEL 1
REMARK minimizedAffinity -3.58896852
REMARK minimizedRMSD -1
REMARK  1 active torsions:
REMARK  status: ('A' for Active; 'I' for Inactive)
REMARK    1  A    between atoms: C1_2  and  C2_3 
ROOT
ATOM      1  C2  UNL d   1       0.017  -0.438  -1.436  0.00  0.00    -0.081 A 
ATOM      2  C3  UNL d   1      -1.297  -0.146  -1.053  0.00  0.00     0.006 A 
ATOM      3  C4  UNL d   1      -1.572   0.327   0.232  0.00  0.00     0.002 A 
ATOM      4  C5  UNL d   1      -0.537   0.523   1.153  0.00  0.00    -0.080 A 
ATOM      5  C6  UNL d   1      -0.814   1.059   2.526  0.00  0.00     0.076 C 
ATOM      6  C7  UNL d   1       0.775   0.214   0.776  0.00  0.00     0.002 A 
ATOM      7  C8  UNL d   1       1.050  -0.259  -0.509  0.00  0.00     0.006 A 
ENDROOT
BRANCH   1   8
ATOM      8  C1  UNL d   1       0.324  -0.887  -2.842  0.00  0.00     0.054 C 
ATOM      9  C   UNL d   1       0.572   0.301  -3.761  0.00  0.00     0.018 C 
ENDBRANCH   1   8
TORSDOF 1
ENDMDL
