MODEL 1
REMARK minimizedAffinity -3.61005139
REMARK minimizedRMSD -1
REMARK  1 active torsions:
REMARK  status: ('A' for Active; 'I' for Inactive)
REMARK    1  A    between atoms: C1_2  and  C2_3 
ROOT
ATOM      1  C2  UNL d   1       0.321  -0.360  -0.655  0.00  0.00    -0.081 A 
ATOM      2  C3  UNL d   1      -0.971  -0.097  -0.185  0.00  0.00     0.006 A 
ATOM      3  C4  UNL d   1      -1.168   0.410   1.102  0.00  0.00     0.002 A 
ATOM      4  C5  UNL d   1      -0.076   0.669   1.937  0.00  0.00    -0.080 A 
ATOM      5  C6  UNL d   1      -0.271   1.242   3.309  0.00  0.00     0.076 C 
ATOM      6  C7  UNL d   1       1.215   0.390   1.474  0.00  0.00     0.002 A 
ATOM      7  C8  UNL d   1       1.412  -0.117   0.188  0.00  0.00     0.006 A 
ENDROOT
BRANCH   1   8
ATOM      8  C1  UNL d   1       0.540  -0.845  -2.065  0.00  0.00     0.054 C 
ATOM      9  C   UNL d   1       1.080   0.266  -2.955  0.00  0.00     0.018 C 
ENDBRANCH   1   8
TORSDOF 1
ENDMDL
