MODEL 1
REMARK minimizedAffinity -3.28426838
REMARK minimizedRMSD -1
REMARK  1 active torsions:
REMARK  status: ('A' for Active; 'I' for Inactive)
REMARK    1  A    between atoms: C1_2  and  C2_3 
ROOT
ATOM      1  C2  UNL d   1      -0.034  -0.349  -0.952  0.00  0.00    -0.081 A 
ATOM      2  C3  UNL d   1      -1.326   0.077  -0.622  0.00  0.00     0.006 A 
ATOM      3  C4  UNL d   1      -1.570   0.727   0.590  0.00  0.00     0.002 A 
ATOM      4  C5  UNL d   1      -0.526   0.968   1.489  0.00  0.00    -0.080 A 
ATOM      5  C6  UNL d   1      -0.768   1.691   2.780  0.00  0.00     0.076 C 
ATOM      6  C7  UNL d   1       0.762   0.526   1.168  0.00  0.00     0.002 A 
ATOM      7  C8  UNL d   1       1.007  -0.124  -0.044  0.00  0.00     0.006 A 
ENDROOT
BRANCH   1   8
ATOM      8  C1  UNL d   1       0.244  -0.992  -2.287  0.00  0.00     0.054 C 
ATOM      9  C   UNL d   1       0.838   0.007  -3.269  0.00  0.00     0.018 C 
ENDBRANCH   1   8
TORSDOF 1
ENDMDL
