MODEL 1
REMARK minimizedAffinity -3.95805717
REMARK minimizedRMSD -1
REMARK  1 active torsions:
REMARK  status: ('A' for Active; 'I' for Inactive)
REMARK    1  A    between atoms: C1_2  and  C2_3 
ROOT
ATOM      1  C2  UNL d   1       0.093  -0.239  -0.891  0.00  0.00    -0.081 A 
ATOM      2  C3  UNL d   1      -1.213   0.106  -0.524  0.00  0.00     0.006 A 
ATOM      3  C4  UNL d   1      -1.457   0.792   0.668  0.00  0.00     0.002 A 
ATOM      4  C5  UNL d   1      -0.398   1.153   1.508  0.00  0.00    -0.080 A 
ATOM      5  C6  UNL d   1      -0.642   1.917   2.775  0.00  0.00     0.076 C 
ATOM      6  C7  UNL d   1       0.906   0.794   1.150  0.00  0.00     0.002 A 
ATOM      7  C8  UNL d   1       1.150   0.106  -0.041  0.00  0.00     0.006 A 
ENDROOT
BRANCH   1   8
ATOM      8  C1  UNL d   1       0.365  -0.922  -2.207  0.00  0.00     0.054 C 
ATOM      9  C   UNL d   1       0.673   0.089  -3.302  0.00  0.00     0.018 C 
ENDBRANCH   1   8
TORSDOF 1
ENDMDL
