MODEL 1
REMARK minimizedAffinity -5.73438501
REMARK minimizedRMSD -1
REMARK  1 active torsions:
REMARK  status: ('A' for Active; 'I' for Inactive)
REMARK    1  A    between atoms: C1_2  and  C2_3 
ROOT
ATOM      1  C2  UNL d   1      -0.056  -0.149  -0.938  0.00  0.00    -0.081 A 
ATOM      2  C3  UNL d   1      -1.360   0.130  -0.512  0.00  0.00     0.006 A 
ATOM      3  C4  UNL d   1      -1.600   0.576   0.790  0.00  0.00     0.002 A 
ATOM      4  C5  UNL d   1      -0.540   0.758   1.685  0.00  0.00    -0.080 A 
ATOM      5  C6  UNL d   1      -0.780   1.265   3.075  0.00  0.00     0.076 C 
ATOM      6  C7  UNL d   1       0.762   0.462   1.265  0.00  0.00     0.002 A 
ATOM      7  C8  UNL d   1       1.002   0.016  -0.037  0.00  0.00     0.006 A 
ENDROOT
BRANCH   1   8
ATOM      8  C1  UNL d   1       0.213  -0.568  -2.361  0.00  0.00     0.054 C 
ATOM      9  C   UNL d   1       0.647   0.616  -3.213  0.00  0.00     0.018 C 
ENDBRANCH   1   8
TORSDOF 1
ENDMDL
