MODEL 1
REMARK minimizedAffinity 0.104346223
REMARK minimizedRMSD -1
REMARK  1 active torsions:
REMARK  status: ('A' for Active; 'I' for Inactive)
REMARK    1  A    between atoms: C1_2  and  C2_3 
ROOT
ATOM      1  C2  UNL d   1       0.568   0.074  -0.725  0.00  0.00    -0.081 A 
ATOM      2  C3  UNL d   1      -0.828   0.175  -0.742  0.00  0.00     0.006 A 
ATOM      3  C4  UNL d   1      -1.529   0.499   0.423  0.00  0.00     0.002 A 
ATOM      4  C5  UNL d   1      -0.845   0.735   1.620  0.00  0.00    -0.080 A 
ATOM      5  C6  UNL d   1      -1.583   1.114   2.870  0.00  0.00     0.076 C 
ATOM      6  C7  UNL d   1       0.549   0.617   1.641  0.00  0.00     0.002 A 
ATOM      7  C8  UNL d   1       1.250   0.292   0.478  0.00  0.00     0.006 A 
ENDROOT
BRANCH   1   8
ATOM      8  C1  UNL d   1       1.331  -0.213  -1.993  0.00  0.00     0.054 C 
ATOM      9  C   UNL d   1       1.215   0.940  -2.981  0.00  0.00     0.018 C 
ENDBRANCH   1   8
TORSDOF 1
ENDMDL
