MODEL 1
REMARK minimizedAffinity 18.7401981
REMARK minimizedRMSD -1
REMARK  0 active torsions:
REMARK  status: ('A' for Active; 'I' for Inactive)
ROOT
ATOM      1  C4' PXY d   1      -2.794   2.300  -6.000  0.00  0.00     0.077 C 
ATOM      2  C1' PXY d   1      -3.208  -1.723  -1.870  0.00  0.00     0.077 C 
ATOM      3  C1  PXY d   1      -3.111  -0.671  -2.957  0.00  0.00    -0.082 A 
ATOM      4  C2  PXY d   1      -1.922  -0.281  -3.386  0.00  0.00     0.003 A 
ATOM      5  C3  PXY d   1      -1.815   0.692  -4.346  0.00  0.00     0.003 A 
ATOM      6  C4  PXY d   1      -2.939   1.234  -4.911  0.00  0.00    -0.082 A 
ATOM      7  C5  PXY d   1      -4.156   0.833  -4.486  0.00  0.00     0.003 A 
ATOM      8  C6  PXY d   1      -4.242  -0.126  -3.481  0.00  0.00     0.003 A 
ENDROOT
TORSDOF 0
ENDMDL
