MODEL 1
REMARK minimizedAffinity 7.93484163
REMARK minimizedRMSD -1
REMARK  0 active torsions:
REMARK  status: ('A' for Active; 'I' for Inactive)
ROOT
ATOM      1  C4' PXY d   1       5.999   2.973  -0.770  0.00  0.00     0.077 C 
ATOM      2  C1' PXY d   1       3.108  -2.016  -0.358  0.00  0.00     0.077 C 
ATOM      3  C1  PXY d   1       3.877  -0.713  -0.460  0.00  0.00    -0.082 A 
ATOM      4  C2  PXY d   1       3.217   0.429  -0.558  0.00  0.00     0.003 A 
ATOM      5  C3  PXY d   1       3.896   1.614  -0.683  0.00  0.00     0.003 A 
ATOM      6  C4  PXY d   1       5.265   1.634  -0.655  0.00  0.00    -0.082 A 
ATOM      7  C5  PXY d   1       5.945   0.473  -0.545  0.00  0.00     0.003 A 
ATOM      8  C6  PXY d   1       5.238  -0.722  -0.461  0.00  0.00     0.003 A 
ENDROOT
TORSDOF 0
ENDMDL
