MODEL 1
REMARK minimizedAffinity 14.7462215
REMARK minimizedRMSD -1
REMARK  0 active torsions:
REMARK  status: ('A' for Active; 'I' for Inactive)
ROOT
ATOM      1  C4' PXY d   1      -5.102   3.769  -1.156  0.00  0.00     0.077 C 
ATOM      2  C1' PXY d   1      -5.912  -0.046  -5.423  0.00  0.00     0.077 C 
ATOM      3  C1  PXY d   1      -5.690   0.961  -4.312  0.00  0.00    -0.082 A 
ATOM      4  C2  PXY d   1      -5.999   0.638  -3.066  0.00  0.00     0.003 A 
ATOM      5  C3  PXY d   1      -5.835   1.547  -2.053  0.00  0.00     0.003 A 
ATOM      6  C4  PXY d   1      -5.300   2.781  -2.309  0.00  0.00    -0.082 A 
ATOM      7  C5  PXY d   1      -4.972   3.114  -3.576  0.00  0.00     0.003 A 
ATOM      8  C6  PXY d   1      -5.185   2.191  -4.596  0.00  0.00     0.003 A 
ENDROOT
TORSDOF 0
ENDMDL
