MODEL 1
REMARK minimizedAffinity 9.58304119
REMARK minimizedRMSD -1
REMARK  0 active torsions:
REMARK  status: ('A' for Active; 'I' for Inactive)
ROOT
ATOM      1  C4' PXY d   1       3.167  -3.012   1.001  0.00  0.00     0.077 C 
ATOM      2  C1' PXY d   1       5.566   1.599  -1.529  0.00  0.00     0.077 C 
ATOM      3  C1  PXY d   1       4.949   0.383  -0.865  0.00  0.00    -0.082 A 
ATOM      4  C2  PXY d   1       3.655   0.146  -1.010  0.00  0.00     0.003 A 
ATOM      5  C3  PXY d   1       3.074  -0.931  -0.390  0.00  0.00     0.003 A 
ATOM      6  C4  PXY d   1       3.835  -1.803   0.341  0.00  0.00    -0.082 A 
ATOM      7  C5  PXY d   1       5.158  -1.573   0.484  0.00  0.00     0.003 A 
ATOM      8  C6  PXY d   1       5.720  -0.452  -0.119  0.00  0.00     0.003 A 
ENDROOT
TORSDOF 0
ENDMDL
