MODEL 1
REMARK minimizedAffinity 10.6926432
REMARK minimizedRMSD -1
REMARK  0 active torsions:
REMARK  status: ('A' for Active; 'I' for Inactive)
ROOT
ATOM      1  C4' PXY d   1       2.294  -2.737  -1.292  0.00  0.00     0.077 C 
ATOM      2  C1' PXY d   1       4.913   2.408  -0.996  0.00  0.00     0.077 C 
ATOM      3  C1  PXY d   1       4.223   1.060  -1.061  0.00  0.00    -0.082 A 
ATOM      4  C2  PXY d   1       4.561   0.197  -2.005  0.00  0.00     0.003 A 
ATOM      5  C3  PXY d   1       3.925  -1.014  -2.098  0.00  0.00     0.003 A 
ATOM      6  C4  PXY d   1       2.970  -1.368  -1.183  0.00  0.00    -0.082 A 
ATOM      7  C5  PXY d   1       2.627  -0.497  -0.210  0.00  0.00     0.003 A 
ATOM      8  C6  PXY d   1       3.256   0.744  -0.158  0.00  0.00     0.003 A 
ENDROOT
TORSDOF 0
ENDMDL
