MODEL 1
REMARK minimizedAffinity 0.619963884
REMARK minimizedRMSD -1
REMARK  0 active torsions:
REMARK  status: ('A' for Active; 'I' for Inactive)
ROOT
ATOM      1  C4' PXY d   1       0.454  -2.325  -0.577  0.00  0.00     0.077 C 
ATOM      2  C1' PXY d   1      -2.553  -3.494  -5.374  0.00  0.00     0.077 C 
ATOM      3  C1  PXY d   1      -1.771  -3.197  -4.109  0.00  0.00    -0.082 A 
ATOM      4  C2  PXY d   1      -1.205  -2.011  -3.954  0.00  0.00     0.003 A 
ATOM      5  C3  PXY d   1      -0.468  -1.736  -2.831  0.00  0.00     0.003 A 
ATOM      6  C4  PXY d   1      -0.352  -2.666  -1.833  0.00  0.00    -0.082 A 
ATOM      7  C5  PXY d   1      -0.936  -3.874  -1.979  0.00  0.00     0.003 A 
ATOM      8  C6  PXY d   1      -1.646  -4.148  -3.145  0.00  0.00     0.003 A 
ENDROOT
TORSDOF 0
ENDMDL
