MODEL 1
REMARK minimizedAffinity 7.46669674
REMARK minimizedRMSD -1
REMARK  0 active torsions:
REMARK  status: ('A' for Active; 'I' for Inactive)
ROOT
ATOM      1  C4' PXY d   1       0.244  -2.956  -1.102  0.00  0.00     0.077 C 
ATOM      2  C1' PXY d   1      -0.049   2.512   0.750  0.00  0.00     0.077 C 
ATOM      3  C1  PXY d   1       0.015   1.079   0.260  0.00  0.00    -0.082 A 
ATOM      4  C2  PXY d   1       0.892   0.244   0.794  0.00  0.00     0.003 A 
ATOM      5  C3  PXY d   1       0.985  -1.047   0.341  0.00  0.00     0.003 A 
ATOM      6  C4  PXY d   1       0.137  -1.503  -0.632  0.00  0.00    -0.082 A 
ATOM      7  C5  PXY d   1      -0.768  -0.660  -1.174  0.00  0.00     0.003 A 
ATOM      8  C6  PXY d   1      -0.819   0.657  -0.729  0.00  0.00     0.003 A 
ENDROOT
TORSDOF 0
ENDMDL
