MODEL 1
REMARK minimizedAffinity 6.04791927
REMARK minimizedRMSD -1
REMARK  0 active torsions:
REMARK  status: ('A' for Active; 'I' for Inactive)
ROOT
ATOM      1  C4' PXY d   1       2.036  -2.648  -0.914  0.00  0.00     0.077 C 
ATOM      2  C1' PXY d   1       4.961   2.338  -0.899  0.00  0.00     0.077 C 
ATOM      3  C1  PXY d   1       4.186   1.035  -0.893  0.00  0.00    -0.082 A 
ATOM      4  C2  PXY d   1       4.763  -0.071  -1.335  0.00  0.00     0.003 A 
ATOM      5  C3  PXY d   1       4.066  -1.251  -1.367  0.00  0.00     0.003 A 
ATOM      6  C4  PXY d   1       2.783  -1.311  -0.892  0.00  0.00    -0.082 A 
ATOM      7  C5  PXY d   1       2.192  -0.190  -0.430  0.00  0.00     0.003 A 
ATOM      8  C6  PXY d   1       2.902   1.007  -0.444  0.00  0.00     0.003 A 
ENDROOT
TORSDOF 0
ENDMDL
