MODEL 1
REMARK minimizedAffinity -4.3713212
REMARK minimizedRMSD -1
REMARK  2 active torsions:
REMARK  status: ('A' for Active; 'I' for Inactive)
REMARK    1  A    between atoms: C1_2  and  C2_3 
REMARK    2  A    between atoms: C2_3  and  C3_4 
ROOT
ATOM      1  C3  UNL d   1       0.594  -0.696   0.029  0.00  0.00    -0.075 A 
ATOM      2  C4  UNL d   1      -0.168  -1.781  -0.428  0.00  0.00     0.002 A 
ATOM      3  C5  UNL d   1       0.079  -3.070   0.046  0.00  0.00     0.002 A 
ATOM      4  C6  UNL d   1       1.095  -3.292   0.973  0.00  0.00    -0.004 A 
ATOM      5  C7  UNL d   1       1.870  -2.224   1.421  0.00  0.00     0.002 A 
ATOM      6  C8  UNL d   1       1.622  -0.932   0.952  0.00  0.00     0.002 A 
ENDROOT
BRANCH   1   7
ATOM      7  C2  UNL d   1       0.312   0.705  -0.458  0.00  0.00     0.056 C 
BRANCH   7   8
ATOM      8  C1  UNL d   1      -1.179   1.033  -0.585  0.00  0.00     0.007 C 
ATOM      9  C   UNL d   1      -1.506   1.877  -1.810  0.00  0.00     0.009 C 
ENDBRANCH   7   8
ENDBRANCH   1   7
TORSDOF 2
ENDMDL
