MODEL 1
REMARK minimizedAffinity -4.63483429
REMARK minimizedRMSD -1
REMARK  2 active torsions:
REMARK  status: ('A' for Active; 'I' for Inactive)
REMARK    1  A    between atoms: C1_2  and  C2_3 
REMARK    2  A    between atoms: C2_3  and  C3_4 
ROOT
ATOM      1  C3  UNL d   1      -0.768   0.137  -0.378  0.00  0.00    -0.075 A 
ATOM      2  C4  UNL d   1      -0.759  -0.954   0.502  0.00  0.00     0.002 A 
ATOM      3  C5  UNL d   1       0.447  -1.480   0.966  0.00  0.00     0.002 A 
ATOM      4  C6  UNL d   1       1.657  -0.930   0.547  0.00  0.00    -0.004 A 
ATOM      5  C7  UNL d   1       1.660   0.144  -0.340  0.00  0.00     0.002 A 
ATOM      6  C8  UNL d   1       0.454   0.675  -0.802  0.00  0.00     0.002 A 
ENDROOT
BRANCH   1   7
ATOM      7  C2  UNL d   1      -2.071   0.730  -0.860  0.00  0.00     0.056 C 
BRANCH   7   8
ATOM      8  C1  UNL d   1      -1.909   1.773  -1.970  0.00  0.00     0.007 C 
ATOM      9  C   UNL d   1      -2.100   1.198  -3.367  0.00  0.00     0.009 C 
ENDBRANCH   7   8
ENDBRANCH   1   7
TORSDOF 2
ENDMDL
