MODEL 1
REMARK minimizedAffinity -4.5746603
REMARK minimizedRMSD -1
REMARK  2 active torsions:
REMARK  status: ('A' for Active; 'I' for Inactive)
REMARK    1  A    between atoms: C1_2  and  C2_3 
REMARK    2  A    between atoms: C2_3  and  C3_4 
ROOT
ATOM      1  C3  UNL d   1       0.184   0.217  -0.261  0.00  0.00    -0.075 A 
ATOM      2  C4  UNL d   1      -0.485  -0.947   0.143  0.00  0.00     0.002 A 
ATOM      3  C5  UNL d   1       0.210  -1.982   0.770  0.00  0.00     0.002 A 
ATOM      4  C6  UNL d   1       1.580  -1.871   0.992  0.00  0.00    -0.004 A 
ATOM      5  C7  UNL d   1       2.258  -0.725   0.580  0.00  0.00     0.002 A 
ATOM      6  C8  UNL d   1       1.565   0.314  -0.043  0.00  0.00     0.002 A 
ENDROOT
BRANCH   1   7
ATOM      7  C2  UNL d   1      -0.567   1.353  -0.913  0.00  0.00     0.056 C 
BRANCH   7   8
ATOM      8  C1  UNL d   1      -1.916   0.945  -1.514  0.00  0.00     0.007 C 
ATOM      9  C   UNL d   1      -2.280   1.735  -2.765  0.00  0.00     0.009 C 
ENDBRANCH   7   8
ENDBRANCH   1   7
TORSDOF 2
ENDMDL
