MODEL 1
REMARK minimizedAffinity 1.31747997
REMARK minimizedRMSD -1
REMARK  2 active torsions:
REMARK  status: ('A' for Active; 'I' for Inactive)
REMARK    1  A    between atoms: C1_2  and  C2_3 
REMARK    2  A    between atoms: C2_3  and  C3_4 
ROOT
ATOM      1  C3  UNL d   1      -1.059   1.710  -1.571  0.00  0.00    -0.075 A 
ATOM      2  C4  UNL d   1      -1.962   0.853  -2.218  0.00  0.00     0.002 A 
ATOM      3  C5  UNL d   1      -2.604   1.254  -3.390  0.00  0.00     0.002 A 
ATOM      4  C6  UNL d   1      -2.359   2.517  -3.924  0.00  0.00    -0.004 A 
ATOM      5  C7  UNL d   1      -1.477   3.383  -3.281  0.00  0.00     0.002 A 
ATOM      6  C8  UNL d   1      -0.831   2.982  -2.110  0.00  0.00     0.002 A 
ENDROOT
BRANCH   1   7
ATOM      7  C2  UNL d   1      -0.340   1.270  -0.318  0.00  0.00     0.056 C 
BRANCH   7   8
ATOM      8  C1  UNL d   1      -1.159   0.334   0.576  0.00  0.00     0.007 C 
ATOM      9  C   UNL d   1      -0.509  -1.029   0.773  0.00  0.00     0.009 C 
ENDBRANCH   7   8
ENDBRANCH   1   7
TORSDOF 2
ENDMDL
