MODEL 1
REMARK minimizedAffinity -4.15407848
REMARK minimizedRMSD -1
REMARK  2 active torsions:
REMARK  status: ('A' for Active; 'I' for Inactive)
REMARK    1  A    between atoms: C1_2  and  C2_3 
REMARK    2  A    between atoms: C2_3  and  C3_4 
ROOT
ATOM      1  C3  UNL d   1       0.232  -0.143   0.023  0.00  0.00    -0.075 A 
ATOM      2  C4  UNL d   1      -0.208  -1.221   0.804  0.00  0.00     0.002 A 
ATOM      3  C5  UNL d   1       0.671  -2.246   1.156  0.00  0.00     0.002 A 
ATOM      4  C6  UNL d   1       1.995  -2.211   0.724  0.00  0.00    -0.004 A 
ATOM      5  C7  UNL d   1       2.438  -1.153  -0.067  0.00  0.00     0.002 A 
ATOM      6  C8  UNL d   1       1.562  -0.124  -0.417  0.00  0.00     0.002 A 
ENDROOT
BRANCH   1   7
ATOM      7  C2  UNL d   1      -0.707   0.984  -0.337  0.00  0.00     0.056 C 
BRANCH   7   8
ATOM      8  C1  UNL d   1      -1.049   1.059  -1.829  0.00  0.00     0.007 C 
ATOM      9  C   UNL d   1      -2.055   2.153  -2.160  0.00  0.00     0.009 C 
ENDBRANCH   7   8
ENDBRANCH   1   7
TORSDOF 2
ENDMDL
