MODEL 1
REMARK minimizedAffinity -1.44209981
REMARK minimizedRMSD -1
REMARK  2 active torsions:
REMARK  status: ('A' for Active; 'I' for Inactive)
REMARK    1  A    between atoms: C1_2  and  C2_3 
REMARK    2  A    between atoms: C2_3  and  C3_4 
ROOT
ATOM      1  C3  UNL d   1       0.468  -2.000   0.778  0.00  0.00    -0.075 A 
ATOM      2  C4  UNL d   1       1.733  -1.836   1.362  0.00  0.00     0.002 A 
ATOM      3  C5  UNL d   1       2.787  -1.292   0.628  0.00  0.00     0.002 A 
ATOM      4  C6  UNL d   1       2.594  -0.915  -0.700  0.00  0.00    -0.004 A 
ATOM      5  C7  UNL d   1       1.347  -1.089  -1.295  0.00  0.00     0.002 A 
ATOM      6  C8  UNL d   1       0.289  -1.629  -0.561  0.00  0.00     0.002 A 
ENDROOT
BRANCH   1   7
ATOM      7  C2  UNL d   1      -0.684  -2.561   1.576  0.00  0.00     0.056 C 
BRANCH   7   8
ATOM      8  C1  UNL d   1      -1.760  -1.528   1.929  0.00  0.00     0.007 C 
ATOM      9  C   UNL d   1      -1.265  -0.090   1.837  0.00  0.00     0.009 C 
ENDBRANCH   7   8
ENDBRANCH   1   7
TORSDOF 2
ENDMDL
