MODEL 1
REMARK minimizedAffinity -3.68117976
REMARK minimizedRMSD -1
REMARK  2 active torsions:
REMARK  status: ('A' for Active; 'I' for Inactive)
REMARK    1  A    between atoms: C1_2  and  C2_3 
REMARK    2  A    between atoms: C2_3  and  C3_4 
ROOT
ATOM      1  C3  UNL d   1      -1.267   1.041  -1.235  0.00  0.00    -0.075 A 
ATOM      2  C4  UNL d   1      -1.851   0.121  -2.119  0.00  0.00     0.002 A 
ATOM      3  C5  UNL d   1      -2.356   0.543  -3.349  0.00  0.00     0.002 A 
ATOM      4  C6  UNL d   1      -2.293   1.888  -3.707  0.00  0.00    -0.004 A 
ATOM      5  C7  UNL d   1      -1.730   2.813  -2.830  0.00  0.00     0.002 A 
ATOM      6  C8  UNL d   1      -1.221   2.393  -1.600  0.00  0.00     0.002 A 
ENDROOT
BRANCH   1   7
ATOM      7  C2  UNL d   1      -0.693   0.586   0.085  0.00  0.00     0.056 C 
BRANCH   7   8
ATOM      8  C1  UNL d   1       0.538  -0.317  -0.049  0.00  0.00     0.007 C 
ATOM      9  C   UNL d   1       0.229  -1.791   0.175  0.00  0.00     0.009 C 
ENDBRANCH   7   8
ENDBRANCH   1   7
TORSDOF 2
ENDMDL
