MODEL 1
REMARK minimizedAffinity -4.15953875
REMARK minimizedRMSD -1
REMARK  2 active torsions:
REMARK  status: ('A' for Active; 'I' for Inactive)
REMARK    1  A    between atoms: C1_2  and  C2_3 
REMARK    2  A    between atoms: C2_3  and  C3_4 
ROOT
ATOM      1  C3  UNL d   1       0.082   0.149   0.030  0.00  0.00    -0.075 A 
ATOM      2  C4  UNL d   1      -0.637  -1.043   0.199  0.00  0.00     0.002 A 
ATOM      3  C5  UNL d   1       0.027  -2.236   0.488  0.00  0.00     0.002 A 
ATOM      4  C6  UNL d   1       1.415  -2.253   0.602  0.00  0.00    -0.004 A 
ATOM      5  C7  UNL d   1       2.141  -1.078   0.420  0.00  0.00     0.002 A 
ATOM      6  C8  UNL d   1       1.479   0.117   0.135  0.00  0.00     0.002 A 
ENDROOT
BRANCH   1   7
ATOM      7  C2  UNL d   1      -0.633   1.449  -0.253  0.00  0.00     0.056 C 
BRANCH   7   8
ATOM      8  C1  UNL d   1      -1.743   1.334  -1.304  0.00  0.00     0.007 C 
ATOM      9  C   UNL d   1      -1.761   2.496  -2.288  0.00  0.00     0.009 C 
ENDBRANCH   7   8
ENDBRANCH   1   7
TORSDOF 2
ENDMDL
