MODEL 1
REMARK minimizedAffinity -3.15714526
REMARK minimizedRMSD -1
REMARK  2 active torsions:
REMARK  status: ('A' for Active; 'I' for Inactive)
REMARK    1  A    between atoms: C1_2  and  C2_3 
REMARK    2  A    between atoms: C2_3  and  C3_4 
ROOT
ATOM      1  C3  UNL d   1      -0.129   0.284  -0.121  0.00  0.00    -0.075 A 
ATOM      2  C4  UNL d   1       1.245   0.274   0.161  0.00  0.00     0.002 A 
ATOM      3  C5  UNL d   1       1.836  -0.835   0.767  0.00  0.00     0.002 A 
ATOM      4  C6  UNL d   1       1.061  -1.942   1.108  0.00  0.00    -0.004 A 
ATOM      5  C7  UNL d   1      -0.308  -1.936   0.847  0.00  0.00     0.002 A 
ATOM      6  C8  UNL d   1      -0.901  -0.829   0.237  0.00  0.00     0.002 A 
ENDROOT
BRANCH   1   7
ATOM      7  C2  UNL d   1      -0.768   1.469  -0.804  0.00  0.00     0.056 C 
BRANCH   7   8
ATOM      8  C1  UNL d   1      -2.085   1.143  -1.516  0.00  0.00     0.007 C 
ATOM      9  C   UNL d   1      -2.296   1.953  -2.788  0.00  0.00     0.009 C 
ENDBRANCH   7   8
ENDBRANCH   1   7
TORSDOF 2
ENDMDL
