MODEL 1
REMARK minimizedAffinity -3.88739562
REMARK minimizedRMSD -1
REMARK  2 active torsions:
REMARK  status: ('A' for Active; 'I' for Inactive)
REMARK    1  A    between atoms: C1_2  and  C2_3 
REMARK    2  A    between atoms: C2_3  and  C3_4 
ROOT
ATOM      1  C3  UNL d   1      -0.130  -0.028  -0.266  0.00  0.00    -0.075 A 
ATOM      2  C4  UNL d   1       1.173  -0.542  -0.323  0.00  0.00     0.002 A 
ATOM      3  C5  UNL d   1       1.517  -1.683   0.402  0.00  0.00     0.002 A 
ATOM      4  C6  UNL d   1       0.567  -2.318   1.199  0.00  0.00    -0.004 A 
ATOM      5  C7  UNL d   1      -0.726  -1.806   1.276  0.00  0.00     0.002 A 
ATOM      6  C8  UNL d   1      -1.074  -0.667   0.549  0.00  0.00     0.002 A 
ENDROOT
BRANCH   1   7
ATOM      7  C2  UNL d   1      -0.517   1.190  -1.071  0.00  0.00     0.056 C 
BRANCH   7   8
ATOM      8  C1  UNL d   1      -1.677   0.952  -2.043  0.00  0.00     0.007 C 
ATOM      9  C   UNL d   1      -1.717   1.957  -3.187  0.00  0.00     0.009 C 
ENDBRANCH   7   8
ENDBRANCH   1   7
TORSDOF 2
ENDMDL
