MODEL 1
REMARK minimizedAffinity -5.7782526
REMARK minimizedRMSD -1
REMARK  2 active torsions:
REMARK  status: ('A' for Active; 'I' for Inactive)
REMARK    1  A    between atoms: C1_2  and  C2_3 
REMARK    2  A    between atoms: C2_3  and  C3_4 
ROOT
ATOM      1  C3  UNL d   1      -0.067  -0.023  -0.045  0.00  0.00    -0.075 A 
ATOM      2  C4  UNL d   1      -0.741  -0.977   0.731  0.00  0.00     0.002 A 
ATOM      3  C5  UNL d   1      -0.044  -2.032   1.320  0.00  0.00     0.002 A 
ATOM      4  C6  UNL d   1       1.331  -2.154   1.132  0.00  0.00    -0.004 A 
ATOM      5  C7  UNL d   1       2.008  -1.222   0.348  0.00  0.00     0.002 A 
ATOM      6  C8  UNL d   1       1.314  -0.162  -0.238  0.00  0.00     0.002 A 
ENDROOT
BRANCH   1   7
ATOM      7  C2  UNL d   1      -0.811   1.138  -0.661  0.00  0.00     0.056 C 
BRANCH   7   8
ATOM      8  C1  UNL d   1      -1.651   0.761  -1.886  0.00  0.00     0.007 C 
ATOM      9  C   UNL d   1      -2.357   1.953  -2.519  0.00  0.00     0.009 C 
ENDBRANCH   7   8
ENDBRANCH   1   7
TORSDOF 2
ENDMDL
