MODEL 1
REMARK minimizedAffinity -5.48222923
REMARK minimizedRMSD -1
REMARK  2 active torsions:
REMARK  status: ('A' for Active; 'I' for Inactive)
REMARK    1  A    between atoms: C1_2  and  C2_3 
REMARK    2  A    between atoms: C2_3  and  C3_4 
ROOT
ATOM      1  C3  UNL d   1       0.145   0.015  -0.172  0.00  0.00    -0.075 A 
ATOM      2  C4  UNL d   1       1.541   0.104  -0.064  0.00  0.00     0.002 A 
ATOM      3  C5  UNL d   1       2.302  -1.028   0.230  0.00  0.00     0.002 A 
ATOM      4  C6  UNL d   1       1.679  -2.258   0.429  0.00  0.00    -0.004 A 
ATOM      5  C7  UNL d   1       0.292  -2.354   0.339  0.00  0.00     0.002 A 
ATOM      6  C8  UNL d   1      -0.472  -1.224   0.041  0.00  0.00     0.002 A 
ENDROOT
BRANCH   1   7
ATOM      7  C2  UNL d   1      -0.682   1.230  -0.519  0.00  0.00     0.056 C 
BRANCH   7   8
ATOM      8  C1  UNL d   1      -1.957   0.913  -1.308  0.00  0.00     0.007 C 
ATOM      9  C   UNL d   1      -2.227   1.900  -2.435  0.00  0.00     0.009 C 
ENDBRANCH   7   8
ENDBRANCH   1   7
TORSDOF 2
ENDMDL
