MODEL 1
REMARK minimizedAffinity -4.88448238
REMARK minimizedRMSD -1
REMARK  2 active torsions:
REMARK  status: ('A' for Active; 'I' for Inactive)
REMARK    1  A    between atoms: C1_2  and  C2_3 
REMARK    2  A    between atoms: C2_3  and  C3_4 
ROOT
ATOM      1  C3  UNL d   1       0.818  -0.229   0.301  0.00  0.00    -0.075 A 
ATOM      2  C4  UNL d   1      -0.195  -0.922   0.979  0.00  0.00     0.002 A 
ATOM      3  C5  UNL d   1       0.091  -2.104   1.663  0.00  0.00     0.002 A 
ATOM      4  C6  UNL d   1       1.388  -2.612   1.670  0.00  0.00    -0.004 A 
ATOM      5  C7  UNL d   1       2.399  -1.941   0.986  0.00  0.00     0.002 A 
ATOM      6  C8  UNL d   1       2.117  -0.755   0.304  0.00  0.00     0.002 A 
ENDROOT
BRANCH   1   7
ATOM      7  C2  UNL d   1       0.521   1.067  -0.416  0.00  0.00     0.056 C 
BRANCH   7   8
ATOM      8  C1  UNL d   1      -0.957   1.468  -0.393  0.00  0.00     0.007 C 
ATOM      9  C   UNL d   1      -1.409   2.168  -1.667  0.00  0.00     0.009 C 
ENDBRANCH   7   8
ENDBRANCH   1   7
TORSDOF 2
ENDMDL
