MODEL 1
REMARK minimizedAffinity -4.2244277
REMARK minimizedRMSD -1
REMARK  2 active torsions:
REMARK  status: ('A' for Active; 'I' for Inactive)
REMARK    1  A    between atoms: C1_2  and  C2_3 
REMARK    2  A    between atoms: C2_3  and  C3_4 
ROOT
ATOM      1  C3  UNL d   1      -0.142   0.635  -0.505  0.00  0.00    -0.075 A 
ATOM      2  C4  UNL d   1       1.168   0.181  -0.714  0.00  0.00     0.002 A 
ATOM      3  C5  UNL d   1       1.656  -0.922  -0.013  0.00  0.00     0.002 A 
ATOM      4  C6  UNL d   1       0.845  -1.578   0.910  0.00  0.00    -0.004 A 
ATOM      5  C7  UNL d   1      -0.452  -1.126   1.138  0.00  0.00     0.002 A 
ATOM      6  C8  UNL d   1      -0.944  -0.025   0.435  0.00  0.00     0.002 A 
ENDROOT
BRANCH   1   7
ATOM      7  C2  UNL d   1      -0.685   1.811  -1.281  0.00  0.00     0.056 C 
BRANCH   7   8
ATOM      8  C1  UNL d   1      -0.714   1.597  -2.798  0.00  0.00     0.007 C 
ATOM      9  C   UNL d   1      -2.123   1.452  -3.357  0.00  0.00     0.009 C 
ENDBRANCH   7   8
ENDBRANCH   1   7
TORSDOF 2
ENDMDL
