MODEL 1
REMARK minimizedAffinity 1.61532581
REMARK minimizedRMSD -1
REMARK  2 active torsions:
REMARK  status: ('A' for Active; 'I' for Inactive)
REMARK    1  A    between atoms: C1_2  and  C2_3 
REMARK    2  A    between atoms: C2_3  and  C3_4 
ROOT
ATOM      1  C3  UNL d   1      -0.766   0.360  -0.814  0.00  0.00    -0.075 A 
ATOM      2  C4  UNL d   1      -1.214  -0.867  -0.304  0.00  0.00     0.002 A 
ATOM      3  C5  UNL d   1      -0.946  -1.224   1.018  0.00  0.00     0.002 A 
ATOM      4  C6  UNL d   1      -0.221  -0.366   1.842  0.00  0.00    -0.004 A 
ATOM      5  C7  UNL d   1       0.242   0.848   1.341  0.00  0.00     0.002 A 
ATOM      6  C8  UNL d   1      -0.028   1.210   0.020  0.00  0.00     0.002 A 
ENDROOT
BRANCH   1   7
ATOM      7  C2  UNL d   1      -1.078   0.766  -2.235  0.00  0.00     0.056 C 
BRANCH   7   8
ATOM      8  C1  UNL d   1      -2.524   0.489  -2.660  0.00  0.00     0.007 C 
ATOM      9  C   UNL d   1      -2.937   1.248  -3.914  0.00  0.00     0.009 C 
ENDBRANCH   7   8
ENDBRANCH   1   7
TORSDOF 2
ENDMDL
