MODEL 1
REMARK minimizedAffinity -2.14133716
REMARK minimizedRMSD -1
REMARK  1 active torsions:
REMARK  status: ('A' for Active; 'I' for Inactive)
REMARK    1  A    between atoms: N_2  and  C1_3 
ROOT
ATOM      1  C1  UNL d   1       0.281   0.341   0.302  0.00  0.00     0.143 A 
ATOM      2  C2  UNL d   1       1.339   1.169  -0.089  0.00  0.00    -0.057 A 
ATOM      3  C3  UNL d   1       2.037   0.942  -1.282  0.00  0.00     0.033 A 
ATOM      4  C4  UNL d   1       1.706  -0.138  -2.093  0.00  0.00    -0.042 A 
ATOM      5  C5  UNL d   1       0.675  -0.989  -1.713  0.00  0.00     0.033 A 
ATOM      6  C6  UNL d   1      -0.023  -0.753  -0.524  0.00  0.00    -0.057 A 
ENDROOT
BRANCH   1   7
ATOM      7  N   UNL d   1      -0.386   0.455   1.523  0.00  0.00    -0.732 N 
ATOM      8  C   UNL d   1      -1.806   0.734   1.565  0.00  0.00     0.284 C 
ATOM      9  H3  UNL d   1      -0.079  -0.239   2.201  0.00  0.00     0.395 HD
ENDBRANCH   1   7
TORSDOF 1
ENDMDL
