MODEL 1
REMARK minimizedAffinity -4.88211489
REMARK minimizedRMSD -1
REMARK  1 active torsions:
REMARK  status: ('A' for Active; 'I' for Inactive)
REMARK    1  A    between atoms: N_2  and  C1_3 
ROOT
ATOM      1  C1  UNL d   1       0.643  -0.414  -0.661  0.00  0.00     0.143 A 
ATOM      2  C2  UNL d   1       0.761  -1.718  -1.152  0.00  0.00    -0.057 A 
ATOM      3  C3  UNL d   1       1.630  -2.021  -2.208  0.00  0.00     0.033 A 
ATOM      4  C4  UNL d   1       2.378  -1.015  -2.811  0.00  0.00    -0.042 A 
ATOM      5  C5  UNL d   1       2.258   0.294  -2.356  0.00  0.00     0.033 A 
ATOM      6  C6  UNL d   1       1.393   0.588  -1.297  0.00  0.00    -0.057 A 
ENDROOT
BRANCH   1   7
ATOM      7  N   UNL d   1      -0.276  -0.032   0.320  0.00  0.00    -0.732 N 
ATOM      8  C   UNL d   1      -0.397  -0.786   1.550  0.00  0.00     0.284 C 
ATOM      9  H3  UNL d   1      -0.314   0.977   0.445  0.00  0.00     0.395 HD
ENDBRANCH   1   7
TORSDOF 1
ENDMDL
