MODEL 1
REMARK minimizedAffinity -3.531394
REMARK minimizedRMSD -1
REMARK  1 active torsions:
REMARK  status: ('A' for Active; 'I' for Inactive)
REMARK    1  A    between atoms: N_2  and  C1_3 
ROOT
ATOM      1  C1  UNL d   1      -0.010  -0.199   0.285  0.00  0.00     0.143 A 
ATOM      2  C2  UNL d   1       0.028  -1.299  -0.579  0.00  0.00    -0.057 A 
ATOM      3  C3  UNL d   1       0.759  -1.260  -1.772  0.00  0.00     0.033 A 
ATOM      4  C4  UNL d   1       1.443  -0.105  -2.139  0.00  0.00    -0.042 A 
ATOM      5  C5  UNL d   1       1.399   1.009  -1.308  0.00  0.00     0.033 A 
ATOM      6  C6  UNL d   1       0.672   0.961  -0.114  0.00  0.00    -0.057 A 
ENDROOT
BRANCH   1   7
ATOM      7  N   UNL d   1      -0.798  -0.142   1.437  0.00  0.00    -0.732 N 
ATOM      8  C   UNL d   1      -2.238  -0.037   1.341  0.00  0.00     0.284 C 
ATOM      9  H3  UNL d   1      -0.475  -0.780   2.161  0.00  0.00     0.395 HD
ENDBRANCH   1   7
TORSDOF 1
ENDMDL
