MODEL 1
REMARK minimizedAffinity -2.08260822
REMARK minimizedRMSD -1
REMARK  1 active torsions:
REMARK  status: ('A' for Active; 'I' for Inactive)
REMARK    1  A    between atoms: N_2  and  C1_3 
ROOT
ATOM      1  C1  UNL d   1       0.239  -0.769  -0.797  0.00  0.00     0.143 A 
ATOM      2  C2  UNL d   1       0.108  -1.419  -2.028  0.00  0.00    -0.057 A 
ATOM      3  C3  UNL d   1       0.816  -0.989  -3.156  0.00  0.00     0.033 A 
ATOM      4  C4  UNL d   1       1.650   0.122  -3.079  0.00  0.00    -0.042 A 
ATOM      5  C5  UNL d   1       1.776   0.800  -1.872  0.00  0.00     0.033 A 
ATOM      6  C6  UNL d   1       1.071   0.361  -0.747  0.00  0.00    -0.057 A 
ENDROOT
BRANCH   1   7
ATOM      7  N   UNL d   1      -0.514  -1.088   0.336  0.00  0.00    -0.732 N 
ATOM      8  C   UNL d   1      -1.169  -0.050   1.103  0.00  0.00     0.284 C 
ATOM      9  H3  UNL d   1      -1.076  -1.926   0.205  0.00  0.00     0.395 HD
ENDBRANCH   1   7
TORSDOF 1
ENDMDL
