MODEL 1
REMARK minimizedAffinity -5.19492769
REMARK minimizedRMSD -1
REMARK  1 active torsions:
REMARK  status: ('A' for Active; 'I' for Inactive)
REMARK    1  A    between atoms: N_2  and  C1_3 
ROOT
ATOM      1  C1  UNL d   1       0.455  -0.668  -0.320  0.00  0.00     0.143 A 
ATOM      2  C2  UNL d   1       1.040   0.568  -0.616  0.00  0.00    -0.057 A 
ATOM      3  C3  UNL d   1       1.825   0.744  -1.762  0.00  0.00     0.033 A 
ATOM      4  C4  UNL d   1       2.064  -0.325  -2.620  0.00  0.00    -0.042 A 
ATOM      5  C5  UNL d   1       1.513  -1.569  -2.332  0.00  0.00     0.033 A 
ATOM      6  C6  UNL d   1       0.725  -1.737  -1.189  0.00  0.00    -0.057 A 
ENDROOT
BRANCH   1   7
ATOM      7  N   UNL d   1      -0.254  -0.931   0.855  0.00  0.00    -0.732 N 
ATOM      8  C   UNL d   1      -0.994   0.119   1.520  0.00  0.00     0.284 C 
ATOM      9  H3  UNL d   1      -0.738  -1.826   0.824  0.00  0.00     0.395 HD
ENDBRANCH   1   7
TORSDOF 1
ENDMDL
