MODEL 1
REMARK minimizedAffinity -2.59334826
REMARK minimizedRMSD -1
REMARK  1 active torsions:
REMARK  status: ('A' for Active; 'I' for Inactive)
REMARK    1  A    between atoms: N_2  and  C1_3 
ROOT
ATOM      1  C1  UNL d   1      -0.426  -0.019   0.315  0.00  0.00     0.143 A 
ATOM      2  C2  UNL d   1       0.382   1.043  -0.103  0.00  0.00    -0.057 A 
ATOM      3  C3  UNL d   1       1.188   0.938  -1.243  0.00  0.00     0.033 A 
ATOM      4  C4  UNL d   1       1.221  -0.247  -1.971  0.00  0.00    -0.042 A 
ATOM      5  C5  UNL d   1       0.445  -1.324  -1.560  0.00  0.00     0.033 A 
ATOM      6  C6  UNL d   1      -0.363  -1.211  -0.424  0.00  0.00    -0.057 A 
ENDROOT
BRANCH   1   7
ATOM      7  N   UNL d   1      -1.174  -0.010   1.495  0.00  0.00    -0.732 N 
ATOM      8  C   UNL d   1      -2.600   0.235   1.463  0.00  0.00     0.284 C 
ATOM      9  H3  UNL d   1      -0.893  -0.747   2.139  0.00  0.00     0.395 HD
ENDBRANCH   1   7
TORSDOF 1
ENDMDL
