MODEL 1
REMARK minimizedAffinity -4.65459681
REMARK minimizedRMSD -1
REMARK  1 active torsions:
REMARK  status: ('A' for Active; 'I' for Inactive)
REMARK    1  A    between atoms: N_2  and  C1_3 
ROOT
ATOM      1  C1  UNL d   1      -0.566   0.100   0.816  0.00  0.00     0.143 A 
ATOM      2  C2  UNL d   1      -0.150  -1.226   0.650  0.00  0.00    -0.057 A 
ATOM      3  C3  UNL d   1       0.536  -1.633  -0.500  0.00  0.00     0.033 A 
ATOM      4  C4  UNL d   1       0.794  -0.725  -1.522  0.00  0.00    -0.042 A 
ATOM      5  C5  UNL d   1       0.367   0.592  -1.390  0.00  0.00     0.033 A 
ATOM      6  C6  UNL d   1      -0.312   0.994  -0.236  0.00  0.00    -0.057 A 
ENDROOT
BRANCH   1   7
ATOM      7  N   UNL d   1      -1.339   0.544   1.892  0.00  0.00    -0.732 N 
ATOM      8  C   UNL d   1      -2.775   0.674   1.764  0.00  0.00     0.284 C 
ATOM      9  H3  UNL d   1      -1.034   0.148   2.778  0.00  0.00     0.395 HD
ENDBRANCH   1   7
TORSDOF 1
ENDMDL
