MODEL 1
REMARK minimizedAffinity -2.4868269
REMARK minimizedRMSD -1
REMARK  1 active torsions:
REMARK  status: ('A' for Active; 'I' for Inactive)
REMARK    1  A    between atoms: N_2  and  C1_3 
ROOT
ATOM      1  C1  UNL d   1       0.811  -0.573  -1.506  0.00  0.00     0.143 A 
ATOM      2  C2  UNL d   1       0.844  -1.871  -0.985  0.00  0.00    -0.057 A 
ATOM      3  C3  UNL d   1       0.313  -2.160   0.278  0.00  0.00     0.033 A 
ATOM      4  C4  UNL d   1      -0.236  -1.147   1.057  0.00  0.00    -0.042 A 
ATOM      5  C5  UNL d   1      -0.256   0.155   0.570  0.00  0.00     0.033 A 
ATOM      6  C6  UNL d   1       0.270   0.436  -0.695  0.00  0.00    -0.057 A 
ENDROOT
BRANCH   1   7
ATOM      7  N   UNL d   1       1.411  -0.204  -2.713  0.00  0.00    -0.732 N 
ATOM      8  C   UNL d   1       2.825   0.095  -2.772  0.00  0.00     0.284 C 
ATOM      9  H3  UNL d   1       1.068  -0.750  -3.500  0.00  0.00     0.395 HD
ENDBRANCH   1   7
TORSDOF 1
ENDMDL
