MODEL 1
REMARK minimizedAffinity -3.68245912
REMARK minimizedRMSD -1
REMARK  1 active torsions:
REMARK  status: ('A' for Active; 'I' for Inactive)
REMARK    1  A    between atoms: N_2  and  C1_3 
ROOT
ATOM      1  C1  UNL d   1       0.318   0.048  -0.643  0.00  0.00     0.143 A 
ATOM      2  C2  UNL d   1       1.463   0.850  -0.697  0.00  0.00    -0.057 A 
ATOM      3  C3  UNL d   1       2.098   1.125  -1.914  0.00  0.00     0.033 A 
ATOM      4  C4  UNL d   1       1.615   0.579  -3.098  0.00  0.00    -0.042 A 
ATOM      5  C5  UNL d   1       0.492  -0.241  -3.064  0.00  0.00     0.033 A 
ATOM      6  C6  UNL d   1      -0.142  -0.508  -1.847  0.00  0.00    -0.057 A 
ENDROOT
BRANCH   1   7
ATOM      7  N   UNL d   1      -0.302  -0.343   0.547  0.00  0.00    -0.732 N 
ATOM      8  C   UNL d   1      -0.073  -1.661   1.098  0.00  0.00     0.284 C 
ATOM      9  H3  UNL d   1      -0.316   0.401   1.241  0.00  0.00     0.395 HD
ENDBRANCH   1   7
TORSDOF 1
ENDMDL
