MODEL 1
REMARK minimizedAffinity 11.0771961
REMARK minimizedRMSD -1
REMARK  1 active torsions:
REMARK  status: ('A' for Active; 'I' for Inactive)
REMARK    1  A    between atoms: C1_2  and  C2_3 
ROOT
ATOM      1  C2  UNL d   1       0.314   0.652   3.337  0.00  0.00    -0.081 A 
ATOM      2  C3  UNL d   1      -0.562   0.534   2.251  0.00  0.00     0.006 A 
ATOM      3  C4  UNL d   1      -1.160   1.669   1.698  0.00  0.00     0.002 A 
ATOM      4  C5  UNL d   1      -0.886   2.939   2.214  0.00  0.00    -0.080 A 
ATOM      5  C6  UNL d   1      -1.498   4.168   1.609  0.00  0.00     0.076 C 
ATOM      6  C7  UNL d   1      -0.024   3.056   3.309  0.00  0.00     0.002 A 
ATOM      7  C8  UNL d   1       0.574   1.922   3.864  0.00  0.00     0.006 A 
ENDROOT
BRANCH   1   8
ATOM      8  C1  UNL d   1       1.011  -0.562   3.895  0.00  0.00     0.054 C 
ATOM      9  C   UNL d   1       0.441  -1.845   3.308  0.00  0.00     0.018 C 
ENDBRANCH   1   8
TORSDOF 1
ENDMDL
