MODEL 1
REMARK minimizedAffinity 1.78589928
REMARK minimizedRMSD -1
REMARK  1 active torsions:
REMARK  status: ('A' for Active; 'I' for Inactive)
REMARK    1  A    between atoms: C1_2  and  C2_3 
ROOT
ATOM      1  C2  UNL d   1      -1.867   1.944   2.049  0.00  0.00    -0.081 A 
ATOM      2  C3  UNL d   1      -3.207   1.571   1.894  0.00  0.00     0.006 A 
ATOM      3  C4  UNL d   1      -4.182   2.532   1.616  0.00  0.00     0.002 A 
ATOM      4  C5  UNL d   1      -3.833   3.880   1.482  0.00  0.00    -0.080 A 
ATOM      5  C6  UNL d   1      -4.865   4.917   1.154  0.00  0.00     0.076 C 
ATOM      6  C7  UNL d   1      -2.496   4.255   1.655  0.00  0.00     0.002 A 
ATOM      7  C8  UNL d   1      -1.521   3.295   1.933  0.00  0.00     0.006 A 
ENDROOT
BRANCH   1   8
ATOM      8  C1  UNL d   1      -0.803   0.902   2.285  0.00  0.00     0.054 C 
ATOM      9  C   UNL d   1       0.000   1.206   3.541  0.00  0.00     0.018 C 
ENDBRANCH   1   8
TORSDOF 1
ENDMDL
