MODEL 1
REMARK minimizedAffinity 5.03258038
REMARK minimizedRMSD -1
REMARK  1 active torsions:
REMARK  status: ('A' for Active; 'I' for Inactive)
REMARK    1  A    between atoms: C1_2  and  C2_3 
ROOT
ATOM      1  C2  UNL d   1       3.100  -1.343  -0.035  0.00  0.00    -0.081 A 
ATOM      2  C3  UNL d   1       4.282  -1.342   0.716  0.00  0.00     0.006 A 
ATOM      3  C4  UNL d   1       5.228  -0.328   0.547  0.00  0.00     0.002 A 
ATOM      4  C5  UNL d   1       5.005   0.705  -0.369  0.00  0.00    -0.080 A 
ATOM      5  C6  UNL d   1       5.998   1.816  -0.538  0.00  0.00     0.076 C 
ATOM      6  C7  UNL d   1       3.832   0.695  -1.132  0.00  0.00     0.002 A 
ATOM      7  C8  UNL d   1       2.886  -0.318  -0.964  0.00  0.00     0.006 A 
ENDROOT
BRANCH   1   8
ATOM      8  C1  UNL d   1       2.049  -2.399   0.191  0.00  0.00     0.054 C 
ATOM      9  C   UNL d   1       1.514  -2.939  -1.127  0.00  0.00     0.018 C 
ENDBRANCH   1   8
TORSDOF 1
ENDMDL
