MODEL 1
REMARK minimizedAffinity 8.19789791
REMARK minimizedRMSD -1
REMARK  1 active torsions:
REMARK  status: ('A' for Active; 'I' for Inactive)
REMARK    1  A    between atoms: C1_2  and  C2_3 
ROOT
ATOM      1  C2  UNL d   1      -5.648   3.808  -3.387  0.00  0.00    -0.081 A 
ATOM      2  C3  UNL d   1      -5.747   2.539  -3.970  0.00  0.00     0.006 A 
ATOM      3  C4  UNL d   1      -5.845   1.398  -3.170  0.00  0.00     0.002 A 
ATOM      4  C5  UNL d   1      -5.854   1.508  -1.775  0.00  0.00    -0.080 A 
ATOM      5  C6  UNL d   1      -5.990   0.293  -0.905  0.00  0.00     0.076 C 
ATOM      6  C7  UNL d   1      -5.738   2.774  -1.192  0.00  0.00     0.002 A 
ATOM      7  C8  UNL d   1      -5.639   3.915  -1.992  0.00  0.00     0.006 A 
ENDROOT
BRANCH   1   8
ATOM      8  C1  UNL d   1      -5.607   5.046  -4.247  0.00  0.00     0.054 C 
ATOM      9  C   UNL d   1      -4.196   5.610  -4.337  0.00  0.00     0.018 C 
ENDBRANCH   1   8
TORSDOF 1
ENDMDL
