MODEL 1
REMARK minimizedAffinity 10.3951263
REMARK minimizedRMSD -1
REMARK  1 active torsions:
REMARK  status: ('A' for Active; 'I' for Inactive)
REMARK    1  A    between atoms: C1_2  and  C2_3 
ROOT
ATOM      1  C2  UNL d   1       1.770   1.274   0.460  0.00  0.00    -0.081 A 
ATOM      2  C3  UNL d   1       1.420   1.236   1.815  0.00  0.00     0.006 A 
ATOM      3  C4  UNL d   1       0.111   1.511   2.217  0.00  0.00     0.002 A 
ATOM      4  C5  UNL d   1      -0.871   1.821   1.270  0.00  0.00    -0.080 A 
ATOM      5  C6  UNL d   1      -2.288   2.089   1.686  0.00  0.00     0.076 C 
ATOM      6  C7  UNL d   1      -0.518   1.876  -0.082  0.00  0.00     0.002 A 
ATOM      7  C8  UNL d   1       0.791   1.602  -0.484  0.00  0.00     0.006 A 
ENDROOT
BRANCH   1   8
ATOM      8  C1  UNL d   1       3.166   0.915   0.018  0.00  0.00     0.054 C 
ATOM      9  C   UNL d   1       4.072   2.137   0.000  0.00  0.00     0.018 C 
ENDBRANCH   1   8
TORSDOF 1
ENDMDL
