MODEL 1
REMARK minimizedAffinity 13.8907976
REMARK minimizedRMSD -1
REMARK  0 active torsions:
REMARK  status: ('A' for Active; 'I' for Inactive)
ROOT
ATOM      1  N1  IND d   1       3.461   0.016  -1.875  0.00  0.00    -0.196 N 
ATOM      2  C2  IND d   1       2.928  -0.844  -0.955  0.00  0.00     0.054 A 
ATOM      3  C3  IND d   1       3.478  -0.632   0.261  0.00  0.00    -0.031 A 
ATOM      4  C4  IND d   1       5.195   1.142   0.993  0.00  0.00     0.051 A 
ATOM      5  C5  IND d   1       6.000   2.130   0.500  0.00  0.00    -0.031 A 
ATOM      6  C6  IND d   1       5.998   2.473  -0.837  0.00  0.00     0.015 A 
ATOM      7  C7  IND d   1       5.178   1.845  -1.732  0.00  0.00    -0.016 A 
ATOM      8  C8  IND d   1       4.365   0.836  -1.236  0.00  0.00    -0.047 A 
ATOM      9  C9  IND d   1       4.393   0.455   0.112  0.00  0.00    -0.096 A 
ATOM     10  HN1 IND d   1       3.264   0.041  -2.711  0.00  0.00     0.298 HD
ENDROOT
TORSDOF 0
ENDMDL
