MODEL 1
REMARK minimizedAffinity 17.0735989
REMARK minimizedRMSD -1
REMARK  0 active torsions:
REMARK  status: ('A' for Active; 'I' for Inactive)
ROOT
ATOM      1  N1  IND d   1       1.952  -4.087  -0.073  0.00  0.00    -0.196 N 
ATOM      2  C2  IND d   1       2.642  -3.122  -0.753  0.00  0.00     0.054 A 
ATOM      3  C3  IND d   1       1.925  -2.694  -1.817  0.00  0.00    -0.031 A 
ATOM      4  C4  IND d   1      -0.443  -3.365  -2.572  0.00  0.00     0.051 A 
ATOM      5  C5  IND d   1      -1.457  -4.236  -2.289  0.00  0.00    -0.031 A 
ATOM      6  C6  IND d   1      -1.386  -5.118  -1.229  0.00  0.00     0.015 A 
ATOM      7  C7  IND d   1      -0.299  -5.154  -0.404  0.00  0.00    -0.016 A 
ATOM      8  C8  IND d   1       0.736  -4.275  -0.692  0.00  0.00    -0.047 A 
ATOM      9  C9  IND d   1       0.688  -3.408  -1.791  0.00  0.00    -0.096 A 
ATOM     10  HN1 IND d   1       2.232  -4.505   0.624  0.00  0.00     0.298 HD
ENDROOT
TORSDOF 0
ENDMDL
