MODEL 1
REMARK minimizedAffinity 7.71419859
REMARK minimizedRMSD -1
REMARK  0 active torsions:
REMARK  status: ('A' for Active; 'I' for Inactive)
ROOT
ATOM      1  N1  IND d   1      -1.808  -2.207   5.922  0.00  0.00    -0.196 N 
ATOM      2  C2  IND d   1      -0.644  -1.489   5.942  0.00  0.00     0.054 A 
ATOM      3  C3  IND d   1       0.420  -2.320   5.998  0.00  0.00    -0.031 A 
ATOM      4  C4  IND d   1       0.490  -4.893   5.964  0.00  0.00     0.051 A 
ATOM      5  C5  IND d   1      -0.321  -5.993   5.988  0.00  0.00    -0.031 A 
ATOM      6  C6  IND d   1      -1.696  -5.885   5.989  0.00  0.00     0.015 A 
ATOM      7  C7  IND d   1      -2.315  -4.668   5.954  0.00  0.00    -0.016 A 
ATOM      8  C8  IND d   1      -1.495  -3.549   5.937  0.00  0.00    -0.047 A 
ATOM      9  C9  IND d   1      -0.099  -3.651   5.979  0.00  0.00    -0.096 A 
ATOM     10  HN1 IND d   1      -2.601  -1.876   5.905  0.00  0.00     0.298 HD
ENDROOT
TORSDOF 0
ENDMDL
