MODEL 1
REMARK minimizedAffinity 6.2859993
REMARK minimizedRMSD -1
REMARK  0 active torsions:
REMARK  status: ('A' for Active; 'I' for Inactive)
ROOT
ATOM      1  N1  IND d   1      -3.037   2.326  -5.904  0.00  0.00    -0.196 N 
ATOM      2  C2  IND d   1      -2.638   1.029  -5.743  0.00  0.00     0.054 A 
ATOM      3  C3  IND d   1      -3.354   0.435  -4.761  0.00  0.00    -0.031 A 
ATOM      4  C4  IND d   1      -5.298   1.374  -3.359  0.00  0.00     0.051 A 
ATOM      5  C5  IND d   1      -5.997   2.523  -3.120  0.00  0.00    -0.031 A 
ATOM      6  C6  IND d   1      -5.742   3.689  -3.813  0.00  0.00     0.015 A 
ATOM      7  C7  IND d   1      -4.782   3.745  -4.783  0.00  0.00    -0.016 A 
ATOM      8  C8  IND d   1      -4.065   2.582  -5.023  0.00  0.00    -0.047 A 
ATOM      9  C9  IND d   1      -4.290   1.407  -4.293  0.00  0.00    -0.096 A 
ATOM     10  HN1 IND d   1      -2.703   2.888  -6.462  0.00  0.00     0.298 HD
ENDROOT
TORSDOF 0
ENDMDL
