MODEL 1
REMARK minimizedAffinity 3.75600195
REMARK minimizedRMSD -1
REMARK  0 active torsions:
REMARK  status: ('A' for Active; 'I' for Inactive)
ROOT
ATOM      1  N1  IND d   1      -1.440   0.869  -3.603  0.00  0.00    -0.196 N 
ATOM      2  C2  IND d   1      -1.475   0.086  -2.483  0.00  0.00     0.054 A 
ATOM      3  C3  IND d   1      -2.649  -0.581  -2.412  0.00  0.00    -0.031 A 
ATOM      4  C4  IND d   1      -4.612  -0.618  -4.078  0.00  0.00     0.051 A 
ATOM      5  C5  IND d   1      -5.056  -0.036  -5.232  0.00  0.00    -0.031 A 
ATOM      6  C6  IND d   1      -4.301   0.893  -5.918  0.00  0.00     0.015 A 
ATOM      7  C7  IND d   1      -3.063   1.269  -5.478  0.00  0.00    -0.016 A 
ATOM      8  C8  IND d   1      -2.612   0.686  -4.303  0.00  0.00    -0.047 A 
ATOM      9  C9  IND d   1      -3.392  -0.226  -3.580  0.00  0.00    -0.096 A 
ATOM     10  HN1 IND d   1      -0.793   1.388  -3.832  0.00  0.00     0.298 HD
ENDROOT
TORSDOF 0
ENDMDL
