MODEL 1
REMARK minimizedAffinity 7.37589169
REMARK minimizedRMSD -1
REMARK  0 active torsions:
REMARK  status: ('A' for Active; 'I' for Inactive)
ROOT
ATOM      1  N1  IND d   1       3.880   0.218  -2.134  0.00  0.00    -0.196 N 
ATOM      2  C2  IND d   1       3.433  -0.729  -1.256  0.00  0.00     0.054 A 
ATOM      3  C3  IND d   1       3.883  -0.464  -0.009  0.00  0.00    -0.031 A 
ATOM      4  C4  IND d   1       5.282   1.524   0.836  0.00  0.00     0.051 A 
ATOM      5  C5  IND d   1       5.959   2.628   0.400  0.00  0.00    -0.031 A 
ATOM      6  C6  IND d   1       5.975   2.995  -0.931  0.00  0.00     0.015 A 
ATOM      7  C7  IND d   1       5.303   2.273  -1.876  0.00  0.00    -0.016 A 
ATOM      8  C8  IND d   1       4.621   1.147  -1.437  0.00  0.00    -0.047 A 
ATOM      9  C9  IND d   1       4.636   0.747  -0.095  0.00  0.00    -0.096 A 
ATOM     10  HN1 IND d   1       3.725   0.231  -2.980  0.00  0.00     0.298 HD
ENDROOT
TORSDOF 0
ENDMDL
