MODEL 1
REMARK minimizedAffinity 7.82806969
REMARK minimizedRMSD -1
REMARK  0 active torsions:
REMARK  status: ('A' for Active; 'I' for Inactive)
ROOT
ATOM      1  N1  IND d   1       2.808  -0.085  -1.444  0.00  0.00    -0.196 N 
ATOM      2  C2  IND d   1       2.611  -0.928  -0.385  0.00  0.00     0.054 A 
ATOM      3  C3  IND d   1       3.536  -0.701   0.575  0.00  0.00    -0.031 A 
ATOM      4  C4  IND d   1       5.401   1.071   0.662  0.00  0.00     0.051 A 
ATOM      5  C5  IND d   1       5.998   2.045  -0.088  0.00  0.00    -0.031 A 
ATOM      6  C6  IND d   1       5.551   2.367  -1.353  0.00  0.00     0.015 A 
ATOM      7  C7  IND d   1       4.479   1.732  -1.913  0.00  0.00    -0.016 A 
ATOM      8  C8  IND d   1       3.875   0.738  -1.157  0.00  0.00    -0.047 A 
ATOM      9  C9  IND d   1       4.351   0.377   0.111  0.00  0.00    -0.096 A 
ATOM     10  HN1 IND d   1       2.344  -0.072  -2.167  0.00  0.00     0.298 HD
ENDROOT
TORSDOF 0
ENDMDL
