MODEL 1
REMARK minimizedAffinity 13.3030109
REMARK minimizedRMSD -1
REMARK  0 active torsions:
REMARK  status: ('A' for Active; 'I' for Inactive)
ROOT
ATOM      1  N1  IND d   1       1.905  -3.029   4.247  0.00  0.00    -0.196 N 
ATOM      2  C2  IND d   1       1.132  -2.395   3.315  0.00  0.00     0.054 A 
ATOM      3  C3  IND d   1      -0.057  -3.025   3.182  0.00  0.00    -0.031 A 
ATOM      4  C4  IND d   1      -0.985  -5.054   4.467  0.00  0.00     0.051 A 
ATOM      5  C5  IND d   1      -0.632  -5.997   5.391  0.00  0.00    -0.031 A 
ATOM      6  C6  IND d   1       0.609  -5.997   5.995  0.00  0.00     0.015 A 
ATOM      7  C7  IND d   1       1.543  -5.044   5.704  0.00  0.00    -0.016 A 
ATOM      8  C8  IND d   1       1.191  -4.088   4.761  0.00  0.00    -0.047 A 
ATOM      9  C9  IND d   1      -0.051  -4.108   4.114  0.00  0.00    -0.096 A 
ATOM     10  HN1 IND d   1       2.704  -2.804   4.473  0.00  0.00     0.298 HD
ENDROOT
TORSDOF 0
ENDMDL
