MODEL 1
REMARK minimizedAffinity 10.3052521
REMARK minimizedRMSD -1
REMARK  0 active torsions:
REMARK  status: ('A' for Active; 'I' for Inactive)
ROOT
ATOM      1  N1  IND d   1       0.748   5.348   2.709  0.00  0.00    -0.196 N 
ATOM      2  C2  IND d   1       1.950   5.181   3.339  0.00  0.00     0.054 A 
ATOM      3  C3  IND d   1       2.352   3.894   3.250  0.00  0.00    -0.031 A 
ATOM      4  C4  IND d   1       1.246   1.914   2.031  0.00  0.00     0.051 A 
ATOM      5  C5  IND d   1       0.118   1.568   1.343  0.00  0.00    -0.031 A 
ATOM      6  C6  IND d   1      -0.877   2.483   1.067  0.00  0.00     0.015 A 
ATOM      7  C7  IND d   1      -0.775   3.787   1.461  0.00  0.00    -0.016 A 
ATOM      8  C8  IND d   1       0.366   4.141   2.166  0.00  0.00    -0.047 A 
ATOM      9  C9  IND d   1       1.360   3.207   2.486  0.00  0.00    -0.096 A 
ATOM     10  HN1 IND d   1       0.305   6.083   2.660  0.00  0.00     0.298 HD
ENDROOT
TORSDOF 0
ENDMDL
