MODEL 1
REMARK minimizedAffinity 7.08469725
REMARK minimizedRMSD -1
REMARK  0 active torsions:
REMARK  status: ('A' for Active; 'I' for Inactive)
ROOT
ATOM      1  N1  IND d   1      -4.153   1.546   0.994  0.00  0.00    -0.196 N 
ATOM      2  C2  IND d   1      -4.912   0.910   0.051  0.00  0.00     0.054 A 
ATOM      3  C3  IND d   1      -4.133   0.477  -0.965  0.00  0.00    -0.031 A 
ATOM      4  C4  IND d   1      -1.576   0.613  -1.239  0.00  0.00     0.051 A 
ATOM      5  C5  IND d   1      -0.457   1.135  -0.654  0.00  0.00    -0.031 A 
ATOM      6  C6  IND d   1      -0.513   1.832   0.535  0.00  0.00     0.015 A 
ATOM      7  C7  IND d   1      -1.695   2.025   1.193  0.00  0.00    -0.016 A 
ATOM      8  C8  IND d   1      -2.835   1.502   0.599  0.00  0.00    -0.047 A 
ATOM      9  C9  IND d   1      -2.790   0.830  -0.629  0.00  0.00    -0.096 A 
ATOM     10  HN1 IND d   1      -4.450   1.912   1.714  0.00  0.00     0.298 HD
ENDROOT
TORSDOF 0
ENDMDL
