MODEL 1
REMARK minimizedAffinity -0.522742808
REMARK minimizedRMSD -1
REMARK  0 active torsions:
REMARK  status: ('A' for Active; 'I' for Inactive)
ROOT
ATOM      1  C   UNL d   1       1.895   1.874  -0.775  0.00  0.00     0.172 C 
ATOM      2  N   UNL d   1       0.968   0.767  -0.764  0.00  0.00    -0.070 N 
ATOM      3  C1  UNL d   1       0.268   0.323   0.326  0.00  0.00    -0.004 A 
ATOM      4  C2  UNL d   1      -0.503  -0.747  -0.075  0.00  0.00    -0.047 A 
ATOM      5  C3  UNL d   1      -0.257  -0.953  -1.453  0.00  0.00    -0.047 A 
ATOM      6  C4  UNL d   1       0.658  -0.002  -1.854  0.00  0.00    -0.004 A 
ENDROOT
TORSDOF 0
ENDMDL
