MODEL 1
REMARK minimizedAffinity -0.725490034
REMARK minimizedRMSD -1
REMARK  0 active torsions:
REMARK  status: ('A' for Active; 'I' for Inactive)
ROOT
ATOM      1  C   UNL d   1      -4.615   0.834  -5.999  0.00  0.00     0.172 C 
ATOM      2  N   UNL d   1      -4.551   2.276  -5.994  0.00  0.00    -0.070 N 
ATOM      3  C1  UNL d   1      -3.405   3.025  -5.999  0.00  0.00    -0.004 A 
ATOM      4  C2  UNL d   1      -3.769   4.354  -5.992  0.00  0.00    -0.047 A 
ATOM      5  C3  UNL d   1      -5.183   4.406  -5.980  0.00  0.00    -0.047 A 
ATOM      6  C4  UNL d   1      -5.642   3.105  -5.982  0.00  0.00    -0.004 A 
ENDROOT
TORSDOF 0
ENDMDL
