MODEL 1
REMARK minimizedAffinity -0.363928854
REMARK minimizedRMSD -1
REMARK  0 active torsions:
REMARK  status: ('A' for Active; 'I' for Inactive)
ROOT
ATOM      1  C   UNL d   1      -5.894   0.786  -5.908  0.00  0.00     0.172 C 
ATOM      2  N   UNL d   1      -5.265   2.085  -5.931  0.00  0.00    -0.070 N 
ATOM      3  C1  UNL d   1      -3.917   2.319  -5.997  0.00  0.00    -0.004 A 
ATOM      4  C2  UNL d   1      -3.725   3.684  -5.998  0.00  0.00    -0.047 A 
ATOM      5  C3  UNL d   1      -5.001   4.291  -5.928  0.00  0.00    -0.047 A 
ATOM      6  C4  UNL d   1      -5.936   3.279  -5.888  0.00  0.00    -0.004 A 
ENDROOT
TORSDOF 0
ENDMDL
