MODEL 1
REMARK minimizedAffinity -1.69095063
REMARK minimizedRMSD -1
REMARK  0 active torsions:
REMARK  status: ('A' for Active; 'I' for Inactive)
ROOT
ATOM      1  C   UNL d   1      -5.991   5.774  -5.774  0.00  0.00     0.172 C 
ATOM      2  N   UNL d   1      -5.032   4.698  -5.862  0.00  0.00    -0.070 N 
ATOM      3  C1  UNL d   1      -3.672   4.843  -5.917  0.00  0.00    -0.004 A 
ATOM      4  C2  UNL d   1      -3.116   3.584  -5.995  0.00  0.00    -0.047 A 
ATOM      5  C3  UNL d   1      -4.179   2.650  -5.988  0.00  0.00    -0.047 A 
ATOM      6  C4  UNL d   1      -5.354   3.367  -5.906  0.00  0.00    -0.004 A 
ENDROOT
TORSDOF 0
ENDMDL
