MODEL 1
REMARK minimizedAffinity -2.01905775
REMARK minimizedRMSD -1
REMARK  0 active torsions:
REMARK  status: ('A' for Active; 'I' for Inactive)
ROOT
ATOM      1  C   UNL d   1      -2.399   3.769  -6.000  0.00  0.00     0.172 C 
ATOM      2  N   UNL d   1      -3.834   3.901  -5.903  0.00  0.00    -0.070 N 
ATOM      3  C1  UNL d   1      -4.738   2.877  -5.997  0.00  0.00    -0.004 A 
ATOM      4  C2  UNL d   1      -6.000   3.413  -5.853  0.00  0.00    -0.047 A 
ATOM      5  C3  UNL d   1      -5.849   4.808  -5.667  0.00  0.00    -0.047 A 
ATOM      6  C4  UNL d   1      -4.498   5.083  -5.703  0.00  0.00    -0.004 A 
ENDROOT
TORSDOF 0
ENDMDL
