MODEL 1
REMARK minimizedAffinity 1.79935455
REMARK minimizedRMSD -1
REMARK  0 active torsions:
REMARK  status: ('A' for Active; 'I' for Inactive)
ROOT
ATOM      1  C   UNL d   1      -2.095   1.906  -5.999  0.00  0.00     0.172 C 
ATOM      2  N   UNL d   1      -3.353   2.615  -5.997  0.00  0.00    -0.070 N 
ATOM      3  C1  UNL d   1      -3.503   3.976  -5.993  0.00  0.00    -0.004 A 
ATOM      4  C2  UNL d   1      -4.853   4.253  -5.994  0.00  0.00    -0.047 A 
ATOM      5  C3  UNL d   1      -5.539   3.015  -5.997  0.00  0.00    -0.047 A 
ATOM      6  C4  UNL d   1      -4.586   2.018  -5.999  0.00  0.00    -0.004 A 
ENDROOT
TORSDOF 0
ENDMDL
