MODEL 1
REMARK minimizedAffinity -0.881084204
REMARK minimizedRMSD -1
REMARK  0 active torsions:
REMARK  status: ('A' for Active; 'I' for Inactive)
ROOT
ATOM      1  C   UNL d   1      -2.992   4.347  -6.000  0.00  0.00     0.172 C 
ATOM      2  N   UNL d   1      -3.647   3.060  -6.000  0.00  0.00    -0.070 N 
ATOM      3  C1  UNL d   1      -5.001   2.853  -5.999  0.00  0.00    -0.004 A 
ATOM      4  C2  UNL d   1      -5.220   1.493  -6.000  0.00  0.00    -0.047 A 
ATOM      5  C3  UNL d   1      -3.954   0.860  -6.000  0.00  0.00    -0.047 A 
ATOM      6  C4  UNL d   1      -2.998   1.853  -6.000  0.00  0.00    -0.004 A 
ENDROOT
TORSDOF 0
ENDMDL
