MODEL 1
REMARK minimizedAffinity -2.5881083
REMARK minimizedRMSD -1
REMARK  0 active torsions:
REMARK  status: ('A' for Active; 'I' for Inactive)
ROOT
ATOM      1  C   UNL d   1      -1.664   3.346  -5.839  0.00  0.00     0.172 C 
ATOM      2  N   UNL d   1      -3.017   2.841  -5.833  0.00  0.00    -0.070 N 
ATOM      3  C1  UNL d   1      -3.381   1.531  -6.000  0.00  0.00    -0.004 A 
ATOM      4  C2  UNL d   1      -4.755   1.463  -5.931  0.00  0.00    -0.047 A 
ATOM      5  C3  UNL d   1      -5.234   2.777  -5.716  0.00  0.00    -0.047 A 
ATOM      6  C4  UNL d   1      -4.137   3.610  -5.660  0.00  0.00    -0.004 A 
ENDROOT
TORSDOF 0
ENDMDL
