MODEL 1
REMARK minimizedAffinity -2.60257554
REMARK minimizedRMSD -1
REMARK  0 active torsions:
REMARK  status: ('A' for Active; 'I' for Inactive)
ROOT
ATOM      1  C   UNL d   1      -4.498   4.874  -5.996  0.00  0.00     0.172 C 
ATOM      2  N   UNL d   1      -4.175   3.466  -5.996  0.00  0.00    -0.070 N 
ATOM      3  C1  UNL d   1      -5.081   2.439  -6.000  0.00  0.00    -0.004 A 
ATOM      4  C2  UNL d   1      -4.376   1.255  -5.999  0.00  0.00    -0.047 A 
ATOM      5  C3  UNL d   1      -2.999   1.581  -5.995  0.00  0.00    -0.047 A 
ATOM      6  C4  UNL d   1      -2.904   2.957  -5.993  0.00  0.00    -0.004 A 
ENDROOT
TORSDOF 0
ENDMDL
