MODEL 1
REMARK minimizedAffinity -2.69312978
REMARK minimizedRMSD -1
REMARK  0 active torsions:
REMARK  status: ('A' for Active; 'I' for Inactive)
ROOT
ATOM      1  C   UNL d   1      -5.403   4.274  -5.832  0.00  0.00     0.172 C 
ATOM      2  N   UNL d   1      -4.683   3.024  -5.900  0.00  0.00    -0.070 N 
ATOM      3  C1  UNL d   1      -5.249   1.778  -5.937  0.00  0.00    -0.004 A 
ATOM      4  C2  UNL d   1      -4.229   0.853  -6.000  0.00  0.00    -0.047 A 
ATOM      5  C3  UNL d   1      -3.008   1.568  -5.999  0.00  0.00    -0.047 A 
ATOM      6  C4  UNL d   1      -3.318   2.910  -5.937  0.00  0.00    -0.004 A 
ENDROOT
TORSDOF 0
ENDMDL
