MODEL 1
REMARK minimizedAffinity 0.897529185
REMARK minimizedRMSD -1
REMARK  0 active torsions:
REMARK  status: ('A' for Active; 'I' for Inactive)
ROOT
ATOM      1  C   UNL d   1       0.487   1.201   1.074  0.00  0.00     0.172 C 
ATOM      2  N   UNL d   1       0.536   0.136   0.100  0.00  0.00    -0.070 N 
ATOM      3  C1  UNL d   1      -0.284  -0.960   0.073  0.00  0.00    -0.004 A 
ATOM      4  C2  UNL d   1       0.081  -1.735  -1.006  0.00  0.00    -0.047 A 
ATOM      5  C3  UNL d   1       1.160  -1.083  -1.650  0.00  0.00    -0.047 A 
ATOM      6  C4  UNL d   1       1.421   0.073  -0.944  0.00  0.00    -0.004 A 
ENDROOT
TORSDOF 0
ENDMDL
