MODEL 1
REMARK minimizedAffinity -2.00484991
REMARK minimizedRMSD -1
REMARK  0 active torsions:
REMARK  status: ('A' for Active; 'I' for Inactive)
ROOT
ATOM      1  C   UNL d   1      -5.187   1.950  -5.999  0.00  0.00     0.172 C 
ATOM      2  N   UNL d   1      -4.386   3.151  -5.955  0.00  0.00    -0.070 N 
ATOM      3  C1  UNL d   1      -4.865   4.433  -6.000  0.00  0.00    -0.004 A 
ATOM      4  C2  UNL d   1      -3.787   5.289  -5.933  0.00  0.00    -0.047 A 
ATOM      5  C3  UNL d   1      -2.620   4.494  -5.846  0.00  0.00    -0.047 A 
ATOM      6  C4  UNL d   1      -3.019   3.174  -5.862  0.00  0.00    -0.004 A 
ENDROOT
TORSDOF 0
ENDMDL
