MODEL 1
REMARK minimizedAffinity -0.612720728
REMARK minimizedRMSD -1
REMARK  0 active torsions:
REMARK  status: ('A' for Active; 'I' for Inactive)
ROOT
ATOM      1  C   UNL d   1       1.156   1.541   0.961  0.00  0.00     0.172 C 
ATOM      2  N   UNL d   1       1.041   0.728  -0.226  0.00  0.00    -0.070 N 
ATOM      3  C1  UNL d   1       2.047   0.474  -1.120  0.00  0.00    -0.004 A 
ATOM      4  C2  UNL d   1       1.537  -0.340  -2.109  0.00  0.00    -0.047 A 
ATOM      5  C3  UNL d   1       0.178  -0.581  -1.800  0.00  0.00    -0.047 A 
ATOM      6  C4  UNL d   1      -0.103   0.092  -0.629  0.00  0.00    -0.004 A 
ENDROOT
TORSDOF 0
ENDMDL
