MODEL 1
REMARK minimizedAffinity 2.36918545
REMARK minimizedRMSD -1
REMARK  0 active torsions:
REMARK  status: ('A' for Active; 'I' for Inactive)
ROOT
ATOM      1  C   UNL d   1       0.511   0.117   0.811  0.00  0.00     0.172 C 
ATOM      2  N   UNL d   1       0.840  -0.160  -0.567  0.00  0.00    -0.070 N 
ATOM      3  C1  UNL d   1       2.102  -0.174  -1.099  0.00  0.00    -0.004 A 
ATOM      4  C2  UNL d   1       1.992  -0.480  -2.439  0.00  0.00    -0.047 A 
ATOM      5  C3  UNL d   1       0.616  -0.655  -2.721  0.00  0.00    -0.047 A 
ATOM      6  C4  UNL d   1      -0.074  -0.451  -1.545  0.00  0.00    -0.004 A 
ENDROOT
TORSDOF 0
ENDMDL
