MODEL 1
REMARK minimizedAffinity -2.07248139
REMARK minimizedRMSD -1
REMARK  0 active torsions:
REMARK  status: ('A' for Active; 'I' for Inactive)
ROOT
ATOM      1  C   UNL d   1      -0.062   2.453  -0.522  0.00  0.00     0.172 C 
ATOM      2  N   UNL d   1       0.621   1.239  -0.143  0.00  0.00    -0.070 N 
ATOM      3  C1  UNL d   1       1.756   1.165   0.620  0.00  0.00    -0.004 A 
ATOM      4  C2  UNL d   1       2.089  -0.165   0.755  0.00  0.00    -0.047 A 
ATOM      5  C3  UNL d   1       1.121  -0.918   0.047  0.00  0.00    -0.047 A 
ATOM      6  C4  UNL d   1       0.224  -0.023  -0.499  0.00  0.00    -0.004 A 
ENDROOT
TORSDOF 0
ENDMDL
