MODEL 1
REMARK minimizedAffinity -2.33505011
REMARK minimizedRMSD -1
REMARK  0 active torsions:
REMARK  status: ('A' for Active; 'I' for Inactive)
ROOT
ATOM      1  C   UNL d   1       1.143  -0.706  -1.592  0.00  0.00     0.172 C 
ATOM      2  N   UNL d   1       1.067  -0.382  -0.187  0.00  0.00    -0.070 N 
ATOM      3  C1  UNL d   1      -0.083  -0.140   0.515  0.00  0.00    -0.004 A 
ATOM      4  C2  UNL d   1       0.268   0.131   1.820  0.00  0.00    -0.047 A 
ATOM      5  C3  UNL d   1       1.679   0.051   1.904  0.00  0.00    -0.047 A 
ATOM      6  C4  UNL d   1       2.148  -0.268   0.647  0.00  0.00    -0.004 A 
ENDROOT
TORSDOF 0
ENDMDL
