MODEL 1
REMARK minimizedAffinity -3.22574568
REMARK minimizedRMSD -1
REMARK  0 active torsions:
REMARK  status: ('A' for Active; 'I' for Inactive)
ROOT
ATOM      1  C   UNL d   1      -0.412  -0.074   0.593  0.00  0.00     0.172 C 
ATOM      2  N   UNL d   1      -1.469  -0.546  -0.270  0.00  0.00    -0.070 N 
ATOM      3  C1  UNL d   1      -2.714  -0.945   0.137  0.00  0.00    -0.004 A 
ATOM      4  C2  UNL d   1      -3.424  -1.321  -0.983  0.00  0.00    -0.047 A 
ATOM      5  C3  UNL d   1      -2.575  -1.143  -2.102  0.00  0.00    -0.047 A 
ATOM      6  C4  UNL d   1      -1.371  -0.662  -1.632  0.00  0.00    -0.004 A 
ENDROOT
TORSDOF 0
ENDMDL
