MODEL 1
REMARK minimizedAffinity -0.333123207
REMARK minimizedRMSD -1
REMARK  0 active torsions:
REMARK  status: ('A' for Active; 'I' for Inactive)
ROOT
ATOM      1  C   UNL d   1      -0.162   2.387  -1.087  0.00  0.00     0.172 C 
ATOM      2  N   UNL d   1       0.387   1.254  -0.380  0.00  0.00    -0.070 N 
ATOM      3  C1  UNL d   1       0.360  -0.046  -0.810  0.00  0.00    -0.004 A 
ATOM      4  C2  UNL d   1       0.985  -0.819   0.144  0.00  0.00    -0.047 A 
ATOM      5  C3  UNL d   1       1.401   0.045   1.184  0.00  0.00    -0.047 A 
ATOM      6  C4  UNL d   1       1.018   1.323   0.834  0.00  0.00    -0.004 A 
ENDROOT
TORSDOF 0
ENDMDL
