MODEL 1
REMARK minimizedAffinity -3.81450653
REMARK minimizedRMSD -1
REMARK  0 active torsions:
REMARK  status: ('A' for Active; 'I' for Inactive)
ROOT
ATOM      1  C   UNL d   1      -1.667  -0.737   0.389  0.00  0.00     0.172 C 
ATOM      2  N   UNL d   1      -0.386  -0.502   1.014  0.00  0.00    -0.070 N 
ATOM      3  C1  UNL d   1       0.140  -1.224   2.052  0.00  0.00    -0.004 A 
ATOM      4  C2  UNL d   1       1.372  -0.687   2.357  0.00  0.00    -0.047 A 
ATOM      5  C3  UNL d   1       1.594   0.395   1.473  0.00  0.00    -0.047 A 
ATOM      6  C4  UNL d   1       0.489   0.488   0.653  0.00  0.00    -0.004 A 
ENDROOT
TORSDOF 0
ENDMDL
