MODEL 1
REMARK minimizedAffinity -3.76409912
REMARK minimizedRMSD -1
REMARK  0 active torsions:
REMARK  status: ('A' for Active; 'I' for Inactive)
ROOT
ATOM      1  C   UNL d   1      -0.313   0.374  -0.739  0.00  0.00     0.172 C 
ATOM      2  N   UNL d   1      -0.085  -0.174   0.578  0.00  0.00    -0.070 N 
ATOM      3  C1  UNL d   1       1.131  -0.285   1.197  0.00  0.00    -0.004 A 
ATOM      4  C2  UNL d   1       0.924  -0.856   2.434  0.00  0.00    -0.047 A 
ATOM      5  C3  UNL d   1      -0.465  -1.098   2.562  0.00  0.00    -0.047 A 
ATOM      6  C4  UNL d   1      -1.065  -0.666   1.399  0.00  0.00    -0.004 A 
ENDROOT
TORSDOF 0
ENDMDL
