MODEL 1
REMARK minimizedAffinity -2.84087014
REMARK minimizedRMSD -1
REMARK  0 active torsions:
REMARK  status: ('A' for Active; 'I' for Inactive)
ROOT
ATOM      1  C   UNL d   1      -0.986   0.398  -0.080  0.00  0.00     0.172 C 
ATOM      2  N   UNL d   1       0.352  -0.134   0.025  0.00  0.00    -0.070 N 
ATOM      3  C1  UNL d   1       1.013  -0.831  -0.951  0.00  0.00    -0.004 A 
ATOM      4  C2  UNL d   1       2.260  -1.161  -0.463  0.00  0.00    -0.047 A 
ATOM      5  C3  UNL d   1       2.350  -0.645   0.851  0.00  0.00    -0.047 A 
ATOM      6  C4  UNL d   1       1.156  -0.014   1.128  0.00  0.00    -0.004 A 
ENDROOT
TORSDOF 0
ENDMDL
