MODEL 1
REMARK minimizedAffinity -2.97033167
REMARK minimizedRMSD -1
REMARK  0 active torsions:
REMARK  status: ('A' for Active; 'I' for Inactive)
ROOT
ATOM      1  C   UNL d   1      -0.021  -0.350  -1.206  0.00  0.00     0.172 C 
ATOM      2  N   UNL d   1       0.607  -0.339   0.094  0.00  0.00    -0.070 N 
ATOM      3  C1  UNL d   1       1.956  -0.342   0.329  0.00  0.00    -0.004 A 
ATOM      4  C2  UNL d   1       2.147  -0.329   1.693  0.00  0.00    -0.047 A 
ATOM      5  C3  UNL d   1       0.868  -0.318   2.300  0.00  0.00    -0.047 A 
ATOM      6  C4  UNL d   1      -0.067  -0.325   1.287  0.00  0.00    -0.004 A 
ENDROOT
TORSDOF 0
ENDMDL
