MODEL 1
REMARK minimizedAffinity -2.21571803
REMARK minimizedRMSD -1
REMARK  0 active torsions:
REMARK  status: ('A' for Active; 'I' for Inactive)
ROOT
ATOM      1  C   UNL d   1      -0.299   0.769  -1.251  0.00  0.00     0.172 C 
ATOM      2  N   UNL d   1      -0.165   1.786  -2.267  0.00  0.00    -0.070 N 
ATOM      3  C1  UNL d   1       0.153   1.565  -3.580  0.00  0.00    -0.004 A 
ATOM      4  C2  UNL d   1       0.181   2.787  -4.219  0.00  0.00    -0.047 A 
ATOM      5  C3  UNL d   1      -0.130   3.775  -3.255  0.00  0.00    -0.047 A 
ATOM      6  C4  UNL d   1      -0.339   3.128  -2.056  0.00  0.00    -0.004 A 
ENDROOT
TORSDOF 0
ENDMDL
