MODEL 1
REMARK minimizedAffinity 22.7111282
REMARK minimizedRMSD -1
REMARK  0 active torsions:
REMARK  status: ('A' for Active; 'I' for Inactive)
ROOT
ATOM      1  C1  DEN d   1      -0.784  -1.218   1.620  0.00  0.00     0.130 A 
ATOM      2  C2  DEN d   1      -0.987   0.162   1.189  0.00  0.00    -0.031 A 
ATOM      3  C3  DEN d   1      -0.164   1.035   2.049  0.00  0.00     0.027 A 
ATOM      4  C4  DEN d   1       1.403   0.387   3.993  0.00  0.00     0.027 A 
ATOM      5  C5  DEN d   1       1.893  -0.664   4.737  0.00  0.00    -0.003 A 
ATOM      6  C6  DEN d   1       1.503  -1.958   4.518  0.00  0.00     0.001 A 
ATOM      7  C7  DEN d   1       0.630  -2.241   3.501  0.00  0.00     0.017 A 
ATOM      8  C8  DEN d   1       0.125  -1.187   2.751  0.00  0.00    -0.094 A 
ATOM      9  C9  DEN d   1       0.542   0.114   2.980  0.00  0.00    -0.072 A 
ENDROOT
TORSDOF 0
ENDMDL
