MODEL 1
REMARK minimizedAffinity 16.7111835
REMARK minimizedRMSD -1
REMARK  0 active torsions:
REMARK  status: ('A' for Active; 'I' for Inactive)
ROOT
ATOM      1  C1  DEN d   1      -0.194  -2.489  -5.922  0.00  0.00     0.130 A 
ATOM      2  C2  DEN d   1       0.419  -1.212  -5.567  0.00  0.00    -0.031 A 
ATOM      3  C3  DEN d   1       1.835  -1.463  -5.231  0.00  0.00     0.027 A 
ATOM      4  C4  DEN d   1       3.132  -3.693  -5.231  0.00  0.00     0.027 A 
ATOM      5  C5  DEN d   1       3.033  -5.049  -5.451  0.00  0.00    -0.003 A 
ATOM      6  C6  DEN d   1       1.854  -5.647  -5.808  0.00  0.00     0.001 A 
ATOM      7  C7  DEN d   1       0.735  -4.880  -5.999  0.00  0.00     0.017 A 
ATOM      8  C8  DEN d   1       0.825  -3.513  -5.772  0.00  0.00    -0.094 A 
ATOM      9  C9  DEN d   1       2.029  -2.926  -5.424  0.00  0.00    -0.072 A 
ENDROOT
TORSDOF 0
ENDMDL
