MODEL 1
REMARK minimizedAffinity 18.0653038
REMARK minimizedRMSD -1
REMARK  0 active torsions:
REMARK  status: ('A' for Active; 'I' for Inactive)
ROOT
ATOM      1  C1  DEN d   1      -1.583  -1.824  -4.397  0.00  0.00     0.130 A 
ATOM      2  C2  DEN d   1      -0.550  -0.804  -4.237  0.00  0.00    -0.031 A 
ATOM      3  C3  DEN d   1       0.728  -1.371  -4.713  0.00  0.00     0.027 A 
ATOM      4  C4  DEN d   1       1.203  -3.715  -5.681  0.00  0.00     0.027 A 
ATOM      5  C5  DEN d   1       0.643  -4.932  -6.000  0.00  0.00    -0.003 A 
ATOM      6  C6  DEN d   1      -0.680  -5.208  -5.778  0.00  0.00     0.001 A 
ATOM      7  C7  DEN d   1      -1.499  -4.238  -5.262  0.00  0.00     0.017 A 
ATOM      8  C8  DEN d   1      -0.940  -3.010  -4.930  0.00  0.00    -0.094 A 
ATOM      9  C9  DEN d   1       0.398  -2.747  -5.174  0.00  0.00    -0.072 A 
ENDROOT
TORSDOF 0
ENDMDL
