MODEL 1
REMARK minimizedAffinity 7.11427784
REMARK minimizedRMSD -1
REMARK  0 active torsions:
REMARK  status: ('A' for Active; 'I' for Inactive)
ROOT
ATOM      1  C1  DEN d   1      -2.429  -2.067   2.985  0.00  0.00     0.130 A 
ATOM      2  C2  DEN d   1      -3.377  -1.098   2.444  0.00  0.00    -0.031 A 
ATOM      3  C3  DEN d   1      -2.668   0.186   2.267  0.00  0.00     0.027 A 
ATOM      4  C4  DEN d   1      -0.205   0.761   2.773  0.00  0.00     0.027 A 
ATOM      5  C5  DEN d   1       0.987   0.267   3.256  0.00  0.00    -0.003 A 
ATOM      6  C6  DEN d   1       1.114  -1.019   3.710  0.00  0.00     0.001 A 
ATOM      7  C7  DEN d   1       0.042  -1.869   3.649  0.00  0.00     0.017 A 
ATOM      8  C8  DEN d   1      -1.165  -1.377   3.170  0.00  0.00    -0.094 A 
ATOM      9  C9  DEN d   1      -1.270  -0.077   2.705  0.00  0.00    -0.072 A 
ENDROOT
TORSDOF 0
ENDMDL
