MODEL 1
REMARK minimizedAffinity 14.1776876
REMARK minimizedRMSD -1
REMARK  0 active torsions:
REMARK  status: ('A' for Active; 'I' for Inactive)
ROOT
ATOM      1  C1  DEN d   1       0.947  -2.178  -5.998  0.00  0.00     0.130 A 
ATOM      2  C2  DEN d   1       1.058  -1.007  -5.133  0.00  0.00    -0.031 A 
ATOM      3  C3  DEN d   1       0.011  -1.104  -4.096  0.00  0.00     0.027 A 
ATOM      4  C4  DEN d   1      -1.758  -2.947  -3.745  0.00  0.00     0.027 A 
ATOM      5  C5  DEN d   1      -2.253  -4.136  -4.234  0.00  0.00    -0.003 A 
ATOM      6  C6  DEN d   1      -1.742  -4.733  -5.355  0.00  0.00     0.001 A 
ATOM      7  C7  DEN d   1      -0.674  -4.166  -6.000  0.00  0.00     0.017 A 
ATOM      8  C8  DEN d   1      -0.175  -2.964  -5.518  0.00  0.00    -0.094 A 
ATOM      9  C9  DEN d   1      -0.698  -2.381  -4.375  0.00  0.00    -0.072 A 
ENDROOT
TORSDOF 0
ENDMDL
