MODEL 1
REMARK minimizedAffinity 11.7076702
REMARK minimizedRMSD -1
REMARK  0 active torsions:
REMARK  status: ('A' for Active; 'I' for Inactive)
ROOT
ATOM      1  C1  DEN d   1      -0.715  -1.838  -2.564  0.00  0.00     0.130 A 
ATOM      2  C2  DEN d   1      -2.081  -1.571  -3.006  0.00  0.00    -0.031 A 
ATOM      3  C3  DEN d   1      -2.026  -1.115  -4.409  0.00  0.00     0.027 A 
ATOM      4  C4  DEN d   1       0.031  -0.803  -5.934  0.00  0.00     0.027 A 
ATOM      5  C5  DEN d   1       1.404  -0.892  -6.000  0.00  0.00    -0.003 A 
ATOM      6  C6  DEN d   1       2.163  -1.267  -4.923  0.00  0.00     0.001 A 
ATOM      7  C7  DEN d   1       1.551  -1.611  -3.747  0.00  0.00     0.017 A 
ATOM      8  C8  DEN d   1       0.167  -1.516  -3.671  0.00  0.00    -0.094 A 
ATOM      9  C9  DEN d   1      -0.584  -1.146  -4.774  0.00  0.00    -0.072 A 
ENDROOT
TORSDOF 0
ENDMDL
