MODEL 1
REMARK minimizedAffinity 10.9132767
REMARK minimizedRMSD -1
REMARK  0 active torsions:
REMARK  status: ('A' for Active; 'I' for Inactive)
ROOT
ATOM      1  C1  DEN d   1       1.529  -3.673  -6.000  0.00  0.00     0.130 A 
ATOM      2  C2  DEN d   1       0.072  -3.763  -6.000  0.00  0.00    -0.031 A 
ATOM      3  C3  DEN d   1      -0.467  -2.441  -5.621  0.00  0.00     0.027 A 
ATOM      4  C4  DEN d   1       0.807  -0.275  -5.042  0.00  0.00     0.027 A 
ATOM      5  C5  DEN d   1       2.056   0.288  -4.895  0.00  0.00    -0.003 A 
ATOM      6  C6  DEN d   1       3.207  -0.433  -5.071  0.00  0.00     0.001 A 
ATOM      7  C7  DEN d   1       3.133  -1.748  -5.449  0.00  0.00     0.017 A 
ATOM      8  C8  DEN d   1       1.878  -2.324  -5.592  0.00  0.00    -0.094 A 
ATOM      9  C9  DEN d   1       0.726  -1.575  -5.421  0.00  0.00    -0.072 A 
ENDROOT
TORSDOF 0
ENDMDL
