MODEL 1
REMARK minimizedAffinity 14.1358833
REMARK minimizedRMSD -1
REMARK  0 active torsions:
REMARK  status: ('A' for Active; 'I' for Inactive)
ROOT
ATOM      1  C1  DEN d   1       3.176   1.359  -5.727  0.00  0.00     0.130 A 
ATOM      2  C2  DEN d   1       4.595   1.042  -5.598  0.00  0.00    -0.031 A 
ATOM      3  C3  DEN d   1       4.720  -0.412  -5.371  0.00  0.00     0.027 A 
ATOM      4  C4  DEN d   1       2.862  -2.195  -5.215  0.00  0.00     0.027 A 
ATOM      5  C5  DEN d   1       1.501  -2.404  -5.251  0.00  0.00    -0.003 A 
ATOM      6  C6  DEN d   1       0.609  -1.378  -5.413  0.00  0.00     0.001 A 
ATOM      7  C7  DEN d   1       1.069  -0.100  -5.591  0.00  0.00     0.017 A 
ATOM      8  C8  DEN d   1       2.440   0.120  -5.548  0.00  0.00    -0.094 A 
ATOM      9  C9  DEN d   1       3.326  -0.932  -5.396  0.00  0.00    -0.072 A 
ENDROOT
TORSDOF 0
ENDMDL
