MODEL 1
REMARK minimizedAffinity 18.7930202
REMARK minimizedRMSD -1
REMARK  0 active torsions:
REMARK  status: ('A' for Active; 'I' for Inactive)
ROOT
ATOM      1  C1  DEN d   1      -1.671  -3.076  -5.059  0.00  0.00     0.130 A 
ATOM      2  C2  DEN d   1      -2.601  -2.448  -4.125  0.00  0.00    -0.031 A 
ATOM      3  C3  DEN d   1      -2.043  -1.138  -3.737  0.00  0.00     0.027 A 
ATOM      4  C4  DEN d   1       0.157  -0.023  -4.491  0.00  0.00     0.027 A 
ATOM      5  C5  DEN d   1       1.284  -0.176  -5.268  0.00  0.00    -0.003 A 
ATOM      6  C6  DEN d   1       1.520  -1.312  -5.997  0.00  0.00     0.001 A 
ATOM      7  C7  DEN d   1       0.593  -2.321  -6.000  0.00  0.00     0.017 A 
ATOM      8  C8  DEN d   1      -0.542  -2.177  -5.213  0.00  0.00    -0.094 A 
ATOM      9  C9  DEN d   1      -0.768  -1.016  -4.493  0.00  0.00    -0.072 A 
ENDROOT
TORSDOF 0
ENDMDL
