MODEL 1
REMARK minimizedAffinity 14.0615845
REMARK minimizedRMSD -1
REMARK  0 active torsions:
REMARK  status: ('A' for Active; 'I' for Inactive)
ROOT
ATOM      1  C1  DEN d   1       2.169   0.571   3.341  0.00  0.00     0.130 A 
ATOM      2  C2  DEN d   1       1.039  -0.270   2.954  0.00  0.00    -0.031 A 
ATOM      3  C3  DEN d   1       1.154  -1.551   3.681  0.00  0.00     0.027 A 
ATOM      4  C4  DEN d   1       2.959  -2.307   5.361  0.00  0.00     0.027 A 
ATOM      5  C5  DEN d   1       4.125  -1.940   5.997  0.00  0.00    -0.003 A 
ATOM      6  C6  DEN d   1       4.733  -0.734   5.769  0.00  0.00     0.001 A 
ATOM      7  C7  DEN d   1       4.154   0.167   4.915  0.00  0.00     0.017 A 
ATOM      8  C8  DEN d   1       2.983  -0.198   4.265  0.00  0.00    -0.094 A 
ATOM      9  C9  DEN d   1       2.377  -1.417   4.518  0.00  0.00    -0.072 A 
ENDROOT
TORSDOF 0
ENDMDL
