MODEL 1
REMARK minimizedAffinity -4.56892681
REMARK minimizedRMSD -1
REMARK  1 active torsions:
REMARK  status: ('A' for Active; 'I' for Inactive)
REMARK    1  A    between atoms: N_2  and  C1_3 
ROOT
ATOM      1  C1  UNL d   1       0.204  -0.078  -0.083  0.00  0.00     0.143 A 
ATOM      2  C2  UNL d   1       1.176   0.169   0.893  0.00  0.00    -0.057 A 
ATOM      3  C3  UNL d   1       0.934  -0.104   2.244  0.00  0.00     0.033 A 
ATOM      4  C4  UNL d   1      -0.300  -0.603   2.649  0.00  0.00    -0.042 A 
ATOM      5  C5  UNL d   1      -1.289  -0.832   1.700  0.00  0.00     0.033 A 
ATOM      6  C6  UNL d   1      -1.039  -0.564   0.351  0.00  0.00    -0.057 A 
ENDROOT
BRANCH   1   7
ATOM      7  N   UNL d   1       0.349   0.264  -1.429  0.00  0.00    -0.732 N 
ATOM      8  C   UNL d   1       0.678  -0.743  -2.415  0.00  0.00     0.284 C 
ATOM      9  H3  UNL d   1      -0.353   0.933  -1.738  0.00  0.00     0.395 HD
ENDBRANCH   1   7
TORSDOF 1
ENDMDL
