MODEL 1
REMARK minimizedAffinity -3.26119518
REMARK minimizedRMSD -1
REMARK  1 active torsions:
REMARK  status: ('A' for Active; 'I' for Inactive)
REMARK    1  A    between atoms: N_2  and  C1_3 
ROOT
ATOM      1  C1  UNL d   1       0.014  -0.191   0.062  0.00  0.00     0.143 A 
ATOM      2  C2  UNL d   1      -0.873  -0.695   1.019  0.00  0.00    -0.057 A 
ATOM      3  C3  UNL d   1      -0.500  -0.813   2.363  0.00  0.00     0.033 A 
ATOM      4  C4  UNL d   1       0.781  -0.455   2.770  0.00  0.00    -0.042 A 
ATOM      5  C5  UNL d   1       1.687   0.025   1.832  0.00  0.00     0.033 A 
ATOM      6  C6  UNL d   1       1.307   0.146   0.492  0.00  0.00    -0.057 A 
ENDROOT
BRANCH   1   7
ATOM      7  N   UNL d   1      -0.264  -0.142  -1.307  0.00  0.00    -0.732 N 
ATOM      8  C   UNL d   1       0.181  -1.201  -2.188  0.00  0.00     0.284 C 
ATOM      9  H3  UNL d   1      -1.205   0.192  -1.500  0.00  0.00     0.395 HD
ENDBRANCH   1   7
TORSDOF 1
ENDMDL
