MODEL 1
REMARK minimizedAffinity -5.03968859
REMARK minimizedRMSD -1
REMARK  1 active torsions:
REMARK  status: ('A' for Active; 'I' for Inactive)
REMARK    1  A    between atoms: N_2  and  C1_3 
ROOT
ATOM      1  C1  UNL d   1       0.038  -0.003  -0.047  0.00  0.00     0.143 A 
ATOM      2  C2  UNL d   1       1.162  -0.274   0.740  0.00  0.00    -0.057 A 
ATOM      3  C3  UNL d   1       1.057  -0.438   2.126  0.00  0.00     0.033 A 
ATOM      4  C4  UNL d   1      -0.176  -0.305   2.756  0.00  0.00    -0.042 A 
ATOM      5  C5  UNL d   1      -1.304  -0.012   1.998  0.00  0.00     0.033 A 
ATOM      6  C6  UNL d   1      -1.193   0.145   0.613  0.00  0.00    -0.057 A 
ENDROOT
BRANCH   1   7
ATOM      7  N   UNL d   1       0.093   0.269  -1.416  0.00  0.00    -0.732 N 
ATOM      8  C   UNL d   1       0.873  -0.567  -2.302  0.00  0.00     0.284 C 
ATOM      9  H3  UNL d   1      -0.810   0.546  -1.794  0.00  0.00     0.395 HD
ENDBRANCH   1   7
TORSDOF 1
ENDMDL
