MODEL 1
REMARK minimizedAffinity -2.4473033
REMARK minimizedRMSD -1
REMARK  1 active torsions:
REMARK  status: ('A' for Active; 'I' for Inactive)
REMARK    1  A    between atoms: N_2  and  C1_3 
ROOT
ATOM      1  C1  UNL d   1      -0.021   0.375  -0.580  0.00  0.00     0.143 A 
ATOM      2  C2  UNL d   1      -0.983  -0.437   0.029  0.00  0.00    -0.057 A 
ATOM      3  C3  UNL d   1      -0.966  -0.673   1.409  0.00  0.00     0.033 A 
ATOM      4  C4  UNL d   1       0.034  -0.122   2.202  0.00  0.00    -0.042 A 
ATOM      5  C5  UNL d   1       1.016   0.668   1.615  0.00  0.00     0.033 A 
ATOM      6  C6  UNL d   1       0.990   0.905   0.237  0.00  0.00    -0.057 A 
ENDROOT
BRANCH   1   7
ATOM      7  N   UNL d   1       0.074   0.568  -1.961  0.00  0.00    -0.732 N 
ATOM      8  C   UNL d   1       0.502  -0.509  -2.828  0.00  0.00     0.284 C 
ATOM      9  H3  UNL d   1      -0.699   1.117  -2.330  0.00  0.00     0.395 HD
ENDBRANCH   1   7
TORSDOF 1
ENDMDL
