MODEL 1
REMARK minimizedAffinity -1.84283197
REMARK minimizedRMSD -1
REMARK  1 active torsions:
REMARK  status: ('A' for Active; 'I' for Inactive)
REMARK    1  A    between atoms: N_2  and  C1_3 
ROOT
ATOM      1  C1  UNL d   1       0.191   0.032   0.144  0.00  0.00     0.143 A 
ATOM      2  C2  UNL d   1       0.946   0.577   1.188  0.00  0.00    -0.057 A 
ATOM      3  C3  UNL d   1       0.610   0.341   2.527  0.00  0.00     0.033 A 
ATOM      4  C4  UNL d   1      -0.508  -0.423   2.845  0.00  0.00    -0.042 A 
ATOM      5  C5  UNL d   1      -1.287  -0.954   1.823  0.00  0.00     0.033 A 
ATOM      6  C6  UNL d   1      -0.943  -0.720   0.489  0.00  0.00    -0.057 A 
ENDROOT
BRANCH   1   7
ATOM      7  N   UNL d   1       0.416   0.311  -1.206  0.00  0.00    -0.732 N 
ATOM      8  C   UNL d   1       0.755  -0.748  -2.132  0.00  0.00     0.284 C 
ATOM      9  H3  UNL d   1      -0.243   0.992  -1.577  0.00  0.00     0.395 HD
ENDBRANCH   1   7
TORSDOF 1
ENDMDL
