MODEL 1
REMARK minimizedAffinity -0.910995901
REMARK minimizedRMSD -1
REMARK  1 active torsions:
REMARK  status: ('A' for Active; 'I' for Inactive)
REMARK    1  A    between atoms: N_2  and  C1_3 
ROOT
ATOM      1  C1  UNL d   1       0.048  -0.323  -1.638  0.00  0.00     0.143 A 
ATOM      2  C2  UNL d   1       1.250   0.273  -2.033  0.00  0.00    -0.057 A 
ATOM      3  C3  UNL d   1       1.936  -0.161  -3.174  0.00  0.00     0.033 A 
ATOM      4  C4  UNL d   1       1.444  -1.222  -3.926  0.00  0.00    -0.042 A 
ATOM      5  C5  UNL d   1       0.264  -1.847  -3.538  0.00  0.00     0.033 A 
ATOM      6  C6  UNL d   1      -0.420  -1.404  -2.402  0.00  0.00    -0.057 A 
ENDROOT
BRANCH   1   7
ATOM      7  N   UNL d   1      -0.630  -0.002  -0.459  0.00  0.00    -0.732 N 
ATOM      8  C   UNL d   1      -0.774  -0.980   0.598  0.00  0.00     0.284 C 
ATOM      9  H3  UNL d   1      -0.414   0.936  -0.131  0.00  0.00     0.395 HD
ENDBRANCH   1   7
TORSDOF 1
ENDMDL
