MODEL 1
REMARK minimizedAffinity -2.69123721
REMARK minimizedRMSD -1
REMARK  1 active torsions:
REMARK  status: ('A' for Active; 'I' for Inactive)
REMARK    1  A    between atoms: N_2  and  C1_3 
ROOT
ATOM      1  C1  UNL d   1       0.410  -0.366  -1.660  0.00  0.00     0.143 A 
ATOM      2  C2  UNL d   1      -0.009  -1.089  -0.539  0.00  0.00    -0.057 A 
ATOM      3  C3  UNL d   1       0.299  -0.661   0.758  0.00  0.00     0.033 A 
ATOM      4  C4  UNL d   1       1.059   0.487   0.956  0.00  0.00    -0.042 A 
ATOM      5  C5  UNL d   1       1.507   1.209  -0.145  0.00  0.00     0.033 A 
ATOM      6  C6  UNL d   1       1.191   0.779  -1.437  0.00  0.00    -0.057 A 
ENDROOT
BRANCH   1   7
ATOM      7  N   UNL d   1       0.221  -0.793  -2.977  0.00  0.00    -0.732 N 
ATOM      8  C   UNL d   1       0.976  -1.908  -3.506  0.00  0.00     0.284 C 
ATOM      9  H3  UNL d   1      -0.760  -0.788  -3.249  0.00  0.00     0.395 HD
ENDBRANCH   1   7
TORSDOF 1
ENDMDL
