MODEL 1
REMARK minimizedAffinity -2.83278871
REMARK minimizedRMSD -1
REMARK  1 active torsions:
REMARK  status: ('A' for Active; 'I' for Inactive)
REMARK    1  A    between atoms: N_2  and  C1_3 
ROOT
ATOM      1  C1  UNL d   1       0.267  -0.299   0.037  0.00  0.00     0.143 A 
ATOM      2  C2  UNL d   1      -1.035  -0.742   0.294  0.00  0.00    -0.057 A 
ATOM      3  C3  UNL d   1      -1.529  -0.823   1.601  0.00  0.00     0.033 A 
ATOM      4  C4  UNL d   1      -0.717  -0.490   2.680  0.00  0.00    -0.042 A 
ATOM      5  C5  UNL d   1       0.588  -0.071   2.450  0.00  0.00     0.033 A 
ATOM      6  C6  UNL d   1       1.074   0.015   1.142  0.00  0.00    -0.057 A 
ENDROOT
BRANCH   1   7
ATOM      7  N   UNL d   1       0.849  -0.290  -1.233  0.00  0.00    -0.732 N 
ATOM      8  C   UNL d   1       0.658  -1.402  -2.139  0.00  0.00     0.284 C 
ATOM      9  H3  UNL d   1       0.795   0.623  -1.679  0.00  0.00     0.395 HD
ENDBRANCH   1   7
TORSDOF 1
ENDMDL
