MODEL 1
REMARK minimizedAffinity -1.94759738
REMARK minimizedRMSD -1
REMARK  1 active torsions:
REMARK  status: ('A' for Active; 'I' for Inactive)
REMARK    1  A    between atoms: N_2  and  C1_3 
ROOT
ATOM      1  C1  UNL d   1      -0.015   0.145   0.214  0.00  0.00     0.143 A 
ATOM      2  C2  UNL d   1      -1.340  -0.304   0.217  0.00  0.00    -0.057 A 
ATOM      3  C3  UNL d   1      -1.966  -0.711   1.401  0.00  0.00     0.033 A 
ATOM      4  C4  UNL d   1      -1.266  -0.704   2.603  0.00  0.00    -0.042 A 
ATOM      5  C5  UNL d   1       0.060  -0.286   2.620  0.00  0.00     0.033 A 
ATOM      6  C6  UNL d   1       0.677   0.126   1.435  0.00  0.00    -0.057 A 
ENDROOT
BRANCH   1   7
ATOM      7  N   UNL d   1       0.694   0.470  -0.946  0.00  0.00    -0.732 N 
ATOM      8  C   UNL d   1       0.951  -0.532  -1.957  0.00  0.00     0.284 C 
ATOM      9  H3  UNL d   1       0.432   1.380  -1.319  0.00  0.00     0.395 HD
ENDBRANCH   1   7
TORSDOF 1
ENDMDL
