MODEL 1
REMARK minimizedAffinity -2.68043303
REMARK minimizedRMSD -1
REMARK  1 active torsions:
REMARK  status: ('A' for Active; 'I' for Inactive)
REMARK    1  A    between atoms: N_2  and  C1_3 
ROOT
ATOM      1  C1  UNL d   1      -1.105  -0.403   1.296  0.00  0.00     0.143 A 
ATOM      2  C2  UNL d   1      -1.821   0.134   0.221  0.00  0.00    -0.057 A 
ATOM      3  C3  UNL d   1      -1.166   0.625  -0.915  0.00  0.00     0.033 A 
ATOM      4  C4  UNL d   1       0.223   0.614  -0.984  0.00  0.00    -0.042 A 
ATOM      5  C5  UNL d   1       0.956   0.108   0.084  0.00  0.00     0.033 A 
ATOM      6  C6  UNL d   1       0.297  -0.387   1.213  0.00  0.00    -0.057 A 
ENDROOT
BRANCH   1   7
ATOM      7  N   UNL d   1      -1.693  -0.816   2.494  0.00  0.00    -0.732 N 
ATOM      8  C   UNL d   1      -1.138  -0.409   3.767  0.00  0.00     0.284 C 
ATOM      9  H3  UNL d   1      -2.709  -0.791   2.456  0.00  0.00     0.395 HD
ENDBRANCH   1   7
TORSDOF 1
ENDMDL
