MODEL 1
REMARK minimizedAffinity 1.07643688
REMARK minimizedRMSD -1
REMARK  2 active torsions:
REMARK  status: ('A' for Active; 'I' for Inactive)
REMARK    1  A    between atoms: C1_2  and  C2_3 
REMARK    2  A    between atoms: C2_3  and  C3_4 
ROOT
ATOM      1  C3  UNL d   1       1.501   3.516   1.483  0.00  0.00    -0.075 A 
ATOM      2  C4  UNL d   1       0.307   3.668   0.762  0.00  0.00     0.002 A 
ATOM      3  C5  UNL d   1      -0.033   4.902   0.208  0.00  0.00     0.002 A 
ATOM      4  C6  UNL d   1       0.808   6.000   0.375  0.00  0.00    -0.004 A 
ATOM      5  C7  UNL d   1       1.989   5.864   1.103  0.00  0.00     0.002 A 
ATOM      6  C8  UNL d   1       2.334   4.629   1.655  0.00  0.00     0.002 A 
ENDROOT
BRANCH   1   7
ATOM      7  C2  UNL d   1       1.889   2.175   2.060  0.00  0.00     0.056 C 
BRANCH   7   8
ATOM      8  C1  UNL d   1       1.249   1.873   3.419  0.00  0.00     0.007 C 
ATOM      9  C   UNL d   1       1.942   0.745   4.172  0.00  0.00     0.009 C 
ENDBRANCH   7   8
ENDBRANCH   1   7
TORSDOF 2
ENDMDL
