MODEL 1
REMARK minimizedAffinity 16.126442
REMARK minimizedRMSD -1
REMARK  2 active torsions:
REMARK  status: ('A' for Active; 'I' for Inactive)
REMARK    1  A    between atoms: C1_2  and  C2_3 
REMARK    2  A    between atoms: C2_3  and  C3_4 
ROOT
ATOM      1  C3  UNL d   1       4.813  -3.899  -0.248  0.00  0.00    -0.075 A 
ATOM      2  C4  UNL d   1       3.779  -3.081   0.229  0.00  0.00     0.002 A 
ATOM      3  C5  UNL d   1       3.794  -1.707  -0.013  0.00  0.00     0.002 A 
ATOM      4  C6  UNL d   1       4.846  -1.134  -0.725  0.00  0.00    -0.004 A 
ATOM      5  C7  UNL d   1       5.886  -1.935  -1.189  0.00  0.00     0.002 A 
ATOM      6  C8  UNL d   1       5.872  -3.310  -0.952  0.00  0.00     0.002 A 
ENDROOT
BRANCH   1   7
ATOM      7  C2  UNL d   1       4.788  -5.391  -0.014  0.00  0.00     0.056 C 
BRANCH   7   8
ATOM      8  C1  UNL d   1       6.000  -5.922   0.758  0.00  0.00     0.007 C 
ATOM      9  C   UNL d   1       5.767  -5.998   2.262  0.00  0.00     0.009 C 
ENDBRANCH   7   8
ENDBRANCH   1   7
TORSDOF 2
ENDMDL
