MODEL 1
REMARK minimizedAffinity 5.68088102
REMARK minimizedRMSD -1
REMARK  2 active torsions:
REMARK  status: ('A' for Active; 'I' for Inactive)
REMARK    1  A    between atoms: C1_2  and  C2_3 
REMARK    2  A    between atoms: C2_3  and  C3_4 
ROOT
ATOM      1  C3  UNL d   1       5.476  -3.808  -1.995  0.00  0.00    -0.075 A 
ATOM      2  C4  UNL d   1       5.525  -3.827  -3.396  0.00  0.00     0.002 A 
ATOM      3  C5  UNL d   1       5.019  -4.915  -4.108  0.00  0.00     0.002 A 
ATOM      4  C6  UNL d   1       4.468  -6.000  -3.429  0.00  0.00    -0.004 A 
ATOM      5  C7  UNL d   1       4.429  -5.999  -2.036  0.00  0.00     0.002 A 
ATOM      6  C8  UNL d   1       4.930  -4.910  -1.322  0.00  0.00     0.002 A 
ENDROOT
BRANCH   1   7
ATOM      7  C2  UNL d   1       5.995  -2.621  -1.219  0.00  0.00     0.056 C 
BRANCH   7   8
ATOM      8  C1  UNL d   1       5.016  -1.444  -1.152  0.00  0.00     0.007 C 
ATOM      9  C   UNL d   1       3.697  -1.797  -0.478  0.00  0.00     0.009 C 
ENDBRANCH   7   8
ENDBRANCH   1   7
TORSDOF 2
ENDMDL
