MODEL 1
REMARK minimizedAffinity 16.199297
REMARK minimizedRMSD -1
REMARK  2 active torsions:
REMARK  status: ('A' for Active; 'I' for Inactive)
REMARK    1  A    between atoms: C1_2  and  C2_3 
REMARK    2  A    between atoms: C2_3  and  C3_4 
ROOT
ATOM      1  C3  UNL d   1       2.675   0.151   4.071  0.00  0.00    -0.075 A 
ATOM      2  C4  UNL d   1       1.541   0.516   4.811  0.00  0.00     0.002 A 
ATOM      3  C5  UNL d   1       0.545  -0.420   5.089  0.00  0.00     0.002 A 
ATOM      4  C6  UNL d   1       0.664  -1.728   4.624  0.00  0.00    -0.004 A 
ATOM      5  C7  UNL d   1       1.779  -2.098   3.874  0.00  0.00     0.002 A 
ATOM      6  C8  UNL d   1       2.779  -1.164   3.598  0.00  0.00     0.002 A 
ENDROOT
BRANCH   1   7
ATOM      7  C2  UNL d   1       3.770   1.152   3.792  0.00  0.00     0.056 C 
BRANCH   7   8
ATOM      8  C1  UNL d   1       3.581   2.498   4.500  0.00  0.00     0.007 C 
ATOM      9  C   UNL d   1       4.423   2.637   5.761  0.00  0.00     0.009 C 
ENDBRANCH   7   8
ENDBRANCH   1   7
TORSDOF 2
ENDMDL
