MODEL 1
REMARK minimizedAffinity 2.8459475
REMARK minimizedRMSD -1
REMARK  0 active torsions:
REMARK  status: ('A' for Active; 'I' for Inactive)
ROOT
ATOM      1  C4' PXY d   1       0.354  -0.314  -1.760  0.00  0.00     0.077 C 
ATOM      2  C1' PXY d   1      -3.964  -3.372   0.568  0.00  0.00     0.077 C 
ATOM      3  C1  PXY d   1      -2.836  -2.559  -0.036  0.00  0.00    -0.082 A 
ATOM      4  C2  PXY d   1      -2.314  -2.925  -1.195  0.00  0.00     0.003 A 
ATOM      5  C3  PXY d   1      -1.272  -2.221  -1.740  0.00  0.00     0.003 A 
ATOM      6  C4  PXY d   1      -0.793  -1.099  -1.118  0.00  0.00    -0.082 A 
ATOM      7  C5  PXY d   1      -1.327  -0.713   0.061  0.00  0.00     0.003 A 
ATOM      8  C6  PXY d   1      -2.357  -1.466   0.617  0.00  0.00     0.003 A 
ENDROOT
TORSDOF 0
ENDMDL
