MODEL 1
REMARK minimizedAffinity -0.981140316
REMARK minimizedRMSD -1
REMARK  0 active torsions:
REMARK  status: ('A' for Active; 'I' for Inactive)
ROOT
ATOM      1  C4' PXY d   1       0.360  -0.136  -1.128  0.00  0.00     0.077 C 
ATOM      2  C1' PXY d   1      -4.603  -2.906  -0.074  0.00  0.00     0.077 C 
ATOM      3  C1  PXY d   1      -3.306  -2.169  -0.344  0.00  0.00    -0.082 A 
ATOM      4  C2  PXY d   1      -2.533  -2.552  -1.347  0.00  0.00     0.003 A 
ATOM      5  C3  PXY d   1      -1.342  -1.917  -1.586  0.00  0.00     0.003 A 
ATOM      6  C4  PXY d   1      -0.963  -0.845  -0.823  0.00  0.00    -0.082 A 
ATOM      7  C5  PXY d   1      -1.751  -0.441   0.195  0.00  0.00     0.003 A 
ATOM      8  C6  PXY d   1      -2.937  -1.125   0.447  0.00  0.00     0.003 A 
ENDROOT
TORSDOF 0
ENDMDL
