MODEL 1
REMARK minimizedAffinity -3.84023261
REMARK minimizedRMSD -1
REMARK  0 active torsions:
REMARK  status: ('A' for Active; 'I' for Inactive)
ROOT
ATOM      1  C4' PXY d   1      -5.995   5.614   1.054  0.00  0.00     0.077 C 
ATOM      2  C1' PXY d   1      -4.679   2.927   6.000  0.00  0.00     0.077 C 
ATOM      3  C1  PXY d   1      -5.033   3.639   4.709  0.00  0.00    -0.082 A 
ATOM      4  C2  PXY d   1      -4.788   3.051   3.549  0.00  0.00     0.003 A 
ATOM      5  C3  PXY d   1      -5.073   3.693   2.372  0.00  0.00     0.003 A 
ATOM      6  C4  PXY d   1      -5.663   4.929   2.382  0.00  0.00    -0.082 A 
ATOM      7  C5  PXY d   1      -5.926   5.531   3.561  0.00  0.00     0.003 A 
ATOM      8  C6  PXY d   1      -5.592   4.879   4.745  0.00  0.00     0.003 A 
ENDROOT
TORSDOF 0
ENDMDL
