MODEL 1
REMARK minimizedAffinity -2.56848502
REMARK minimizedRMSD -1
REMARK  0 active torsions:
REMARK  status: ('A' for Active; 'I' for Inactive)
ROOT
ATOM      1  C4' PXY d   1      -1.986  -4.041  -2.452  0.00  0.00     0.077 C 
ATOM      2  C1' PXY d   1      -2.653   0.069   1.557  0.00  0.00     0.077 C 
ATOM      3  C1  PXY d   1      -2.487  -1.016   0.512  0.00  0.00    -0.082 A 
ATOM      4  C2  PXY d   1      -1.371  -1.076  -0.197  0.00  0.00     0.003 A 
ATOM      5  C3  PXY d   1      -1.217  -2.031  -1.168  0.00  0.00     0.003 A 
ATOM      6  C4  PXY d   1      -2.193  -2.968  -1.380  0.00  0.00    -0.082 A 
ATOM      7  C5  PXY d   1      -3.330  -2.920  -0.653  0.00  0.00     0.003 A 
ATOM      8  C6  PXY d   1      -3.484  -1.917   0.299  0.00  0.00     0.003 A 
ENDROOT
TORSDOF 0
ENDMDL
