MODEL 1
REMARK minimizedAffinity 3.53645658
REMARK minimizedRMSD -1
REMARK  0 active torsions:
REMARK  status: ('A' for Active; 'I' for Inactive)
ROOT
ATOM      1  C4' PXY d   1       0.572  -0.209  -1.160  0.00  0.00     0.077 C 
ATOM      2  C1' PXY d   1      -4.559  -2.501   0.191  0.00  0.00     0.077 C 
ATOM      3  C1  PXY d   1      -3.216  -1.890  -0.156  0.00  0.00    -0.082 A 
ATOM      4  C2  PXY d   1      -2.578  -2.287  -1.245  0.00  0.00     0.003 A 
ATOM      5  C3  PXY d   1      -1.348  -1.768  -1.557  0.00  0.00     0.003 A 
ATOM      6  C4  PXY d   1      -0.790  -0.792  -0.775  0.00  0.00    -0.082 A 
ATOM      7  C5  PXY d   1      -1.440  -0.373   0.332  0.00  0.00     0.003 A 
ATOM      8  C6  PXY d   1      -2.668  -0.943   0.653  0.00  0.00     0.003 A 
ENDROOT
TORSDOF 0
ENDMDL
