MODEL 1
REMARK minimizedAffinity 1.78738046
REMARK minimizedRMSD -1
REMARK  0 active torsions:
REMARK  status: ('A' for Active; 'I' for Inactive)
ROOT
ATOM      1  C4' PXY d   1       1.520  -0.107  -1.133  0.00  0.00     0.077 C 
ATOM      2  C1' PXY d   1      -3.851  -2.185  -0.635  0.00  0.00     0.077 C 
ATOM      3  C1  PXY d   1      -2.442  -1.644  -0.778  0.00  0.00    -0.082 A 
ATOM      4  C2  PXY d   1      -1.682  -1.505   0.296  0.00  0.00     0.003 A 
ATOM      5  C3  PXY d   1      -0.417  -0.988   0.189  0.00  0.00     0.003 A 
ATOM      6  C4  PXY d   1       0.095  -0.658  -1.038  0.00  0.00    -0.082 A 
ATOM      7  C5  PXY d   1      -0.670  -0.806  -2.140  0.00  0.00     0.003 A 
ATOM      8  C6  PXY d   1      -1.967  -1.295  -2.005  0.00  0.00     0.003 A 
ENDROOT
TORSDOF 0
ENDMDL
