MODEL 1
REMARK minimizedAffinity -4.235919
REMARK minimizedRMSD -1
REMARK  0 active torsions:
REMARK  status: ('A' for Active; 'I' for Inactive)
ROOT
ATOM      1  C4' PXY d   1      -4.431   3.164   5.996  0.00  0.00     0.077 C 
ATOM      2  C1' PXY d   1      -5.697   5.668   0.942  0.00  0.00     0.077 C 
ATOM      3  C1  PXY d   1      -5.377   5.006   2.267  0.00  0.00    -0.082 A 
ATOM      4  C2  PXY d   1      -4.483   5.554   3.074  0.00  0.00     0.003 A 
ATOM      5  C3  PXY d   1      -4.157   4.952   4.262  0.00  0.00     0.003 A 
ATOM      6  C4  PXY d   1      -4.793   3.803   4.652  0.00  0.00    -0.082 A 
ATOM      7  C5  PXY d   1      -5.714   3.243   3.840  0.00  0.00     0.003 A 
ATOM      8  C6  PXY d   1      -6.000   3.849   2.620  0.00  0.00     0.003 A 
ENDROOT
TORSDOF 0
ENDMDL
