MODEL 1
REMARK minimizedAffinity -1.36991644
REMARK minimizedRMSD -1
REMARK  0 active torsions:
REMARK  status: ('A' for Active; 'I' for Inactive)
ROOT
ATOM      1  C4' PXY d   1      -4.765  -2.465   0.197  0.00  0.00     0.077 C 
ATOM      2  C1' PXY d   1       0.507  -0.268  -0.696  0.00  0.00     0.077 C 
ATOM      3  C1  PXY d   1      -0.875  -0.841  -0.449  0.00  0.00    -0.082 A 
ATOM      4  C2  PXY d   1      -1.356  -1.764  -1.266  0.00  0.00     0.003 A 
ATOM      5  C3  PXY d   1      -2.616  -2.270  -1.076  0.00  0.00     0.003 A 
ATOM      6  C4  PXY d   1      -3.371  -1.865  -0.008  0.00  0.00    -0.082 A 
ATOM      7  C5  PXY d   1      -2.883  -0.931   0.836  0.00  0.00     0.003 A 
ATOM      8  C6  PXY d   1      -1.618  -0.401   0.602  0.00  0.00     0.003 A 
ENDROOT
TORSDOF 0
ENDMDL
