MODEL 1
REMARK minimizedAffinity 1.53780711
REMARK minimizedRMSD -1
REMARK  0 active torsions:
REMARK  status: ('A' for Active; 'I' for Inactive)
ROOT
ATOM      1  C4' PXY d   1      -4.133  -2.983   0.741  0.00  0.00     0.077 C 
ATOM      2  C1' PXY d   1       0.210  -0.637  -2.268  0.00  0.00     0.077 C 
ATOM      3  C1  PXY d   1      -0.928  -1.243  -1.470  0.00  0.00    -0.082 A 
ATOM      4  C2  PXY d   1      -1.182  -2.537  -1.572  0.00  0.00     0.003 A 
ATOM      5  C3  PXY d   1      -2.227  -3.095  -0.882  0.00  0.00     0.003 A 
ATOM      6  C4  PXY d   1      -2.988  -2.331  -0.039  0.00  0.00    -0.082 A 
ATOM      7  C5  PXY d   1      -2.728  -1.011   0.078  0.00  0.00     0.003 A 
ATOM      8  C6  PXY d   1      -1.689  -0.456  -0.662  0.00  0.00     0.003 A 
ENDROOT
TORSDOF 0
ENDMDL
