MODEL 1
REMARK minimizedAffinity -3.08603239
REMARK minimizedRMSD -1
REMARK  0 active torsions:
REMARK  status: ('A' for Active; 'I' for Inactive)
ROOT
ATOM      1  C4' PXY d   1      -4.878   6.000   1.122  0.00  0.00     0.077 C 
ATOM      2  C1' PXY d   1      -5.221   2.918   6.000  0.00  0.00     0.077 C 
ATOM      3  C1  PXY d   1      -5.141   3.734   4.725  0.00  0.00    -0.082 A 
ATOM      4  C2  PXY d   1      -4.609   3.198   3.638  0.00  0.00     0.003 A 
ATOM      5  C3  PXY d   1      -4.500   3.932   2.485  0.00  0.00     0.003 A 
ATOM      6  C4  PXY d   1      -4.988   5.210   2.429  0.00  0.00    -0.082 A 
ATOM      7  C5  PXY d   1      -5.542   5.760   3.530  0.00  0.00     0.003 A 
ATOM      8  C6  PXY d   1      -5.606   5.012   4.702  0.00  0.00     0.003 A 
ENDROOT
TORSDOF 0
ENDMDL
