MODEL 1
REMARK minimizedAffinity -0.459727228
REMARK minimizedRMSD -1
REMARK  0 active torsions:
REMARK  status: ('A' for Active; 'I' for Inactive)
ROOT
ATOM      1  C4' PXY d   1      -5.629   4.907  -1.460  0.00  0.00     0.077 C 
ATOM      2  C1' PXY d   1      -5.606   4.928   4.320  0.00  0.00     0.077 C 
ATOM      3  C1  PXY d   1      -5.603   4.912   2.804  0.00  0.00    -0.082 A 
ATOM      4  C2  PXY d   1      -5.956   6.000   2.138  0.00  0.00     0.003 A 
ATOM      5  C3  PXY d   1      -5.990   5.994   0.768  0.00  0.00     0.003 A 
ATOM      6  C4  PXY d   1      -5.608   4.879   0.070  0.00  0.00    -0.082 A 
ATOM      7  C5  PXY d   1      -5.236   3.769   0.742  0.00  0.00     0.003 A 
ATOM      8  C6  PXY d   1      -5.247   3.783   2.134  0.00  0.00     0.003 A 
ENDROOT
TORSDOF 0
ENDMDL
