MODEL 1
REMARK minimizedAffinity -3.32521152
REMARK minimizedRMSD -1
REMARK  0 active torsions:
REMARK  status: ('A' for Active; 'I' for Inactive)
ROOT
ATOM      1  C4' PXY d   1      -5.250   5.629   1.508  0.00  0.00     0.077 C 
ATOM      2  C1' PXY d   1      -5.694   1.675   5.702  0.00  0.00     0.077 C 
ATOM      3  C1  PXY d   1      -5.568   2.705   4.596  0.00  0.00    -0.082 A 
ATOM      4  C2  PXY d   1      -5.992   3.941   4.803  0.00  0.00     0.003 A 
ATOM      5  C3  PXY d   1      -5.915   4.877   3.804  0.00  0.00     0.003 A 
ATOM      6  C4  PXY d   1      -5.349   4.558   2.598  0.00  0.00    -0.082 A 
ATOM      7  C5  PXY d   1      -4.904   3.302   2.383  0.00  0.00     0.003 A 
ATOM      8  C6  PXY d   1      -5.029   2.356   3.397  0.00  0.00     0.003 A 
ENDROOT
TORSDOF 0
ENDMDL
