MODEL 1
REMARK minimizedAffinity -2.9448173
REMARK minimizedRMSD -1
REMARK  0 active torsions:
REMARK  status: ('A' for Active; 'I' for Inactive)
ROOT
ATOM      1  C4' PXY d   1      -5.257   6.000   0.692  0.00  0.00     0.077 C 
ATOM      2  C1' PXY d   1      -4.891   3.739   6.000  0.00  0.00     0.077 C 
ATOM      3  C1  PXY d   1      -4.974   4.329   4.606  0.00  0.00    -0.082 A 
ATOM      4  C2  PXY d   1      -5.889   5.246   4.337  0.00  0.00     0.003 A 
ATOM      5  C3  PXY d   1      -5.999   5.767   3.074  0.00  0.00     0.003 A 
ATOM      6  C4  PXY d   1      -5.130   5.383   2.088  0.00  0.00    -0.082 A 
ATOM      7  C5  PXY d   1      -4.186   4.456   2.357  0.00  0.00     0.003 A 
ATOM      8  C6  PXY d   1      -4.118   3.909   3.635  0.00  0.00     0.003 A 
ENDROOT
TORSDOF 0
ENDMDL
