MODEL 1
REMARK minimizedAffinity -3.07371044
REMARK minimizedRMSD -1
REMARK  0 active torsions:
REMARK  status: ('A' for Active; 'I' for Inactive)
ROOT
ATOM      1  C4' PXY d   1      -5.515   3.374   0.753  0.00  0.00     0.077 C 
ATOM      2  C1' PXY d   1      -5.717   5.955   5.921  0.00  0.00     0.077 C 
ATOM      3  C1  PXY d   1      -5.665   5.289   4.560  0.00  0.00    -0.082 A 
ATOM      4  C2  PXY d   1      -5.996   4.014   4.442  0.00  0.00     0.003 A 
ATOM      5  C3  PXY d   1      -5.924   3.388   3.224  0.00  0.00     0.003 A 
ATOM      6  C4  PXY d   1      -5.561   4.089   2.106  0.00  0.00    -0.082 A 
ATOM      7  C5  PXY d   1      -5.233   5.394   2.216  0.00  0.00     0.003 A 
ATOM      8  C6  PXY d   1      -5.272   6.000   3.468  0.00  0.00     0.003 A 
ENDROOT
TORSDOF 0
ENDMDL
