MODEL 1
REMARK minimizedAffinity -1.59177291
REMARK minimizedRMSD -1
REMARK  0 active torsions:
REMARK  status: ('A' for Active; 'I' for Inactive)
ROOT
ATOM      1  C4' PXY d   1      -5.701   5.829  -0.003  0.00  0.00     0.077 C 
ATOM      2  C1' PXY d   1      -6.000   3.558   5.305  0.00  0.00     0.077 C 
ATOM      3  C1  PXY d   1      -5.915   4.143   3.909  0.00  0.00    -0.082 A 
ATOM      4  C2  PXY d   1      -5.992   5.454   3.743  0.00  0.00     0.003 A 
ATOM      5  C3  PXY d   1      -5.950   5.997   2.485  0.00  0.00     0.003 A 
ATOM      6  C4  PXY d   1      -5.772   5.195   1.389  0.00  0.00    -0.082 A 
ATOM      7  C5  PXY d   1      -5.681   3.858   1.551  0.00  0.00     0.003 A 
ATOM      8  C6  PXY d   1      -5.769   3.323   2.833  0.00  0.00     0.003 A 
ENDROOT
TORSDOF 0
ENDMDL
