MODEL 1
REMARK minimizedAffinity -1.1959399
REMARK minimizedRMSD -1
REMARK  0 active torsions:
REMARK  status: ('A' for Active; 'I' for Inactive)
ROOT
ATOM      1  C4' PXY d   1      -4.970   3.592   0.784  0.00  0.00     0.077 C 
ATOM      2  C1' PXY d   1      -5.972   5.935   5.972  0.00  0.00     0.077 C 
ATOM      3  C1  PXY d   1      -5.700   5.313   4.617  0.00  0.00    -0.082 A 
ATOM      4  C2  PXY d   1      -5.993   5.987   3.517  0.00  0.00     0.003 A 
ATOM      5  C3  PXY d   1      -5.783   5.427   2.283  0.00  0.00     0.003 A 
ATOM      6  C4  PXY d   1      -5.218   4.184   2.174  0.00  0.00    -0.082 A 
ATOM      7  C5  PXY d   1      -4.907   3.494   3.291  0.00  0.00     0.003 A 
ATOM      8  C6  PXY d   1      -5.166   4.064   4.534  0.00  0.00     0.003 A 
ENDROOT
TORSDOF 0
ENDMDL
