MODEL 1
REMARK minimizedAffinity -2.36219335
REMARK minimizedRMSD -1
REMARK  0 active torsions:
REMARK  status: ('A' for Active; 'I' for Inactive)
ROOT
ATOM      1  C4' PXY d   1      -5.342   5.249   0.333  0.00  0.00     0.077 C 
ATOM      2  C1' PXY d   1      -5.530   3.730   5.907  0.00  0.00     0.077 C 
ATOM      3  C1  PXY d   1      -5.491   4.136   4.447  0.00  0.00    -0.082 A 
ATOM      4  C2  PXY d   1      -4.954   3.320   3.555  0.00  0.00     0.003 A 
ATOM      5  C3  PXY d   1      -4.881   3.686   2.236  0.00  0.00     0.003 A 
ATOM      6  C4  PXY d   1      -5.412   4.876   1.816  0.00  0.00    -0.082 A 
ATOM      7  C5  PXY d   1      -5.972   5.710   2.719  0.00  0.00     0.003 A 
ATOM      8  C6  PXY d   1      -5.999   5.338   4.060  0.00  0.00     0.003 A 
ENDROOT
TORSDOF 0
ENDMDL
