MODEL 1
REMARK minimizedAffinity -3.25563335
REMARK minimizedRMSD -1
REMARK  0 active torsions:
REMARK  status: ('A' for Active; 'I' for Inactive)
ROOT
ATOM      1  C4' PXY d   1      -5.810   3.405   6.000  0.00  0.00     0.077 C 
ATOM      2  C1' PXY d   1      -5.455   5.949   0.821  0.00  0.00     0.077 C 
ATOM      3  C1  PXY d   1      -5.549   5.270   2.174  0.00  0.00    -0.082 A 
ATOM      4  C2  PXY d   1      -5.938   5.967   3.229  0.00  0.00     0.003 A 
ATOM      5  C3  PXY d   1      -5.999   5.377   4.466  0.00  0.00     0.003 A 
ATOM      6  C4  PXY d   1      -5.709   4.047   4.613  0.00  0.00    -0.082 A 
ATOM      7  C5  PXY d   1      -5.321   3.327   3.539  0.00  0.00     0.003 A 
ATOM      8  C6  PXY d   1      -5.227   3.955   2.300  0.00  0.00     0.003 A 
ENDROOT
TORSDOF 0
ENDMDL
