MODEL 1
REMARK minimizedAffinity -3.84047747
REMARK minimizedRMSD -1
REMARK  0 active torsions:
REMARK  status: ('A' for Active; 'I' for Inactive)
ROOT
ATOM      1  C4' PXY d   1      -5.955   2.850   5.982  0.00  0.00     0.077 C 
ATOM      2  C1' PXY d   1      -4.903   5.782   1.112  0.00  0.00     0.077 C 
ATOM      3  C1  PXY d   1      -5.173   5.022   2.396  0.00  0.00    -0.082 A 
ATOM      4  C2  PXY d   1      -5.411   3.721   2.349  0.00  0.00     0.003 A 
ATOM      5  C3  PXY d   1      -5.688   3.025   3.497  0.00  0.00     0.003 A 
ATOM      6  C4  PXY d   1      -5.668   3.656   4.712  0.00  0.00    -0.082 A 
ATOM      7  C5  PXY d   1      -5.416   4.980   4.769  0.00  0.00     0.003 A 
ATOM      8  C6  PXY d   1      -5.177   5.677   3.588  0.00  0.00     0.003 A 
ENDROOT
TORSDOF 0
ENDMDL
