MODEL 1
REMARK minimizedAffinity -3.01077962
REMARK minimizedRMSD -1
REMARK  0 active torsions:
REMARK  status: ('A' for Active; 'I' for Inactive)
ROOT
ATOM      1  C4' PXY d   1      -5.913   3.071   5.863  0.00  0.00     0.077 C 
ATOM      2  C1' PXY d   1      -5.549   5.999   0.892  0.00  0.00     0.077 C 
ATOM      3  C1  PXY d   1      -5.638   5.240   2.201  0.00  0.00    -0.082 A 
ATOM      4  C2  PXY d   1      -5.823   3.930   2.187  0.00  0.00     0.003 A 
ATOM      5  C3  PXY d   1      -5.938   3.233   3.363  0.00  0.00     0.003 A 
ATOM      6  C4  PXY d   1      -5.808   3.876   4.565  0.00  0.00    -0.082 A 
ATOM      7  C5  PXY d   1      -5.608   5.211   4.587  0.00  0.00     0.003 A 
ATOM      8  C6  PXY d   1      -5.536   5.906   3.384  0.00  0.00     0.003 A 
ENDROOT
TORSDOF 0
ENDMDL
