MODEL 1
REMARK minimizedAffinity -2.34825468
REMARK minimizedRMSD -1
REMARK  0 active torsions:
REMARK  status: ('A' for Active; 'I' for Inactive)
ROOT
ATOM      1  O1  BZF d   1       2.192  -1.502  -0.946  0.00  0.00    -0.204 OA
ATOM      2  C2  BZF d   1       2.851  -0.392  -1.439  0.00  0.00     0.174 A 
ATOM      3  C3  BZF d   1       2.165   0.735  -1.159  0.00  0.00    -0.012 A 
ATOM      4  C3A BZF d   1       1.052   0.311  -0.366  0.00  0.00    -0.107 A 
ATOM      5  C4  BZF d   1       0.017   0.974   0.230  0.00  0.00     0.055 A 
ATOM      6  C5  BZF d   1      -0.944   0.258   0.871  0.00  0.00    -0.016 A 
ATOM      7  C6  BZF d   1      -0.905  -1.120   0.930  0.00  0.00     0.022 A 
ATOM      8  C7  BZF d   1       0.104  -1.821   0.358  0.00  0.00     0.029 A 
ATOM      9  C7A BZF d   1       1.094  -1.099  -0.262  0.00  0.00     0.058 A 
ENDROOT
TORSDOF 0
ENDMDL
