MODEL 1
REMARK minimizedAffinity -3.16481638
REMARK minimizedRMSD -1
REMARK  0 active torsions:
REMARK  status: ('A' for Active; 'I' for Inactive)
ROOT
ATOM      1  O1  BZF d   1      -1.066  -0.553   0.485  0.00  0.00    -0.204 OA
ATOM      2  C2  BZF d   1      -1.383   0.790   0.416  0.00  0.00     0.174 A 
ATOM      3  C3  BZF d   1      -0.343   1.502  -0.065  0.00  0.00    -0.012 A 
ATOM      4  C3A BZF d   1       0.655   0.533  -0.398  0.00  0.00    -0.107 A 
ATOM      5  C4  BZF d   1       1.908   0.621  -0.934  0.00  0.00     0.055 A 
ATOM      6  C5  BZF d   1       2.652  -0.508  -1.064  0.00  0.00    -0.016 A 
ATOM      7  C6  BZF d   1       2.177  -1.741  -0.666  0.00  0.00     0.022 A 
ATOM      8  C7  BZF d   1       0.938  -1.879  -0.134  0.00  0.00     0.029 A 
ATOM      9  C7A BZF d   1       0.172  -0.744  -0.031  0.00  0.00     0.058 A 
ENDROOT
TORSDOF 0
ENDMDL
