MODEL 1
REMARK minimizedAffinity -2.78935099
REMARK minimizedRMSD -1
REMARK  0 active torsions:
REMARK  status: ('A' for Active; 'I' for Inactive)
ROOT
ATOM      1  O1  BZF d   1      -0.118   1.535  -0.752  0.00  0.00    -0.204 OA
ATOM      2  C2  BZF d   1      -1.411   1.210  -0.390  0.00  0.00     0.174 A 
ATOM      3  C3  BZF d   1      -1.495  -0.086  -0.029  0.00  0.00    -0.012 A 
ATOM      4  C3A BZF d   1      -0.154  -0.581  -0.085  0.00  0.00    -0.107 A 
ATOM      5  C4  BZF d   1       0.411  -1.796   0.178  0.00  0.00     0.055 A 
ATOM      6  C5  BZF d   1       1.739  -1.970  -0.046  0.00  0.00    -0.016 A 
ATOM      7  C6  BZF d   1       2.532  -0.953  -0.538  0.00  0.00     0.022 A 
ATOM      8  C7  BZF d   1       2.018   0.271  -0.809  0.00  0.00     0.029 A 
ATOM      9  C7A BZF d   1       0.682   0.460  -0.552  0.00  0.00     0.058 A 
ENDROOT
TORSDOF 0
ENDMDL
