MODEL 1
REMARK minimizedAffinity -5.64869785
REMARK minimizedRMSD -1
REMARK  0 active torsions:
REMARK  status: ('A' for Active; 'I' for Inactive)
ROOT
ATOM      1  O1  BZF d   1      -1.704  -0.056   0.556  0.00  0.00    -0.204 OA
ATOM      2  C2  BZF d   1      -2.073   1.273   0.475  0.00  0.00     0.174 A 
ATOM      3  C3  BZF d   1      -1.038   2.033   0.063  0.00  0.00    -0.012 A 
ATOM      4  C3A BZF d   1       0.019   1.110  -0.215  0.00  0.00    -0.107 A 
ATOM      5  C4  BZF d   1       1.297   1.256  -0.673  0.00  0.00     0.055 A 
ATOM      6  C5  BZF d   1       2.095   0.160  -0.766  0.00  0.00    -0.016 A 
ATOM      7  C6  BZF d   1       1.651  -1.094  -0.404  0.00  0.00     0.022 A 
ATOM      8  C7  BZF d   1       0.389  -1.290   0.051  0.00  0.00     0.029 A 
ATOM      9  C7A BZF d   1      -0.431  -0.190   0.115  0.00  0.00     0.058 A 
ENDROOT
TORSDOF 0
ENDMDL
