MODEL 1
REMARK minimizedAffinity -3.45256591
REMARK minimizedRMSD -1
REMARK  0 active torsions:
REMARK  status: ('A' for Active; 'I' for Inactive)
ROOT
ATOM      1  O1  BZF d   1       1.431   0.809  -1.692  0.00  0.00    -0.204 OA
ATOM      2  C2  BZF d   1       2.378  -0.166  -1.939  0.00  0.00     0.174 A 
ATOM      3  C3  BZF d   1       2.199  -1.223  -1.120  0.00  0.00    -0.012 A 
ATOM      4  C3A BZF d   1       1.015  -0.926  -0.374  0.00  0.00    -0.107 A 
ATOM      5  C4  BZF d   1       0.317  -1.599   0.588  0.00  0.00     0.055 A 
ATOM      6  C5  BZF d   1      -0.757  -1.000   1.166  0.00  0.00    -0.016 A 
ATOM      7  C6  BZF d   1      -1.157   0.271   0.810  0.00  0.00     0.022 A 
ATOM      8  C7  BZF d   1      -0.500   0.976  -0.142  0.00  0.00     0.029 A 
ATOM      9  C7A BZF d   1       0.566   0.360  -0.752  0.00  0.00     0.058 A 
ENDROOT
TORSDOF 0
ENDMDL
