MODEL 1
REMARK minimizedAffinity -1.81552601
REMARK minimizedRMSD -1
REMARK  0 active torsions:
REMARK  status: ('A' for Active; 'I' for Inactive)
ROOT
ATOM      1  O1  BZF d   1       5.651   1.553   3.756  0.00  0.00    -0.204 OA
ATOM      2  C2  BZF d   1       5.635   2.267   4.939  0.00  0.00     0.174 A 
ATOM      3  C3  BZF d   1       5.584   1.436   5.999  0.00  0.00    -0.012 A 
ATOM      4  C3A BZF d   1       5.661   0.118   5.448  0.00  0.00    -0.107 A 
ATOM      5  C4  BZF d   1       5.672  -1.131   6.000  0.00  0.00     0.055 A 
ATOM      6  C5  BZF d   1       5.681  -2.215   5.180  0.00  0.00    -0.016 A 
ATOM      7  C6  BZF d   1       5.674  -2.087   3.807  0.00  0.00     0.022 A 
ATOM      8  C7  BZF d   1       5.667  -0.869   3.213  0.00  0.00     0.029 A 
ATOM      9  C7A BZF d   1       5.692   0.229   4.039  0.00  0.00     0.058 A 
ENDROOT
TORSDOF 0
ENDMDL
