MODEL 1
REMARK minimizedAffinity -3.07312846
REMARK minimizedRMSD -1
REMARK  0 active torsions:
REMARK  status: ('A' for Active; 'I' for Inactive)
ROOT
ATOM      1  O1  BZF d   1       2.299  -1.804  -1.096  0.00  0.00    -0.204 OA
ATOM      2  C2  BZF d   1       3.327  -0.894  -1.246  0.00  0.00     0.174 A 
ATOM      3  C3  BZF d   1       2.912   0.352  -0.940  0.00  0.00    -0.012 A 
ATOM      4  C3A BZF d   1       1.563   0.198  -0.487  0.00  0.00    -0.107 A 
ATOM      5  C4  BZF d   1       0.621   1.074  -0.028  0.00  0.00     0.055 A 
ATOM      6  C5  BZF d   1      -0.623   0.613   0.265  0.00  0.00    -0.016 A 
ATOM      7  C6  BZF d   1      -0.961  -0.715   0.105  0.00  0.00     0.022 A 
ATOM      8  C7  BZF d   1      -0.059  -1.623  -0.342  0.00  0.00     0.029 A 
ATOM      9  C7A BZF d   1       1.209  -1.165  -0.607  0.00  0.00     0.058 A 
ENDROOT
TORSDOF 0
ENDMDL
