MODEL 1
REMARK minimizedAffinity -4.47541237
REMARK minimizedRMSD -1
REMARK  0 active torsions:
REMARK  status: ('A' for Active; 'I' for Inactive)
ROOT
ATOM      1  O1  BZF d   1      -0.940   1.454  -0.993  0.00  0.00    -0.204 OA
ATOM      2  C2  BZF d   1      -0.155   2.333  -1.715  0.00  0.00     0.174 A 
ATOM      3  C3  BZF d   1       1.125   1.909  -1.755  0.00  0.00    -0.012 A 
ATOM      4  C3A BZF d   1       1.123   0.642  -1.090  0.00  0.00    -0.107 A 
ATOM      5  C4  BZF d   1       2.094  -0.279  -0.822  0.00  0.00     0.055 A 
ATOM      6  C5  BZF d   1       1.778  -1.379  -0.089  0.00  0.00    -0.016 A 
ATOM      7  C6  BZF d   1       0.503  -1.586   0.396  0.00  0.00     0.022 A 
ATOM      8  C7  BZF d   1      -0.495  -0.703   0.152  0.00  0.00     0.029 A 
ATOM      9  C7A BZF d   1      -0.186   0.393  -0.616  0.00  0.00     0.058 A 
ENDROOT
TORSDOF 0
ENDMDL
