MODEL 1
REMARK minimizedAffinity 0.886025488
REMARK minimizedRMSD -1
REMARK  0 active torsions:
REMARK  status: ('A' for Active; 'I' for Inactive)
ROOT
ATOM      1  O1  BZF d   1       0.752   1.623  -1.470  0.00  0.00    -0.204 OA
ATOM      2  C2  BZF d   1      -0.326   2.344  -0.995  0.00  0.00     0.174 A 
ATOM      3  C3  BZF d   1      -1.091   1.583  -0.186  0.00  0.00    -0.012 A 
ATOM      4  C3A BZF d   1      -0.401   0.334  -0.081  0.00  0.00    -0.107 A 
ATOM      5  C4  BZF d   1      -0.655  -0.824   0.596  0.00  0.00     0.055 A 
ATOM      6  C5  BZF d   1       0.180  -1.883   0.429  0.00  0.00    -0.016 A 
ATOM      7  C6  BZF d   1       1.273  -1.821  -0.410  0.00  0.00     0.022 A 
ATOM      8  C7  BZF d   1       1.568  -0.692  -1.099  0.00  0.00     0.029 A 
ATOM      9  C7A BZF d   1       0.745   0.391  -0.907  0.00  0.00     0.058 A 
ENDROOT
TORSDOF 0
ENDMDL
