MODEL 1
REMARK minimizedAffinity -5.64710474
REMARK minimizedRMSD -1
REMARK  0 active torsions:
REMARK  status: ('A' for Active; 'I' for Inactive)
ROOT
ATOM      1  O1  BZF d   1       2.224  -1.462  -0.880  0.00  0.00    -0.204 OA
ATOM      2  C2  BZF d   1       2.934  -0.333  -1.239  0.00  0.00     0.174 A 
ATOM      3  C3  BZF d   1       2.188   0.777  -1.063  0.00  0.00    -0.012 A 
ATOM      4  C3A BZF d   1       0.966   0.320  -0.475  0.00  0.00    -0.107 A 
ATOM      5  C4  BZF d   1      -0.168   0.954  -0.053  0.00  0.00     0.055 A 
ATOM      6  C5  BZF d   1      -1.208   0.210   0.407  0.00  0.00    -0.016 A 
ATOM      7  C6  BZF d   1      -1.151  -1.167   0.453  0.00  0.00     0.022 A 
ATOM      8  C7  BZF d   1      -0.046  -1.840   0.050  0.00  0.00     0.029 A 
ATOM      9  C7A BZF d   1       1.019  -1.090  -0.384  0.00  0.00     0.058 A 
ENDROOT
TORSDOF 0
ENDMDL
