MODEL 1
REMARK minimizedAffinity -4.08218622
REMARK minimizedRMSD -1
REMARK  0 active torsions:
REMARK  status: ('A' for Active; 'I' for Inactive)
ROOT
ATOM      1  O1  BZF d   1       2.674  -1.809  -0.665  0.00  0.00    -0.204 OA
ATOM      2  C2  BZF d   1       3.475  -0.760  -1.071  0.00  0.00     0.174 A 
ATOM      3  C3  BZF d   1       2.764   0.384  -1.146  0.00  0.00    -0.012 A 
ATOM      4  C3A BZF d   1       1.456   0.045  -0.676  0.00  0.00    -0.107 A 
ATOM      5  C4  BZF d   1       0.307   0.762  -0.500  0.00  0.00     0.055 A 
ATOM      6  C5  BZF d   1      -0.818   0.117  -0.092  0.00  0.00    -0.016 A 
ATOM      7  C6  BZF d   1      -0.830  -1.242   0.144  0.00  0.00     0.022 A 
ATOM      8  C7  BZF d   1       0.286  -1.994  -0.012  0.00  0.00     0.029 A 
ATOM      9  C7A BZF d   1       1.432  -1.340  -0.392  0.00  0.00     0.058 A 
ENDROOT
TORSDOF 0
ENDMDL
