MODEL 1
REMARK minimizedAffinity -3.2400012
REMARK minimizedRMSD -1
REMARK  0 active torsions:
REMARK  status: ('A' for Active; 'I' for Inactive)
ROOT
ATOM      1  O1  BZF d   1       2.477  -1.415  -0.874  0.00  0.00    -0.204 OA
ATOM      2  C2  BZF d   1       3.341  -0.350  -1.044  0.00  0.00     0.174 A 
ATOM      3  C3  BZF d   1       2.684   0.821  -0.928  0.00  0.00    -0.012 A 
ATOM      4  C3A BZF d   1       1.342   0.468  -0.578  0.00  0.00    -0.107 A 
ATOM      5  C4  BZF d   1       0.218   1.196  -0.313  0.00  0.00     0.055 A 
ATOM      6  C5  BZF d   1      -0.951   0.544  -0.076  0.00  0.00    -0.016 A 
ATOM      7  C6  BZF d   1      -1.033  -0.833  -0.103  0.00  0.00     0.022 A 
ATOM      8  C7  BZF d   1       0.057  -1.598  -0.357  0.00  0.00     0.029 A 
ATOM      9  C7A BZF d   1       1.246  -0.943  -0.564  0.00  0.00     0.058 A 
ENDROOT
TORSDOF 0
ENDMDL
