MODEL 1
REMARK minimizedAffinity -3.13616014
REMARK minimizedRMSD -1
REMARK  0 active torsions:
REMARK  status: ('A' for Active; 'I' for Inactive)
ROOT
ATOM      1  O1  BZF d   1       2.302  -1.677  -0.504  0.00  0.00    -0.204 OA
ATOM      2  C2  BZF d   1       2.915  -0.613  -1.136  0.00  0.00     0.174 A 
ATOM      3  C3  BZF d   1       2.056   0.417  -1.281  0.00  0.00    -0.012 A 
ATOM      4  C3A BZF d   1       0.856   0.002  -0.621  0.00  0.00    -0.107 A 
ATOM      5  C4  BZF d   1      -0.354   0.598  -0.410  0.00  0.00     0.055 A 
ATOM      6  C5  BZF d   1      -1.339  -0.106   0.208  0.00  0.00    -0.016 A 
ATOM      7  C6  BZF d   1      -1.150  -1.408   0.623  0.00  0.00     0.022 A 
ATOM      8  C7  BZF d   1       0.035  -2.040   0.440  0.00  0.00     0.029 A 
ATOM      9  C7A BZF d   1       1.043  -1.320  -0.154  0.00  0.00     0.058 A 
ENDROOT
TORSDOF 0
ENDMDL
