MODEL 1
REMARK minimizedAffinity -3.53910446
REMARK minimizedRMSD -1
REMARK  0 active torsions:
REMARK  status: ('A' for Active; 'I' for Inactive)
ROOT
ATOM      1  O1  BZF d   1      -0.188   0.872   0.387  0.00  0.00    -0.204 OA
ATOM      2  C2  BZF d   1      -0.958  -0.246   0.645  0.00  0.00     0.174 A 
ATOM      3  C3  BZF d   1      -0.411  -1.343   0.083  0.00  0.00    -0.012 A 
ATOM      4  C3A BZF d   1       0.823  -0.898  -0.488  0.00  0.00    -0.107 A 
ATOM      5  C4  BZF d   1       1.824  -1.530  -1.170  0.00  0.00     0.055 A 
ATOM      6  C5  BZF d   1       2.858  -0.794  -1.656  0.00  0.00    -0.016 A 
ATOM      7  C6  BZF d   1       2.922   0.573  -1.482  0.00  0.00     0.022 A 
ATOM      8  C7  BZF d   1       1.956   1.242  -0.808  0.00  0.00     0.029 A 
ATOM      9  C7A BZF d   1       0.925   0.498  -0.288  0.00  0.00     0.058 A 
ENDROOT
TORSDOF 0
ENDMDL
