MODEL 1
REMARK minimizedAffinity -4.77318287
REMARK minimizedRMSD -1
REMARK  0 active torsions:
REMARK  status: ('A' for Active; 'I' for Inactive)
ROOT
ATOM      1  O1  BZF d   1      -0.687   0.959  -0.271  0.00  0.00    -0.204 OA
ATOM      2  C2  BZF d   1      -1.629  -0.051  -0.253  0.00  0.00     0.174 A 
ATOM      3  C3  BZF d   1      -1.037  -1.260  -0.337  0.00  0.00    -0.012 A 
ATOM      4  C3A BZF d   1       0.369  -0.992  -0.319  0.00  0.00    -0.107 A 
ATOM      5  C4  BZF d   1       1.477  -1.789  -0.360  0.00  0.00     0.055 A 
ATOM      6  C5  BZF d   1       2.706  -1.210  -0.400  0.00  0.00    -0.016 A 
ATOM      7  C6  BZF d   1       2.863   0.161  -0.406  0.00  0.00     0.022 A 
ATOM      8  C7  BZF d   1       1.793   0.992  -0.361  0.00  0.00     0.029 A 
ATOM      9  C7A BZF d   1       0.551   0.410  -0.287  0.00  0.00     0.058 A 
ENDROOT
TORSDOF 0
ENDMDL
