MODEL 1
REMARK minimizedAffinity -3.96644831
REMARK minimizedRMSD -1
REMARK  0 active torsions:
REMARK  status: ('A' for Active; 'I' for Inactive)
ROOT
ATOM      1  O1  BZF d   1      -0.022   1.306   0.621  0.00  0.00    -0.204 OA
ATOM      2  C2  BZF d   1      -0.029   0.252  -0.271  0.00  0.00     0.174 A 
ATOM      3  C3  BZF d   1      -1.120  -0.520  -0.092  0.00  0.00    -0.012 A 
ATOM      4  C3A BZF d   1      -1.888   0.144   0.918  0.00  0.00    -0.107 A 
ATOM      5  C4  BZF d   1      -3.086  -0.127   1.515  0.00  0.00     0.055 A 
ATOM      6  C5  BZF d   1      -3.521   0.682   2.517  0.00  0.00    -0.016 A 
ATOM      7  C6  BZF d   1      -2.783   1.764   2.950  0.00  0.00     0.022 A 
ATOM      8  C7  BZF d   1      -1.591   2.075   2.384  0.00  0.00     0.029 A 
ATOM      9  C7A BZF d   1      -1.164   1.279   1.349  0.00  0.00     0.058 A 
ENDROOT
TORSDOF 0
ENDMDL
