MODEL 1
REMARK minimizedAffinity -0.425289452
REMARK minimizedRMSD -1
REMARK  1 active torsions:
REMARK  status: ('A' for Active; 'I' for Inactive)
REMARK    1  A    between atoms: N_2  and  C1_3 
ROOT
ATOM      1  C1  UNL d   1       1.459  -0.826   1.597  0.00  0.00     0.143 A 
ATOM      2  C2  UNL d   1       1.265  -1.781   0.592  0.00  0.00    -0.057 A 
ATOM      3  C3  UNL d   1       0.060  -1.853  -0.117  0.00  0.00     0.033 A 
ATOM      4  C4  UNL d   1      -0.986  -0.987   0.186  0.00  0.00    -0.042 A 
ATOM      5  C5  UNL d   1      -0.824  -0.047   1.198  0.00  0.00     0.033 A 
ATOM      6  C6  UNL d   1       0.384   0.024   1.898  0.00  0.00    -0.057 A 
ENDROOT
BRANCH   1   7
ATOM      7  N   UNL d   1       2.598  -0.768   2.405  0.00  0.00    -0.732 N 
ATOM      8  C   UNL d   1       2.552  -1.226   3.777  0.00  0.00     0.284 C 
ATOM      9  H3  UNL d   1       3.443  -1.036   1.905  0.00  0.00     0.395 HD
ENDBRANCH   1   7
TORSDOF 1
ENDMDL
