MODEL 1
REMARK minimizedAffinity -2.75225353
REMARK minimizedRMSD -1
REMARK  1 active torsions:
REMARK  status: ('A' for Active; 'I' for Inactive)
REMARK    1  A    between atoms: N_2  and  C1_3 
ROOT
ATOM      1  C1  UNL d   1      -0.647   0.039   1.044  0.00  0.00     0.143 A 
ATOM      2  C2  UNL d   1      -0.635  -0.859  -0.028  0.00  0.00    -0.057 A 
ATOM      3  C3  UNL d   1       0.526  -1.559  -0.377  0.00  0.00     0.033 A 
ATOM      4  C4  UNL d   1       1.709  -1.350   0.325  0.00  0.00    -0.042 A 
ATOM      5  C5  UNL d   1       1.727  -0.443   1.379  0.00  0.00     0.033 A 
ATOM      6  C6  UNL d   1       0.562   0.247   1.727  0.00  0.00    -0.057 A 
ENDROOT
BRANCH   1   7
ATOM      7  N   UNL d   1      -1.743   0.838   1.378  0.00  0.00    -0.732 N 
ATOM      8  C   UNL d   1      -2.769   1.128   0.399  0.00  0.00     0.284 C 
ATOM      9  H3  UNL d   1      -2.101   0.637   2.309  0.00  0.00     0.395 HD
ENDBRANCH   1   7
TORSDOF 1
ENDMDL
