MODEL 1
REMARK minimizedAffinity 3.20632434
REMARK minimizedRMSD -1
REMARK  1 active torsions:
REMARK  status: ('A' for Active; 'I' for Inactive)
REMARK    1  A    between atoms: N_2  and  C1_3 
ROOT
ATOM      1  C1  UNL d   1       1.352  -1.143   0.352  0.00  0.00     0.143 A 
ATOM      2  C2  UNL d   1       0.411  -0.371   1.043  0.00  0.00    -0.057 A 
ATOM      3  C3  UNL d   1      -0.879  -0.852   1.293  0.00  0.00     0.033 A 
ATOM      4  C4  UNL d   1      -1.262  -2.107   0.830  0.00  0.00    -0.042 A 
ATOM      5  C5  UNL d   1      -0.352  -2.881   0.120  0.00  0.00     0.033 A 
ATOM      6  C6  UNL d   1       0.938  -2.398  -0.121  0.00  0.00    -0.057 A 
ENDROOT
BRANCH   1   7
ATOM      7  N   UNL d   1       2.619  -0.681  -0.013  0.00  0.00    -0.732 N 
ATOM      8  C   UNL d   1       3.706  -1.610  -0.236  0.00  0.00     0.284 C 
ATOM      9  H3  UNL d   1       2.576   0.077  -0.690  0.00  0.00     0.395 HD
ENDBRANCH   1   7
TORSDOF 1
ENDMDL
