MODEL 1
REMARK minimizedAffinity 9.4774189
REMARK minimizedRMSD -1
REMARK  1 active torsions:
REMARK  status: ('A' for Active; 'I' for Inactive)
REMARK    1  A    between atoms: N_2  and  C1_3 
ROOT
ATOM      1  C1  UNL d   1       1.142  -1.419   1.363  0.00  0.00     0.143 A 
ATOM      2  C2  UNL d   1       1.655  -2.653   0.952  0.00  0.00    -0.057 A 
ATOM      3  C3  UNL d   1       0.909  -3.517   0.142  0.00  0.00     0.033 A 
ATOM      4  C4  UNL d   1      -0.381  -3.173  -0.249  0.00  0.00    -0.042 A 
ATOM      5  C5  UNL d   1      -0.921  -1.962   0.168  0.00  0.00     0.033 A 
ATOM      6  C6  UNL d   1      -0.168  -1.100   0.971  0.00  0.00    -0.057 A 
ENDROOT
BRANCH   1   7
ATOM      7  N   UNL d   1       1.796  -0.560   2.249  0.00  0.00    -0.732 N 
ATOM      8  C   UNL d   1       1.595  -0.681   3.677  0.00  0.00     0.284 C 
ATOM      9  H3  UNL d   1       2.761  -0.384   1.979  0.00  0.00     0.395 HD
ENDBRANCH   1   7
TORSDOF 1
ENDMDL
