MODEL 1
REMARK minimizedAffinity -2.59982514
REMARK minimizedRMSD -1
REMARK  1 active torsions:
REMARK  status: ('A' for Active; 'I' for Inactive)
REMARK    1  A    between atoms: N_2  and  C1_3 
ROOT
ATOM      1  C1  UNL d   1      -1.311  -0.020   1.218  0.00  0.00     0.143 A 
ATOM      2  C2  UNL d   1      -1.534  -1.150   0.424  0.00  0.00    -0.057 A 
ATOM      3  C3  UNL d   1      -0.472  -1.947  -0.021  0.00  0.00     0.033 A 
ATOM      4  C4  UNL d   1       0.839  -1.609   0.297  0.00  0.00    -0.042 A 
ATOM      5  C5  UNL d   1       1.087  -0.476   1.064  0.00  0.00     0.033 A 
ATOM      6  C6  UNL d   1       0.022   0.311   1.511  0.00  0.00    -0.057 A 
ENDROOT
BRANCH   1   7
ATOM      7  N   UNL d   1      -2.316   0.867   1.609  0.00  0.00    -0.732 N 
ATOM      8  C   UNL d   1      -3.428   1.156   0.729  0.00  0.00     0.284 C 
ATOM      9  H3  UNL d   1      -2.579   0.751   2.585  0.00  0.00     0.395 HD
ENDBRANCH   1   7
TORSDOF 1
ENDMDL
