MODEL 1
REMARK minimizedAffinity 1.16936004
REMARK minimizedRMSD -1
REMARK  1 active torsions:
REMARK  status: ('A' for Active; 'I' for Inactive)
REMARK    1  A    between atoms: N_2  and  C1_3 
ROOT
ATOM      1  C1  UNL d   1      -0.509  -2.008   0.470  0.00  0.00     0.143 A 
ATOM      2  C2  UNL d   1      -1.724  -1.321   0.371  0.00  0.00    -0.057 A 
ATOM      3  C3  UNL d   1      -1.960  -0.152   1.105  0.00  0.00     0.033 A 
ATOM      4  C4  UNL d   1      -0.992   0.336   1.977  0.00  0.00    -0.042 A 
ATOM      5  C5  UNL d   1       0.214  -0.344   2.110  0.00  0.00     0.033 A 
ATOM      6  C6  UNL d   1       0.446  -1.507   1.369  0.00  0.00    -0.057 A 
ENDROOT
BRANCH   1   7
ATOM      7  N   UNL d   1      -0.252  -3.228  -0.159  0.00  0.00    -0.732 N 
ATOM      8  C   UNL d   1       1.096  -3.590  -0.543  0.00  0.00     0.284 C 
ATOM      9  H3  UNL d   1      -0.789  -3.993   0.244  0.00  0.00     0.395 HD
ENDBRANCH   1   7
TORSDOF 1
ENDMDL
