MODEL 1
REMARK minimizedAffinity 1.42095339
REMARK minimizedRMSD -1
REMARK  1 active torsions:
REMARK  status: ('A' for Active; 'I' for Inactive)
REMARK    1  A    between atoms: N_2  and  C1_3 
ROOT
ATOM      1  C1  UNL d   1       2.017  -2.165   0.090  0.00  0.00     0.143 A 
ATOM      2  C2  UNL d   1       1.060  -3.024  -0.462  0.00  0.00    -0.057 A 
ATOM      3  C3  UNL d   1      -0.297  -2.903  -0.138  0.00  0.00     0.033 A 
ATOM      4  C4  UNL d   1      -0.718  -1.936   0.769  0.00  0.00    -0.042 A 
ATOM      5  C5  UNL d   1       0.218  -1.087   1.348  0.00  0.00     0.033 A 
ATOM      6  C6  UNL d   1       1.571  -1.209   1.016  0.00  0.00    -0.057 A 
ENDROOT
BRANCH   1   7
ATOM      7  N   UNL d   1       3.392  -2.298  -0.116  0.00  0.00    -0.732 N 
ATOM      8  C   UNL d   1       3.991  -3.606  -0.271  0.00  0.00     0.284 C 
ATOM      9  H3  UNL d   1       3.759  -1.595  -0.753  0.00  0.00     0.395 HD
ENDBRANCH   1   7
TORSDOF 1
ENDMDL
