MODEL 1
REMARK minimizedAffinity -2.7524035
REMARK minimizedRMSD -1
REMARK  1 active torsions:
REMARK  status: ('A' for Active; 'I' for Inactive)
REMARK    1  A    between atoms: N_2  and  C1_3 
ROOT
ATOM      1  C1  UNL d   1       1.172  -2.781   0.117  0.00  0.00     0.143 A 
ATOM      2  C2  UNL d   1       1.672  -1.504  -0.160  0.00  0.00    -0.057 A 
ATOM      3  C3  UNL d   1       1.020  -0.353   0.301  0.00  0.00     0.033 A 
ATOM      4  C4  UNL d   1      -0.163  -0.459   1.024  0.00  0.00    -0.042 A 
ATOM      5  C5  UNL d   1      -0.692  -1.718   1.289  0.00  0.00     0.033 A 
ATOM      6  C6  UNL d   1      -0.033  -2.863   0.832  0.00  0.00    -0.057 A 
ENDROOT
BRANCH   1   7
ATOM      7  N   UNL d   1       1.720  -3.958  -0.397  0.00  0.00    -0.732 N 
ATOM      8  C   UNL d   1       3.130  -4.040  -0.710  0.00  0.00     0.284 C 
ATOM      9  H3  UNL d   1       1.345  -4.790   0.054  0.00  0.00     0.395 HD
ENDBRANCH   1   7
TORSDOF 1
ENDMDL
