MODEL 1
REMARK minimizedAffinity -4.00651217
REMARK minimizedRMSD -1
REMARK  1 active torsions:
REMARK  status: ('A' for Active; 'I' for Inactive)
REMARK    1  A    between atoms: N_2  and  C1_3 
ROOT
ATOM      1  C1  UNL d   1       1.298  -2.759  -0.092  0.00  0.00     0.143 A 
ATOM      2  C2  UNL d   1       2.077  -1.633   0.198  0.00  0.00    -0.057 A 
ATOM      3  C3  UNL d   1       1.487  -0.416   0.559  0.00  0.00     0.033 A 
ATOM      4  C4  UNL d   1       0.102  -0.295   0.607  0.00  0.00    -0.042 A 
ATOM      5  C5  UNL d   1      -0.692  -1.393   0.298  0.00  0.00     0.033 A 
ATOM      6  C6  UNL d   1      -0.097  -2.608  -0.055  0.00  0.00    -0.057 A 
ENDROOT
BRANCH   1   7
ATOM      7  N   UNL d   1       1.822  -3.969  -0.553  0.00  0.00    -0.732 N 
ATOM      8  C   UNL d   1       3.237  -4.251  -0.438  0.00  0.00     0.284 C 
ATOM      9  H3  UNL d   1       1.222  -4.761  -0.333  0.00  0.00     0.395 HD
ENDBRANCH   1   7
TORSDOF 1
ENDMDL
