MODEL 1
REMARK minimizedAffinity 1.14615381
REMARK minimizedRMSD -1
REMARK  1 active torsions:
REMARK  status: ('A' for Active; 'I' for Inactive)
REMARK    1  A    between atoms: N_2  and  C1_3 
ROOT
ATOM      1  C1  UNL d   1       0.973  -1.614   0.270  0.00  0.00     0.143 A 
ATOM      2  C2  UNL d   1       2.316  -1.243   0.146  0.00  0.00    -0.057 A 
ATOM      3  C3  UNL d   1       3.267  -2.123  -0.383  0.00  0.00     0.033 A 
ATOM      4  C4  UNL d   1       2.895  -3.406  -0.773  0.00  0.00    -0.042 A 
ATOM      5  C5  UNL d   1       1.570  -3.805  -0.636  0.00  0.00     0.033 A 
ATOM      6  C6  UNL d   1       0.624  -2.919  -0.112  0.00  0.00    -0.057 A 
ENDROOT
BRANCH   1   7
ATOM      7  N   UNL d   1      -0.001  -0.819   0.879  0.00  0.00    -0.732 N 
ATOM      8  C   UNL d   1      -1.408  -1.089   0.674  0.00  0.00     0.284 C 
ATOM      9  H3  UNL d   1       0.240  -0.576   1.838  0.00  0.00     0.395 HD
ENDBRANCH   1   7
TORSDOF 1
ENDMDL
