MODEL 1
REMARK minimizedAffinity 2.82179523
REMARK minimizedRMSD -1
REMARK  1 active torsions:
REMARK  status: ('A' for Active; 'I' for Inactive)
REMARK    1  A    between atoms: N_2  and  C1_3 
ROOT
ATOM      1  C1  UNL d   1       1.718  -0.631   1.518  0.00  0.00     0.143 A 
ATOM      2  C2  UNL d   1       2.052  -1.365   0.374  0.00  0.00    -0.057 A 
ATOM      3  C3  UNL d   1       1.062  -1.899  -0.459  0.00  0.00     0.033 A 
ATOM      4  C4  UNL d   1      -0.283  -1.735  -0.146  0.00  0.00    -0.042 A 
ATOM      5  C5  UNL d   1      -0.637  -1.031   1.000  0.00  0.00     0.033 A 
ATOM      6  C6  UNL d   1       0.356  -0.493   1.824  0.00  0.00    -0.057 A 
ENDROOT
BRANCH   1   7
ATOM      7  N   UNL d   1       2.656  -0.159   2.440  0.00  0.00    -0.732 N 
ATOM      8  C   UNL d   1       3.857  -0.915   2.724  0.00  0.00     0.284 C 
ATOM      9  H3  UNL d   1       2.806   0.845   2.361  0.00  0.00     0.395 HD
ENDBRANCH   1   7
TORSDOF 1
ENDMDL
