MODEL 1
REMARK minimizedAffinity -0.307691246
REMARK minimizedRMSD -1
REMARK  1 active torsions:
REMARK  status: ('A' for Active; 'I' for Inactive)
REMARK    1  A    between atoms: N_2  and  C1_3 
ROOT
ATOM      1  C1  UNL d   1      -0.009  -1.120   1.340  0.00  0.00     0.143 A 
ATOM      2  C2  UNL d   1       0.024  -2.287   0.569  0.00  0.00    -0.057 A 
ATOM      3  C3  UNL d   1       1.180  -2.667  -0.124  0.00  0.00     0.033 A 
ATOM      4  C4  UNL d   1       2.318  -1.869  -0.081  0.00  0.00    -0.042 A 
ATOM      5  C5  UNL d   1       2.301  -0.692   0.659  0.00  0.00     0.033 A 
ATOM      6  C6  UNL d   1       1.145  -0.321   1.354  0.00  0.00    -0.057 A 
ENDROOT
BRANCH   1   7
ATOM      7  N   UNL d   1      -1.157  -0.637   1.972  0.00  0.00    -0.732 N 
ATOM      8  C   UNL d   1      -1.916   0.450   1.391  0.00  0.00     0.284 C 
ATOM      9  H3  UNL d   1      -1.730  -1.383   2.360  0.00  0.00     0.395 HD
ENDBRANCH   1   7
TORSDOF 1
ENDMDL
