MODEL 1
REMARK minimizedAffinity 9.48152256
REMARK minimizedRMSD -1
REMARK  1 active torsions:
REMARK  status: ('A' for Active; 'I' for Inactive)
REMARK    1  A    between atoms: N_2  and  C1_3 
ROOT
ATOM      1  C1  UNL d   1       3.200  -4.347  -0.428  0.00  0.00     0.143 A 
ATOM      2  C2  UNL d   1       1.833  -4.189  -0.174  0.00  0.00    -0.057 A 
ATOM      3  C3  UNL d   1       1.298  -2.944   0.175  0.00  0.00     0.033 A 
ATOM      4  C4  UNL d   1       2.128  -1.835   0.306  0.00  0.00    -0.042 A 
ATOM      5  C5  UNL d   1       3.494  -1.973   0.083  0.00  0.00     0.033 A 
ATOM      6  C6  UNL d   1       4.021  -3.219  -0.272  0.00  0.00    -0.057 A 
ENDROOT
BRANCH   1   7
ATOM      7  N   UNL d   1       3.807  -5.579  -0.683  0.00  0.00    -0.732 N 
ATOM      8  C   UNL d   1       4.969  -5.998   0.072  0.00  0.00     0.284 C 
ATOM      9  H3  UNL d   1       3.129  -6.319  -0.848  0.00  0.00     0.395 HD
ENDBRANCH   1   7
TORSDOF 1
ENDMDL
