MODEL 1
REMARK minimizedAffinity -2.43276477
REMARK minimizedRMSD -1
REMARK  1 active torsions:
REMARK  status: ('A' for Active; 'I' for Inactive)
REMARK    1  A    between atoms: N_2  and  C1_3 
ROOT
ATOM      1  C1  UNL d   1      -0.772  -1.389   0.617  0.00  0.00     0.143 A 
ATOM      2  C2  UNL d   1      -0.770  -2.599  -0.086  0.00  0.00    -0.057 A 
ATOM      3  C3  UNL d   1       0.428  -3.231  -0.440  0.00  0.00     0.033 A 
ATOM      4  C4  UNL d   1       1.650  -2.648  -0.121  0.00  0.00    -0.042 A 
ATOM      5  C5  UNL d   1       1.672  -1.433   0.555  0.00  0.00     0.033 A 
ATOM      6  C6  UNL d   1       0.472  -0.810   0.912  0.00  0.00    -0.057 A 
ENDROOT
BRANCH   1   7
ATOM      7  N   UNL d   1      -1.928  -0.662   0.911  0.00  0.00    -0.732 N 
ATOM      8  C   UNL d   1      -1.847   0.600   1.614  0.00  0.00     0.284 C 
ATOM      9  H3  UNL d   1      -2.596  -0.668   0.144  0.00  0.00     0.395 HD
ENDBRANCH   1   7
TORSDOF 1
ENDMDL
