MODEL 1
REMARK minimizedAffinity -6.01037073
REMARK minimizedRMSD -1
REMARK  1 active torsions:
REMARK  status: ('A' for Active; 'I' for Inactive)
REMARK    1  A    between atoms: C1_2  and  C2_3 
ROOT
ATOM      1  C2  UNL d   1       1.197   0.700   0.720  0.00  0.00    -0.076 A 
ATOM      2  C3  UNL d   1       2.296   0.431   1.554  0.00  0.00     0.004 A 
ATOM      3  C4  UNL d   1       2.344  -0.729   2.325  0.00  0.00    -0.003 A 
ATOM      4  C5  UNL d   1       1.295  -1.640   2.273  0.00  0.00     0.000 A 
ATOM      5  C6  UNL d   1       0.205  -1.398   1.437  0.00  0.00     0.000 A 
ATOM      6  C7  UNL d   1       0.148  -0.241   0.642  0.00  0.00    -0.073 A 
ATOM      7  C8  UNL d   1      -1.055  -0.027  -0.236  0.00  0.00     0.078 C 
ENDROOT
BRANCH   1   8
ATOM      8  C1  UNL d   1       1.186   1.989  -0.072  0.00  0.00     0.053 C 
ATOM      9  C   UNL d   1       0.302   3.053   0.559  0.00  0.00     0.018 C 
ENDBRANCH   1   8
TORSDOF 1
ENDMDL
