MODEL 1
REMARK minimizedAffinity -4.51268911
REMARK minimizedRMSD -1
REMARK  1 active torsions:
REMARK  status: ('A' for Active; 'I' for Inactive)
REMARK    1  A    between atoms: C1_2  and  C2_3 
ROOT
ATOM      1  C2  UNL d   1      -0.155   0.051  -0.157  0.00  0.00    -0.076 A 
ATOM      2  C3  UNL d   1       0.318  -1.272  -0.210  0.00  0.00     0.004 A 
ATOM      3  C4  UNL d   1       1.657  -1.565   0.042  0.00  0.00    -0.003 A 
ATOM      4  C5  UNL d   1       2.545  -0.541   0.351  0.00  0.00     0.000 A 
ATOM      5  C6  UNL d   1       2.089   0.775   0.425  0.00  0.00     0.000 A 
ATOM      6  C7  UNL d   1       0.739   1.086   0.190  0.00  0.00    -0.073 A 
ATOM      7  C8  UNL d   1       0.303   2.523   0.277  0.00  0.00     0.078 C 
ENDROOT
BRANCH   1   8
ATOM      8  C1  UNL d   1      -1.612   0.312  -0.467  0.00  0.00     0.053 C 
ATOM      9  C   UNL d   1      -2.012  -0.182  -1.848  0.00  0.00     0.018 C 
ENDBRANCH   1   8
TORSDOF 1
ENDMDL
