MODEL 1
REMARK minimizedAffinity -6.17391586
REMARK minimizedRMSD -1
REMARK  1 active torsions:
REMARK  status: ('A' for Active; 'I' for Inactive)
REMARK    1  A    between atoms: C1_2  and  C2_3 
ROOT
ATOM      1  C2  UNL d   1       0.257   0.172   0.365  0.00  0.00    -0.076 A 
ATOM      2  C3  UNL d   1       0.606  -1.140   0.729  0.00  0.00     0.004 A 
ATOM      3  C4  UNL d   1       1.936  -1.494   0.949  0.00  0.00    -0.003 A 
ATOM      4  C5  UNL d   1       2.939  -0.541   0.809  0.00  0.00     0.000 A 
ATOM      5  C6  UNL d   1       2.609   0.770   0.465  0.00  0.00     0.000 A 
ATOM      6  C7  UNL d   1       1.271   1.147   0.256  0.00  0.00    -0.073 A 
ATOM      7  C8  UNL d   1       0.973   2.573  -0.119  0.00  0.00     0.078 C 
ENDROOT
BRANCH   1   8
ATOM      8  C1  UNL d   1      -1.200   0.490   0.112  0.00  0.00     0.053 C 
ATOM      9  C   UNL d   1      -1.731  -0.173  -1.149  0.00  0.00     0.018 C 
ENDBRANCH   1   8
TORSDOF 1
ENDMDL
