MODEL 1
REMARK minimizedAffinity -5.8029232
REMARK minimizedRMSD -1
REMARK  1 active torsions:
REMARK  status: ('A' for Active; 'I' for Inactive)
REMARK    1  A    between atoms: C1_2  and  C2_3 
ROOT
ATOM      1  C2  UNL d   1      -0.046   0.194   0.383  0.00  0.00    -0.076 A 
ATOM      2  C3  UNL d   1       1.059   0.984   0.020  0.00  0.00     0.004 A 
ATOM      3  C4  UNL d   1       2.341   0.674   0.471  0.00  0.00    -0.003 A 
ATOM      4  C5  UNL d   1       2.540  -0.432   1.290  0.00  0.00     0.000 A 
ATOM      5  C6  UNL d   1       1.458  -1.236   1.646  0.00  0.00     0.000 A 
ATOM      6  C7  UNL d   1       0.161  -0.947   1.187  0.00  0.00    -0.073 A 
ATOM      7  C8  UNL d   1      -0.970  -1.845   1.606  0.00  0.00     0.078 C 
ENDROOT
BRANCH   1   8
ATOM      8  C1  UNL d   1      -1.416   0.595  -0.113  0.00  0.00     0.053 C 
ATOM      9  C   UNL d   1      -1.637   0.231  -1.573  0.00  0.00     0.018 C 
ENDBRANCH   1   8
TORSDOF 1
ENDMDL
