MODEL 1
REMARK minimizedAffinity -4.89015627
REMARK minimizedRMSD -1
REMARK  1 active torsions:
REMARK  status: ('A' for Active; 'I' for Inactive)
REMARK    1  A    between atoms: C1_2  and  C2_3 
ROOT
ATOM      1  C2  UNL d   1       0.215  -0.411   0.060  0.00  0.00    -0.076 A 
ATOM      2  C3  UNL d   1       1.114  -1.491   0.027  0.00  0.00     0.004 A 
ATOM      3  C4  UNL d   1       2.478  -1.295   0.240  0.00  0.00    -0.003 A 
ATOM      4  C5  UNL d   1       2.964  -0.016   0.490  0.00  0.00     0.000 A 
ATOM      5  C6  UNL d   1       2.083   1.064   0.544  0.00  0.00     0.000 A 
ATOM      6  C7  UNL d   1       0.704   0.881   0.347  0.00  0.00    -0.073 A 
ATOM      7  C8  UNL d   1      -0.199   2.083   0.410  0.00  0.00     0.078 C 
ENDROOT
BRANCH   1   8
ATOM      8  C1  UNL d   1      -1.249  -0.680  -0.205  0.00  0.00     0.053 C 
ATOM      9  C   UNL d   1      -1.596  -0.608  -1.684  0.00  0.00     0.018 C 
ENDBRANCH   1   8
TORSDOF 1
ENDMDL
