MODEL 1
REMARK minimizedAffinity -2.77970791
REMARK minimizedRMSD -1
REMARK  0 active torsions:
REMARK  status: ('A' for Active; 'I' for Inactive)
ROOT
ATOM      1  C2' OXE d   1      -1.415   0.169   2.243  0.00  0.00     0.078 C 
ATOM      2  C1' OXE d   1      -2.572  -0.550  -0.211  0.00  0.00     0.078 C 
ATOM      3  C1  OXE d   1      -1.084  -0.737  -0.054  0.00  0.00    -0.078 A 
ATOM      4  C2  OXE d   1      -0.519  -0.339   1.134  0.00  0.00    -0.078 A 
ATOM      5  C3  OXE d   1       0.841  -0.540   1.352  0.00  0.00     0.003 A 
ATOM      6  C4  OXE d   1       1.664  -1.002   0.318  0.00  0.00    -0.002 A 
ATOM      7  C5  OXE d   1       1.115  -1.375  -0.913  0.00  0.00    -0.002 A 
ATOM      8  C6  OXE d   1      -0.260  -1.290  -1.100  0.00  0.00     0.003 A 
ENDROOT
TORSDOF 0
ENDMDL
