MODEL 1
REMARK minimizedAffinity -2.73625731
REMARK minimizedRMSD -1
REMARK  0 active torsions:
REMARK  status: ('A' for Active; 'I' for Inactive)
ROOT
ATOM      1  C2' OXE d   1      -1.826   0.122   1.345  0.00  0.00     0.078 C 
ATOM      2  C1' OXE d   1      -0.416   2.328   2.357  0.00  0.00     0.078 C 
ATOM      3  C1  OXE d   1      -0.145   0.977   2.972  0.00  0.00    -0.078 A 
ATOM      4  C2  OXE d   1      -0.874  -0.089   2.502  0.00  0.00    -0.078 A 
ATOM      5  C3  OXE d   1      -0.625  -1.366   2.997  0.00  0.00     0.003 A 
ATOM      6  C4  OXE d   1       0.250  -1.550   4.074  0.00  0.00    -0.002 A 
ATOM      7  C5  OXE d   1       0.973  -0.471   4.594  0.00  0.00    -0.002 A 
ATOM      8  C6  OXE d   1       0.819   0.789   4.027  0.00  0.00     0.003 A 
ENDROOT
TORSDOF 0
ENDMDL
