MODEL 1
REMARK minimizedAffinity -3.1222043
REMARK minimizedRMSD -1
REMARK  0 active torsions:
REMARK  status: ('A' for Active; 'I' for Inactive)
ROOT
ATOM      1  C2' OXE d   1       1.911  -1.611   4.327  0.00  0.00     0.078 C 
ATOM      2  C1' OXE d   1      -0.730  -1.648   5.277  0.00  0.00     0.078 C 
ATOM      3  C1  OXE d   1      -0.470  -0.985   3.947  0.00  0.00    -0.078 A 
ATOM      4  C2  OXE d   1       0.832  -0.931   3.512  0.00  0.00    -0.078 A 
ATOM      5  C3  OXE d   1       1.120  -0.379   2.267  0.00  0.00     0.003 A 
ATOM      6  C4  OXE d   1       0.118   0.257   1.524  0.00  0.00    -0.002 A 
ATOM      7  C5  OXE d   1      -1.208   0.248   1.968  0.00  0.00    -0.002 A 
ATOM      8  C6  OXE d   1      -1.525  -0.405   3.154  0.00  0.00     0.003 A 
ENDROOT
TORSDOF 0
ENDMDL
