MODEL 1
REMARK minimizedAffinity 1.7292676
REMARK minimizedRMSD -1
REMARK  0 active torsions:
REMARK  status: ('A' for Active; 'I' for Inactive)
ROOT
ATOM      1  C2' OXE d   1      -0.999  -0.359   2.901  0.00  0.00     0.078 C 
ATOM      2  C1' OXE d   1      -1.450  -2.568   4.573  0.00  0.00     0.078 C 
ATOM      3  C1  OXE d   1      -0.208  -1.747   4.813  0.00  0.00    -0.078 A 
ATOM      4  C2  OXE d   1       0.029  -0.696   3.960  0.00  0.00    -0.078 A 
ATOM      5  C3  OXE d   1       1.131   0.128   4.171  0.00  0.00     0.003 A 
ATOM      6  C4  OXE d   1       2.082  -0.196   5.146  0.00  0.00    -0.002 A 
ATOM      7  C5  OXE d   1       1.880  -1.286   6.000  0.00  0.00    -0.002 A 
ATOM      8  C6  OXE d   1       0.721  -2.045   5.874  0.00  0.00     0.003 A 
ENDROOT
TORSDOF 0
ENDMDL
