MODEL 1
REMARK minimizedAffinity 6.38943005
REMARK minimizedRMSD -1
REMARK  0 active torsions:
REMARK  status: ('A' for Active; 'I' for Inactive)
ROOT
ATOM      1  C2' OXE d   1       2.475  -0.049  -5.654  0.00  0.00     0.078 C 
ATOM      2  C1' OXE d   1       1.515   1.119  -3.289  0.00  0.00     0.078 C 
ATOM      3  C1  OXE d   1       0.569   0.251  -4.079  0.00  0.00    -0.078 A 
ATOM      4  C2  OXE d   1       1.032  -0.278  -5.259  0.00  0.00    -0.078 A 
ATOM      5  C3  OXE d   1       0.218  -1.131  -6.000  0.00  0.00     0.003 A 
ATOM      6  C4  OXE d   1      -1.118  -1.330  -5.633  0.00  0.00    -0.002 A 
ATOM      7  C5  OXE d   1      -1.623  -0.768  -4.455  0.00  0.00    -0.002 A 
ATOM      8  C6  OXE d   1      -0.782  -0.011  -3.647  0.00  0.00     0.003 A 
ENDROOT
TORSDOF 0
ENDMDL
