MODEL 1
REMARK minimizedAffinity 9.73933411
REMARK minimizedRMSD -1
REMARK  0 active torsions:
REMARK  status: ('A' for Active; 'I' for Inactive)
ROOT
ATOM      1  C2' OXE d   1       0.749  -0.726   0.103  0.00  0.00     0.078 C 
ATOM      2  C1' OXE d   1       2.022  -0.222   2.554  0.00  0.00     0.078 C 
ATOM      3  C1  OXE d   1       2.543   0.490   1.331  0.00  0.00    -0.078 A 
ATOM      4  C2  OXE d   1       1.944   0.202   0.128  0.00  0.00    -0.078 A 
ATOM      5  C3  OXE d   1       2.350   0.872  -1.023  0.00  0.00     0.003 A 
ATOM      6  C4  OXE d   1       3.463   1.721  -0.993  0.00  0.00    -0.002 A 
ATOM      7  C5  OXE d   1       4.113   1.998   0.215  0.00  0.00    -0.002 A 
ATOM      8  C6  OXE d   1       3.640   1.424   1.390  0.00  0.00     0.003 A 
ENDROOT
TORSDOF 0
ENDMDL
