MODEL 1
REMARK minimizedAffinity 7.65852594
REMARK minimizedRMSD -1
REMARK  0 active torsions:
REMARK  status: ('A' for Active; 'I' for Inactive)
ROOT
ATOM      1  C2' OXE d   1       2.786   0.029  -0.779  0.00  0.00     0.078 C 
ATOM      2  C1' OXE d   1       0.088  -0.676  -1.104  0.00  0.00     0.078 C 
ATOM      3  C1  OXE d   1       0.512  -0.114   0.230  0.00  0.00    -0.078 A 
ATOM      4  C2  OXE d   1       1.843   0.184   0.396  0.00  0.00    -0.078 A 
ATOM      5  C3  OXE d   1       2.278   0.756   1.588  0.00  0.00     0.003 A 
ATOM      6  C4  OXE d   1       1.402   0.887   2.672  0.00  0.00    -0.002 A 
ATOM      7  C5  OXE d   1       0.051   0.552   2.537  0.00  0.00    -0.002 A 
ATOM      8  C6  OXE d   1      -0.418   0.091   1.312  0.00  0.00     0.003 A 
ENDROOT
TORSDOF 0
ENDMDL
