MODEL 1
REMARK minimizedAffinity 8.71739101
REMARK minimizedRMSD -1
REMARK  0 active torsions:
REMARK  status: ('A' for Active; 'I' for Inactive)
ROOT
ATOM      1  C2' OXE d   1       0.551   3.519   1.502  0.00  0.00     0.078 C 
ATOM      2  C1' OXE d   1      -0.172   0.855   0.996  0.00  0.00     0.078 C 
ATOM      3  C1  OXE d   1       1.212   1.298   0.589  0.00  0.00    -0.078 A 
ATOM      4  C2  OXE d   1       1.540   2.616   0.798  0.00  0.00    -0.078 A 
ATOM      5  C3  OXE d   1       2.822   3.064   0.491  0.00  0.00     0.003 A 
ATOM      6  C4  OXE d   1       3.727   2.224  -0.169  0.00  0.00    -0.002 A 
ATOM      7  C5  OXE d   1       3.398   0.889  -0.427  0.00  0.00    -0.002 A 
ATOM      8  C6  OXE d   1       2.163   0.400  -0.017  0.00  0.00     0.003 A 
ENDROOT
TORSDOF 0
ENDMDL
