MODEL 1
REMARK minimizedAffinity -2.91641998
REMARK minimizedRMSD -1
REMARK  0 active torsions:
REMARK  status: ('A' for Active; 'I' for Inactive)
ROOT
ATOM      1  C2' OXE d   1      -3.010  -0.770  -0.387  0.00  0.00     0.078 C 
ATOM      2  C1' OXE d   1      -2.489   0.206   2.192  0.00  0.00     0.078 C 
ATOM      3  C1  OXE d   1      -1.321  -0.295   1.381  0.00  0.00    -0.078 A 
ATOM      4  C2  OXE d   1      -1.591  -0.814   0.137  0.00  0.00    -0.078 A 
ATOM      5  C3  OXE d   1      -0.544  -1.239  -0.675  0.00  0.00     0.003 A 
ATOM      6  C4  OXE d   1       0.765  -1.286  -0.178  0.00  0.00    -0.002 A 
ATOM      7  C5  OXE d   1       1.056  -0.799   1.100  0.00  0.00    -0.002 A 
ATOM      8  C6  OXE d   1       0.034  -0.262   1.875  0.00  0.00     0.003 A 
ENDROOT
TORSDOF 0
ENDMDL
