MODEL 1
REMARK minimizedAffinity 10.0015154
REMARK minimizedRMSD -1
REMARK  0 active torsions:
REMARK  status: ('A' for Active; 'I' for Inactive)
ROOT
ATOM      1  C2' OXE d   1       1.525   0.019   1.504  0.00  0.00     0.078 C 
ATOM      2  C1' OXE d   1      -0.521   1.879   1.992  0.00  0.00     0.078 C 
ATOM      3  C1  OXE d   1      -0.853   0.671   1.151  0.00  0.00    -0.078 A 
ATOM      4  C2  OXE d   1       0.166  -0.209   0.879  0.00  0.00    -0.078 A 
ATOM      5  C3  OXE d   1      -0.099  -1.368   0.154  0.00  0.00     0.003 A 
ATOM      6  C4  OXE d   1      -1.356  -1.566  -0.430  0.00  0.00    -0.002 A 
ATOM      7  C5  OXE d   1      -2.398  -0.661  -0.198  0.00  0.00    -0.002 A 
ATOM      8  C6  OXE d   1      -2.175   0.438   0.623  0.00  0.00     0.003 A 
ENDROOT
TORSDOF 0
ENDMDL
