MODEL 1
REMARK minimizedAffinity 1.53903687
REMARK minimizedRMSD -1
REMARK  0 active torsions:
REMARK  status: ('A' for Active; 'I' for Inactive)
ROOT
ATOM      1  C2' OXE d   1       1.316   0.550   2.853  0.00  0.00     0.078 C 
ATOM      2  C1' OXE d   1      -1.237   1.669   3.191  0.00  0.00     0.078 C 
ATOM      3  C1  OXE d   1      -0.998   0.816   1.970  0.00  0.00    -0.078 A 
ATOM      4  C2  OXE d   1       0.267   0.311   1.789  0.00  0.00    -0.078 A 
ATOM      5  C3  OXE d   1       0.526  -0.527   0.708  0.00  0.00     0.003 A 
ATOM      6  C4  OXE d   1      -0.446  -0.735  -0.277  0.00  0.00    -0.002 A 
ATOM      7  C5  OXE d   1      -1.730  -0.197  -0.133  0.00  0.00    -0.002 A 
ATOM      8  C6  OXE d   1      -2.034   0.544   1.004  0.00  0.00     0.003 A 
ENDROOT
TORSDOF 0
ENDMDL
