MODEL 1
REMARK minimizedAffinity 3.54375911
REMARK minimizedRMSD -1
REMARK  0 active torsions:
REMARK  status: ('A' for Active; 'I' for Inactive)
ROOT
ATOM      1  C2' OXE d   1      -1.156   1.297   2.986  0.00  0.00     0.078 C 
ATOM      2  C1' OXE d   1       1.345   0.044   3.217  0.00  0.00     0.078 C 
ATOM      3  C1  OXE d   1       0.563  -0.176   1.947  0.00  0.00    -0.078 A 
ATOM      4  C2  OXE d   1      -0.680   0.402   1.862  0.00  0.00    -0.078 A 
ATOM      5  C3  OXE d   1      -1.421   0.276   0.690  0.00  0.00     0.003 A 
ATOM      6  C4  OXE d   1      -0.978  -0.561  -0.342  0.00  0.00    -0.002 A 
ATOM      7  C5  OXE d   1       0.268  -1.192  -0.259  0.00  0.00    -0.002 A 
ATOM      8  C6  OXE d   1       1.068  -0.976   0.858  0.00  0.00     0.003 A 
ENDROOT
TORSDOF 0
ENDMDL
