MODEL 1
REMARK minimizedAffinity 6.52623749
REMARK minimizedRMSD -1
REMARK  0 active torsions:
REMARK  status: ('A' for Active; 'I' for Inactive)
ROOT
ATOM      1  C2' OXE d   1      -2.170   0.332   1.010  0.00  0.00     0.078 C 
ATOM      2  C1' OXE d   1      -1.293  -1.245  -1.140  0.00  0.00     0.078 C 
ATOM      3  C1  OXE d   1      -0.253  -0.723  -0.181  0.00  0.00    -0.078 A 
ATOM      4  C2  OXE d   1      -0.686   0.086   0.842  0.00  0.00    -0.078 A 
ATOM      5  C3  OXE d   1       0.225   0.550   1.787  0.00  0.00     0.003 A 
ATOM      6  C4  OXE d   1       1.597   0.327   1.618  0.00  0.00    -0.002 A 
ATOM      7  C5  OXE d   1       2.063  -0.462   0.560  0.00  0.00    -0.002 A 
ATOM      8  C6  OXE d   1       1.149  -1.028  -0.321  0.00  0.00     0.003 A 
ENDROOT
TORSDOF 0
ENDMDL
