MODEL 1
REMARK minimizedAffinity 12.6175299
REMARK minimizedRMSD -1
REMARK  0 active torsions:
REMARK  status: ('A' for Active; 'I' for Inactive)
ROOT
ATOM      1  C   UNL d   1      -4.730   5.999   3.201  0.00  0.00     0.078 C 
ATOM      2  C1  UNL d   1      -4.761   5.808   1.714  0.00  0.00    -0.077 A 
ATOM      3  C2  UNL d   1      -3.605   5.455   1.008  0.00  0.00    -0.001 A 
ATOM      4  C3  UNL d   1      -3.647   5.291  -0.378  0.00  0.00     0.003 A 
ATOM      5  C4  UNL d   1      -4.843   5.479  -1.069  0.00  0.00    -0.005 A 
ATOM      6  C5  UNL d   1      -5.998   5.832  -0.375  0.00  0.00     0.003 A 
ATOM      7  C6  UNL d   1      -5.958   5.997   1.011  0.00  0.00    -0.001 A 
ENDROOT
TORSDOF 0
ENDMDL
