MODEL 1
REMARK minimizedAffinity 12.3103619
REMARK minimizedRMSD -1
REMARK  0 active torsions:
REMARK  status: ('A' for Active; 'I' for Inactive)
ROOT
ATOM      1  C   UNL d   1      -4.886   5.995   3.369  0.00  0.00     0.078 C 
ATOM      2  C1  UNL d   1      -4.842   5.761   1.889  0.00  0.00    -0.077 A 
ATOM      3  C2  UNL d   1      -3.660   5.350   1.259  0.00  0.00    -0.001 A 
ATOM      4  C3  UNL d   1      -3.631   5.145  -0.122  0.00  0.00     0.003 A 
ATOM      5  C4  UNL d   1      -4.780   5.350  -0.884  0.00  0.00    -0.005 A 
ATOM      6  C5  UNL d   1      -5.959   5.761  -0.266  0.00  0.00     0.003 A 
ATOM      7  C6  UNL d   1      -5.990   5.966   1.114  0.00  0.00    -0.001 A 
ENDROOT
TORSDOF 0
ENDMDL
