MODEL 1
REMARK minimizedAffinity 9.22136021
REMARK minimizedRMSD -1
REMARK  0 active torsions:
REMARK  status: ('A' for Active; 'I' for Inactive)
ROOT
ATOM      1  C   UNL d   1      -1.803  -3.016   4.559  0.00  0.00     0.078 C 
ATOM      2  C1  UNL d   1      -3.264  -3.308   4.731  0.00  0.00    -0.077 A 
ATOM      3  C2  UNL d   1      -3.959  -4.085   3.797  0.00  0.00    -0.001 A 
ATOM      4  C3  UNL d   1      -5.321  -4.340   3.965  0.00  0.00     0.003 A 
ATOM      5  C4  UNL d   1      -6.000  -3.821   5.066  0.00  0.00    -0.005 A 
ATOM      6  C5  UNL d   1      -5.317  -3.045   6.000  0.00  0.00     0.003 A 
ATOM      7  C6  UNL d   1      -3.955  -2.789   5.833  0.00  0.00    -0.001 A 
ENDROOT
TORSDOF 0
ENDMDL
