MODEL 1
REMARK minimizedAffinity 3.43598485
REMARK minimizedRMSD -1
REMARK  0 active torsions:
REMARK  status: ('A' for Active; 'I' for Inactive)
ROOT
ATOM      1  C   UNL d   1       1.463  -3.446  -1.912  0.00  0.00     0.078 C 
ATOM      2  C1  UNL d   1       1.721  -3.051  -3.336  0.00  0.00    -0.077 A 
ATOM      3  C2  UNL d   1       0.674  -2.648  -4.173  0.00  0.00    -0.001 A 
ATOM      4  C3  UNL d   1       0.927  -2.293  -5.499  0.00  0.00     0.003 A 
ATOM      5  C4  UNL d   1       2.226  -2.338  -6.000  0.00  0.00    -0.005 A 
ATOM      6  C5  UNL d   1       3.275  -2.740  -5.174  0.00  0.00     0.003 A 
ATOM      7  C6  UNL d   1       3.024  -3.095  -3.848  0.00  0.00    -0.001 A 
ENDROOT
TORSDOF 0
ENDMDL
