MODEL 1
REMARK minimizedAffinity 5.2002759
REMARK minimizedRMSD -1
REMARK  0 active torsions:
REMARK  status: ('A' for Active; 'I' for Inactive)
ROOT
ATOM      1  C   UNL d   1      -1.095   2.215   0.330  0.00  0.00     0.078 C 
ATOM      2  C1  UNL d   1      -1.422   1.246   1.427  0.00  0.00    -0.077 A 
ATOM      3  C2  UNL d   1      -0.417   0.493   2.047  0.00  0.00    -0.001 A 
ATOM      4  C3  UNL d   1      -0.737  -0.412   3.059  0.00  0.00     0.003 A 
ATOM      5  C4  UNL d   1      -2.062  -0.574   3.460  0.00  0.00    -0.005 A 
ATOM      6  C5  UNL d   1      -3.069   0.169   2.848  0.00  0.00     0.003 A 
ATOM      7  C6  UNL d   1      -2.751   1.075   1.835  0.00  0.00    -0.001 A 
ENDROOT
TORSDOF 0
ENDMDL
