MODEL 1
REMARK minimizedAffinity 11.5901861
REMARK minimizedRMSD -1
REMARK  0 active torsions:
REMARK  status: ('A' for Active; 'I' for Inactive)
ROOT
ATOM      1  C   UNL d   1       2.244  -2.210   1.468  0.00  0.00     0.078 C 
ATOM      2  C1  UNL d   1       3.557  -2.928   1.559  0.00  0.00    -0.077 A 
ATOM      3  C2  UNL d   1       4.768  -2.230   1.474  0.00  0.00    -0.001 A 
ATOM      4  C3  UNL d   1       5.983  -2.913   1.551  0.00  0.00     0.003 A 
ATOM      5  C4  UNL d   1       5.999  -4.297   1.712  0.00  0.00    -0.005 A 
ATOM      6  C5  UNL d   1       4.799  -5.000   1.796  0.00  0.00     0.003 A 
ATOM      7  C6  UNL d   1       3.583  -4.319   1.719  0.00  0.00    -0.001 A 
ENDROOT
TORSDOF 0
ENDMDL
