MODEL 1
REMARK minimizedAffinity 12.5589247
REMARK minimizedRMSD -1
REMARK  0 active torsions:
REMARK  status: ('A' for Active; 'I' for Inactive)
ROOT
ATOM      1  C   UNL d   1      -4.983   6.000   3.049  0.00  0.00     0.078 C 
ATOM      2  C1  UNL d   1      -4.805   5.880   1.565  0.00  0.00    -0.077 A 
ATOM      3  C2  UNL d   1      -3.539   5.663   1.006  0.00  0.00    -0.001 A 
ATOM      4  C3  UNL d   1      -3.387   5.563  -0.378  0.00  0.00     0.003 A 
ATOM      5  C4  UNL d   1      -4.495   5.680  -1.215  0.00  0.00    -0.005 A 
ATOM      6  C5  UNL d   1      -5.757   5.899  -0.668  0.00  0.00     0.003 A 
ATOM      7  C6  UNL d   1      -5.912   5.999   0.716  0.00  0.00    -0.001 A 
ENDROOT
TORSDOF 0
ENDMDL
