MODEL 1
REMARK minimizedAffinity 10.3271036
REMARK minimizedRMSD -1
REMARK  0 active torsions:
REMARK  status: ('A' for Active; 'I' for Inactive)
ROOT
ATOM      1  C   UNL d   1      -5.273   5.920   4.718  0.00  0.00     0.078 C 
ATOM      2  C1  UNL d   1      -4.970   5.927   3.249  0.00  0.00    -0.077 A 
ATOM      3  C2  UNL d   1      -5.997   5.847   2.301  0.00  0.00    -0.001 A 
ATOM      4  C3  UNL d   1      -5.700   5.845   0.937  0.00  0.00     0.003 A 
ATOM      5  C4  UNL d   1      -4.376   5.921   0.509  0.00  0.00    -0.005 A 
ATOM      6  C5  UNL d   1      -3.347   5.998   1.446  0.00  0.00     0.003 A 
ATOM      7  C6  UNL d   1      -3.642   6.000   2.810  0.00  0.00    -0.001 A 
ENDROOT
TORSDOF 0
ENDMDL
