MODEL 1
REMARK minimizedAffinity 10.0617542
REMARK minimizedRMSD -1
REMARK  0 active torsions:
REMARK  status: ('A' for Active; 'I' for Inactive)
ROOT
ATOM      1  C   UNL d   1       1.479  -4.356  -6.000  0.00  0.00     0.078 C 
ATOM      2  C1  UNL d   1       1.756  -4.580  -4.543  0.00  0.00    -0.077 A 
ATOM      3  C2  UNL d   1       1.469  -5.809  -3.935  0.00  0.00    -0.001 A 
ATOM      4  C3  UNL d   1       1.724  -6.000  -2.576  0.00  0.00     0.003 A 
ATOM      5  C4  UNL d   1       2.265  -4.967  -1.814  0.00  0.00    -0.005 A 
ATOM      6  C5  UNL d   1       2.552  -3.741  -2.409  0.00  0.00     0.003 A 
ATOM      7  C6  UNL d   1       2.298  -3.547  -3.768  0.00  0.00    -0.001 A 
ENDROOT
TORSDOF 0
ENDMDL
