MODEL 1
REMARK minimizedAffinity 6.14403582
REMARK minimizedRMSD -1
REMARK  0 active torsions:
REMARK  status: ('A' for Active; 'I' for Inactive)
ROOT
ATOM      1  C   UNL d   1      -0.199   3.571  -0.716  0.00  0.00     0.078 C 
ATOM      2  C1  UNL d   1      -0.856   2.807   0.395  0.00  0.00    -0.077 A 
ATOM      3  C2  UNL d   1      -2.174   3.081   0.777  0.00  0.00    -0.001 A 
ATOM      4  C3  UNL d   1      -2.770   2.369   1.819  0.00  0.00     0.003 A 
ATOM      5  C4  UNL d   1      -2.054   1.378   2.488  0.00  0.00    -0.005 A 
ATOM      6  C5  UNL d   1      -0.741   1.099   2.116  0.00  0.00     0.003 A 
ATOM      7  C6  UNL d   1      -0.143   1.811   1.074  0.00  0.00    -0.001 A 
ENDROOT
TORSDOF 0
ENDMDL
