MODEL 1
REMARK minimizedAffinity 14.0512409
REMARK minimizedRMSD -1
REMARK  0 active torsions:
REMARK  status: ('A' for Active; 'I' for Inactive)
ROOT
ATOM      1  C   UNL d   1       0.051   2.909  -0.255  0.00  0.00     0.078 C 
ATOM      2  C1  UNL d   1      -0.489   3.703  -1.406  0.00  0.00    -0.077 A 
ATOM      3  C2  UNL d   1      -0.015   4.993  -1.678  0.00  0.00    -0.001 A 
ATOM      4  C3  UNL d   1      -0.534   5.725  -2.747  0.00  0.00     0.003 A 
ATOM      5  C4  UNL d   1      -1.530   5.176  -3.553  0.00  0.00    -0.005 A 
ATOM      6  C5  UNL d   1      -2.010   3.895  -3.289  0.00  0.00     0.003 A 
ATOM      7  C6  UNL d   1      -1.492   3.162  -2.220  0.00  0.00    -0.001 A 
ENDROOT
TORSDOF 0
ENDMDL
