MODEL 1
REMARK minimizedAffinity 1.49892008
REMARK minimizedRMSD -1
REMARK  0 active torsions:
REMARK  status: ('A' for Active; 'I' for Inactive)
ROOT
ATOM      1  C   UNL d   1      -0.112   1.717   0.408  0.00  0.00     0.078 C 
ATOM      2  C1  UNL d   1      -0.085   3.022  -0.329  0.00  0.00    -0.077 A 
ATOM      3  C2  UNL d   1      -0.635   3.138  -1.611  0.00  0.00    -0.001 A 
ATOM      4  C3  UNL d   1      -0.595   4.358  -2.289  0.00  0.00     0.003 A 
ATOM      5  C4  UNL d   1      -0.004   5.470  -1.694  0.00  0.00    -0.005 A 
ATOM      6  C5  UNL d   1       0.549   5.364  -0.419  0.00  0.00     0.003 A 
ATOM      7  C6  UNL d   1       0.509   4.145   0.261  0.00  0.00    -0.001 A 
ENDROOT
TORSDOF 0
ENDMDL
