MODEL 1
REMARK minimizedAffinity 5.42650223
REMARK minimizedRMSD -1
REMARK  0 active torsions:
REMARK  status: ('A' for Active; 'I' for Inactive)
ROOT
ATOM      1  C   UNL d   1      -0.013   1.717   0.609  0.00  0.00     0.078 C 
ATOM      2  C1  UNL d   1      -0.148   2.875  -0.333  0.00  0.00    -0.077 A 
ATOM      3  C2  UNL d   1       0.427   4.117  -0.037  0.00  0.00    -0.001 A 
ATOM      4  C3  UNL d   1       0.285   5.190  -0.919  0.00  0.00     0.003 A 
ATOM      5  C4  UNL d   1      -0.434   5.032  -2.102  0.00  0.00    -0.005 A 
ATOM      6  C5  UNL d   1      -1.012   3.801  -2.405  0.00  0.00     0.003 A 
ATOM      7  C6  UNL d   1      -0.871   2.727  -1.524  0.00  0.00    -0.001 A 
ENDROOT
TORSDOF 0
ENDMDL
