MODEL 1
REMARK minimizedAffinity 6.12016249
REMARK minimizedRMSD -1
REMARK  0 active torsions:
REMARK  status: ('A' for Active; 'I' for Inactive)
ROOT
ATOM      1  C   UNL d   1      -0.277   1.578   0.466  0.00  0.00     0.078 C 
ATOM      2  C1  UNL d   1      -0.374   2.806  -0.390  0.00  0.00    -0.077 A 
ATOM      3  C2  UNL d   1      -0.905   2.744  -1.684  0.00  0.00    -0.001 A 
ATOM      4  C3  UNL d   1      -0.980   3.893  -2.472  0.00  0.00     0.003 A 
ATOM      5  C4  UNL d   1      -0.526   5.113  -1.976  0.00  0.00    -0.005 A 
ATOM      6  C5  UNL d   1       0.006   5.185  -0.690  0.00  0.00     0.003 A 
ATOM      7  C6  UNL d   1       0.082   4.037   0.100  0.00  0.00    -0.001 A 
ENDROOT
TORSDOF 0
ENDMDL
