MODEL 1
REMARK minimizedAffinity 0.291022331
REMARK minimizedRMSD -1
REMARK  0 active torsions:
REMARK  status: ('A' for Active; 'I' for Inactive)
ROOT
ATOM      1  C   UNL d   1      -0.912   2.047   0.850  0.00  0.00     0.078 C 
ATOM      2  C1  UNL d   1      -0.466   3.176  -0.031  0.00  0.00    -0.077 A 
ATOM      3  C2  UNL d   1       0.188   4.293   0.503  0.00  0.00    -0.001 A 
ATOM      4  C3  UNL d   1       0.589   5.340  -0.328  0.00  0.00     0.003 A 
ATOM      5  C4  UNL d   1       0.338   5.282  -1.697  0.00  0.00    -0.005 A 
ATOM      6  C5  UNL d   1      -0.314   4.176  -2.238  0.00  0.00     0.003 A 
ATOM      7  C6  UNL d   1      -0.716   3.127  -1.408  0.00  0.00    -0.001 A 
ENDROOT
TORSDOF 0
ENDMDL
