MODEL 1
REMARK minimizedAffinity 4.00874424
REMARK minimizedRMSD -1
REMARK  0 active torsions:
REMARK  status: ('A' for Active; 'I' for Inactive)
ROOT
ATOM      1  C   UNL d   1      -0.466   2.930  -2.852  0.00  0.00     0.078 C 
ATOM      2  C1  UNL d   1      -0.247   3.231  -1.400  0.00  0.00    -0.077 A 
ATOM      3  C2  UNL d   1      -0.501   2.267  -0.416  0.00  0.00    -0.001 A 
ATOM      4  C3  UNL d   1      -0.302   2.565   0.932  0.00  0.00     0.003 A 
ATOM      5  C4  UNL d   1       0.151   3.827   1.311  0.00  0.00    -0.005 A 
ATOM      6  C5  UNL d   1       0.405   4.794   0.340  0.00  0.00     0.003 A 
ATOM      7  C6  UNL d   1       0.206   4.498  -1.010  0.00  0.00    -0.001 A 
ENDROOT
TORSDOF 0
ENDMDL
