MODEL 1
REMARK minimizedAffinity 5.74610758
REMARK minimizedRMSD -1
REMARK  0 active torsions:
REMARK  status: ('A' for Active; 'I' for Inactive)
ROOT
ATOM      1  C4' PXY d   1      -1.290  -2.108  -5.701  0.00  0.00     0.077 C 
ATOM      2  C1' PXY d   1      -2.223  -2.718  -0.029  0.00  0.00     0.077 C 
ATOM      3  C1  PXY d   1      -1.975  -2.571  -1.517  0.00  0.00    -0.082 A 
ATOM      4  C2  PXY d   1      -1.681  -1.381  -2.017  0.00  0.00     0.003 A 
ATOM      5  C3  PXY d   1      -1.485  -1.224  -3.365  0.00  0.00     0.003 A 
ATOM      6  C4  PXY d   1      -1.539  -2.306  -4.203  0.00  0.00    -0.082 A 
ATOM      7  C5  PXY d   1      -1.828  -3.524  -3.699  0.00  0.00     0.003 A 
ATOM      8  C6  PXY d   1      -2.064  -3.655  -2.334  0.00  0.00     0.003 A 
ENDROOT
TORSDOF 0
ENDMDL
