MODEL 1
REMARK minimizedAffinity -0.0242465083
REMARK minimizedRMSD -1
REMARK  0 active torsions:
REMARK  status: ('A' for Active; 'I' for Inactive)
ROOT
ATOM      1  C4' PXY d   1      -0.713  -3.127  -4.498  0.00  0.00     0.077 C 
ATOM      2  C1' PXY d   1      -1.760  -2.985   1.186  0.00  0.00     0.077 C 
ATOM      3  C1  PXY d   1      -1.473  -3.020  -0.303  0.00  0.00    -0.082 A 
ATOM      4  C2  PXY d   1      -2.444  -2.757  -1.162  0.00  0.00     0.003 A 
ATOM      5  C3  PXY d   1      -2.209  -2.815  -2.512  0.00  0.00     0.003 A 
ATOM      6  C4  PXY d   1      -0.955  -3.094  -2.986  0.00  0.00    -0.082 A 
ATOM      7  C5  PXY d   1       0.043  -3.354  -2.115  0.00  0.00     0.003 A 
ATOM      8  C6  PXY d   1      -0.226  -3.330  -0.750  0.00  0.00     0.003 A 
ENDROOT
TORSDOF 0
ENDMDL
