MODEL 1
REMARK minimizedAffinity 4.79330826
REMARK minimizedRMSD -1
REMARK  0 active torsions:
REMARK  status: ('A' for Active; 'I' for Inactive)
ROOT
ATOM      1  C4' PXY d   1       1.294   1.402   2.738  0.00  0.00     0.077 C 
ATOM      2  C1' PXY d   1       5.888  -1.088   0.264  0.00  0.00     0.077 C 
ATOM      3  C1  PXY d   1       4.681  -0.428   0.902  0.00  0.00    -0.082 A 
ATOM      4  C2  PXY d   1       4.596  -0.355   2.220  0.00  0.00     0.003 A 
ATOM      5  C3  PXY d   1       3.497   0.210   2.814  0.00  0.00     0.003 A 
ATOM      6  C4  PXY d   1       2.499   0.753   2.050  0.00  0.00    -0.082 A 
ATOM      7  C5  PXY d   1       2.583   0.691   0.704  0.00  0.00     0.003 A 
ATOM      8  C6  PXY d   1       3.688   0.077   0.121  0.00  0.00     0.003 A 
ENDROOT
TORSDOF 0
ENDMDL
