MODEL 1
REMARK minimizedAffinity 2.05806208
REMARK minimizedRMSD -1
REMARK  0 active torsions:
REMARK  status: ('A' for Active; 'I' for Inactive)
ROOT
ATOM      1  C4' PXY d   1      -1.803  -3.747   1.446  0.00  0.00     0.077 C 
ATOM      2  C1' PXY d   1      -1.235  -2.252  -4.109  0.00  0.00     0.077 C 
ATOM      3  C1  PXY d   1      -1.372  -2.649  -2.652  0.00  0.00    -0.082 A 
ATOM      4  C2  PXY d   1      -2.576  -2.833  -2.135  0.00  0.00     0.003 A 
ATOM      5  C3  PXY d   1      -2.719  -3.161  -0.811  0.00  0.00     0.003 A 
ATOM      6  C4  PXY d   1      -1.617  -3.355  -0.022  0.00  0.00    -0.082 A 
ATOM      7  C5  PXY d   1      -0.385  -3.179  -0.545  0.00  0.00     0.003 A 
ATOM      8  C6  PXY d   1      -0.262  -2.806  -1.881  0.00  0.00     0.003 A 
ENDROOT
TORSDOF 0
ENDMDL
