MODEL 1
REMARK minimizedAffinity 4.34092426
REMARK minimizedRMSD -1
REMARK  0 active torsions:
REMARK  status: ('A' for Active; 'I' for Inactive)
ROOT
ATOM      1  C4' PXY d   1      -3.998  -5.818   1.222  0.00  0.00     0.077 C 
ATOM      2  C1' PXY d   1      -2.208  -1.918  -2.651  0.00  0.00     0.077 C 
ATOM      3  C1  PXY d   1      -2.666  -2.940  -1.629  0.00  0.00    -0.082 A 
ATOM      4  C2  PXY d   1      -3.606  -3.813  -1.953  0.00  0.00     0.003 A 
ATOM      5  C3  PXY d   1      -4.055  -4.723  -1.030  0.00  0.00     0.003 A 
ATOM      6  C4  PXY d   1      -3.498  -4.774   0.220  0.00  0.00    -0.082 A 
ATOM      7  C5  PXY d   1      -2.531  -3.894   0.554  0.00  0.00     0.003 A 
ATOM      8  C6  PXY d   1      -2.119  -2.951  -0.383  0.00  0.00     0.003 A 
ENDROOT
TORSDOF 0
ENDMDL
