MODEL 1
REMARK minimizedAffinity 1.56386673
REMARK minimizedRMSD -1
REMARK  0 active torsions:
REMARK  status: ('A' for Active; 'I' for Inactive)
ROOT
ATOM      1  C4' PXY d   1       0.828   2.435  -2.211  0.00  0.00     0.077 C 
ATOM      2  C1' PXY d   1       4.347  -0.456   1.349  0.00  0.00     0.077 C 
ATOM      3  C1  PXY d   1       3.434   0.307   0.409  0.00  0.00    -0.082 A 
ATOM      4  C2  PXY d   1       2.196   0.585   0.782  0.00  0.00     0.003 A 
ATOM      5  C3  PXY d   1       1.347   1.246  -0.068  0.00  0.00     0.003 A 
ATOM      6  C4  PXY d   1       1.787   1.675  -1.291  0.00  0.00    -0.082 A 
ATOM      7  C5  PXY d   1       3.053   1.405  -1.675  0.00  0.00     0.003 A 
ATOM      8  C6  PXY d   1       3.886   0.696  -0.814  0.00  0.00     0.003 A 
ENDROOT
TORSDOF 0
ENDMDL
