MODEL 1
REMARK minimizedAffinity 11.1683168
REMARK minimizedRMSD -1
REMARK  0 active torsions:
REMARK  status: ('A' for Active; 'I' for Inactive)
ROOT
ATOM      1  C4' PXY d   1      -4.426  -2.834  -2.915  0.00  0.00     0.077 C 
ATOM      2  C1' PXY d   1       0.676  -3.015  -0.204  0.00  0.00     0.077 C 
ATOM      3  C1  PXY d   1      -0.657  -2.973  -0.925  0.00  0.00    -0.082 A 
ATOM      4  C2  PXY d   1      -1.592  -2.127  -0.523  0.00  0.00     0.003 A 
ATOM      5  C3  PXY d   1      -2.814  -2.098  -1.144  0.00  0.00     0.003 A 
ATOM      6  C4  PXY d   1      -3.063  -2.905  -2.222  0.00  0.00    -0.082 A 
ATOM      7  C5  PXY d   1      -2.110  -3.763  -2.645  0.00  0.00     0.003 A 
ATOM      8  C6  PXY d   1      -0.891  -3.806  -1.975  0.00  0.00     0.003 A 
ENDROOT
TORSDOF 0
ENDMDL
