MODEL 1
REMARK minimizedAffinity 8.06850338
REMARK minimizedRMSD -1
REMARK  0 active torsions:
REMARK  status: ('A' for Active; 'I' for Inactive)
ROOT
ATOM      1  C4' PXY d   1      -6.000  -5.999  -2.996  0.00  0.00     0.077 C 
ATOM      2  C1' PXY d   1      -1.989  -2.043  -1.699  0.00  0.00     0.077 C 
ATOM      3  C1  PXY d   1      -3.034  -3.090  -2.033  0.00  0.00    -0.082 A 
ATOM      4  C2  PXY d   1      -3.830  -2.910  -3.074  0.00  0.00     0.003 A 
ATOM      5  C3  PXY d   1      -4.802  -3.831  -3.372  0.00  0.00     0.003 A 
ATOM      6  C4  PXY d   1      -4.925  -4.973  -2.627  0.00  0.00    -0.082 A 
ATOM      7  C5  PXY d   1      -4.109  -5.169  -1.569  0.00  0.00     0.003 A 
ATOM      8  C6  PXY d   1      -3.157  -4.202  -1.260  0.00  0.00     0.003 A 
ENDROOT
TORSDOF 0
ENDMDL
