MODEL 1
REMARK minimizedAffinity -0.468889445
REMARK minimizedRMSD -1
REMARK  0 active torsions:
REMARK  status: ('A' for Active; 'I' for Inactive)
ROOT
ATOM      1  C4' PXY d   1       1.127   0.734   3.070  0.00  0.00     0.077 C 
ATOM      2  C1' PXY d   1       5.997   0.419  -0.028  0.00  0.00     0.077 C 
ATOM      3  C1  PXY d   1       4.718   0.514   0.780  0.00  0.00    -0.082 A 
ATOM      4  C2  PXY d   1       4.584  -0.209   1.880  0.00  0.00     0.003 A 
ATOM      5  C3  PXY d   1       3.421  -0.160   2.605  0.00  0.00     0.003 A 
ATOM      6  C4  PXY d   1       2.405   0.678   2.229  0.00  0.00    -0.082 A 
ATOM      7  C5  PXY d   1       2.539   1.427   1.114  0.00  0.00     0.003 A 
ATOM      8  C6  PXY d   1       3.711   1.332   0.369  0.00  0.00     0.003 A 
ENDROOT
TORSDOF 0
ENDMDL
