MODEL 1
REMARK minimizedAffinity 0.710732818
REMARK minimizedRMSD -1
REMARK  0 active torsions:
REMARK  status: ('A' for Active; 'I' for Inactive)
ROOT
ATOM      1  C4' PXY d   1      -1.195  -3.649   1.189  0.00  0.00     0.077 C 
ATOM      2  C1' PXY d   1      -0.700  -2.895  -4.520  0.00  0.00     0.077 C 
ATOM      3  C1  PXY d   1      -0.821  -3.103  -3.024  0.00  0.00    -0.082 A 
ATOM      4  C2  PXY d   1      -1.915  -2.704  -2.394  0.00  0.00     0.003 A 
ATOM      5  C3  PXY d   1      -2.028  -2.855  -1.036  0.00  0.00     0.003 A 
ATOM      6  C4  PXY d   1      -1.033  -3.469  -0.322  0.00  0.00    -0.082 A 
ATOM      7  C5  PXY d   1       0.081  -3.887  -0.959  0.00  0.00     0.003 A 
ATOM      8  C6  PXY d   1       0.194  -3.687  -2.332  0.00  0.00     0.003 A 
ENDROOT
TORSDOF 0
ENDMDL
