MODEL 1
REMARK minimizedAffinity -1.16063786
REMARK minimizedRMSD -1
REMARK  0 active torsions:
REMARK  status: ('A' for Active; 'I' for Inactive)
ROOT
ATOM      1  C4' PXY d   1      -1.570  -2.137  -5.859  0.00  0.00     0.077 C 
ATOM      2  C1' PXY d   1      -1.282  -3.381  -0.222  0.00  0.00     0.077 C 
ATOM      3  C1  PXY d   1      -1.364  -3.044  -1.697  0.00  0.00    -0.082 A 
ATOM      4  C2  PXY d   1      -1.265  -4.010  -2.596  0.00  0.00     0.003 A 
ATOM      5  C3  PXY d   1      -1.305  -3.719  -3.935  0.00  0.00     0.003 A 
ATOM      6  C4  PXY d   1      -1.502  -2.432  -4.359  0.00  0.00    -0.082 A 
ATOM      7  C5  PXY d   1      -1.615  -1.442  -3.448  0.00  0.00     0.003 A 
ATOM      8  C6  PXY d   1      -1.530  -1.753  -2.094  0.00  0.00     0.003 A 
ENDROOT
TORSDOF 0
ENDMDL
