MODEL 1
REMARK minimizedAffinity -2.29544401
REMARK minimizedRMSD -1
REMARK  0 active torsions:
REMARK  status: ('A' for Active; 'I' for Inactive)
ROOT
ATOM      1  C4' PXY d   1       5.920   6.000   4.065  0.00  0.00     0.077 C 
ATOM      2  C1' PXY d   1       4.123   1.629   0.736  0.00  0.00     0.077 C 
ATOM      3  C1  PXY d   1       4.598   2.766   1.618  0.00  0.00    -0.082 A 
ATOM      4  C2  PXY d   1       4.070   3.971   1.473  0.00  0.00     0.003 A 
ATOM      5  C3  PXY d   1       4.511   5.018   2.240  0.00  0.00     0.003 A 
ATOM      6  C4  PXY d   1       5.464   4.819   3.203  0.00  0.00    -0.082 A 
ATOM      7  C5  PXY d   1       6.000   3.591   3.364  0.00  0.00     0.003 A 
ATOM      8  C6  PXY d   1       5.568   2.550   2.547  0.00  0.00     0.003 A 
ENDROOT
TORSDOF 0
ENDMDL
