MODEL 1
REMARK minimizedAffinity 2.24669719
REMARK minimizedRMSD -1
REMARK  0 active torsions:
REMARK  status: ('A' for Active; 'I' for Inactive)
ROOT
ATOM      1  C4' PXY d   1       0.793   1.434   4.103  0.00  0.00     0.077 C 
ATOM      2  C1' PXY d   1       4.547  -0.114  -0.011  0.00  0.00     0.077 C 
ATOM      3  C1  PXY d   1       3.560   0.303   1.061  0.00  0.00    -0.082 A 
ATOM      4  C2  PXY d   1       3.663  -0.206   2.278  0.00  0.00     0.003 A 
ATOM      5  C3  PXY d   1       2.760   0.136   3.252  0.00  0.00     0.003 A 
ATOM      6  C4  PXY d   1       1.773   1.049   2.991  0.00  0.00    -0.082 A 
ATOM      7  C5  PXY d   1       1.668   1.581   1.755  0.00  0.00     0.003 A 
ATOM      8  C6  PXY d   1       2.570   1.190   0.770  0.00  0.00     0.003 A 
ENDROOT
TORSDOF 0
ENDMDL
