MODEL 1
REMARK minimizedAffinity 7.37406635
REMARK minimizedRMSD -1
REMARK  0 active torsions:
REMARK  status: ('A' for Active; 'I' for Inactive)
ROOT
ATOM      1  C4' PXY d   1       1.921   0.772   2.768  0.00  0.00     0.077 C 
ATOM      2  C1' PXY d   1       3.697   0.582  -2.730  0.00  0.00     0.077 C 
ATOM      3  C1  PXY d   1       3.240   0.623  -1.285  0.00  0.00    -0.082 A 
ATOM      4  C2  PXY d   1       2.025   1.061  -0.995  0.00  0.00     0.003 A 
ATOM      5  C3  PXY d   1       1.607   1.134   0.309  0.00  0.00     0.003 A 
ATOM      6  C4  PXY d   1       2.422   0.705   1.323  0.00  0.00    -0.082 A 
ATOM      7  C5  PXY d   1       3.658   0.246   1.034  0.00  0.00     0.003 A 
ATOM      8  C6  PXY d   1       4.078   0.219  -0.293  0.00  0.00     0.003 A 
ENDROOT
TORSDOF 0
ENDMDL
