MODEL 1
REMARK minimizedAffinity 3.53482747
REMARK minimizedRMSD -1
REMARK  0 active torsions:
REMARK  status: ('A' for Active; 'I' for Inactive)
ROOT
ATOM      1  C4' PXY d   1      -1.179  -2.522  -5.205  0.00  0.00     0.077 C 
ATOM      2  C1' PXY d   1      -1.409  -3.063   0.546  0.00  0.00     0.077 C 
ATOM      3  C1  PXY d   1      -1.336  -2.922  -0.962  0.00  0.00    -0.082 A 
ATOM      4  C2  PXY d   1      -2.297  -2.280  -1.607  0.00  0.00     0.003 A 
ATOM      5  C3  PXY d   1      -2.262  -2.172  -2.973  0.00  0.00     0.003 A 
ATOM      6  C4  PXY d   1      -1.207  -2.680  -3.682  0.00  0.00    -0.082 A 
ATOM      7  C5  PXY d   1      -0.217  -3.327  -3.030  0.00  0.00     0.003 A 
ATOM      8  C6  PXY d   1      -0.292  -3.462  -1.647  0.00  0.00     0.003 A 
ENDROOT
TORSDOF 0
ENDMDL
