MODEL 1
REMARK minimizedAffinity 3.87208223
REMARK minimizedRMSD -1
REMARK  0 active torsions:
REMARK  status: ('A' for Active; 'I' for Inactive)
ROOT
ATOM      1  C4' PXY d   1      -1.663  -2.922   0.744  0.00  0.00     0.077 C 
ATOM      2  C1' PXY d   1      -1.503  -2.978  -5.034  0.00  0.00     0.077 C 
ATOM      3  C1  PXY d   1      -1.536  -2.973  -3.519  0.00  0.00    -0.082 A 
ATOM      4  C2  PXY d   1      -2.624  -2.559  -2.890  0.00  0.00     0.003 A 
ATOM      5  C3  PXY d   1      -2.659  -2.517  -1.519  0.00  0.00     0.003 A 
ATOM      6  C4  PXY d   1      -1.589  -2.954  -0.785  0.00  0.00    -0.082 A 
ATOM      7  C5  PXY d   1      -0.479  -3.387  -1.420  0.00  0.00     0.003 A 
ATOM      8  C6  PXY d   1      -0.448  -3.383  -2.812  0.00  0.00     0.003 A 
ENDROOT
TORSDOF 0
ENDMDL
