MODEL 1
REMARK minimizedAffinity 11.8017111
REMARK minimizedRMSD -1
REMARK  0 active torsions:
REMARK  status: ('A' for Active; 'I' for Inactive)
ROOT
ATOM      1  C4' PXY d   1       0.942   3.933   0.903  0.00  0.00     0.077 C 
ATOM      2  C1' PXY d   1       4.520  -0.602   0.692  0.00  0.00     0.077 C 
ATOM      3  C1  PXY d   1       3.590   0.594   0.754  0.00  0.00    -0.082 A 
ATOM      4  C2  PXY d   1       2.283   0.412   0.670  0.00  0.00     0.003 A 
ATOM      5  C3  PXY d   1       1.430   1.485   0.692  0.00  0.00     0.003 A 
ATOM      6  C4  PXY d   1       1.917   2.754   0.855  0.00  0.00    -0.082 A 
ATOM      7  C5  PXY d   1       3.250   2.948   0.952  0.00  0.00     0.003 A 
ATOM      8  C6  PXY d   1       4.101   1.848   0.886  0.00  0.00     0.003 A 
ENDROOT
TORSDOF 0
ENDMDL
