MODEL 1
REMARK minimizedAffinity 0.279790759
REMARK minimizedRMSD -1
REMARK  0 active torsions:
REMARK  status: ('A' for Active; 'I' for Inactive)
ROOT
ATOM      1  C4' PXY d   1       4.807   4.785   1.526  0.00  0.00     0.077 C 
ATOM      2  C1' PXY d   1       4.717  -0.926   0.632  0.00  0.00     0.077 C 
ATOM      3  C1  PXY d   1       4.751   0.570   0.874  0.00  0.00    -0.082 A 
ATOM      4  C2  PXY d   1       3.638   1.277   0.762  0.00  0.00     0.003 A 
ATOM      5  C3  PXY d   1       3.657   2.635   0.946  0.00  0.00     0.003 A 
ATOM      6  C4  PXY d   1       4.818   3.270   1.300  0.00  0.00    -0.082 A 
ATOM      7  C5  PXY d   1       5.955   2.555   1.428  0.00  0.00     0.003 A 
ATOM      8  C6  PXY d   1       5.923   1.183   1.196  0.00  0.00     0.003 A 
ENDROOT
TORSDOF 0
ENDMDL
