MODEL 1
REMARK minimizedAffinity 7.88646936
REMARK minimizedRMSD -1
REMARK  0 active torsions:
REMARK  status: ('A' for Active; 'I' for Inactive)
ROOT
ATOM      1  C4' PXY d   1      -1.581  -2.818   1.073  0.00  0.00     0.077 C 
ATOM      2  C1' PXY d   1      -1.339  -3.691  -4.636  0.00  0.00     0.077 C 
ATOM      3  C1  PXY d   1      -1.410  -3.452  -3.141  0.00  0.00    -0.082 A 
ATOM      4  C2  PXY d   1      -0.429  -3.877  -2.363  0.00  0.00     0.003 A 
ATOM      5  C3  PXY d   1      -0.493  -3.698  -1.005  0.00  0.00     0.003 A 
ATOM      6  C4  PXY d   1      -1.547  -3.029  -0.443  0.00  0.00    -0.082 A 
ATOM      7  C5  PXY d   1      -2.547  -2.582  -1.232  0.00  0.00     0.003 A 
ATOM      8  C6  PXY d   1      -2.483  -2.810  -2.603  0.00  0.00     0.003 A 
ENDROOT
TORSDOF 0
ENDMDL
