MODEL 1
REMARK minimizedAffinity 6.89177608
REMARK minimizedRMSD -1
REMARK  1 active torsions:
REMARK  status: ('A' for Active; 'I' for Inactive)
REMARK    1  A    between atoms: N_2  and  C1_3 
ROOT
ATOM      1  C1  UNL d   1       3.456  -4.031   3.976  0.00  0.00     0.143 A 
ATOM      2  C2  UNL d   1       3.716  -5.406   3.977  0.00  0.00    -0.057 A 
ATOM      3  C3  UNL d   1       4.488  -5.998   4.984  0.00  0.00     0.033 A 
ATOM      4  C4  UNL d   1       5.040  -5.218   5.995  0.00  0.00    -0.042 A 
ATOM      5  C5  UNL d   1       4.816  -3.846   6.000  0.00  0.00     0.033 A 
ATOM      6  C6  UNL d   1       4.039  -3.262   4.995  0.00  0.00    -0.057 A 
ENDROOT
BRANCH   1   7
ATOM      7  N   UNL d   1       2.779  -3.369   2.950  0.00  0.00    -0.732 N 
ATOM      8  C   UNL d   1       2.210  -4.109   1.844  0.00  0.00     0.284 C 
ATOM      9  H3  UNL d   1       2.186  -2.619   3.297  0.00  0.00     0.395 HD
ENDBRANCH   1   7
TORSDOF 1
ENDMDL
