MODEL 1
REMARK minimizedAffinity 5.91380692
REMARK minimizedRMSD -1
REMARK  1 active torsions:
REMARK  status: ('A' for Active; 'I' for Inactive)
REMARK    1  A    between atoms: N_2  and  C1_3 
ROOT
ATOM      1  C1  UNL d   1       1.141  -0.196  -1.278  0.00  0.00     0.143 A 
ATOM      2  C2  UNL d   1       0.013  -1.001  -1.084  0.00  0.00    -0.057 A 
ATOM      3  C3  UNL d   1      -0.180  -1.705   0.110  0.00  0.00     0.033 A 
ATOM      4  C4  UNL d   1       0.769  -1.639   1.125  0.00  0.00    -0.042 A 
ATOM      5  C5  UNL d   1       1.909  -0.865   0.945  0.00  0.00     0.033 A 
ATOM      6  C6  UNL d   1       2.093  -0.158  -0.247  0.00  0.00    -0.057 A 
ENDROOT
BRANCH   1   7
ATOM      7  N   UNL d   1       1.438   0.451  -2.480  0.00  0.00    -0.732 N 
ATOM      8  C   UNL d   1       2.608   0.079  -3.246  0.00  0.00     0.284 C 
ATOM      9  H3  UNL d   1       0.609   0.623  -3.044  0.00  0.00     0.395 HD
ENDBRANCH   1   7
TORSDOF 1
ENDMDL
