MODEL 1
REMARK minimizedAffinity 11.5964432
REMARK minimizedRMSD -1
REMARK  1 active torsions:
REMARK  status: ('A' for Active; 'I' for Inactive)
REMARK    1  A    between atoms: N_2  and  C1_3 
ROOT
ATOM      1  C1  UNL d   1      -3.511  -1.340  -2.010  0.00  0.00     0.143 A 
ATOM      2  C2  UNL d   1      -4.209  -0.152  -2.255  0.00  0.00    -0.057 A 
ATOM      3  C3  UNL d   1      -5.160  -0.066  -3.278  0.00  0.00     0.033 A 
ATOM      4  C4  UNL d   1      -5.411  -1.163  -4.097  0.00  0.00    -0.042 A 
ATOM      5  C5  UNL d   1      -4.712  -2.346  -3.888  0.00  0.00     0.033 A 
ATOM      6  C6  UNL d   1      -3.768  -2.428  -2.860  0.00  0.00    -0.057 A 
ENDROOT
BRANCH   1   7
ATOM      7  N   UNL d   1      -2.483  -1.459  -1.072  0.00  0.00    -0.732 N 
ATOM      8  C   UNL d   1      -1.103  -1.272  -1.464  0.00  0.00     0.284 C 
ATOM      9  H3  UNL d   1      -2.722  -1.038  -0.178  0.00  0.00     0.395 HD
ENDBRANCH   1   7
TORSDOF 1
ENDMDL
