MODEL 1
REMARK minimizedAffinity 12.4284172
REMARK minimizedRMSD -1
REMARK  1 active torsions:
REMARK  status: ('A' for Active; 'I' for Inactive)
REMARK    1  A    between atoms: N_2  and  C1_3 
ROOT
ATOM      1  C1  UNL d   1       0.933  -0.981   0.530  0.00  0.00     0.143 A 
ATOM      2  C2  UNL d   1       1.782   0.077   0.875  0.00  0.00    -0.057 A 
ATOM      3  C3  UNL d   1       2.081   1.095  -0.038  0.00  0.00     0.033 A 
ATOM      4  C4  UNL d   1       1.557   1.058  -1.326  0.00  0.00    -0.042 A 
ATOM      5  C5  UNL d   1       0.732   0.003  -1.699  0.00  0.00     0.033 A 
ATOM      6  C6  UNL d   1       0.432  -1.007  -0.780  0.00  0.00    -0.057 A 
ENDROOT
BRANCH   1   7
ATOM      7  N   UNL d   1       0.677  -2.074   1.361  0.00  0.00    -0.732 N 
ATOM      8  C   UNL d   1       1.759  -2.757   2.036  0.00  0.00     0.284 C 
ATOM      9  H3  UNL d   1      -0.153  -1.940   1.935  0.00  0.00     0.395 HD
ENDBRANCH   1   7
TORSDOF 1
ENDMDL
