MODEL 1
REMARK minimizedAffinity 7.88512182
REMARK minimizedRMSD -1
REMARK  1 active torsions:
REMARK  status: ('A' for Active; 'I' for Inactive)
REMARK    1  A    between atoms: N_2  and  C1_3 
ROOT
ATOM      1  C1  UNL d   1       1.005  -0.869   0.337  0.00  0.00     0.143 A 
ATOM      2  C2  UNL d   1       1.934   0.154   0.555  0.00  0.00    -0.057 A 
ATOM      3  C3  UNL d   1       2.179   1.132  -0.417  0.00  0.00     0.033 A 
ATOM      4  C4  UNL d   1       1.518   1.087  -1.640  0.00  0.00    -0.042 A 
ATOM      5  C5  UNL d   1       0.609   0.065  -1.888  0.00  0.00     0.033 A 
ATOM      6  C6  UNL d   1       0.364  -0.905  -0.911  0.00  0.00    -0.057 A 
ENDROOT
BRANCH   1   7
ATOM      7  N   UNL d   1       0.790  -1.926   1.224  0.00  0.00    -0.732 N 
ATOM      8  C   UNL d   1       0.608  -1.677   2.638  0.00  0.00     0.284 C 
ATOM      9  H3  UNL d   1       0.164  -2.632   0.843  0.00  0.00     0.395 HD
ENDBRANCH   1   7
TORSDOF 1
ENDMDL
