MODEL 1
REMARK minimizedAffinity 5.22382689
REMARK minimizedRMSD -1
REMARK  1 active torsions:
REMARK  status: ('A' for Active; 'I' for Inactive)
REMARK    1  A    between atoms: N_2  and  C1_3 
ROOT
ATOM      1  C1  UNL d   1       5.126  -4.921   0.213  0.00  0.00     0.143 A 
ATOM      2  C2  UNL d   1       3.763  -5.139   0.437  0.00  0.00    -0.057 A 
ATOM      3  C3  UNL d   1       2.985  -4.211   1.139  0.00  0.00     0.033 A 
ATOM      4  C4  UNL d   1       3.566  -3.058   1.657  0.00  0.00    -0.042 A 
ATOM      5  C5  UNL d   1       4.924  -2.832   1.467  0.00  0.00     0.033 A 
ATOM      6  C6  UNL d   1       5.694  -3.760   0.759  0.00  0.00    -0.057 A 
ENDROOT
BRANCH   1   7
ATOM      7  N   UNL d   1       5.974  -5.853  -0.393  0.00  0.00    -0.732 N 
ATOM      8  C   UNL d   1       6.000  -5.999  -1.832  0.00  0.00     0.284 C 
ATOM      9  H3  UNL d   1       6.891  -5.885   0.045  0.00  0.00     0.395 HD
ENDBRANCH   1   7
TORSDOF 1
ENDMDL
