MODEL 1
REMARK minimizedAffinity 10.6287575
REMARK minimizedRMSD -1
REMARK  1 active torsions:
REMARK  status: ('A' for Active; 'I' for Inactive)
REMARK    1  A    between atoms: N_2  and  C1_3 
ROOT
ATOM      1  C1  UNL d   1       1.233  -1.490   0.927  0.00  0.00     0.143 A 
ATOM      2  C2  UNL d   1       2.092  -0.391   1.036  0.00  0.00    -0.057 A 
ATOM      3  C3  UNL d   1       1.983   0.704   0.170  0.00  0.00     0.033 A 
ATOM      4  C4  UNL d   1       1.028   0.707  -0.841  0.00  0.00    -0.042 A 
ATOM      5  C5  UNL d   1       0.180  -0.386  -0.984  0.00  0.00     0.033 A 
ATOM      6  C6  UNL d   1       0.289  -1.474  -0.113  0.00  0.00    -0.057 A 
ENDROOT
BRANCH   1   7
ATOM      7  N   UNL d   1       1.355  -2.652   1.693  0.00  0.00    -0.732 N 
ATOM      8  C   UNL d   1       2.659  -3.194   2.008  0.00  0.00     0.284 C 
ATOM      9  H3  UNL d   1       0.696  -2.676   2.469  0.00  0.00     0.395 HD
ENDBRANCH   1   7
TORSDOF 1
ENDMDL
