MODEL 1
REMARK minimizedAffinity -3.1181531
REMARK minimizedRMSD -1
REMARK  0 active torsions:
REMARK  status: ('A' for Active; 'I' for Inactive)
ROOT
ATOM      1  C2' OXE d   1       4.833   4.105   1.492  0.00  0.00     0.078 C 
ATOM      2  C1' OXE d   1       3.971   2.129   3.289  0.00  0.00     0.078 C 
ATOM      3  C1  OXE d   1       3.119   2.395   2.073  0.00  0.00    -0.078 A 
ATOM      4  C2  OXE d   1       3.524   3.395   1.224  0.00  0.00    -0.078 A 
ATOM      5  C3  OXE d   1       2.804   3.644   0.059  0.00  0.00     0.003 A 
ATOM      6  C4  OXE d   1       1.588   2.990  -0.177  0.00  0.00    -0.002 A 
ATOM      7  C5  OXE d   1       1.137   1.995   0.697  0.00  0.00    -0.002 A 
ATOM      8  C6  OXE d   1       1.910   1.656   1.802  0.00  0.00     0.003 A 
ENDROOT
TORSDOF 0
ENDMDL
