MODEL 1
REMARK minimizedAffinity 6.23177195
REMARK minimizedRMSD -1
REMARK  0 active torsions:
REMARK  status: ('A' for Active; 'I' for Inactive)
ROOT
ATOM      1  C2' OXE d   1       2.484   1.300  -5.979  0.00  0.00     0.078 C 
ATOM      2  C1' OXE d   1       4.878  -0.087  -5.503  0.00  0.00     0.078 C 
ATOM      3  C1  OXE d   1       4.855   1.394  -5.218  0.00  0.00    -0.078 A 
ATOM      4  C2  OXE d   1       3.693   2.074  -5.498  0.00  0.00    -0.078 A 
ATOM      5  C3  OXE d   1       3.600   3.430  -5.202  0.00  0.00     0.003 A 
ATOM      6  C4  OXE d   1       4.726   4.140  -4.767  0.00  0.00    -0.002 A 
ATOM      7  C5  OXE d   1       5.930   3.475  -4.513  0.00  0.00    -0.002 A 
ATOM      8  C6  OXE d   1       5.999   2.098  -4.693  0.00  0.00     0.003 A 
ENDROOT
TORSDOF 0
ENDMDL
