MODEL 1
REMARK minimizedAffinity 7.32701874
REMARK minimizedRMSD -1
REMARK  0 active torsions:
REMARK  status: ('A' for Active; 'I' for Inactive)
ROOT
ATOM      1  C2' OXE d   1       2.026   1.088   2.169  0.00  0.00     0.078 C 
ATOM      2  C1' OXE d   1       3.982   1.949   3.990  0.00  0.00     0.078 C 
ATOM      3  C1  OXE d   1       3.864   2.690   2.681  0.00  0.00    -0.078 A 
ATOM      4  C2  OXE d   1       2.936   2.232   1.777  0.00  0.00    -0.078 A 
ATOM      5  C3  OXE d   1       2.749   2.913   0.577  0.00  0.00     0.003 A 
ATOM      6  C4  OXE d   1       3.601   3.964   0.218  0.00  0.00    -0.002 A 
ATOM      7  C5  OXE d   1       4.580   4.420   1.108  0.00  0.00    -0.002 A 
ATOM      8  C6  OXE d   1       4.696   3.823   2.358  0.00  0.00     0.003 A 
ENDROOT
TORSDOF 0
ENDMDL
