MODEL 1
REMARK minimizedAffinity 0.155042112
REMARK minimizedRMSD -1
REMARK  0 active torsions:
REMARK  status: ('A' for Active; 'I' for Inactive)
ROOT
ATOM      1  C2' OXE d   1       3.231   4.470  -6.000  0.00  0.00     0.078 C 
ATOM      2  C1' OXE d   1       5.986   4.476  -5.458  0.00  0.00     0.078 C 
ATOM      3  C1  OXE d   1       5.293   3.140  -5.565  0.00  0.00    -0.078 A 
ATOM      4  C2  OXE d   1       3.936   3.148  -5.784  0.00  0.00    -0.078 A 
ATOM      5  C3  OXE d   1       3.257   1.943  -5.945  0.00  0.00     0.003 A 
ATOM      6  C4  OXE d   1       3.915   0.725  -5.734  0.00  0.00    -0.002 A 
ATOM      7  C5  OXE d   1       5.288   0.696  -5.470  0.00  0.00    -0.002 A 
ATOM      8  C6  OXE d   1       5.999   1.891  -5.425  0.00  0.00     0.003 A 
ENDROOT
TORSDOF 0
ENDMDL
