MODEL 1
REMARK minimizedAffinity 2.69752812
REMARK minimizedRMSD -1
REMARK  0 active torsions:
REMARK  status: ('A' for Active; 'I' for Inactive)
ROOT
ATOM      1  C2' OXE d   1       4.829   4.765  -4.762  0.00  0.00     0.078 C 
ATOM      2  C1' OXE d   1       2.585   3.616  -5.997  0.00  0.00     0.078 C 
ATOM      3  C1  OXE d   1       3.760   2.718  -5.698  0.00  0.00    -0.078 A 
ATOM      4  C2  OXE d   1       4.872   3.299  -5.137  0.00  0.00    -0.078 A 
ATOM      5  C3  OXE d   1       5.963   2.506  -4.791  0.00  0.00     0.003 A 
ATOM      6  C4  OXE d   1       5.998   1.153  -5.149  0.00  0.00    -0.002 A 
ATOM      7  C5  OXE d   1       4.892   0.551  -5.758  0.00  0.00    -0.002 A 
ATOM      8  C6  OXE d   1       3.751   1.308  -6.000  0.00  0.00     0.003 A 
ENDROOT
TORSDOF 0
ENDMDL
