MODEL 1
REMARK minimizedAffinity 1.04370236
REMARK minimizedRMSD -1
REMARK  0 active torsions:
REMARK  status: ('A' for Active; 'I' for Inactive)
ROOT
ATOM      1  C2' OXE d   1       2.501   3.035  -0.094  0.00  0.00     0.078 C 
ATOM      2  C1' OXE d   1       1.976   1.187   1.952  0.00  0.00     0.078 C 
ATOM      3  C1  OXE d   1       3.039   2.228   2.200  0.00  0.00    -0.078 A 
ATOM      4  C2  OXE d   1       3.322   3.099   1.176  0.00  0.00    -0.078 A 
ATOM      5  C3  OXE d   1       4.255   4.114   1.372  0.00  0.00     0.003 A 
ATOM      6  C4  OXE d   1       5.016   4.160   2.546  0.00  0.00    -0.002 A 
ATOM      7  C5  OXE d   1       4.772   3.257   3.586  0.00  0.00    -0.002 A 
ATOM      8  C6  OXE d   1       3.760   2.314   3.446  0.00  0.00     0.003 A 
ENDROOT
TORSDOF 0
ENDMDL
