MODEL 1
REMARK minimizedAffinity 0.892432392
REMARK minimizedRMSD -1
REMARK  0 active torsions:
REMARK  status: ('A' for Active; 'I' for Inactive)
ROOT
ATOM      1  C2' OXE d   1       0.191  -1.092   1.095  0.00  0.00     0.078 C 
ATOM      2  C1' OXE d   1       2.955  -1.406   1.469  0.00  0.00     0.078 C 
ATOM      3  C1  OXE d   1       2.424  -0.006   1.291  0.00  0.00    -0.078 A 
ATOM      4  C2  OXE d   1       1.076   0.135   1.062  0.00  0.00    -0.078 A 
ATOM      5  C3  OXE d   1       0.526   1.408   0.946  0.00  0.00     0.003 A 
ATOM      6  C4  OXE d   1       1.353   2.537   0.906  0.00  0.00    -0.002 A 
ATOM      7  C5  OXE d   1       2.733   2.413   1.098  0.00  0.00    -0.002 A 
ATOM      8  C6  OXE d   1       3.278   1.155   1.333  0.00  0.00     0.003 A 
ENDROOT
TORSDOF 0
ENDMDL
