MODEL 1
REMARK minimizedAffinity 3.9122777
REMARK minimizedRMSD -1
REMARK  0 active torsions:
REMARK  status: ('A' for Active; 'I' for Inactive)
ROOT
ATOM      1  C2' OXE d   1       5.154   4.143   2.531  0.00  0.00     0.078 C 
ATOM      2  C1' OXE d   1       4.099   2.151   4.204  0.00  0.00     0.078 C 
ATOM      3  C1  OXE d   1       3.528   2.277   2.814  0.00  0.00    -0.078 A 
ATOM      4  C2  OXE d   1       4.018   3.284   2.018  0.00  0.00    -0.078 A 
ATOM      5  C3  OXE d   1       3.566   3.410   0.708  0.00  0.00     0.003 A 
ATOM      6  C4  OXE d   1       2.508   2.618   0.244  0.00  0.00    -0.002 A 
ATOM      7  C5  OXE d   1       1.967   1.612   1.052  0.00  0.00    -0.002 A 
ATOM      8  C6  OXE d   1       2.494   1.401   2.321  0.00  0.00     0.003 A 
ENDROOT
TORSDOF 0
ENDMDL
