MODEL 1
REMARK minimizedAffinity -0.657362521
REMARK minimizedRMSD -1
REMARK  0 active torsions:
REMARK  status: ('A' for Active; 'I' for Inactive)
ROOT
ATOM      1  C2' OXE d   1       3.176   3.211  -0.036  0.00  0.00     0.078 C 
ATOM      2  C1' OXE d   1       1.795   1.489   1.699  0.00  0.00     0.078 C 
ATOM      3  C1  OXE d   1       2.924   2.309   2.273  0.00  0.00    -0.078 A 
ATOM      4  C2  OXE d   1       3.624   3.114   1.407  0.00  0.00    -0.078 A 
ATOM      5  C3  OXE d   1       4.640   3.931   1.894  0.00  0.00     0.003 A 
ATOM      6  C4  OXE d   1       5.055   3.828   3.227  0.00  0.00    -0.002 A 
ATOM      7  C5  OXE d   1       4.381   2.984   4.117  0.00  0.00    -0.002 A 
ATOM      8  C6  OXE d   1       3.288   2.252   3.667  0.00  0.00     0.003 A 
ENDROOT
TORSDOF 0
ENDMDL
