MODEL 1
REMARK minimizedAffinity 6.31115961
REMARK minimizedRMSD -1
REMARK  0 active torsions:
REMARK  status: ('A' for Active; 'I' for Inactive)
ROOT
ATOM      1  C2' OXE d   1      -1.737  -3.213   2.407  0.00  0.00     0.078 C 
ATOM      2  C1' OXE d   1      -0.100  -1.281   1.197  0.00  0.00     0.078 C 
ATOM      3  C1  OXE d   1      -0.674  -2.365   0.320  0.00  0.00    -0.078 A 
ATOM      4  C2  OXE d   1      -1.436  -3.333   0.928  0.00  0.00    -0.078 A 
ATOM      5  C3  OXE d   1      -2.034  -4.326   0.157  0.00  0.00     0.003 A 
ATOM      6  C4  OXE d   1      -1.742  -4.436  -1.208  0.00  0.00    -0.002 A 
ATOM      7  C5  OXE d   1      -0.936  -3.483  -1.840  0.00  0.00    -0.002 A 
ATOM      8  C6  OXE d   1      -0.430  -2.419  -1.101  0.00  0.00     0.003 A 
ENDROOT
TORSDOF 0
ENDMDL
