MODEL 1
REMARK minimizedAffinity 0.154455647
REMARK minimizedRMSD -1
REMARK  0 active torsions:
REMARK  status: ('A' for Active; 'I' for Inactive)
ROOT
ATOM      1  C2' OXE d   1       5.043   4.214   2.047  0.00  0.00     0.078 C 
ATOM      2  C1' OXE d   1       4.213   2.445   4.062  0.00  0.00     0.078 C 
ATOM      3  C1  OXE d   1       3.401   2.495   2.792  0.00  0.00    -0.078 A 
ATOM      4  C2  OXE d   1       3.787   3.397   1.830  0.00  0.00    -0.078 A 
ATOM      5  C3  OXE d   1       3.106   3.445   0.617  0.00  0.00     0.003 A 
ATOM      6  C4  OXE d   1       1.940   2.694   0.428  0.00  0.00    -0.002 A 
ATOM      7  C5  OXE d   1       1.506   1.797   1.411  0.00  0.00    -0.002 A 
ATOM      8  C6  OXE d   1       2.248   1.655   2.579  0.00  0.00     0.003 A 
ENDROOT
TORSDOF 0
ENDMDL
