MODEL 1
REMARK minimizedAffinity 1.26925468
REMARK minimizedRMSD -1
REMARK  0 active torsions:
REMARK  status: ('A' for Active; 'I' for Inactive)
ROOT
ATOM      1  C2' OXE d   1       5.138   4.417   2.016  0.00  0.00     0.078 C 
ATOM      2  C1' OXE d   1       4.482   2.202   3.611  0.00  0.00     0.078 C 
ATOM      3  C1  OXE d   1       3.702   2.407   2.337  0.00  0.00    -0.078 A 
ATOM      4  C2  OXE d   1       3.998   3.519   1.586  0.00  0.00    -0.078 A 
ATOM      5  C3  OXE d   1       3.346   3.727   0.374  0.00  0.00     0.003 A 
ATOM      6  C4  OXE d   1       2.286   2.897  -0.012  0.00  0.00    -0.002 A 
ATOM      7  C5  OXE d   1       1.942   1.781   0.758  0.00  0.00    -0.002 A 
ATOM      8  C6  OXE d   1       2.666   1.499   1.911  0.00  0.00     0.003 A 
ENDROOT
TORSDOF 0
ENDMDL
