MODEL 1
REMARK minimizedAffinity -1.58781445
REMARK minimizedRMSD -1
REMARK  0 active torsions:
REMARK  status: ('A' for Active; 'I' for Inactive)
ROOT
ATOM      1  C2' OXE d   1       4.962   3.006   3.574  0.00  0.00     0.078 C 
ATOM      2  C1' OXE d   1       4.651   5.164   1.806  0.00  0.00     0.078 C 
ATOM      3  C1  OXE d   1       3.761   3.962   1.612  0.00  0.00    -0.078 A 
ATOM      4  C2  OXE d   1       3.952   2.892   2.452  0.00  0.00    -0.078 A 
ATOM      5  C3  OXE d   1       3.122   1.779   2.352  0.00  0.00     0.003 A 
ATOM      6  C4  OXE d   1       2.197   1.677   1.305  0.00  0.00    -0.002 A 
ATOM      7  C5  OXE d   1       2.014   2.740   0.414  0.00  0.00    -0.002 A 
ATOM      8  C6  OXE d   1       2.757   3.903   0.579  0.00  0.00     0.003 A 
ENDROOT
TORSDOF 0
ENDMDL
