MODEL 1
REMARK minimizedAffinity 4.70504999
REMARK minimizedRMSD -1
REMARK  0 active torsions:
REMARK  status: ('A' for Active; 'I' for Inactive)
ROOT
ATOM      1  C2' OXE d   1      -1.861  -2.252   2.178  0.00  0.00     0.078 C 
ATOM      2  C1' OXE d   1       0.175  -0.694   1.034  0.00  0.00     0.078 C 
ATOM      3  C1  OXE d   1      -0.401  -1.815   0.207  0.00  0.00    -0.078 A 
ATOM      4  C2  OXE d   1      -1.365  -2.602   0.792  0.00  0.00    -0.078 A 
ATOM      5  C3  OXE d   1      -1.969  -3.615   0.053  0.00  0.00     0.003 A 
ATOM      6  C4  OXE d   1      -1.497  -3.939  -1.224  0.00  0.00    -0.002 A 
ATOM      7  C5  OXE d   1      -0.489  -3.176  -1.824  0.00  0.00    -0.002 A 
ATOM      8  C6  OXE d   1       0.038  -2.086  -1.139  0.00  0.00     0.003 A 
ENDROOT
TORSDOF 0
ENDMDL
