MODEL 1
REMARK minimizedAffinity 0.245214805
REMARK minimizedRMSD -1
REMARK  0 active torsions:
REMARK  status: ('A' for Active; 'I' for Inactive)
ROOT
ATOM      1  C2' OXE d   1      -1.498  -3.432  -0.500  0.00  0.00     0.078 C 
ATOM      2  C1' OXE d   1      -0.803  -5.999   0.399  0.00  0.00     0.078 C 
ATOM      3  C1  OXE d   1      -1.153  -4.961   1.436  0.00  0.00    -0.078 A 
ATOM      4  C2  OXE d   1      -1.446  -3.695   0.990  0.00  0.00    -0.078 A 
ATOM      5  C3  OXE d   1      -1.829  -2.715   1.901  0.00  0.00     0.003 A 
ATOM      6  C4  OXE d   1      -1.768  -2.964   3.277  0.00  0.00    -0.002 A 
ATOM      7  C5  OXE d   1      -1.433  -4.235   3.755  0.00  0.00    -0.002 A 
ATOM      8  C6  OXE d   1      -1.165  -5.254   2.848  0.00  0.00     0.003 A 
ENDROOT
TORSDOF 0
ENDMDL
