MODEL 1
REMARK minimizedAffinity 3.06422782
REMARK minimizedRMSD -1
REMARK  0 active torsions:
REMARK  status: ('A' for Active; 'I' for Inactive)
ROOT
ATOM      1  C2' OXE d   1       4.600   2.391   4.080  0.00  0.00     0.078 C 
ATOM      2  C1' OXE d   1       2.758   1.341   2.240  0.00  0.00     0.078 C 
ATOM      3  C1  OXE d   1       3.518   2.583   1.844  0.00  0.00    -0.078 A 
ATOM      4  C2  OXE d   1       4.383   3.116   2.769  0.00  0.00    -0.078 A 
ATOM      5  C3  OXE d   1       5.149   4.229   2.435  0.00  0.00     0.003 A 
ATOM      6  C4  OXE d   1       4.935   4.900   1.224  0.00  0.00    -0.002 A 
ATOM      7  C5  OXE d   1       4.030   4.396   0.284  0.00  0.00    -0.002 A 
ATOM      8  C6  OXE d   1       3.346   3.217   0.560  0.00  0.00     0.003 A 
ENDROOT
TORSDOF 0
ENDMDL
