MODEL 1
REMARK minimizedAffinity 0.377696246
REMARK minimizedRMSD -1
REMARK  0 active torsions:
REMARK  status: ('A' for Active; 'I' for Inactive)
ROOT
ATOM      1  C2' OXE d   1       2.225   3.112  -0.148  0.00  0.00     0.078 C 
ATOM      2  C1' OXE d   1       1.977   1.208   1.900  0.00  0.00     0.078 C 
ATOM      3  C1  OXE d   1       3.117   2.191   1.988  0.00  0.00    -0.078 A 
ATOM      4  C2  OXE d   1       3.259   3.089   0.958  0.00  0.00    -0.078 A 
ATOM      5  C3  OXE d   1       4.262   4.053   1.016  0.00  0.00     0.003 A 
ATOM      6  C4  OXE d   1       5.219   4.018   2.037  0.00  0.00    -0.002 A 
ATOM      7  C5  OXE d   1       5.117   3.087   3.075  0.00  0.00    -0.002 A 
ATOM      8  C6  OXE d   1       4.050   2.195   3.088  0.00  0.00     0.003 A 
ENDROOT
TORSDOF 0
ENDMDL
