MODEL 1
REMARK minimizedAffinity -0.0294299144
REMARK minimizedRMSD -1
REMARK  0 active torsions:
REMARK  status: ('A' for Active; 'I' for Inactive)
ROOT
ATOM      1  C2' OXE d   1       0.376   3.487  -0.105  0.00  0.00     0.078 C 
ATOM      2  C1' OXE d   1       0.197   1.550   1.918  0.00  0.00     0.078 C 
ATOM      3  C1  OXE d   1       1.553   2.145   1.632  0.00  0.00    -0.078 A 
ATOM      4  C2  OXE d   1       1.639   3.058   0.609  0.00  0.00    -0.078 A 
ATOM      5  C3  OXE d   1       2.856   3.678   0.340  0.00  0.00     0.003 A 
ATOM      6  C4  OXE d   1       4.022   3.267   0.998  0.00  0.00    -0.002 A 
ATOM      7  C5  OXE d   1       3.963   2.310   2.016  0.00  0.00    -0.002 A 
ATOM      8  C6  OXE d   1       2.732   1.771   2.374  0.00  0.00     0.003 A 
ENDROOT
TORSDOF 0
ENDMDL
