MODEL 1
REMARK minimizedAffinity -1.36183298
REMARK minimizedRMSD -1
REMARK  0 active torsions:
REMARK  status: ('A' for Active; 'I' for Inactive)
ROOT
ATOM      1  C2' OXE d   1       1.022   2.107   1.002  0.00  0.00     0.078 C 
ATOM      2  C1' OXE d   1      -1.666   1.319   1.183  0.00  0.00     0.078 C 
ATOM      3  C1  OXE d   1      -1.165   2.340   2.173  0.00  0.00    -0.078 A 
ATOM      4  C2  OXE d   1       0.164   2.685   2.107  0.00  0.00    -0.078 A 
ATOM      5  C3  OXE d   1       0.665   3.663   2.961  0.00  0.00     0.003 A 
ATOM      6  C4  OXE d   1      -0.133   4.185   3.987  0.00  0.00    -0.002 A 
ATOM      7  C5  OXE d   1      -1.478   3.818   4.097  0.00  0.00    -0.002 A 
ATOM      8  C6  OXE d   1      -2.019   2.930   3.174  0.00  0.00     0.003 A 
ENDROOT
TORSDOF 0
ENDMDL
