MODEL 1
REMARK minimizedAffinity -3.75418997
REMARK minimizedRMSD -1
REMARK  0 active torsions:
REMARK  status: ('A' for Active; 'I' for Inactive)
ROOT
ATOM      1  C2' OXE d   1      -1.507   0.251   0.055  0.00  0.00     0.078 C 
ATOM      2  C1' OXE d   1      -0.189   2.624   0.773  0.00  0.00     0.078 C 
ATOM      3  C1  OXE d   1       0.649   1.485   0.247  0.00  0.00    -0.078 A 
ATOM      4  C2  OXE d   1       0.001   0.312  -0.057  0.00  0.00    -0.078 A 
ATOM      5  C3  OXE d   1       0.719  -0.752  -0.597  0.00  0.00     0.003 A 
ATOM      6  C4  OXE d   1       2.115  -0.691  -0.688  0.00  0.00    -0.002 A 
ATOM      7  C5  OXE d   1       2.799   0.481  -0.346  0.00  0.00    -0.002 A 
ATOM      8  C6  OXE d   1       2.078   1.590   0.082  0.00  0.00     0.003 A 
ENDROOT
TORSDOF 0
ENDMDL
