MODEL 1
REMARK minimizedAffinity 10.2762852
REMARK minimizedRMSD -1
REMARK  1 active torsions:
REMARK  status: ('A' for Active; 'I' for Inactive)
REMARK    1  A    between atoms: C1_2  and  C2_3 
ROOT
ATOM      1  C2  UNL d   1       3.981   4.060   4.008  0.00  0.00    -0.076 A 
ATOM      2  C3  UNL d   1       3.438   5.224   3.437  0.00  0.00     0.004 A 
ATOM      3  C4  UNL d   1       2.512   5.999   4.132  0.00  0.00    -0.003 A 
ATOM      4  C5  UNL d   1       2.114   5.624   5.410  0.00  0.00     0.000 A 
ATOM      5  C6  UNL d   1       2.655   4.482   5.999  0.00  0.00     0.000 A 
ATOM      6  C7  UNL d   1       3.603   3.698   5.319  0.00  0.00    -0.073 A 
ATOM      7  C8  UNL d   1       4.149   2.474   6.000  0.00  0.00     0.078 C 
ENDROOT
BRANCH   1   8
ATOM      8  C1  UNL d   1       4.961   3.244   3.196  0.00  0.00     0.053 C 
ATOM      9  C   UNL d   1       5.834   4.106   2.298  0.00  0.00     0.018 C 
ENDBRANCH   1   8
TORSDOF 1
ENDMDL
