MODEL 1
REMARK minimizedAffinity 9.20799637
REMARK minimizedRMSD -1
REMARK  1 active torsions:
REMARK  status: ('A' for Active; 'I' for Inactive)
REMARK    1  A    between atoms: C1_2  and  C2_3 
ROOT
ATOM      1  C2  UNL d   1      -0.418  -5.357   5.193  0.00  0.00    -0.076 A 
ATOM      2  C3  UNL d   1       0.594  -6.000   5.927  0.00  0.00     0.004 A 
ATOM      3  C4  UNL d   1       1.879  -5.464   5.998  0.00  0.00    -0.003 A 
ATOM      4  C5  UNL d   1       2.173  -4.276   5.337  0.00  0.00     0.000 A 
ATOM      5  C6  UNL d   1       1.176  -3.616   4.619  0.00  0.00     0.000 A 
ATOM      6  C7  UNL d   1      -0.128  -4.134   4.550  0.00  0.00    -0.073 A 
ATOM      7  C8  UNL d   1      -1.162  -3.383   3.756  0.00  0.00     0.078 C 
ENDROOT
BRANCH   1   8
ATOM      8  C1  UNL d   1      -1.785  -5.999   5.128  0.00  0.00     0.053 C 
ATOM      9  C   UNL d   1      -2.855  -5.162   5.814  0.00  0.00     0.018 C 
ENDBRANCH   1   8
TORSDOF 1
ENDMDL
