MODEL 1
REMARK minimizedAffinity 17.9497166
REMARK minimizedRMSD -1
REMARK  1 active torsions:
REMARK  status: ('A' for Active; 'I' for Inactive)
REMARK    1  A    between atoms: C1_2  and  C2_3 
ROOT
ATOM      1  C2  UNL d   1       0.720  -2.818  -2.254  0.00  0.00    -0.076 A 
ATOM      2  C3  UNL d   1      -0.336  -2.859  -1.328  0.00  0.00     0.004 A 
ATOM      3  C4  UNL d   1      -0.095  -3.087   0.026  0.00  0.00    -0.003 A 
ATOM      4  C5  UNL d   1       1.207  -3.278   0.475  0.00  0.00     0.000 A 
ATOM      5  C6  UNL d   1       2.268  -3.223  -0.427  0.00  0.00     0.000 A 
ATOM      6  C7  UNL d   1       2.044  -2.978  -1.792  0.00  0.00    -0.073 A 
ATOM      7  C8  UNL d   1       3.226  -2.936  -2.722  0.00  0.00     0.078 C 
ENDROOT
BRANCH   1   8
ATOM      8  C1  UNL d   1       0.396  -2.594  -3.714  0.00  0.00     0.053 C 
ATOM      9  C   UNL d   1      -0.843  -3.356  -4.159  0.00  0.00     0.018 C 
ENDBRANCH   1   8
TORSDOF 1
ENDMDL
