MODEL 1
REMARK minimizedAffinity 6.35432386
REMARK minimizedRMSD -1
REMARK  1 active torsions:
REMARK  status: ('A' for Active; 'I' for Inactive)
REMARK    1  A    between atoms: C1_2  and  C2_3 
ROOT
ATOM      1  C2  UNL d   1      -0.312   0.419  -0.698  0.00  0.00    -0.076 A 
ATOM      2  C3  UNL d   1      -1.296   0.091  -1.646  0.00  0.00     0.004 A 
ATOM      3  C4  UNL d   1      -1.399  -1.202  -2.156  0.00  0.00    -0.003 A 
ATOM      4  C5  UNL d   1      -0.519  -2.189  -1.724  0.00  0.00     0.000 A 
ATOM      5  C6  UNL d   1       0.452  -1.886  -0.771  0.00  0.00     0.000 A 
ATOM      6  C7  UNL d   1       0.559  -0.591  -0.235  0.00  0.00    -0.073 A 
ATOM      7  C8  UNL d   1       1.629  -0.318   0.787  0.00  0.00     0.078 C 
ENDROOT
BRANCH   1   8
ATOM      8  C1  UNL d   1      -0.231   1.845  -0.201  0.00  0.00     0.053 C 
ATOM      9  C   UNL d   1      -1.177   2.112   0.960  0.00  0.00     0.018 C 
ENDBRANCH   1   8
TORSDOF 1
ENDMDL
