MODEL 1
REMARK minimizedAffinity -1.02979994
REMARK minimizedRMSD -1
REMARK  3 active torsions:
REMARK  status: ('A' for Active; 'I' for Inactive)
REMARK    1  A    between atoms: C3'_2  and  C2'_3 
REMARK    2  A    between atoms: C2'_3  and  C1'_4 
REMARK    3  A    between atoms: C1'_4  and  C1_5 
ROOT
ATOM      1  C1  N4B d   1      -0.841   0.611  -0.292  0.00  0.00    -0.075 A 
ATOM      2  C2  N4B d   1      -1.606   1.233  -1.304  0.00  0.00     0.002 A 
ATOM      3  C3  N4B d   1      -0.982   1.973  -2.279  0.00  0.00     0.002 A 
ATOM      4  C4  N4B d   1       0.396   2.120  -2.251  0.00  0.00    -0.004 A 
ATOM      5  C5  N4B d   1       1.130   1.496  -1.285  0.00  0.00     0.002 A 
ATOM      6  C6  N4B d   1       0.517   0.746  -0.302  0.00  0.00     0.002 A 
ENDROOT
BRANCH   1   7
ATOM      7  C1' N4B d   1      -1.485  -0.136   0.844  0.00  0.00     0.057 C 
BRANCH   7   8
ATOM      8  C2' N4B d   1      -0.701   0.128   2.125  0.00  0.00     0.009 C 
BRANCH   8   9
ATOM      9  C3' N4B d   1      -0.433  -1.151   2.901  0.00  0.00     0.004 C 
ATOM     10  C4' N4B d   1       0.587  -2.029   2.238  0.00  0.00     0.003 C 
ENDBRANCH   8   9
ENDBRANCH   7   8
ENDBRANCH   1   7
TORSDOF 3
ENDMDL
