MODEL 1
REMARK minimizedAffinity -4.02186537
REMARK minimizedRMSD -1
REMARK  3 active torsions:
REMARK  status: ('A' for Active; 'I' for Inactive)
REMARK    1  A    between atoms: C3'_2  and  C2'_3 
REMARK    2  A    between atoms: C2'_3  and  C1'_4 
REMARK    3  A    between atoms: C1'_4  and  C1_5 
ROOT
ATOM      1  C1  N4B d   1       0.237   0.120  -0.414  0.00  0.00    -0.075 A 
ATOM      2  C2  N4B d   1       1.587  -0.172  -0.119  0.00  0.00     0.002 A 
ATOM      3  C3  N4B d   1       1.939  -0.595   1.139  0.00  0.00     0.002 A 
ATOM      4  C4  N4B d   1       0.965  -0.714   2.120  0.00  0.00    -0.004 A 
ATOM      5  C5  N4B d   1      -0.340  -0.455   1.820  0.00  0.00     0.002 A 
ATOM      6  C6  N4B d   1      -0.709  -0.034   0.558  0.00  0.00     0.002 A 
ENDROOT
BRANCH   1   7
ATOM      7  C1' N4B d   1      -0.184   0.667  -1.751  0.00  0.00     0.057 C 
BRANCH   7   8
ATOM      8  C2' N4B d   1      -1.346   1.636  -1.552  0.00  0.00     0.009 C 
BRANCH   8   9
ATOM      9  C3' N4B d   1      -1.107   2.961  -2.255  0.00  0.00     0.004 C 
ATOM     10  C4' N4B d   1       0.307   3.121  -2.729  0.00  0.00     0.003 C 
ENDBRANCH   8   9
ENDBRANCH   7   8
ENDBRANCH   1   7
TORSDOF 3
ENDMDL
