MODEL 1
REMARK minimizedAffinity -3.13445044
REMARK minimizedRMSD -1
REMARK  3 active torsions:
REMARK  status: ('A' for Active; 'I' for Inactive)
REMARK    1  A    between atoms: C3'_2  and  C2'_3 
REMARK    2  A    between atoms: C2'_3  and  C1'_4 
REMARK    3  A    between atoms: C1'_4  and  C1_5 
ROOT
ATOM      1  C1  N4B d   1       0.301   0.005  -0.716  0.00  0.00    -0.075 A 
ATOM      2  C2  N4B d   1       1.549  -0.633  -0.543  0.00  0.00     0.002 A 
ATOM      3  C3  N4B d   1       1.916  -1.098   0.696  0.00  0.00     0.002 A 
ATOM      4  C4  N4B d   1       1.065  -0.920   1.776  0.00  0.00    -0.004 A 
ATOM      5  C5  N4B d   1      -0.150  -0.326   1.595  0.00  0.00     0.002 A 
ATOM      6  C6  N4B d   1      -0.534   0.143   0.355  0.00  0.00     0.002 A 
ENDROOT
BRANCH   1   7
ATOM      7  C1' N4B d   1      -0.109   0.606  -2.032  0.00  0.00     0.057 C 
BRANCH   7   8
ATOM      8  C2' N4B d   1      -1.405   1.389  -1.844  0.00  0.00     0.009 C 
BRANCH   8   9
ATOM      9  C3' N4B d   1      -1.279   2.822  -2.333  0.00  0.00     0.004 C 
ATOM     10  C4' N4B d   1       0.063   3.115  -2.935  0.00  0.00     0.003 C 
ENDBRANCH   8   9
ENDBRANCH   7   8
ENDBRANCH   1   7
TORSDOF 3
ENDMDL
