MODEL 1
REMARK minimizedAffinity -2.54237223
REMARK minimizedRMSD -1
REMARK  3 active torsions:
REMARK  status: ('A' for Active; 'I' for Inactive)
REMARK    1  A    between atoms: C3'_2  and  C2'_3 
REMARK    2  A    between atoms: C2'_3  and  C1'_4 
REMARK    3  A    between atoms: C1'_4  and  C1_5 
ROOT
ATOM      1  C1  N4B d   1      -0.197   0.207   0.563  0.00  0.00    -0.075 A 
ATOM      2  C2  N4B d   1       1.130   0.523   0.926  0.00  0.00     0.002 A 
ATOM      3  C3  N4B d   1       1.634   0.090   2.128  0.00  0.00     0.002 A 
ATOM      4  C4  N4B d   1       0.828  -0.642   2.987  0.00  0.00    -0.004 A 
ATOM      5  C5  N4B d   1      -0.445  -0.965   2.616  0.00  0.00     0.002 A 
ATOM      6  C6  N4B d   1      -0.963  -0.540   1.410  0.00  0.00     0.002 A 
ENDROOT
BRANCH   1   7
ATOM      7  C1' N4B d   1      -0.821   0.731  -0.702  0.00  0.00     0.057 C 
BRANCH   7   8
ATOM      8  C2' N4B d   1       0.023   1.885  -1.236  0.00  0.00     0.009 C 
BRANCH   8   9
ATOM      9  C3' N4B d   1      -0.814   2.895  -2.001  0.00  0.00     0.004 C 
ATOM     10  C4' N4B d   1       0.019   3.900  -2.738  0.00  0.00     0.003 C 
ENDBRANCH   8   9
ENDBRANCH   7   8
ENDBRANCH   1   7
TORSDOF 3
ENDMDL
