MODEL 1
REMARK minimizedAffinity 10.5974016
REMARK minimizedRMSD -1
REMARK  0 active torsions:
REMARK  status: ('A' for Active; 'I' for Inactive)
ROOT
ATOM      1  C   UNL d   1       0.585   1.681   0.299  0.00  0.00     0.077 C 
ATOM      2  C1  UNL d   1       1.391   0.420   0.201  0.00  0.00    -0.074 A 
ATOM      3  C2  UNL d   1       1.009  -0.613  -0.661  0.00  0.00    -0.005 A 
ATOM      4  C3  UNL d   1       1.774  -1.776  -0.749  0.00  0.00     0.006 A 
ATOM      5  C4  UNL d   1       2.927  -1.918   0.024  0.00  0.00    -0.005 A 
ATOM      6  C5  UNL d   1       3.326  -0.896   0.891  0.00  0.00    -0.074 A 
ATOM      7  C6  UNL d   1       4.568  -1.028   1.721  0.00  0.00     0.077 C 
ATOM      8  C7  UNL d   1       2.556   0.273   0.968  0.00  0.00    -0.001 A 
ENDROOT
TORSDOF 0
ENDMDL
