MODEL 1
REMARK minimizedAffinity 4.26190281
REMARK minimizedRMSD -1
REMARK  0 active torsions:
REMARK  status: ('A' for Active; 'I' for Inactive)
ROOT
ATOM      1  C   UNL d   1      -0.106  -0.855  -3.065  0.00  0.00     0.077 C 
ATOM      2  C1  UNL d   1      -1.554  -0.489  -3.209  0.00  0.00    -0.074 A 
ATOM      3  C2  UNL d   1      -2.514  -0.992  -2.325  0.00  0.00    -0.005 A 
ATOM      4  C3  UNL d   1      -3.855  -0.636  -2.466  0.00  0.00     0.006 A 
ATOM      5  C4  UNL d   1      -4.249   0.225  -3.491  0.00  0.00    -0.005 A 
ATOM      6  C5  UNL d   1      -3.303   0.738  -4.384  0.00  0.00    -0.074 A 
ATOM      7  C6  UNL d   1      -3.709   1.672  -5.485  0.00  0.00     0.077 C 
ATOM      8  C7  UNL d   1      -1.957   0.381  -4.231  0.00  0.00    -0.001 A 
ENDROOT
TORSDOF 0
ENDMDL
