MODEL 1
REMARK minimizedAffinity 9.69769764
REMARK minimizedRMSD -1
REMARK  0 active torsions:
REMARK  status: ('A' for Active; 'I' for Inactive)
ROOT
ATOM      1  C   UNL d   1      -3.735   4.005  -5.997  0.00  0.00     0.077 C 
ATOM      2  C1  UNL d   1      -4.216   2.617  -5.691  0.00  0.00    -0.074 A 
ATOM      3  C2  UNL d   1      -5.569   2.283  -5.809  0.00  0.00    -0.005 A 
ATOM      4  C3  UNL d   1      -6.000   0.986  -5.530  0.00  0.00     0.006 A 
ATOM      5  C4  UNL d   1      -5.084   0.012  -5.131  0.00  0.00    -0.005 A 
ATOM      6  C5  UNL d   1      -3.727   0.328  -5.008  0.00  0.00    -0.074 A 
ATOM      7  C6  UNL d   1      -2.728  -0.710  -4.590  0.00  0.00     0.077 C 
ATOM      8  C7  UNL d   1      -3.301   1.631  -5.297  0.00  0.00    -0.001 A 
ENDROOT
TORSDOF 0
ENDMDL
