MODEL 1
REMARK minimizedAffinity 1.3076371
REMARK minimizedRMSD -1
REMARK  0 active torsions:
REMARK  status: ('A' for Active; 'I' for Inactive)
ROOT
ATOM      1  C   UNL d   1      -0.864  -0.458  -2.658  0.00  0.00     0.077 C 
ATOM      2  C1  UNL d   1      -2.149   0.310  -2.741  0.00  0.00    -0.074 A 
ATOM      3  C2  UNL d   1      -3.087   0.256  -1.705  0.00  0.00    -0.005 A 
ATOM      4  C3  UNL d   1      -4.274   0.983  -1.792  0.00  0.00     0.006 A 
ATOM      5  C4  UNL d   1      -4.535   1.771  -2.914  0.00  0.00    -0.005 A 
ATOM      6  C5  UNL d   1      -3.608   1.839  -3.959  0.00  0.00    -0.074 A 
ATOM      7  C6  UNL d   1      -3.868   2.688  -5.167  0.00  0.00     0.077 C 
ATOM      8  C7  UNL d   1      -2.415   1.110  -3.861  0.00  0.00    -0.001 A 
ENDROOT
TORSDOF 0
ENDMDL
