MODEL 1
REMARK minimizedAffinity 7.48120451
REMARK minimizedRMSD -1
REMARK  0 active torsions:
REMARK  status: ('A' for Active; 'I' for Inactive)
ROOT
ATOM      1  C   UNL d   1      -0.372   0.034   3.681  0.00  0.00     0.077 C 
ATOM      2  C1  UNL d   1      -0.073   1.034   2.603  0.00  0.00    -0.074 A 
ATOM      3  C2  UNL d   1       0.922   0.789   1.652  0.00  0.00    -0.005 A 
ATOM      4  C3  UNL d   1       1.183   1.724   0.650  0.00  0.00     0.006 A 
ATOM      5  C4  UNL d   1       0.453   2.911   0.590  0.00  0.00    -0.005 A 
ATOM      6  C5  UNL d   1      -0.546   3.174   1.533  0.00  0.00    -0.074 A 
ATOM      7  C6  UNL d   1      -1.347   4.441   1.477  0.00  0.00     0.077 C 
ATOM      8  C7  UNL d   1      -0.807   2.226   2.532  0.00  0.00    -0.001 A 
ENDROOT
TORSDOF 0
ENDMDL
