MODEL 1
REMARK minimizedAffinity 6.09554815
REMARK minimizedRMSD -1
REMARK  0 active torsions:
REMARK  status: ('A' for Active; 'I' for Inactive)
ROOT
ATOM      1  C   UNL d   1       2.472   1.489   0.894  0.00  0.00     0.077 C 
ATOM      2  C1  UNL d   1       2.167   0.221   0.152  0.00  0.00    -0.074 A 
ATOM      3  C2  UNL d   1       2.493  -1.026   0.696  0.00  0.00    -0.005 A 
ATOM      4  C3  UNL d   1       2.194  -2.196  -0.001  0.00  0.00     0.006 A 
ATOM      5  C4  UNL d   1       1.567  -2.132  -1.246  0.00  0.00    -0.005 A 
ATOM      6  C5  UNL d   1       1.233  -0.894  -1.805  0.00  0.00    -0.074 A 
ATOM      7  C6  UNL d   1       0.551  -0.808  -3.138  0.00  0.00     0.077 C 
ATOM      8  C7  UNL d   1       1.531   0.277  -1.095  0.00  0.00    -0.001 A 
ENDROOT
TORSDOF 0
ENDMDL
