MODEL 1
REMARK minimizedAffinity 1.66176891
REMARK minimizedRMSD -1
REMARK  0 active torsions:
REMARK  status: ('A' for Active; 'I' for Inactive)
ROOT
ATOM      1  C   UNL d   1       1.913   2.442   0.741  0.00  0.00     0.077 C 
ATOM      2  C1  UNL d   1       1.459   1.175   0.078  0.00  0.00    -0.074 A 
ATOM      3  C2  UNL d   1       0.286   1.143  -0.682  0.00  0.00    -0.005 A 
ATOM      4  C3  UNL d   1      -0.119  -0.040  -1.300  0.00  0.00     0.006 A 
ATOM      5  C4  UNL d   1       0.643  -1.201  -1.164  0.00  0.00    -0.005 A 
ATOM      6  C5  UNL d   1       1.820  -1.187  -0.408  0.00  0.00    -0.074 A 
ATOM      7  C6  UNL d   1       2.656  -2.423  -0.260  0.00  0.00     0.077 C 
ATOM      8  C7  UNL d   1       2.224   0.007   0.204  0.00  0.00    -0.001 A 
ENDROOT
TORSDOF 0
ENDMDL
