MODEL 1
REMARK minimizedAffinity -4.82497025
REMARK minimizedRMSD -1
REMARK  1 active torsions:
REMARK  status: ('A' for Active; 'I' for Inactive)
REMARK    1  A    between atoms: C1_2  and  C2_3 
ROOT
ATOM      1  C2  UNL d   1       0.705   1.534   0.156  0.00  0.00    -0.081 A 
ATOM      2  C3  UNL d   1       1.344   0.449  -0.457  0.00  0.00     0.006 A 
ATOM      3  C4  UNL d   1       0.710  -0.792  -0.539  0.00  0.00     0.002 A 
ATOM      4  C5  UNL d   1      -0.576  -0.969  -0.017  0.00  0.00    -0.080 A 
ATOM      5  C6  UNL d   1      -1.280  -2.288  -0.125  0.00  0.00     0.076 C 
ATOM      6  C7  UNL d   1      -1.208   0.110   0.612  0.00  0.00     0.002 A 
ATOM      7  C8  UNL d   1      -0.574   1.352   0.694  0.00  0.00     0.006 A 
ENDROOT
BRANCH   1   8
ATOM      8  C1  UNL d   1       1.360   2.891   0.189  0.00  0.00     0.054 C 
ATOM      9  C   UNL d   1       2.861   2.787  -0.043  0.00  0.00     0.018 C 
ENDBRANCH   1   8
TORSDOF 1
ENDMDL
