MODEL 1
REMARK minimizedAffinity -3.73318315
REMARK minimizedRMSD -1
REMARK  1 active torsions:
REMARK  status: ('A' for Active; 'I' for Inactive)
REMARK    1  A    between atoms: C1_2  and  C2_3 
ROOT
ATOM      1  C2  UNL d   1      -0.085  -0.498   0.296  0.00  0.00    -0.081 A 
ATOM      2  C3  UNL d   1      -1.227   0.307   0.382  0.00  0.00     0.006 A 
ATOM      3  C4  UNL d   1      -1.116   1.700   0.361  0.00  0.00     0.002 A 
ATOM      4  C5  UNL d   1       0.138   2.309   0.246  0.00  0.00    -0.080 A 
ATOM      5  C6  UNL d   1       0.269   3.803   0.192  0.00  0.00     0.076 C 
ATOM      6  C7  UNL d   1       1.281   1.505   0.178  0.00  0.00     0.002 A 
ATOM      7  C8  UNL d   1       1.170   0.113   0.200  0.00  0.00     0.006 A 
ENDROOT
BRANCH   1   8
ATOM      8  C1  UNL d   1      -0.207  -2.000   0.254  0.00  0.00     0.054 C 
ATOM      9  C   UNL d   1      -0.375  -2.501  -1.174  0.00  0.00     0.018 C 
ENDBRANCH   1   8
TORSDOF 1
ENDMDL
