MODEL 1
REMARK minimizedAffinity -4.772964
REMARK minimizedRMSD -1
REMARK  1 active torsions:
REMARK  status: ('A' for Active; 'I' for Inactive)
REMARK    1  A    between atoms: C1_2  and  C2_3 
ROOT
ATOM      1  C2  UNL d   1       0.136  -0.072   0.304  0.00  0.00    -0.081 A 
ATOM      2  C3  UNL d   1      -0.863   0.781   0.790  0.00  0.00     0.006 A 
ATOM      3  C4  UNL d   1      -0.808   2.154   0.534  0.00  0.00     0.002 A 
ATOM      4  C5  UNL d   1       0.241   2.694  -0.218  0.00  0.00    -0.080 A 
ATOM      5  C6  UNL d   1       0.295   4.161  -0.525  0.00  0.00     0.076 C 
ATOM      6  C7  UNL d   1       1.248   1.844  -0.689  0.00  0.00     0.002 A 
ATOM      7  C8  UNL d   1       1.194   0.472  -0.433  0.00  0.00     0.006 A 
ENDROOT
BRANCH   1   8
ATOM      8  C1  UNL d   1       0.045  -1.560   0.523  0.00  0.00     0.054 C 
ATOM      9  C   UNL d   1       0.079  -2.317  -0.797  0.00  0.00     0.018 C 
ENDBRANCH   1   8
TORSDOF 1
ENDMDL
