MODEL 1
REMARK minimizedAffinity -3.51120687
REMARK minimizedRMSD -1
REMARK  1 active torsions:
REMARK  status: ('A' for Active; 'I' for Inactive)
REMARK    1  A    between atoms: C1_2  and  C2_3 
ROOT
ATOM      1  C2  UNL d   1      -0.522  -1.197  -0.008  0.00  0.00    -0.081 A 
ATOM      2  C3  UNL d   1      -1.599  -0.385   0.370  0.00  0.00     0.006 A 
ATOM      3  C4  UNL d   1      -1.421   0.988   0.552  0.00  0.00     0.002 A 
ATOM      4  C5  UNL d   1      -0.166   1.574   0.352  0.00  0.00    -0.080 A 
ATOM      5  C6  UNL d   1       0.031   3.052   0.514  0.00  0.00     0.076 C 
ATOM      6  C7  UNL d   1       0.913   0.761  -0.008  0.00  0.00     0.002 A 
ATOM      7  C8  UNL d   1       0.736  -0.612  -0.190  0.00  0.00     0.006 A 
ENDROOT
BRANCH   1   8
ATOM      8  C1  UNL d   1      -0.725  -2.667  -0.268  0.00  0.00     0.054 C 
ATOM      9  C   UNL d   1      -1.498  -2.900  -1.558  0.00  0.00     0.018 C 
ENDBRANCH   1   8
TORSDOF 1
ENDMDL
