MODEL 1
REMARK minimizedAffinity -1.86422944
REMARK minimizedRMSD -1
REMARK  1 active torsions:
REMARK  status: ('A' for Active; 'I' for Inactive)
REMARK    1  A    between atoms: C1_2  and  C2_3 
ROOT
ATOM      1  C2  UNL d   1      -0.583   0.636   0.243  0.00  0.00    -0.081 A 
ATOM      2  C3  UNL d   1       0.128  -0.564   0.375  0.00  0.00     0.006 A 
ATOM      3  C4  UNL d   1       1.520  -0.578   0.262  0.00  0.00     0.002 A 
ATOM      4  C5  UNL d   1       2.225   0.607   0.025  0.00  0.00    -0.080 A 
ATOM      5  C6  UNL d   1       3.722   0.610  -0.068  0.00  0.00     0.076 C 
ATOM      6  C7  UNL d   1       1.514   1.803  -0.124  0.00  0.00     0.002 A 
ATOM      7  C8  UNL d   1       0.122   1.817  -0.012  0.00  0.00     0.006 A 
ENDROOT
BRANCH   1   8
ATOM      8  C1  UNL d   1      -2.078   0.665   0.428  0.00  0.00     0.054 C 
ATOM      9  C   UNL d   1      -2.496  -0.096   1.678  0.00  0.00     0.018 C 
ENDBRANCH   1   8
TORSDOF 1
ENDMDL
