MODEL 1
REMARK minimizedAffinity -5.30434084
REMARK minimizedRMSD -1
REMARK  1 active torsions:
REMARK  status: ('A' for Active; 'I' for Inactive)
REMARK    1  A    between atoms: C1_2  and  C2_3 
ROOT
ATOM      1  C2  UNL d   1       1.178   2.385   0.601  0.00  0.00    -0.081 A 
ATOM      2  C3  UNL d   1       0.026   3.180   0.573  0.00  0.00     0.006 A 
ATOM      3  C4  UNL d   1      -1.218   2.615   0.279  0.00  0.00     0.002 A 
ATOM      4  C5  UNL d   1      -1.331   1.246   0.016  0.00  0.00    -0.080 A 
ATOM      5  C6  UNL d   1      -2.664   0.622  -0.272  0.00  0.00     0.076 C 
ATOM      6  C7  UNL d   1      -0.177   0.455   0.026  0.00  0.00     0.002 A 
ATOM      7  C8  UNL d   1       1.066   1.019   0.319  0.00  0.00     0.006 A 
ENDROOT
BRANCH   1   8
ATOM      8  C1  UNL d   1       2.510   2.979   0.981  0.00  0.00     0.054 C 
ATOM      9  C   UNL d   1       3.526   1.895   1.310  0.00  0.00     0.018 C 
ENDBRANCH   1   8
TORSDOF 1
ENDMDL
