MODEL 1
REMARK minimizedAffinity -3.43795586
REMARK minimizedRMSD -1
REMARK  1 active torsions:
REMARK  status: ('A' for Active; 'I' for Inactive)
REMARK    1  A    between atoms: C1_2  and  C2_3 
ROOT
ATOM      1  C2  UNL d   1      -0.575  -0.906   0.020  0.00  0.00    -0.081 A 
ATOM      2  C3  UNL d   1      -1.548  -0.001   0.463  0.00  0.00     0.006 A 
ATOM      3  C4  UNL d   1      -1.262   1.364   0.540  0.00  0.00     0.002 A 
ATOM      4  C5  UNL d   1      -0.004   1.848   0.167  0.00  0.00    -0.080 A 
ATOM      5  C6  UNL d   1       0.306   3.315   0.216  0.00  0.00     0.076 C 
ATOM      6  C7  UNL d   1       0.974   0.942  -0.259  0.00  0.00     0.002 A 
ATOM      7  C8  UNL d   1       0.689  -0.423  -0.335  0.00  0.00     0.006 A 
ENDROOT
BRANCH   1   8
ATOM      8  C1  UNL d   1      -0.901  -2.371  -0.126  0.00  0.00     0.054 C 
ATOM      9  C   UNL d   1      -0.801  -2.818  -1.577  0.00  0.00     0.018 C 
ENDBRANCH   1   8
TORSDOF 1
ENDMDL
