MODEL 1
REMARK minimizedAffinity -5.70837402
REMARK minimizedRMSD -1
REMARK  1 active torsions:
REMARK  status: ('A' for Active; 'I' for Inactive)
REMARK    1  A    between atoms: C1_2  and  C2_3 
ROOT
ATOM      1  C2  UNL d   1       0.269  -0.128   0.147  0.00  0.00    -0.081 A 
ATOM      2  C3  UNL d   1       1.581   0.326  -0.034  0.00  0.00     0.006 A 
ATOM      3  C4  UNL d   1       1.864   1.694  -0.028  0.00  0.00     0.002 A 
ATOM      4  C5  UNL d   1       0.842   2.630   0.167  0.00  0.00    -0.080 A 
ATOM      5  C6  UNL d   1       1.136   4.100   0.206  0.00  0.00     0.076 C 
ATOM      6  C7  UNL d   1      -0.472   2.176   0.330  0.00  0.00     0.002 A 
ATOM      7  C8  UNL d   1      -0.755   0.809   0.324  0.00  0.00     0.006 A 
ENDROOT
BRANCH   1   8
ATOM      8  C1  UNL d   1      -0.029  -1.605   0.206  0.00  0.00     0.054 C 
ATOM      9  C   UNL d   1      -0.051  -2.220  -1.186  0.00  0.00     0.018 C 
ENDBRANCH   1   8
TORSDOF 1
ENDMDL
