MODEL 1
REMARK minimizedAffinity -3.43859673
REMARK minimizedRMSD -1
REMARK  1 active torsions:
REMARK  status: ('A' for Active; 'I' for Inactive)
REMARK    1  A    between atoms: C1_2  and  C2_3 
ROOT
ATOM      1  C2  UNL d   1       0.012  -1.146   0.148  0.00  0.00    -0.081 A 
ATOM      2  C3  UNL d   1      -1.233  -0.539   0.349  0.00  0.00     0.006 A 
ATOM      3  C4  UNL d   1      -1.327   0.844   0.525  0.00  0.00     0.002 A 
ATOM      4  C5  UNL d   1      -0.179   1.643   0.496  0.00  0.00    -0.080 A 
ATOM      5  C6  UNL d   1      -0.269   3.131   0.653  0.00  0.00     0.076 C 
ATOM      6  C7  UNL d   1       1.067   1.034   0.313  0.00  0.00     0.002 A 
ATOM      7  C8  UNL d   1       1.162  -0.348   0.138  0.00  0.00     0.006 A 
ENDROOT
BRANCH   1   8
ATOM      8  C1  UNL d   1       0.110  -2.628  -0.106  0.00  0.00     0.054 C 
ATOM      9  C   UNL d   1      -0.312  -2.975  -1.527  0.00  0.00     0.018 C 
ENDBRANCH   1   8
TORSDOF 1
ENDMDL
