MODEL 1
REMARK minimizedAffinity -4.54097271
REMARK minimizedRMSD -1
REMARK  1 active torsions:
REMARK  status: ('A' for Active; 'I' for Inactive)
REMARK    1  A    between atoms: C1_2  and  C2_3 
ROOT
ATOM      1  C2  UNL d   1      -0.278  -0.253  -0.135  0.00  0.00    -0.081 A 
ATOM      2  C3  UNL d   1       0.779   0.140  -0.964  0.00  0.00     0.006 A 
ATOM      3  C4  UNL d   1       1.129   1.488  -1.076  0.00  0.00     0.002 A 
ATOM      4  C5  UNL d   1       0.432   2.464  -0.355  0.00  0.00    -0.080 A 
ATOM      5  C6  UNL d   1       0.816   3.911  -0.442  0.00  0.00     0.076 C 
ATOM      6  C7  UNL d   1      -0.636   2.073   0.460  0.00  0.00     0.002 A 
ATOM      7  C8  UNL d   1      -0.986   0.726   0.572  0.00  0.00     0.006 A 
ENDROOT
BRANCH   1   8
ATOM      8  C1  UNL d   1      -0.615  -1.712   0.038  0.00  0.00     0.054 C 
ATOM      9  C   UNL d   1      -0.389  -2.488  -1.251  0.00  0.00     0.018 C 
ENDBRANCH   1   8
TORSDOF 1
ENDMDL
