MODEL 1
REMARK minimizedAffinity -5.47991753
REMARK minimizedRMSD -1
REMARK  1 active torsions:
REMARK  status: ('A' for Active; 'I' for Inactive)
REMARK    1  A    between atoms: C1_2  and  C2_3 
ROOT
ATOM      1  C2  UNL d   1       0.035  -0.248   0.263  0.00  0.00    -0.081 A 
ATOM      2  C3  UNL d   1      -0.968   0.715   0.101  0.00  0.00     0.006 A 
ATOM      3  C4  UNL d   1      -0.640   2.070   0.010  0.00  0.00     0.002 A 
ATOM      4  C5  UNL d   1       0.695   2.483   0.072  0.00  0.00    -0.080 A 
ATOM      5  C6  UNL d   1       1.063   3.931  -0.055  0.00  0.00     0.076 C 
ATOM      6  C7  UNL d   1       1.696   1.522   0.252  0.00  0.00     0.002 A 
ATOM      7  C8  UNL d   1       1.369   0.167   0.343  0.00  0.00     0.006 A 
ENDROOT
BRANCH   1   8
ATOM      8  C1  UNL d   1      -0.310  -1.715   0.297  0.00  0.00     0.054 C 
ATOM      9  C   UNL d   1      -0.274  -2.324  -1.097  0.00  0.00     0.018 C 
ENDBRANCH   1   8
TORSDOF 1
ENDMDL
