MODEL 1
REMARK minimizedAffinity -4.72787476
REMARK minimizedRMSD -1
REMARK  1 active torsions:
REMARK  status: ('A' for Active; 'I' for Inactive)
REMARK    1  A    between atoms: C1_2  and  C2_3 
ROOT
ATOM      1  C2  UNL d   1      -0.019  -0.146  -0.074  0.00  0.00    -0.081 A 
ATOM      2  C3  UNL d   1       1.280   0.334  -0.278  0.00  0.00     0.006 A 
ATOM      3  C4  UNL d   1       1.527   1.707  -0.338  0.00  0.00     0.002 A 
ATOM      4  C5  UNL d   1       0.480   2.623  -0.187  0.00  0.00    -0.080 A 
ATOM      5  C6  UNL d   1       0.735   4.101  -0.220  0.00  0.00     0.076 C 
ATOM      6  C7  UNL d   1      -0.821   2.144  -0.001  0.00  0.00     0.002 A 
ATOM      7  C8  UNL d   1      -1.068   0.770   0.059  0.00  0.00     0.006 A 
ENDROOT
BRANCH   1   8
ATOM      8  C1  UNL d   1      -0.278  -1.626   0.056  0.00  0.00     0.054 C 
ATOM      9  C   UNL d   1      -0.273  -2.310  -1.303  0.00  0.00     0.018 C 
ENDBRANCH   1   8
TORSDOF 1
ENDMDL
