MODEL 1
REMARK minimizedAffinity -2.90360975
REMARK minimizedRMSD -1
REMARK  1 active torsions:
REMARK  status: ('A' for Active; 'I' for Inactive)
REMARK    1  A    between atoms: C1_2  and  C2_3 
ROOT
ATOM      1  C2  UNL d   1      -0.297  -0.313  -0.452  0.00  0.00    -0.081 A 
ATOM      2  C3  UNL d   1      -1.330  -0.114   0.472  0.00  0.00     0.006 A 
ATOM      3  C4  UNL d   1      -1.352   1.028   1.275  0.00  0.00     0.002 A 
ATOM      4  C5  UNL d   1      -0.347   1.995   1.162  0.00  0.00    -0.080 A 
ATOM      5  C6  UNL d   1      -0.375   3.240   1.997  0.00  0.00     0.076 C 
ATOM      6  C7  UNL d   1       0.694   1.788   0.251  0.00  0.00     0.002 A 
ATOM      7  C8  UNL d   1       0.717   0.646  -0.552  0.00  0.00     0.006 A 
ENDROOT
BRANCH   1   8
ATOM      8  C1  UNL d   1      -0.305  -1.512  -1.365  0.00  0.00     0.054 C 
ATOM      9  C   UNL d   1      -0.044  -2.797  -0.593  0.00  0.00     0.018 C 
ENDBRANCH   1   8
TORSDOF 1
ENDMDL
