MODEL 1
REMARK minimizedAffinity 2.79687786
REMARK minimizedRMSD -1
REMARK  1 active torsions:
REMARK  status: ('A' for Active; 'I' for Inactive)
REMARK    1  A    between atoms: C3_4  and  O_7 
ROOT
ATOM      1  C   UNL d   1       3.346   1.313   1.401  0.00  0.00    -0.033 A 
ATOM      2  C1  UNL d   1       3.009   2.379   2.237  0.00  0.00     0.039 A 
ATOM      3  C2  UNL d   1       2.559   2.134   3.536  0.00  0.00    -0.080 A 
ATOM      4  C3  UNL d   1       2.452   0.822   3.986  0.00  0.00     0.150 A 
ATOM      5  C4  UNL d   1       2.790  -0.245   3.160  0.00  0.00    -0.007 A 
ATOM      6  C5  UNL d   1       3.238   0.001   1.863  0.00  0.00     0.039 A 
ENDROOT
BRANCH   4   7
ATOM      7  O   UNL d   1       2.013   0.533   5.244  0.00  0.00    -0.526 OA
ATOM      8  H5  UNL d   1       1.789   1.367   5.691  0.00  0.00     0.418 HD
ENDBRANCH   4   7
TORSDOF 1
ENDMDL
