MODEL 1
REMARK minimizedAffinity 6.0963335
REMARK minimizedRMSD -1
REMARK  1 active torsions:
REMARK  status: ('A' for Active; 'I' for Inactive)
REMARK    1  A    between atoms: C3_4  and  O_7 
ROOT
ATOM      1  C   UNL d   1       3.936   5.681  -1.632  0.00  0.00    -0.033 A 
ATOM      2  C1  UNL d   1       5.302   5.965  -1.672  0.00  0.00     0.039 A 
ATOM      3  C2  UNL d   1       5.975   5.996  -2.896  0.00  0.00    -0.080 A 
ATOM      4  C3  UNL d   1       5.270   5.743  -4.069  0.00  0.00     0.150 A 
ATOM      5  C4  UNL d   1       3.908   5.463  -4.037  0.00  0.00    -0.007 A 
ATOM      6  C5  UNL d   1       3.238   5.432  -2.815  0.00  0.00     0.039 A 
ENDROOT
BRANCH   4   7
ATOM      7  O   UNL d   1       5.885   5.757  -5.286  0.00  0.00    -0.526 OA
ATOM      8  H5  UNL d   1       6.830   5.936  -5.151  0.00  0.00     0.418 HD
ENDBRANCH   4   7
TORSDOF 1
ENDMDL
