MODEL 1
REMARK minimizedAffinity 2.75833488
REMARK minimizedRMSD -1
REMARK  1 active torsions:
REMARK  status: ('A' for Active; 'I' for Inactive)
REMARK    1  A    between atoms: C3_4  and  O_7 
ROOT
ATOM      1  C   UNL d   1       3.328   0.601   1.208  0.00  0.00    -0.033 A 
ATOM      2  C1  UNL d   1       2.518   1.459   1.954  0.00  0.00     0.039 A 
ATOM      3  C2  UNL d   1       1.767   0.962   3.020  0.00  0.00    -0.080 A 
ATOM      4  C3  UNL d   1       1.834  -0.394   3.330  0.00  0.00     0.150 A 
ATOM      5  C4  UNL d   1       2.642  -1.254   2.593  0.00  0.00    -0.007 A 
ATOM      6  C5  UNL d   1       3.391  -0.755   1.528  0.00  0.00     0.039 A 
ENDROOT
BRANCH   4   7
ATOM      7  O   UNL d   1       1.115  -0.927   4.358  0.00  0.00    -0.526 OA
ATOM      8  H5  UNL d   1       0.582  -0.221   4.759  0.00  0.00     0.418 HD
ENDBRANCH   4   7
TORSDOF 1
ENDMDL
