MODEL 1
REMARK minimizedAffinity 3.26473475
REMARK minimizedRMSD -1
REMARK  1 active torsions:
REMARK  status: ('A' for Active; 'I' for Inactive)
REMARK    1  A    between atoms: C3_4  and  O_7 
ROOT
ATOM      1  C   UNL d   1       4.335  -5.852  -1.331  0.00  0.00    -0.033 A 
ATOM      2  C1  UNL d   1       3.323  -5.948  -2.288  0.00  0.00     0.039 A 
ATOM      3  C2  UNL d   1       3.646  -5.997  -3.646  0.00  0.00    -0.080 A 
ATOM      4  C3  UNL d   1       4.982  -5.952  -4.032  0.00  0.00     0.150 A 
ATOM      5  C4  UNL d   1       5.996  -5.860  -3.084  0.00  0.00    -0.007 A 
ATOM      6  C5  UNL d   1       5.671  -5.810  -1.729  0.00  0.00     0.039 A 
ENDROOT
BRANCH   4   7
ATOM      7  O   UNL d   1       5.346  -5.993  -5.345  0.00  0.00    -0.526 OA
ATOM      8  H5  UNL d   1       4.540  -6.027  -5.887  0.00  0.00     0.418 HD
ENDBRANCH   4   7
TORSDOF 1
ENDMDL
