MODEL 1
REMARK minimizedAffinity -1.21812677
REMARK minimizedRMSD -1
REMARK  1 active torsions:
REMARK  status: ('A' for Active; 'I' for Inactive)
REMARK    1  A    between atoms: C3_4  and  O_7 
ROOT
ATOM      1  C   UNL d   1       1.833  -5.643  -1.682  0.00  0.00    -0.033 A 
ATOM      2  C1  UNL d   1       2.757  -5.882  -0.662  0.00  0.00     0.039 A 
ATOM      3  C2  UNL d   1       4.116  -6.000  -0.962  0.00  0.00    -0.080 A 
ATOM      4  C3  UNL d   1       4.537  -5.875  -2.283  0.00  0.00     0.150 A 
ATOM      5  C4  UNL d   1       3.623  -5.632  -3.303  0.00  0.00    -0.007 A 
ATOM      6  C5  UNL d   1       2.266  -5.516  -3.002  0.00  0.00     0.039 A 
ENDROOT
BRANCH   4   7
ATOM      7  O   UNL d   1       5.852  -5.986  -2.626  0.00  0.00    -0.526 OA
ATOM      8  H5  UNL d   1       6.363  -6.182  -1.823  0.00  0.00     0.418 HD
ENDBRANCH   4   7
TORSDOF 1
ENDMDL
