MODEL 1
REMARK minimizedAffinity -2.55366492
REMARK minimizedRMSD -1
REMARK  1 active torsions:
REMARK  status: ('A' for Active; 'I' for Inactive)
REMARK    1  A    between atoms: C3_4  and  O_7 
ROOT
ATOM      1  C   UNL d   1       4.854  -4.856  -5.999  0.00  0.00    -0.033 A 
ATOM      2  C1  UNL d   1       3.586  -4.271  -6.000  0.00  0.00     0.039 A 
ATOM      3  C2  UNL d   1       3.456  -2.882  -5.943  0.00  0.00    -0.080 A 
ATOM      4  C3  UNL d   1       4.600  -2.090  -5.887  0.00  0.00     0.150 A 
ATOM      5  C4  UNL d   1       5.866  -2.666  -5.891  0.00  0.00    -0.007 A 
ATOM      6  C5  UNL d   1       5.994  -4.053  -5.946  0.00  0.00     0.039 A 
ENDROOT
BRANCH   4   7
ATOM      7  O   UNL d   1       4.523  -0.731  -5.826  0.00  0.00    -0.526 OA
ATOM      8  H5  UNL d   1       3.586  -0.476  -5.802  0.00  0.00     0.418 HD
ENDBRANCH   4   7
TORSDOF 1
ENDMDL
