MODEL 1
REMARK minimizedAffinity -0.170174345
REMARK minimizedRMSD -1
REMARK  1 active torsions:
REMARK  status: ('A' for Active; 'I' for Inactive)
REMARK    1  A    between atoms: C3_4  and  O_7 
ROOT
ATOM      1  C   UNL d   1       1.562  -0.966  -0.584  0.00  0.00    -0.033 A 
ATOM      2  C1  UNL d   1       0.709  -0.329  -1.487  0.00  0.00     0.039 A 
ATOM      3  C2  UNL d   1       0.081   0.866  -1.133  0.00  0.00    -0.080 A 
ATOM      4  C3  UNL d   1       0.315   1.415   0.125  0.00  0.00     0.150 A 
ATOM      5  C4  UNL d   1       1.167   0.788   1.028  0.00  0.00    -0.007 A 
ATOM      6  C5  UNL d   1       1.793  -0.406   0.674  0.00  0.00     0.039 A 
ENDROOT
BRANCH   4   7
ATOM      7  O   UNL d   1      -0.280   2.577   0.517  0.00  0.00    -0.526 OA
ATOM      8  H5  UNL d   1      -0.863   2.881  -0.198  0.00  0.00     0.418 HD
ENDBRANCH   4   7
TORSDOF 1
ENDMDL
