MODEL 1
REMARK minimizedAffinity -4.20233154
REMARK minimizedRMSD -1
REMARK  3 active torsions:
REMARK  status: ('A' for Active; 'I' for Inactive)
REMARK    1  A    between atoms: C3'_2  and  C2'_3 
REMARK    2  A    between atoms: C2'_3  and  C1'_4 
REMARK    3  A    between atoms: C1'_4  and  C1_5 
ROOT
ATOM      1  C1  N4B d   1       0.049   0.115   0.301  0.00  0.00    -0.075 A 
ATOM      2  C2  N4B d   1      -0.357  -0.825   1.273  0.00  0.00     0.002 A 
ATOM      3  C3  N4B d   1       0.504  -1.819   1.670  0.00  0.00     0.002 A 
ATOM      4  C4  N4B d   1       1.764  -1.903   1.097  0.00  0.00    -0.004 A 
ATOM      5  C5  N4B d   1       2.158  -0.976   0.177  0.00  0.00     0.002 A 
ATOM      6  C6  N4B d   1       1.305   0.030  -0.228  0.00  0.00     0.002 A 
ENDROOT
BRANCH   1   7
ATOM      7  C1' N4B d   1      -0.887   1.167  -0.227  0.00  0.00     0.057 C 
BRANCH   7   8
ATOM      8  C2' N4B d   1      -1.603   0.627  -1.461  0.00  0.00     0.009 C 
BRANCH   8   9
ATOM      9  C3' N4B d   1      -2.217   1.739  -2.295  0.00  0.00     0.004 C 
ATOM     10  C4' N4B d   1      -3.641   1.462  -2.674  0.00  0.00     0.003 C 
ENDBRANCH   8   9
ENDBRANCH   7   8
ENDBRANCH   1   7
TORSDOF 3
ENDMDL
