MODEL 1
REMARK minimizedAffinity -6.22985983
REMARK minimizedRMSD -1
REMARK  3 active torsions:
REMARK  status: ('A' for Active; 'I' for Inactive)
REMARK    1  A    between atoms: C3'_2  and  C2'_3 
REMARK    2  A    between atoms: C2'_3  and  C1'_4 
REMARK    3  A    between atoms: C1'_4  and  C1_5 
ROOT
ATOM      1  C1  N4B d   1       0.084  -0.256   0.738  0.00  0.00    -0.075 A 
ATOM      2  C2  N4B d   1      -0.346  -0.958   1.886  0.00  0.00     0.002 A 
ATOM      3  C3  N4B d   1       0.361  -2.047   2.330  0.00  0.00     0.002 A 
ATOM      4  C4  N4B d   1       1.487  -2.464   1.636  0.00  0.00    -0.004 A 
ATOM      5  C5  N4B d   1       1.911  -1.766   0.543  0.00  0.00     0.002 A 
ATOM      6  C6  N4B d   1       1.212  -0.666   0.087  0.00  0.00     0.002 A 
ENDROOT
BRANCH   1   7
ATOM      7  C1' N4B d   1      -0.705   0.889   0.164  0.00  0.00     0.057 C 
BRANCH   7   8
ATOM      8  C2' N4B d   1      -0.980   0.618  -1.311  0.00  0.00     0.009 C 
BRANCH   8   9
ATOM      9  C3' N4B d   1      -1.847   1.698  -1.935  0.00  0.00     0.004 C 
ATOM     10  C4' N4B d   1      -3.150   1.168  -2.456  0.00  0.00     0.003 C 
ENDBRANCH   8   9
ENDBRANCH   7   8
ENDBRANCH   1   7
TORSDOF 3
ENDMDL
