MODEL 1
REMARK minimizedAffinity -4.13891363
REMARK minimizedRMSD -1
REMARK  3 active torsions:
REMARK  status: ('A' for Active; 'I' for Inactive)
REMARK    1  A    between atoms: C3'_2  and  C2'_3 
REMARK    2  A    between atoms: C2'_3  and  C1'_4 
REMARK    3  A    between atoms: C1'_4  and  C1_5 
ROOT
ATOM      1  C1  N4B d   1       0.589  -0.780   0.515  0.00  0.00    -0.075 A 
ATOM      2  C2  N4B d   1      -0.174  -1.040   1.674  0.00  0.00     0.002 A 
ATOM      3  C3  N4B d   1       0.264  -1.961   2.593  0.00  0.00     0.002 A 
ATOM      4  C4  N4B d   1       1.448  -2.647   2.366  0.00  0.00    -0.004 A 
ATOM      5  C5  N4B d   1       2.193  -2.372   1.256  0.00  0.00     0.002 A 
ATOM      6  C6  N4B d   1       1.766  -1.445   0.326  0.00  0.00     0.002 A 
ENDROOT
BRANCH   1   7
ATOM      7  C1' N4B d   1       0.108   0.155  -0.560  0.00  0.00     0.057 C 
BRANCH   7   8
ATOM      8  C2' N4B d   1      -0.858   1.166   0.051  0.00  0.00     0.009 C 
BRANCH   8   9
ATOM      9  C3' N4B d   1      -1.189   2.291  -0.914  0.00  0.00     0.004 C 
ATOM     10  C4' N4B d   1      -2.300   1.938  -1.858  0.00  0.00     0.003 C 
ENDBRANCH   8   9
ENDBRANCH   7   8
ENDBRANCH   1   7
TORSDOF 3
ENDMDL
