MODEL 1
REMARK minimizedAffinity -5.66616583
REMARK minimizedRMSD -1
REMARK  3 active torsions:
REMARK  status: ('A' for Active; 'I' for Inactive)
REMARK    1  A    between atoms: C3'_2  and  C2'_3 
REMARK    2  A    between atoms: C2'_3  and  C1'_4 
REMARK    3  A    between atoms: C1'_4  and  C1_5 
ROOT
ATOM      1  C1  N4B d   1       0.431  -1.164   0.387  0.00  0.00    -0.075 A 
ATOM      2  C2  N4B d   1       1.392  -2.173   0.619  0.00  0.00     0.002 A 
ATOM      3  C3  N4B d   1       1.323  -2.937   1.758  0.00  0.00     0.002 A 
ATOM      4  C4  N4B d   1       0.318  -2.699   2.684  0.00  0.00    -0.004 A 
ATOM      5  C5  N4B d   1      -0.621  -1.740   2.440  0.00  0.00     0.002 A 
ATOM      6  C6  N4B d   1      -0.566  -0.967   1.297  0.00  0.00     0.002 A 
ENDROOT
BRANCH   1   7
ATOM      7  C1' N4B d   1       0.515  -0.246  -0.802  0.00  0.00     0.057 C 
BRANCH   7   8
ATOM      8  C2' N4B d   1      -0.048   1.120  -0.421  0.00  0.00     0.009 C 
BRANCH   8   9
ATOM      9  C3' N4B d   1      -1.152   1.563  -1.366  0.00  0.00     0.004 C 
ATOM     10  C4' N4B d   1      -0.765   2.751  -2.195  0.00  0.00     0.003 C 
ENDBRANCH   8   9
ENDBRANCH   7   8
ENDBRANCH   1   7
TORSDOF 3
ENDMDL
