MODEL 1
REMARK minimizedAffinity -6.11164856
REMARK minimizedRMSD -1
REMARK  3 active torsions:
REMARK  status: ('A' for Active; 'I' for Inactive)
REMARK    1  A    between atoms: C3'_2  and  C2'_3 
REMARK    2  A    between atoms: C2'_3  and  C1'_4 
REMARK    3  A    between atoms: C1'_4  and  C1_5 
ROOT
ATOM      1  C1  N4B d   1       0.251  -0.783   0.363  0.00  0.00    -0.075 A 
ATOM      2  C2  N4B d   1       1.252  -1.765   0.533  0.00  0.00     0.002 A 
ATOM      3  C3  N4B d   1       1.285  -2.519   1.680  0.00  0.00     0.002 A 
ATOM      4  C4  N4B d   1       0.344  -2.299   2.674  0.00  0.00    -0.004 A 
ATOM      5  C5  N4B d   1      -0.635  -1.366   2.491  0.00  0.00     0.002 A 
ATOM      6  C6  N4B d   1      -0.683  -0.603   1.342  0.00  0.00     0.002 A 
ENDROOT
BRANCH   1   7
ATOM      7  C1' N4B d   1       0.224   0.125  -0.836  0.00  0.00     0.057 C 
BRANCH   7   8
ATOM      8  C2' N4B d   1      -1.113   0.859  -0.880  0.00  0.00     0.009 C 
BRANCH   8   9
ATOM      9  C3' N4B d   1      -1.249   1.719  -2.124  0.00  0.00     0.004 C 
ATOM     10  C4' N4B d   1      -2.678   1.965  -2.507  0.00  0.00     0.003 C 
ENDBRANCH   8   9
ENDBRANCH   7   8
ENDBRANCH   1   7
TORSDOF 3
ENDMDL
