MODEL 1
REMARK minimizedAffinity -4.99182844
REMARK minimizedRMSD -1
REMARK  3 active torsions:
REMARK  status: ('A' for Active; 'I' for Inactive)
REMARK    1  A    between atoms: C3'_2  and  C2'_3 
REMARK    2  A    between atoms: C2'_3  and  C1'_4 
REMARK    3  A    between atoms: C1'_4  and  C1_5 
ROOT
ATOM      1  C1  N4B d   1       0.289  -0.239   0.533  0.00  0.00    -0.075 A 
ATOM      2  C2  N4B d   1      -0.164  -0.878   1.708  0.00  0.00     0.002 A 
ATOM      3  C3  N4B d   1       0.559  -1.912   2.250  0.00  0.00     0.002 A 
ATOM      4  C4  N4B d   1       1.724  -2.335   1.627  0.00  0.00    -0.004 A 
ATOM      5  C5  N4B d   1       2.168  -1.696   0.507  0.00  0.00     0.002 A 
ATOM      6  C6  N4B d   1       1.454  -0.653  -0.047  0.00  0.00     0.002 A 
ENDROOT
BRANCH   1   7
ATOM      7  C1' N4B d   1      -0.512   0.839  -0.144  0.00  0.00     0.057 C 
BRANCH   7   8
ATOM      8  C2' N4B d   1      -1.041   0.309  -1.473  0.00  0.00     0.009 C 
BRANCH   8   9
ATOM      9  C3' N4B d   1      -1.526   1.428  -2.379  0.00  0.00     0.004 C 
ATOM     10  C4' N4B d   1      -2.923   1.208  -2.877  0.00  0.00     0.003 C 
ENDBRANCH   8   9
ENDBRANCH   7   8
ENDBRANCH   1   7
TORSDOF 3
ENDMDL
