MODEL 1
REMARK minimizedAffinity -5.68102407
REMARK minimizedRMSD -1
REMARK  3 active torsions:
REMARK  status: ('A' for Active; 'I' for Inactive)
REMARK    1  A    between atoms: C3'_2  and  C2'_3 
REMARK    2  A    between atoms: C2'_3  and  C1'_4 
REMARK    3  A    between atoms: C1'_4  and  C1_5 
ROOT
ATOM      1  C1  N4B d   1       0.241  -0.789   0.228  0.00  0.00    -0.075 A 
ATOM      2  C2  N4B d   1       1.315  -1.654   0.531  0.00  0.00     0.002 A 
ATOM      3  C3  N4B d   1       1.327  -2.344   1.719  0.00  0.00     0.002 A 
ATOM      4  C4  N4B d   1       0.291  -2.171   2.623  0.00  0.00    -0.004 A 
ATOM      5  C5  N4B d   1      -0.756  -1.352   2.312  0.00  0.00     0.002 A 
ATOM      6  C6  N4B d   1      -0.783  -0.656   1.121  0.00  0.00     0.002 A 
ENDROOT
BRANCH   1   7
ATOM      7  C1' N4B d   1       0.225   0.051  -1.019  0.00  0.00     0.057 C 
BRANCH   7   8
ATOM      8  C2' N4B d   1      -0.768   1.196  -0.840  0.00  0.00     0.009 C 
BRANCH   8   9
ATOM      9  C3' N4B d   1      -1.529   1.494  -2.120  0.00  0.00     0.004 C 
ATOM     10  C4' N4B d   1      -2.987   1.158  -2.021  0.00  0.00     0.003 C 
ENDBRANCH   8   9
ENDBRANCH   7   8
ENDBRANCH   1   7
TORSDOF 3
ENDMDL
