MODEL 1
REMARK minimizedAffinity -3.48129082
REMARK minimizedRMSD -1
REMARK  3 active torsions:
REMARK  status: ('A' for Active; 'I' for Inactive)
REMARK    1  A    between atoms: C3'_2  and  C2'_3 
REMARK    2  A    between atoms: C2'_3  and  C1'_4 
REMARK    3  A    between atoms: C1'_4  and  C1_5 
ROOT
ATOM      1  C1  N4B d   1       0.179  -0.078   0.557  0.00  0.00    -0.075 A 
ATOM      2  C2  N4B d   1       1.482  -0.544   0.274  0.00  0.00     0.002 A 
ATOM      3  C3  N4B d   1       2.085  -1.447   1.115  0.00  0.00     0.002 A 
ATOM      4  C4  N4B d   1       1.416  -1.881   2.250  0.00  0.00    -0.004 A 
ATOM      5  C5  N4B d   1       0.148  -1.445   2.502  0.00  0.00     0.002 A 
ATOM      6  C6  N4B d   1      -0.472  -0.541   1.663  0.00  0.00     0.002 A 
ENDROOT
BRANCH   1   7
ATOM      7  C1' N4B d   1      -0.488   0.974  -0.286  0.00  0.00     0.057 C 
BRANCH   7   8
ATOM      8  C2' N4B d   1      -1.047   0.324  -1.548  0.00  0.00     0.009 C 
BRANCH   8   9
ATOM      9  C3' N4B d   1      -2.214   1.109  -2.122  0.00  0.00     0.004 C 
ATOM     10  C4' N4B d   1      -2.167   1.209  -3.618  0.00  0.00     0.003 C 
ENDBRANCH   8   9
ENDBRANCH   7   8
ENDBRANCH   1   7
TORSDOF 3
ENDMDL
