MODEL 1
REMARK minimizedAffinity -6.51669741
REMARK minimizedRMSD -1
REMARK  3 active torsions:
REMARK  status: ('A' for Active; 'I' for Inactive)
REMARK    1  A    between atoms: C3'_2  and  C2'_3 
REMARK    2  A    between atoms: C2'_3  and  C1'_4 
REMARK    3  A    between atoms: C1'_4  and  C1_5 
ROOT
ATOM      1  C1  N4B d   1       0.751  -1.115   0.367  0.00  0.00    -0.075 A 
ATOM      2  C2  N4B d   1       1.827  -2.027   0.298  0.00  0.00     0.002 A 
ATOM      3  C3  N4B d   1       1.949  -3.016   1.243  0.00  0.00     0.002 A 
ATOM      4  C4  N4B d   1       1.023  -3.101   2.271  0.00  0.00    -0.004 A 
ATOM      5  C5  N4B d   1      -0.028  -2.232   2.316  0.00  0.00     0.002 A 
ATOM      6  C6  N4B d   1      -0.166  -1.235   1.371  0.00  0.00     0.002 A 
ENDROOT
BRANCH   1   7
ATOM      7  C1' N4B d   1       0.623   0.036  -0.594  0.00  0.00     0.057 C 
BRANCH   7   8
ATOM      8  C2' N4B d   1      -0.705   0.747  -0.350  0.00  0.00     0.009 C 
BRANCH   8   9
ATOM      9  C3' N4B d   1      -1.213   1.446  -1.599  0.00  0.00     0.004 C 
ATOM     10  C4' N4B d   1      -2.528   0.906  -2.074  0.00  0.00     0.003 C 
ENDBRANCH   8   9
ENDBRANCH   7   8
ENDBRANCH   1   7
TORSDOF 3
ENDMDL
