MODEL 1
REMARK minimizedAffinity -4.23641968
REMARK minimizedRMSD -1
REMARK  3 active torsions:
REMARK  status: ('A' for Active; 'I' for Inactive)
REMARK    1  A    between atoms: C3'_2  and  C2'_3 
REMARK    2  A    between atoms: C2'_3  and  C1'_4 
REMARK    3  A    between atoms: C1'_4  and  C1_5 
ROOT
ATOM      1  C1  N4B d   1       0.258  -0.867   0.421  0.00  0.00    -0.075 A 
ATOM      2  C2  N4B d   1       1.372  -1.735   0.445  0.00  0.00     0.002 A 
ATOM      3  C3  N4B d   1       1.565  -2.574   1.514  0.00  0.00     0.002 A 
ATOM      4  C4  N4B d   1       0.672  -2.551   2.575  0.00  0.00    -0.004 A 
ATOM      5  C5  N4B d   1      -0.415  -1.728   2.532  0.00  0.00     0.002 A 
ATOM      6  C6  N4B d   1      -0.624  -0.881   1.462  0.00  0.00     0.002 A 
ENDROOT
BRANCH   1   7
ATOM      7  C1' N4B d   1       0.052   0.130  -0.687  0.00  0.00     0.057 C 
BRANCH   7   8
ATOM      8  C2' N4B d   1      -0.860   1.248  -0.191  0.00  0.00     0.009 C 
BRANCH   8   9
ATOM      9  C3' N4B d   1      -1.667   1.866  -1.320  0.00  0.00     0.004 C 
ATOM     10  C4' N4B d   1      -0.804   2.423  -2.413  0.00  0.00     0.003 C 
ENDBRANCH   8   9
ENDBRANCH   7   8
ENDBRANCH   1   7
TORSDOF 3
ENDMDL
