MODEL 1
REMARK minimizedAffinity -1.49037385
REMARK minimizedRMSD -1
REMARK  3 active torsions:
REMARK  status: ('A' for Active; 'I' for Inactive)
REMARK    1  A    between atoms: C3'_2  and  C2'_3 
REMARK    2  A    between atoms: C2'_3  and  C1'_4 
REMARK    3  A    between atoms: C1'_4  and  C1_5 
ROOT
ATOM      1  C1  N4B d   1      -1.912   1.724  -1.240  0.00  0.00    -0.075 A 
ATOM      2  C2  N4B d   1      -3.184   1.112  -1.291  0.00  0.00     0.002 A 
ATOM      3  C3  N4B d   1      -4.103   1.517  -2.228  0.00  0.00     0.002 A 
ATOM      4  C4  N4B d   1      -3.781   2.540  -3.108  0.00  0.00    -0.004 A 
ATOM      5  C5  N4B d   1      -2.541   3.108  -3.068  0.00  0.00     0.002 A 
ATOM      6  C6  N4B d   1      -1.607   2.709  -2.134  0.00  0.00     0.002 A 
ENDROOT
BRANCH   1   7
ATOM      7  C1' N4B d   1      -0.906   1.375  -0.178  0.00  0.00     0.057 C 
BRANCH   7   8
ATOM      8  C2' N4B d   1      -0.527  -0.097  -0.311  0.00  0.00     0.009 C 
BRANCH   8   9
ATOM      9  C3' N4B d   1       0.978  -0.294  -0.373  0.00  0.00     0.004 C 
ATOM     10  C4' N4B d   1       1.448  -1.448   0.461  0.00  0.00     0.003 C 
ENDBRANCH   8   9
ENDBRANCH   7   8
ENDBRANCH   1   7
TORSDOF 3
ENDMDL
