MODEL 1
REMARK minimizedAffinity -5.18726778
REMARK minimizedRMSD -1
REMARK  3 active torsions:
REMARK  status: ('A' for Active; 'I' for Inactive)
REMARK    1  A    between atoms: C3'_2  and  C2'_3 
REMARK    2  A    between atoms: C2'_3  and  C1'_4 
REMARK    3  A    between atoms: C1'_4  and  C1_5 
ROOT
ATOM      1  C1  N4B d   1       0.103  -0.710   0.479  0.00  0.00    -0.075 A 
ATOM      2  C2  N4B d   1       1.169  -1.636   0.502  0.00  0.00     0.002 A 
ATOM      3  C3  N4B d   1       1.175  -2.654   1.424  0.00  0.00     0.002 A 
ATOM      4  C4  N4B d   1       0.139  -2.754   2.342  0.00  0.00    -0.004 A 
ATOM      5  C5  N4B d   1      -0.899  -1.870   2.296  0.00  0.00     0.002 A 
ATOM      6  C6  N4B d   1      -0.920  -0.845   1.372  0.00  0.00     0.002 A 
ENDROOT
BRANCH   1   7
ATOM      7  C1' N4B d   1       0.095   0.469  -0.455  0.00  0.00     0.057 C 
BRANCH   7   8
ATOM      8  C2' N4B d   1      -1.333   0.986  -0.597  0.00  0.00     0.009 C 
BRANCH   8   9
ATOM      9  C3' N4B d   1      -1.641   1.424  -2.019  0.00  0.00     0.004 C 
ATOM     10  C4' N4B d   1      -3.018   1.031  -2.462  0.00  0.00     0.003 C 
ENDBRANCH   8   9
ENDBRANCH   7   8
ENDBRANCH   1   7
TORSDOF 3
ENDMDL
