MODEL 1
REMARK minimizedAffinity -5.71499681
REMARK minimizedRMSD -1
REMARK  3 active torsions:
REMARK  status: ('A' for Active; 'I' for Inactive)
REMARK    1  A    between atoms: C3'_2  and  C2'_3 
REMARK    2  A    between atoms: C2'_3  and  C1'_4 
REMARK    3  A    between atoms: C1'_4  and  C1_5 
ROOT
ATOM      1  C1  N4B d   1      -0.577  -0.740   0.908  0.00  0.00    -0.075 A 
ATOM      2  C2  N4B d   1       0.593  -1.379   0.444  0.00  0.00     0.002 A 
ATOM      3  C3  N4B d   1       1.181  -2.366   1.196  0.00  0.00     0.002 A 
ATOM      4  C4  N4B d   1       0.629  -2.717   2.419  0.00  0.00    -0.004 A 
ATOM      5  C5  N4B d   1      -0.516  -2.112   2.849  0.00  0.00     0.002 A 
ATOM      6  C6  N4B d   1      -1.119  -1.121   2.101  0.00  0.00     0.002 A 
ENDROOT
BRANCH   1   7
ATOM      7  C1' N4B d   1      -1.207   0.405   0.161  0.00  0.00     0.057 C 
BRANCH   7   8
ATOM      8  C2' N4B d   1      -0.274   0.842  -0.964  0.00  0.00     0.009 C 
BRANCH   8   9
ATOM      9  C3' N4B d   1      -0.835   2.019  -1.742  0.00  0.00     0.004 C 
ATOM     10  C4' N4B d   1      -1.744   1.598  -2.859  0.00  0.00     0.003 C 
ENDBRANCH   8   9
ENDBRANCH   7   8
ENDBRANCH   1   7
TORSDOF 3
ENDMDL
