MODEL 1
REMARK minimizedAffinity -3.52943373
REMARK minimizedRMSD -1
REMARK  1 active torsions:
REMARK  status: ('A' for Active; 'I' for Inactive)
REMARK    1  A    between atoms: N_2  and  C1_3 
ROOT
ATOM      1  C1  UNL d   1      -0.442   0.323   0.091  0.00  0.00     0.143 A 
ATOM      2  C2  UNL d   1      -0.272   0.420   1.476  0.00  0.00    -0.057 A 
ATOM      3  C3  UNL d   1      -1.117   1.218   2.257  0.00  0.00     0.033 A 
ATOM      4  C4  UNL d   1      -2.131   1.959   1.660  0.00  0.00    -0.042 A 
ATOM      5  C5  UNL d   1      -2.302   1.898   0.281  0.00  0.00     0.033 A 
ATOM      6  C6  UNL d   1      -1.460   1.093  -0.492  0.00  0.00    -0.057 A 
ENDROOT
BRANCH   1   7
ATOM      7  N   UNL d   1       0.425  -0.376  -0.752  0.00  0.00    -0.732 N 
ATOM      8  C   UNL d   1      -0.030  -1.547  -1.472  0.00  0.00     0.284 C 
ATOM      9  H3  UNL d   1       1.019   0.243  -1.300  0.00  0.00     0.395 HD
ENDBRANCH   1   7
TORSDOF 1
ENDMDL
