MODEL 1
REMARK minimizedAffinity -4.56169367
REMARK minimizedRMSD -1
REMARK  1 active torsions:
REMARK  status: ('A' for Active; 'I' for Inactive)
REMARK    1  A    between atoms: N_2  and  C1_3 
ROOT
ATOM      1  C1  UNL d   1       0.002   0.467   0.053  0.00  0.00     0.143 A 
ATOM      2  C2  UNL d   1      -0.514   0.393   1.351  0.00  0.00    -0.057 A 
ATOM      3  C3  UNL d   1      -1.308   1.419   1.876  0.00  0.00     0.033 A 
ATOM      4  C4  UNL d   1      -1.577   2.556   1.120  0.00  0.00    -0.042 A 
ATOM      5  C5  UNL d   1      -1.053   2.662  -0.163  0.00  0.00     0.033 A 
ATOM      6  C6  UNL d   1      -0.267   1.631  -0.685  0.00  0.00    -0.057 A 
ENDROOT
BRANCH   1   7
ATOM      7  N   UNL d   1       0.879  -0.475  -0.491  0.00  0.00    -0.732 N 
ATOM      8  C   UNL d   1       0.374  -1.607  -1.237  0.00  0.00     0.284 C 
ATOM      9  H3  UNL d   1       1.708  -0.045  -0.896  0.00  0.00     0.395 HD
ENDBRANCH   1   7
TORSDOF 1
ENDMDL
