MODEL 1
REMARK minimizedAffinity -3.77935123
REMARK minimizedRMSD -1
REMARK  1 active torsions:
REMARK  status: ('A' for Active; 'I' for Inactive)
REMARK    1  A    between atoms: N_2  and  C1_3 
ROOT
ATOM      1  C1  UNL d   1      -0.166  -0.340   0.416  0.00  0.00     0.143 A 
ATOM      2  C2  UNL d   1      -0.649  -0.405   1.728  0.00  0.00    -0.057 A 
ATOM      3  C3  UNL d   1      -1.447   0.616   2.259  0.00  0.00     0.033 A 
ATOM      4  C4  UNL d   1      -1.754   1.736   1.494  0.00  0.00    -0.042 A 
ATOM      5  C5  UNL d   1      -1.265   1.834   0.196  0.00  0.00     0.033 A 
ATOM      6  C6  UNL d   1      -0.473   0.808  -0.331  0.00  0.00    -0.057 A 
ENDROOT
BRANCH   1   7
ATOM      7  N   UNL d   1       0.713  -1.275  -0.136  0.00  0.00    -0.732 N 
ATOM      8  C   UNL d   1       0.304  -2.103  -1.250  0.00  0.00     0.284 C 
ATOM      9  H3  UNL d   1       1.663  -0.917  -0.210  0.00  0.00     0.395 HD
ENDBRANCH   1   7
TORSDOF 1
ENDMDL
