MODEL 1
REMARK minimizedAffinity -2.66485238
REMARK minimizedRMSD -1
REMARK  1 active torsions:
REMARK  status: ('A' for Active; 'I' for Inactive)
REMARK    1  A    between atoms: N_2  and  C1_3 
ROOT
ATOM      1  C1  UNL d   1      -0.495   0.630   0.776  0.00  0.00     0.143 A 
ATOM      2  C2  UNL d   1      -0.094   1.207  -0.434  0.00  0.00    -0.057 A 
ATOM      3  C3  UNL d   1       0.761   0.531  -1.313  0.00  0.00     0.033 A 
ATOM      4  C4  UNL d   1       1.254  -0.727  -0.983  0.00  0.00    -0.042 A 
ATOM      5  C5  UNL d   1       0.889  -1.310   0.226  0.00  0.00     0.033 A 
ATOM      6  C6  UNL d   1       0.030  -0.632   1.096  0.00  0.00    -0.057 A 
ENDROOT
BRANCH   1   7
ATOM      7  N   UNL d   1      -1.263   1.292   1.737  0.00  0.00    -0.732 N 
ATOM      8  C   UNL d   1      -2.186   2.338   1.350  0.00  0.00     0.284 C 
ATOM      9  H3  UNL d   1      -1.625   0.660   2.447  0.00  0.00     0.395 HD
ENDBRANCH   1   7
TORSDOF 1
ENDMDL
