MODEL 1
REMARK minimizedAffinity -4.61627388
REMARK minimizedRMSD -1
REMARK  1 active torsions:
REMARK  status: ('A' for Active; 'I' for Inactive)
REMARK    1  A    between atoms: N_2  and  C1_3 
ROOT
ATOM      1  C1  UNL d   1      -0.133   0.629   0.182  0.00  0.00     0.143 A 
ATOM      2  C2  UNL d   1      -0.175   1.743  -0.663  0.00  0.00    -0.057 A 
ATOM      3  C3  UNL d   1      -0.979   2.850  -0.366  0.00  0.00     0.033 A 
ATOM      4  C4  UNL d   1      -1.780   2.851   0.771  0.00  0.00    -0.042 A 
ATOM      5  C5  UNL d   1      -1.773   1.744   1.613  0.00  0.00     0.033 A 
ATOM      6  C6  UNL d   1      -0.963   0.644   1.314  0.00  0.00    -0.057 A 
ENDROOT
BRANCH   1   7
ATOM      7  N   UNL d   1       0.570  -0.542  -0.109  0.00  0.00    -0.732 N 
ATOM      8  C   UNL d   1      -0.071  -1.630  -0.816  0.00  0.00     0.284 C 
ATOM      9  H3  UNL d   1       1.525  -0.358  -0.407  0.00  0.00     0.395 HD
ENDBRANCH   1   7
TORSDOF 1
ENDMDL
