MODEL 1
REMARK minimizedAffinity 17.6741371
REMARK minimizedRMSD -1
REMARK  0 active torsions:
REMARK  status: ('A' for Active; 'I' for Inactive)
ROOT
ATOM      1  C   UNL d   1      -4.296  -1.591  -2.176  0.00  0.00     0.124 A 
ATOM      2  C1  UNL d   1      -4.332  -1.670  -3.562  0.00  0.00     0.062 A 
ATOM      3  C2  UNL d   1      -4.227  -0.514  -4.331  0.00  0.00     0.162 A 
ATOM      4  C3  UNL d   1      -4.085   0.730  -3.717  0.00  0.00    -0.034 A 
ATOM      5  C4  UNL d   1      -4.051   0.801  -2.323  0.00  0.00     0.162 A 
ATOM      6  C5  UNL d   1      -4.156  -0.357  -1.558  0.00  0.00     0.062 A 
ATOM      7  F   UNL d   1      -4.121  -0.279  -0.220  0.00  0.00    -0.097 F 
ATOM      8  F1  UNL d   1      -3.915   1.981  -1.700  0.00  0.00    -0.096 F 
ATOM      9  I   UNL d   1      -3.928   2.459  -4.863  0.00  0.00    -0.060 I 
ATOM     10  F2  UNL d   1      -4.264  -0.620  -5.668  0.00  0.00    -0.096 F 
ATOM     11  F3  UNL d   1      -4.468  -2.861  -4.161  0.00  0.00    -0.097 F 
ATOM     12  F4  UNL d   1      -4.398  -2.704  -1.439  0.00  0.00    -0.092 F 
ENDROOT
TORSDOF 0
ENDMDL
