MODEL 1
REMARK minimizedAffinity 29.8273392
REMARK minimizedRMSD -1
REMARK  0 active torsions:
REMARK  status: ('A' for Active; 'I' for Inactive)
ROOT
ATOM      1  C   UNL d   1       2.649  -3.234   2.421  0.00  0.00     0.124 A 
ATOM      2  C1  UNL d   1       3.924  -3.619   2.810  0.00  0.00     0.062 A 
ATOM      3  C2  UNL d   1       4.773  -4.247   1.904  0.00  0.00     0.162 A 
ATOM      4  C3  UNL d   1       4.350  -4.494   0.598  0.00  0.00    -0.034 A 
ATOM      5  C4  UNL d   1       3.065  -4.104   0.214  0.00  0.00     0.162 A 
ATOM      6  C5  UNL d   1       2.220  -3.477   1.124  0.00  0.00     0.062 A 
ATOM      7  F   UNL d   1       0.989  -3.106   0.746  0.00  0.00    -0.097 F 
ATOM      8  F1  UNL d   1       2.626  -4.326  -1.034  0.00  0.00    -0.096 F 
ATOM      9  I   UNL d   1       5.616  -5.433  -0.761  0.00  0.00    -0.060 I 
ATOM     10  F2  UNL d   1       6.000  -4.608   2.308  0.00  0.00    -0.096 F 
ATOM     11  F3  UNL d   1       4.340  -3.386   4.064  0.00  0.00    -0.097 F 
ATOM     12  F4  UNL d   1       1.834  -2.630   3.296  0.00  0.00    -0.092 F 
ENDROOT
TORSDOF 0
ENDMDL
