MODEL 1
REMARK minimizedAffinity 14.1077166
REMARK minimizedRMSD -1
REMARK  0 active torsions:
REMARK  status: ('A' for Active; 'I' for Inactive)
ROOT
ATOM      1  C   UNL d   1       1.296  -0.633   2.115  0.00  0.00     0.124 A 
ATOM      2  C1  UNL d   1       1.796   0.640   1.873  0.00  0.00     0.062 A 
ATOM      3  C2  UNL d   1       1.856   1.132   0.572  0.00  0.00     0.162 A 
ATOM      4  C3  UNL d   1       1.415   0.352  -0.497  0.00  0.00    -0.034 A 
ATOM      5  C4  UNL d   1       0.914  -0.927  -0.245  0.00  0.00     0.162 A 
ATOM      6  C5  UNL d   1       0.856  -1.414   1.057  0.00  0.00     0.062 A 
ATOM      7  F   UNL d   1       0.374  -2.644   1.289  0.00  0.00    -0.097 F 
ATOM      8  F1  UNL d   1       0.482  -1.704  -1.249  0.00  0.00    -0.096 F 
ATOM      9  I   UNL d   1       1.503   1.084  -2.443  0.00  0.00    -0.060 I 
ATOM     10  F2  UNL d   1       2.343   2.365   0.367  0.00  0.00    -0.096 F 
ATOM     11  F3  UNL d   1       2.222   1.397   2.894  0.00  0.00    -0.097 F 
ATOM     12  F4  UNL d   1       1.240  -1.104   3.368  0.00  0.00    -0.092 F 
ENDROOT
TORSDOF 0
ENDMDL
