MODEL 1
REMARK minimizedAffinity 19.6339531
REMARK minimizedRMSD -1
REMARK  0 active torsions:
REMARK  status: ('A' for Active; 'I' for Inactive)
ROOT
ATOM      1  C   UNL d   1       1.757  -2.377   1.683  0.00  0.00     0.124 A 
ATOM      2  C1  UNL d   1       1.367  -3.700   1.835  0.00  0.00     0.062 A 
ATOM      3  C2  UNL d   1       2.264  -4.730   1.566  0.00  0.00     0.162 A 
ATOM      4  C3  UNL d   1       3.562  -4.440   1.144  0.00  0.00    -0.034 A 
ATOM      5  C4  UNL d   1       3.946  -3.107   0.993  0.00  0.00     0.162 A 
ATOM      6  C5  UNL d   1       3.046  -2.082   1.262  0.00  0.00     0.062 A 
ATOM      7  F   UNL d   1       3.425  -0.804   1.115  0.00  0.00    -0.097 F 
ATOM      8  F1  UNL d   1       5.186  -2.793   0.588  0.00  0.00    -0.096 F 
ATOM      9  I   UNL d   1       4.906  -5.977   0.742  0.00  0.00    -0.060 I 
ATOM     10  F2  UNL d   1       1.860  -5.999   1.722  0.00  0.00    -0.096 F 
ATOM     11  F3  UNL d   1       0.122  -3.988   2.240  0.00  0.00    -0.097 F 
ATOM     12  F4  UNL d   1       0.891  -1.388   1.941  0.00  0.00    -0.092 F 
ENDROOT
TORSDOF 0
ENDMDL
