MODEL 1
REMARK minimizedAffinity 18.7779541
REMARK minimizedRMSD -1
REMARK  0 active torsions:
REMARK  status: ('A' for Active; 'I' for Inactive)
ROOT
ATOM      1  C   UNL d   1       0.124  -1.059   3.252  0.00  0.00     0.124 A 
ATOM      2  C1  UNL d   1       0.051  -1.827   2.098  0.00  0.00     0.062 A 
ATOM      3  C2  UNL d   1       1.081  -2.705   1.776  0.00  0.00     0.162 A 
ATOM      4  C3  UNL d   1       2.194  -2.821   2.609  0.00  0.00    -0.034 A 
ATOM      5  C4  UNL d   1       2.261  -2.044   3.767  0.00  0.00     0.162 A 
ATOM      6  C5  UNL d   1       1.228  -1.168   4.085  0.00  0.00     0.062 A 
ATOM      7  F   UNL d   1       1.301  -0.426   5.200  0.00  0.00    -0.097 F 
ATOM      8  F1  UNL d   1       3.316  -2.130   4.590  0.00  0.00    -0.096 F 
ATOM      9  I   UNL d   1       3.737  -4.133   2.130  0.00  0.00    -0.060 I 
ATOM     10  F2  UNL d   1       0.984  -3.436   0.655  0.00  0.00    -0.096 F 
ATOM     11  F3  UNL d   1      -1.015  -1.723   1.291  0.00  0.00    -0.097 F 
ATOM     12  F4  UNL d   1      -0.869  -0.214   3.559  0.00  0.00    -0.092 F 
ENDROOT
TORSDOF 0
ENDMDL
