MODEL 1
REMARK minimizedAffinity 19.725668
REMARK minimizedRMSD -1
REMARK  0 active torsions:
REMARK  status: ('A' for Active; 'I' for Inactive)
ROOT
ATOM      1  C   UNL d   1       1.922  -2.675   3.014  0.00  0.00     0.124 A 
ATOM      2  C1  UNL d   1       2.532  -2.391   4.228  0.00  0.00     0.062 A 
ATOM      3  C2  UNL d   1       3.378  -3.323   4.822  0.00  0.00     0.162 A 
ATOM      4  C3  UNL d   1       3.620  -4.549   4.202  0.00  0.00    -0.034 A 
ATOM      5  C4  UNL d   1       3.003  -4.828   2.981  0.00  0.00     0.162 A 
ATOM      6  C5  UNL d   1       2.158  -3.893   2.392  0.00  0.00     0.062 A 
ATOM      7  F   UNL d   1       1.570  -4.169   1.219  0.00  0.00    -0.097 F 
ATOM      8  F1  UNL d   1       3.213  -5.996   2.357  0.00  0.00    -0.096 F 
ATOM      9  I   UNL d   1       4.884  -5.946   5.086  0.00  0.00    -0.060 I 
ATOM     10  F2  UNL d   1       3.954  -3.022   5.995  0.00  0.00    -0.096 F 
ATOM     11  F3  UNL d   1       2.305  -1.215   4.832  0.00  0.00    -0.097 F 
ATOM     12  F4  UNL d   1       1.108  -1.776   2.446  0.00  0.00    -0.092 F 
ENDROOT
TORSDOF 0
ENDMDL
