MODEL 1
REMARK minimizedAffinity 4.49370146
REMARK minimizedRMSD -1
REMARK  0 active torsions:
REMARK  status: ('A' for Active; 'I' for Inactive)
ROOT
ATOM      1  C   UNL d   1       2.747  -3.635   1.810  0.00  0.00     0.124 A 
ATOM      2  C1  UNL d   1       2.405  -3.513   3.149  0.00  0.00     0.062 A 
ATOM      3  C2  UNL d   1       3.137  -4.188   4.123  0.00  0.00     0.162 A 
ATOM      4  C3  UNL d   1       4.219  -4.990   3.760  0.00  0.00    -0.034 A 
ATOM      5  C4  UNL d   1       4.556  -5.108   2.411  0.00  0.00     0.162 A 
ATOM      6  C5  UNL d   1       3.821  -4.433   1.442  0.00  0.00     0.062 A 
ATOM      7  F   UNL d   1       4.153  -4.552   0.148  0.00  0.00    -0.097 F 
ATOM      8  F1  UNL d   1       5.590  -5.871   2.027  0.00  0.00    -0.096 F 
ATOM      9  I   UNL d   1       5.315  -5.999   5.212  0.00  0.00    -0.060 I 
ATOM     10  F2  UNL d   1       2.784  -4.051   5.410  0.00  0.00    -0.096 F 
ATOM     11  F3  UNL d   1       1.367  -2.744   3.508  0.00  0.00    -0.097 F 
ATOM     12  F4  UNL d   1       2.040  -2.986   0.875  0.00  0.00    -0.092 F 
ENDROOT
TORSDOF 0
ENDMDL
