MODEL 1
REMARK minimizedAffinity 32.1605301
REMARK minimizedRMSD -1
REMARK  0 active torsions:
REMARK  status: ('A' for Active; 'I' for Inactive)
ROOT
ATOM      1  C   UNL d   1      -4.527  -2.542  -2.073  0.00  0.00     0.124 A 
ATOM      2  C1  UNL d   1      -4.632  -2.688  -3.450  0.00  0.00     0.062 A 
ATOM      3  C2  UNL d   1      -4.495  -1.582  -4.283  0.00  0.00     0.162 A 
ATOM      4  C3  UNL d   1      -4.251  -0.319  -3.742  0.00  0.00    -0.034 A 
ATOM      5  C4  UNL d   1      -4.148  -0.181  -2.357  0.00  0.00     0.162 A 
ATOM      6  C5  UNL d   1      -4.285  -1.289  -1.528  0.00  0.00     0.062 A 
ATOM      7  F   UNL d   1      -4.184  -1.147  -0.199  0.00  0.00    -0.097 F 
ATOM      8  F1  UNL d   1      -3.913   1.019  -1.804  0.00  0.00    -0.096 F 
ATOM      9  I   UNL d   1      -4.045   1.338  -4.985  0.00  0.00    -0.060 I 
ATOM     10  F2  UNL d   1      -4.601  -1.752  -5.609  0.00  0.00    -0.096 F 
ATOM     11  F3  UNL d   1      -4.867  -3.898  -3.979  0.00  0.00    -0.097 F 
ATOM     12  F4  UNL d   1      -4.661  -3.608  -1.274  0.00  0.00    -0.092 F 
ENDROOT
TORSDOF 0
ENDMDL
