MODEL 1
REMARK minimizedAffinity 23.0726433
REMARK minimizedRMSD -1
REMARK  0 active torsions:
REMARK  status: ('A' for Active; 'I' for Inactive)
ROOT
ATOM      1  C   UNL d   1      -4.504  -2.273  -2.547  0.00  0.00     0.124 A 
ATOM      2  C1  UNL d   1      -4.532  -2.297  -3.935  0.00  0.00     0.062 A 
ATOM      3  C2  UNL d   1      -4.261  -1.141  -4.660  0.00  0.00     0.162 A 
ATOM      4  C3  UNL d   1      -3.957   0.050  -3.999  0.00  0.00    -0.034 A 
ATOM      5  C4  UNL d   1      -3.932   0.066  -2.604  0.00  0.00     0.162 A 
ATOM      6  C5  UNL d   1      -4.205  -1.092  -1.883  0.00  0.00     0.062 A 
ATOM      7  F   UNL d   1      -4.177  -1.067  -0.543  0.00  0.00    -0.097 F 
ATOM      8  F1  UNL d   1      -3.645   1.194  -1.936  0.00  0.00    -0.096 F 
ATOM      9  I   UNL d   1      -3.551   1.781  -5.080  0.00  0.00    -0.060 I 
ATOM     10  F2  UNL d   1      -4.294  -1.193  -6.000  0.00  0.00    -0.096 F 
ATOM     11  F3  UNL d   1      -4.823  -3.437  -4.579  0.00  0.00    -0.097 F 
ATOM     12  F4  UNL d   1      -4.767  -3.387  -1.852  0.00  0.00    -0.092 F 
ENDROOT
TORSDOF 0
ENDMDL
