MODEL 1
REMARK minimizedAffinity 21.503418
REMARK minimizedRMSD -1
REMARK  0 active torsions:
REMARK  status: ('A' for Active; 'I' for Inactive)
ROOT
ATOM      1  C   UNL d   1       2.702  -3.329   1.749  0.00  0.00     0.124 A 
ATOM      2  C1  UNL d   1       2.317  -3.715   0.473  0.00  0.00     0.062 A 
ATOM      3  C2  UNL d   1       3.174  -4.477  -0.316  0.00  0.00     0.162 A 
ATOM      4  C3  UNL d   1       4.424  -4.859   0.169  0.00  0.00    -0.034 A 
ATOM      5  C4  UNL d   1       4.805  -4.467   1.454  0.00  0.00     0.162 A 
ATOM      6  C5  UNL d   1       3.945  -3.705   2.239  0.00  0.00     0.062 A 
ATOM      7  F   UNL d   1       4.319  -3.333   3.472  0.00  0.00    -0.097 F 
ATOM      8  F1  UNL d   1       6.000  -4.817   1.952  0.00  0.00    -0.096 F 
ATOM      9  I   UNL d   1       5.708  -5.999  -1.007  0.00  0.00    -0.060 I 
ATOM     10  F2  UNL d   1       2.776  -4.835  -1.546  0.00  0.00    -0.096 F 
ATOM     11  F3  UNL d   1       1.117  -3.352  -0.002  0.00  0.00    -0.097 F 
ATOM     12  F4  UNL d   1       1.876  -2.595   2.506  0.00  0.00    -0.092 F 
ENDROOT
TORSDOF 0
ENDMDL
