MODEL 1
REMARK minimizedAffinity -1.90406513
REMARK minimizedRMSD -1
REMARK  2 active torsions:
REMARK  status: ('A' for Active; 'I' for Inactive)
REMARK    1  A    between atoms: C2'_3  and  C1'_4 
REMARK    2  A    between atoms: C1'_4  and  C1_5 
ROOT
ATOM      1  C1  I4B d   1       0.002  -0.295   0.130  0.00  0.00    -0.075 A 
ATOM      2  C2  I4B d   1      -0.885  -0.039   1.146  0.00  0.00     0.003 A 
ATOM      3  C3  I4B d   1      -0.737   1.119   1.947  0.00  0.00     0.002 A 
ATOM      4  C4  I4B d   1       0.334   1.962   1.731  0.00  0.00    -0.004 A 
ATOM      5  C5  I4B d   1       1.219   1.714   0.685  0.00  0.00     0.002 A 
ATOM      6  C6  I4B d   1       1.045   0.585  -0.128  0.00  0.00     0.003 A 
ENDROOT
BRANCH   1   7
ATOM      7  C1' I4B d   1      -0.165  -1.545  -0.675  0.00  0.00     0.060 C 
BRANCH   7   8
ATOM      8  C2' I4B d   1      -1.600  -1.600  -1.159  0.00  0.00    -0.013 C 
ATOM      9  C4' I4B d   1      -1.696  -1.258  -2.622  0.00  0.00     0.013 C 
ATOM     10  C3' I4B d   1      -2.127  -2.978  -0.889  0.00  0.00     0.013 C 
ENDBRANCH   7   8
ENDBRANCH   1   7
TORSDOF 2
ENDMDL
