MODEL 1
REMARK minimizedAffinity -2.73109174
REMARK minimizedRMSD -1
REMARK  2 active torsions:
REMARK  status: ('A' for Active; 'I' for Inactive)
REMARK    1  A    between atoms: C2'_3  and  C1'_4 
REMARK    2  A    between atoms: C1'_4  and  C1_5 
ROOT
ATOM      1  C1  I4B d   1       0.026  -0.116  -0.135  0.00  0.00    -0.075 A 
ATOM      2  C2  I4B d   1      -0.740  -0.107   1.004  0.00  0.00     0.003 A 
ATOM      3  C3  I4B d   1      -0.597   0.937   1.951  0.00  0.00     0.002 A 
ATOM      4  C4  I4B d   1       0.352   1.916   1.745  0.00  0.00    -0.004 A 
ATOM      5  C5  I4B d   1       1.112   1.918   0.578  0.00  0.00     0.002 A 
ATOM      6  C6  I4B d   1       0.939   0.903  -0.374  0.00  0.00     0.003 A 
ENDROOT
BRANCH   1   7
ATOM      7  C1' I4B d   1      -0.128  -1.250  -1.098  0.00  0.00     0.060 C 
BRANCH   7   8
ATOM      8  C2' I4B d   1      -1.508  -1.156  -1.715  0.00  0.00    -0.013 C 
ATOM      9  C4' I4B d   1      -1.427  -0.888  -3.194  0.00  0.00     0.013 C 
ATOM     10  C3' I4B d   1      -2.229  -2.440  -1.435  0.00  0.00     0.013 C 
ENDBRANCH   7   8
ENDBRANCH   1   7
TORSDOF 2
ENDMDL
