MODEL 1
REMARK minimizedAffinity 0.919493198
REMARK minimizedRMSD -1
REMARK  2 active torsions:
REMARK  status: ('A' for Active; 'I' for Inactive)
REMARK    1  A    between atoms: C2'_3  and  C1'_4 
REMARK    2  A    between atoms: C1'_4  and  C1_5 
ROOT
ATOM      1  C1  I4B d   1      -0.740  -0.430  -1.888  0.00  0.00    -0.075 A 
ATOM      2  C2  I4B d   1      -0.393  -0.296  -3.209  0.00  0.00     0.003 A 
ATOM      3  C3  I4B d   1      -1.319  -0.633  -4.226  0.00  0.00     0.002 A 
ATOM      4  C4  I4B d   1      -2.553  -1.144  -3.880  0.00  0.00    -0.004 A 
ATOM      5  C5  I4B d   1      -2.911  -1.258  -2.540  0.00  0.00     0.002 A 
ATOM      6  C6  I4B d   1      -2.003  -0.887  -1.537  0.00  0.00     0.003 A 
ENDROOT
BRANCH   1   7
ATOM      7  C1' I4B d   1       0.274  -0.096  -0.839  0.00  0.00     0.060 C 
BRANCH   7   8
ATOM      8  C2' I4B d   1      -0.464   0.448   0.367  0.00  0.00    -0.013 C 
ATOM      9  C4' I4B d   1      -0.509  -0.565   1.481  0.00  0.00     0.013 C 
ATOM     10  C3' I4B d   1       0.228   1.704   0.805  0.00  0.00     0.013 C 
ENDBRANCH   7   8
ENDBRANCH   1   7
TORSDOF 2
ENDMDL
