MODEL 1
REMARK minimizedAffinity -5.21926165
REMARK minimizedRMSD -1
REMARK  2 active torsions:
REMARK  status: ('A' for Active; 'I' for Inactive)
REMARK    1  A    between atoms: C2'_3  and  C1'_4 
REMARK    2  A    between atoms: C1'_4  and  C1_5 
ROOT
ATOM      1  C1  I4B d   1      -0.388  -0.648  -0.514  0.00  0.00    -0.075 A 
ATOM      2  C2  I4B d   1       0.962  -0.879  -0.418  0.00  0.00     0.003 A 
ATOM      3  C3  I4B d   1       1.820   0.118   0.107  0.00  0.00     0.002 A 
ATOM      4  C4  I4B d   1       1.296   1.341   0.475  0.00  0.00    -0.004 A 
ATOM      5  C5  I4B d   1      -0.076   1.564   0.398  0.00  0.00     0.002 A 
ATOM      6  C6  I4B d   1      -0.925   0.559  -0.087  0.00  0.00     0.003 A 
ENDROOT
BRANCH   1   7
ATOM      7  C1' I4B d   1      -1.260  -1.711  -1.103  0.00  0.00     0.060 C 
BRANCH   7   8
ATOM      8  C2' I4B d   1      -2.245  -1.040  -2.040  0.00  0.00    -0.013 C 
ATOM      9  C4' I4B d   1      -1.746  -1.060  -3.461  0.00  0.00     0.013 C 
ATOM     10  C3' I4B d   1      -3.559  -1.751  -1.917  0.00  0.00     0.013 C 
ENDBRANCH   7   8
ENDBRANCH   1   7
TORSDOF 2
ENDMDL
