MODEL 1
REMARK minimizedAffinity -2.89890313
REMARK minimizedRMSD -1
REMARK  2 active torsions:
REMARK  status: ('A' for Active; 'I' for Inactive)
REMARK    1  A    between atoms: C2'_3  and  C1'_4 
REMARK    2  A    between atoms: C1'_4  and  C1_5 
ROOT
ATOM      1  C1  I4B d   1      -0.354  -0.107  -0.453  0.00  0.00    -0.075 A 
ATOM      2  C2  I4B d   1      -0.431  -0.338   0.898  0.00  0.00     0.003 A 
ATOM      3  C3  I4B d   1      -0.045   0.667   1.817  0.00  0.00     0.002 A 
ATOM      4  C4  I4B d   1       0.457   1.863   1.344  0.00  0.00    -0.004 A 
ATOM      5  C5  I4B d   1       0.513   2.104  -0.026  0.00  0.00     0.002 A 
ATOM      6  C6  I4B d   1       0.093   1.118  -0.930  0.00  0.00     0.003 A 
ENDROOT
BRANCH   1   7
ATOM      7  C1' I4B d   1      -0.740  -1.203  -1.395  0.00  0.00     0.060 C 
BRANCH   7   8
ATOM      8  C2' I4B d   1      -1.856  -0.688  -2.280  0.00  0.00    -0.013 C 
ATOM      9  C4' I4B d   1      -1.506  -0.829  -3.738  0.00  0.00     0.013 C 
ATOM     10  C3' I4B d   1      -3.102  -1.452  -1.946  0.00  0.00     0.013 C 
ENDBRANCH   7   8
ENDBRANCH   1   7
TORSDOF 2
ENDMDL
