MODEL 1
REMARK minimizedAffinity -5.27659607
REMARK minimizedRMSD -1
REMARK  2 active torsions:
REMARK  status: ('A' for Active; 'I' for Inactive)
REMARK    1  A    between atoms: C2'_3  and  C1'_4 
REMARK    2  A    between atoms: C1'_4  and  C1_5 
ROOT
ATOM      1  C1  I4B d   1       0.171   0.353  -0.211  0.00  0.00    -0.075 A 
ATOM      2  C2  I4B d   1       0.489   0.191   1.114  0.00  0.00     0.003 A 
ATOM      3  C3  I4B d   1       0.532   1.311   1.979  0.00  0.00     0.002 A 
ATOM      4  C4  I4B d   1       0.300   2.572   1.469  0.00  0.00    -0.004 A 
ATOM      5  C5  I4B d   1      -0.045   2.732   0.130  0.00  0.00     0.002 A 
ATOM      6  C6  I4B d   1      -0.122   1.614  -0.713  0.00  0.00     0.003 A 
ENDROOT
BRANCH   1   7
ATOM      7  C1' I4B d   1       0.167  -0.848  -1.103  0.00  0.00     0.060 C 
BRANCH   7   8
ATOM      8  C2' I4B d   1      -1.237  -1.023  -1.645  0.00  0.00    -0.013 C 
ATOM      9  C4' I4B d   1      -1.261  -0.910  -3.146  0.00  0.00     0.013 C 
ATOM     10  C3' I4B d   1      -1.743  -2.361  -1.194  0.00  0.00     0.013 C 
ENDBRANCH   7   8
ENDBRANCH   1   7
TORSDOF 2
ENDMDL
