MODEL 1
REMARK minimizedAffinity -3.68603516
REMARK minimizedRMSD -1
REMARK  2 active torsions:
REMARK  status: ('A' for Active; 'I' for Inactive)
REMARK    1  A    between atoms: C2'_3  and  C1'_4 
REMARK    2  A    between atoms: C1'_4  and  C1_5 
ROOT
ATOM      1  C1  I4B d   1      -0.289  -0.593  -0.988  0.00  0.00    -0.075 A 
ATOM      2  C2  I4B d   1       0.748   0.289  -1.162  0.00  0.00     0.003 A 
ATOM      3  C3  I4B d   1       1.099   1.190  -0.128  0.00  0.00     0.002 A 
ATOM      4  C4  I4B d   1       0.360   1.209   1.037  0.00  0.00    -0.004 A 
ATOM      5  C5  I4B d   1      -0.677   0.298   1.221  0.00  0.00     0.002 A 
ATOM      6  C6  I4B d   1      -0.996  -0.617   0.208  0.00  0.00     0.003 A 
ENDROOT
BRANCH   1   7
ATOM      7  C1' I4B d   1      -0.655  -1.508  -2.113  0.00  0.00     0.060 C 
BRANCH   7   8
ATOM      8  C2' I4B d   1      -2.107  -1.905  -1.940  0.00  0.00    -0.013 C 
ATOM      9  C4' I4B d   1      -2.995  -1.153  -2.896  0.00  0.00     0.013 C 
ATOM     10  C3' I4B d   1      -2.211  -3.385  -2.154  0.00  0.00     0.013 C 
ENDBRANCH   7   8
ENDBRANCH   1   7
TORSDOF 2
ENDMDL
