MODEL 1
REMARK minimizedAffinity -5.28069496
REMARK minimizedRMSD -1
REMARK  2 active torsions:
REMARK  status: ('A' for Active; 'I' for Inactive)
REMARK    1  A    between atoms: C2'_3  and  C1'_4 
REMARK    2  A    between atoms: C1'_4  and  C1_5 
ROOT
ATOM      1  C1  I4B d   1      -0.431  -0.085  -0.137  0.00  0.00    -0.075 A 
ATOM      2  C2  I4B d   1      -0.810  -0.044   1.182  0.00  0.00     0.003 A 
ATOM      3  C3  I4B d   1      -0.314   0.970   2.035  0.00  0.00     0.002 A 
ATOM      4  C4  I4B d   1       0.592   1.888   1.545  0.00  0.00    -0.004 A 
ATOM      5  C5  I4B d   1       0.958   1.860   0.202  0.00  0.00     0.002 A 
ATOM      6  C6  I4B d   1       0.434   0.875  -0.648  0.00  0.00     0.003 A 
ENDROOT
BRANCH   1   7
ATOM      7  C1' I4B d   1      -0.948  -1.190  -1.002  0.00  0.00     0.060 C 
BRANCH   7   8
ATOM      8  C2' I4B d   1      -1.462  -0.574  -2.288  0.00  0.00    -0.013 C 
ATOM      9  C4' I4B d   1      -0.736  -1.127  -3.486  0.00  0.00     0.013 C 
ATOM     10  C3' I4B d   1      -2.935  -0.846  -2.375  0.00  0.00     0.013 C 
ENDBRANCH   7   8
ENDBRANCH   1   7
TORSDOF 2
ENDMDL
