MODEL 1
REMARK minimizedAffinity -4.33805132
REMARK minimizedRMSD -1
REMARK  2 active torsions:
REMARK  status: ('A' for Active; 'I' for Inactive)
REMARK    1  A    between atoms: C2'_3  and  C1'_4 
REMARK    2  A    between atoms: C1'_4  and  C1_5 
ROOT
ATOM      1  C1  I4B d   1      -0.508  -0.690  -0.872  0.00  0.00    -0.075 A 
ATOM      2  C2  I4B d   1      -1.080  -1.929  -0.720  0.00  0.00     0.003 A 
ATOM      3  C3  I4B d   1      -1.838  -2.497  -1.773  0.00  0.00     0.002 A 
ATOM      4  C4  I4B d   1      -2.039  -1.777  -2.932  0.00  0.00    -0.004 A 
ATOM      5  C5  I4B d   1      -1.439  -0.531  -3.093  0.00  0.00     0.002 A 
ATOM      6  C6  I4B d   1      -0.658   0.010  -2.062  0.00  0.00     0.003 A 
ENDROOT
BRANCH   1   7
ATOM      7  C1' I4B d   1       0.259  -0.106   0.271  0.00  0.00     0.060 C 
BRANCH   7   8
ATOM      8  C2' I4B d   1      -0.508   1.097   0.781  0.00  0.00    -0.013 C 
ATOM      9  C4' I4B d   1      -1.681   0.677   1.627  0.00  0.00     0.013 C 
ATOM     10  C3' I4B d   1       0.442   1.956   1.561  0.00  0.00     0.013 C 
ENDBRANCH   7   8
ENDBRANCH   1   7
TORSDOF 2
ENDMDL
