MODEL 1
REMARK minimizedAffinity -5.3268137
REMARK minimizedRMSD -1
REMARK  2 active torsions:
REMARK  status: ('A' for Active; 'I' for Inactive)
REMARK    1  A    between atoms: C2'_3  and  C1'_4 
REMARK    2  A    between atoms: C1'_4  and  C1_5 
ROOT
ATOM      1  C1  I4B d   1      -0.090  -0.423  -0.179  0.00  0.00    -0.075 A 
ATOM      2  C2  I4B d   1       0.995   0.330  -0.550  0.00  0.00     0.003 A 
ATOM      3  C3  I4B d   1       1.363   1.470   0.205  0.00  0.00     0.002 A 
ATOM      4  C4  I4B d   1       0.594   1.846   1.287  0.00  0.00    -0.004 A 
ATOM      5  C5  I4B d   1      -0.493   1.067   1.675  0.00  0.00     0.002 A 
ATOM      6  C6  I4B d   1      -0.830  -0.082   0.945  0.00  0.00     0.003 A 
ENDROOT
BRANCH   1   7
ATOM      7  C1' I4B d   1      -0.470  -1.601  -1.019  0.00  0.00     0.060 C 
BRANCH   7   8
ATOM      8  C2' I4B d   1      -1.646  -1.197  -1.886  0.00  0.00    -0.013 C 
ATOM      9  C4' I4B d   1      -1.195  -0.810  -3.270  0.00  0.00     0.013 C 
ATOM     10  C3' I4B d   1      -2.605  -2.348  -1.931  0.00  0.00     0.013 C 
ENDBRANCH   7   8
ENDBRANCH   1   7
TORSDOF 2
ENDMDL
