MODEL 1
REMARK minimizedAffinity -4.20604467
REMARK minimizedRMSD -1
REMARK  2 active torsions:
REMARK  status: ('A' for Active; 'I' for Inactive)
REMARK    1  A    between atoms: C2'_3  and  C1'_4 
REMARK    2  A    between atoms: C1'_4  and  C1_5 
ROOT
ATOM      1  C1  I4B d   1       0.203   0.060  -0.269  0.00  0.00    -0.075 A 
ATOM      2  C2  I4B d   1      -0.627   0.329   0.791  0.00  0.00     0.003 A 
ATOM      3  C3  I4B d   1      -0.387   1.454   1.616  0.00  0.00     0.002 A 
ATOM      4  C4  I4B d   1       0.717   2.248   1.379  0.00  0.00    -0.004 A 
ATOM      5  C5  I4B d   1       1.544   1.986   0.291  0.00  0.00     0.002 A 
ATOM      6  C6  I4B d   1       1.280   0.893  -0.546  0.00  0.00     0.003 A 
ENDROOT
BRANCH   1   7
ATOM      7  C1' I4B d   1      -0.061  -1.155  -1.100  0.00  0.00     0.060 C 
BRANCH   7   8
ATOM      8  C2' I4B d   1      -1.402  -0.973  -1.781  0.00  0.00    -0.013 C 
ATOM      9  C4' I4B d   1      -1.254  -0.948  -3.279  0.00  0.00     0.013 C 
ATOM     10  C3' I4B d   1      -2.299  -2.092  -1.344  0.00  0.00     0.013 C 
ENDBRANCH   7   8
ENDBRANCH   1   7
TORSDOF 2
ENDMDL
