MODEL 1
REMARK minimizedAffinity -1.96038854
REMARK minimizedRMSD -1
REMARK  2 active torsions:
REMARK  status: ('A' for Active; 'I' for Inactive)
REMARK    1  A    between atoms: C2'_3  and  C1'_4 
REMARK    2  A    between atoms: C1'_4  and  C1_5 
ROOT
ATOM      1  C1  I4B d   1       0.061  -0.403   0.049  0.00  0.00    -0.075 A 
ATOM      2  C2  I4B d   1       1.160   0.078  -0.618  0.00  0.00     0.003 A 
ATOM      3  C3  I4B d   1       1.759   1.298  -0.219  0.00  0.00     0.002 A 
ATOM      4  C4  I4B d   1       1.199   2.024   0.812  0.00  0.00    -0.004 A 
ATOM      5  C5  I4B d   1       0.099   1.523   1.502  0.00  0.00     0.002 A 
ATOM      6  C6  I4B d   1      -0.467   0.296   1.127  0.00  0.00     0.003 A 
ENDROOT
BRANCH   1   7
ATOM      7  C1' I4B d   1      -0.565  -1.678  -0.420  0.00  0.00     0.060 C 
BRANCH   7   8
ATOM      8  C2' I4B d   1      -1.877  -1.333  -1.094  0.00  0.00    -0.013 C 
ATOM      9  C4' I4B d   1      -1.669  -0.979  -2.543  0.00  0.00     0.013 C 
ATOM     10  C3' I4B d   1      -2.795  -2.510  -0.951  0.00  0.00     0.013 C 
ENDBRANCH   7   8
ENDBRANCH   1   7
TORSDOF 2
ENDMDL
