MODEL 1
REMARK minimizedAffinity 6.30734444
REMARK minimizedRMSD -1
REMARK  0 active torsions:
REMARK  status: ('A' for Active; 'I' for Inactive)
ROOT
ATOM      1  C1  DEN d   1       2.512   3.366  -3.088  0.00  0.00     0.130 A 
ATOM      2  C2  DEN d   1       2.025   3.652  -1.742  0.00  0.00    -0.031 A 
ATOM      3  C3  DEN d   1       2.983   4.571  -1.095  0.00  0.00     0.027 A 
ATOM      4  C4  DEN d   1       5.160   5.576  -2.044  0.00  0.00     0.027 A 
ATOM      5  C5  DEN d   1       5.994   5.616  -3.140  0.00  0.00    -0.003 A 
ATOM      6  C6  DEN d   1       5.746   4.887  -4.273  0.00  0.00     0.001 A 
ATOM      7  C7  DEN d   1       4.612   4.123  -4.354  0.00  0.00     0.017 A 
ATOM      8  C8  DEN d   1       3.770   4.072  -3.250  0.00  0.00    -0.094 A 
ATOM      9  C9  DEN d   1       4.032   4.825  -2.119  0.00  0.00    -0.072 A 
ENDROOT
TORSDOF 0
ENDMDL
