MODEL 1
REMARK minimizedAffinity 4.50594902
REMARK minimizedRMSD -1
REMARK  0 active torsions:
REMARK  status: ('A' for Active; 'I' for Inactive)
ROOT
ATOM      1  C1  DEN d   1       4.811   2.243  -4.173  0.00  0.00     0.130 A 
ATOM      2  C2  DEN d   1       5.900   2.011  -5.119  0.00  0.00    -0.031 A 
ATOM      3  C3  DEN d   1       6.000   3.193  -5.998  0.00  0.00     0.027 A 
ATOM      4  C4  DEN d   1       4.584   5.349  -5.985  0.00  0.00     0.027 A 
ATOM      5  C5  DEN d   1       3.535   6.000  -5.374  0.00  0.00    -0.003 A 
ATOM      6  C6  DEN d   1       2.822   5.434  -4.350  0.00  0.00     0.001 A 
ATOM      7  C7  DEN d   1       3.178   4.199  -3.877  0.00  0.00     0.017 A 
ATOM      8  C8  DEN d   1       4.230   3.534  -4.493  0.00  0.00    -0.094 A 
ATOM      9  C9  DEN d   1       4.946   4.128  -5.518  0.00  0.00    -0.072 A 
ENDROOT
TORSDOF 0
ENDMDL
