MODEL 1
REMARK minimizedAffinity 2.67237782
REMARK minimizedRMSD -1
REMARK  0 active torsions:
REMARK  status: ('A' for Active; 'I' for Inactive)
ROOT
ATOM      1  C1  DEN d   1       1.963   4.755  -3.001  0.00  0.00     0.130 A 
ATOM      2  C2  DEN d   1       1.952   4.163  -1.666  0.00  0.00    -0.031 A 
ATOM      3  C3  DEN d   1       3.338   4.163  -1.156  0.00  0.00     0.027 A 
ATOM      4  C4  DEN d   1       5.487   5.021  -2.297  0.00  0.00     0.027 A 
ATOM      5  C5  DEN d   1       5.998   5.596  -3.438  0.00  0.00    -0.003 A 
ATOM      6  C6  DEN d   1       5.213   5.898  -4.519  0.00  0.00     0.001 A 
ATOM      7  C7  DEN d   1       3.864   5.667  -4.463  0.00  0.00     0.017 A 
ATOM      8  C8  DEN d   1       3.342   5.080  -3.318  0.00  0.00    -0.094 A 
ATOM      9  C9  DEN d   1       4.150   4.794  -2.232  0.00  0.00    -0.072 A 
ENDROOT
TORSDOF 0
ENDMDL
