MODEL 1
REMARK minimizedAffinity 0.00963193737
REMARK minimizedRMSD -1
REMARK  0 active torsions:
REMARK  status: ('A' for Active; 'I' for Inactive)
ROOT
ATOM      1  C1  DEN d   1       5.972   5.971  -1.783  0.00  0.00     0.130 A 
ATOM      2  C2  DEN d   1       4.928   6.000  -0.763  0.00  0.00    -0.031 A 
ATOM      3  C3  DEN d   1       3.723   5.357  -1.324  0.00  0.00     0.027 A 
ATOM      4  C4  DEN d   1       3.376   4.321  -3.660  0.00  0.00     0.027 A 
ATOM      5  C5  DEN d   1       3.972   4.070  -4.877  0.00  0.00    -0.003 A 
ATOM      6  C6  DEN d   1       5.254   4.462  -5.157  0.00  0.00     0.001 A 
ATOM      7  C7  DEN d   1       5.999   5.087  -4.191  0.00  0.00     0.017 A 
ATOM      8  C8  DEN d   1       5.402   5.350  -2.965  0.00  0.00    -0.094 A 
ATOM      9  C9  DEN d   1       4.109   4.934  -2.697  0.00  0.00    -0.072 A 
ENDROOT
TORSDOF 0
ENDMDL
