MODEL 1
REMARK minimizedAffinity -1.03651047
REMARK minimizedRMSD -1
REMARK  0 active torsions:
REMARK  status: ('A' for Active; 'I' for Inactive)
ROOT
ATOM      1  C1  DEN d   1       3.893   4.354  -1.828  0.00  0.00     0.130 A 
ATOM      2  C2  DEN d   1       2.712   5.203  -1.699  0.00  0.00    -0.031 A 
ATOM      3  C3  DEN d   1       2.586   6.000  -2.936  0.00  0.00     0.027 A 
ATOM      4  C4  DEN d   1       4.092   5.996  -5.030  0.00  0.00     0.027 A 
ATOM      5  C5  DEN d   1       5.222   5.450  -5.599  0.00  0.00    -0.003 A 
ATOM      6  C6  DEN d   1       6.000   4.533  -4.943  0.00  0.00     0.001 A 
ATOM      7  C7  DEN d   1       5.634   4.100  -3.696  0.00  0.00     0.017 A 
ATOM      8  C8  DEN d   1       4.501   4.652  -3.113  0.00  0.00    -0.094 A 
ATOM      9  C9  DEN d   1       3.720   5.568  -3.797  0.00  0.00    -0.072 A 
ENDROOT
TORSDOF 0
ENDMDL
