MODEL 1
REMARK minimizedAffinity 8.89726353
REMARK minimizedRMSD -1
REMARK  0 active torsions:
REMARK  status: ('A' for Active; 'I' for Inactive)
ROOT
ATOM      1  C1  DEN d   1       5.962   5.985  -3.134  0.00  0.00     0.130 A 
ATOM      2  C2  DEN d   1       6.000   6.000  -4.594  0.00  0.00    -0.031 A 
ATOM      3  C3  DEN d   1       4.758   5.373  -5.090  0.00  0.00     0.027 A 
ATOM      4  C4  DEN d   1       2.789   4.389  -3.745  0.00  0.00     0.027 A 
ATOM      5  C5  DEN d   1       2.309   4.137  -2.479  0.00  0.00    -0.003 A 
ATOM      6  C6  DEN d   1       3.022   4.451  -1.352  0.00  0.00     0.001 A 
ATOM      7  C7  DEN d   1       4.235   5.075  -1.469  0.00  0.00     0.017 A 
ATOM      8  C8  DEN d   1       4.729   5.325  -2.742  0.00  0.00    -0.094 A 
ATOM      9  C9  DEN d   1       3.988   5.012  -3.869  0.00  0.00    -0.072 A 
ENDROOT
TORSDOF 0
ENDMDL
