MODEL 1
REMARK minimizedAffinity 7.55445194
REMARK minimizedRMSD -1
REMARK  0 active torsions:
REMARK  status: ('A' for Active; 'I' for Inactive)
ROOT
ATOM      1  C1  DEN d   1       3.053   4.302  -4.260  0.00  0.00     0.130 A 
ATOM      2  C2  DEN d   1       3.523   4.835  -5.536  0.00  0.00    -0.031 A 
ATOM      3  C3  DEN d   1       4.764   5.594  -5.285  0.00  0.00     0.027 A 
ATOM      4  C4  DEN d   1       5.999   5.992  -3.056  0.00  0.00     0.027 A 
ATOM      5  C5  DEN d   1       5.976   5.748  -1.700  0.00  0.00    -0.003 A 
ATOM      6  C6  DEN d   1       4.967   5.040  -1.103  0.00  0.00     0.001 A 
ATOM      7  C7  DEN d   1       3.962   4.512  -1.870  0.00  0.00     0.017 A 
ATOM      8  C8  DEN d   1       3.975   4.760  -3.236  0.00  0.00    -0.094 A 
ATOM      9  C9  DEN d   1       5.010   5.467  -3.823  0.00  0.00    -0.072 A 
ENDROOT
TORSDOF 0
ENDMDL
