MODEL 1
REMARK minimizedAffinity 0.78746736
REMARK minimizedRMSD -1
REMARK  0 active torsions:
REMARK  status: ('A' for Active; 'I' for Inactive)
ROOT
ATOM      1  C1  DEN d   1       5.996   4.438  -4.502  0.00  0.00     0.130 A 
ATOM      2  C2  DEN d   1       6.000   5.250  -5.716  0.00  0.00    -0.031 A 
ATOM      3  C3  DEN d   1       4.729   6.000  -5.767  0.00  0.00     0.027 A 
ATOM      4  C4  DEN d   1       2.769   5.988  -4.092  0.00  0.00     0.027 A 
ATOM      5  C5  DEN d   1       2.302   5.447  -2.914  0.00  0.00    -0.003 A 
ATOM      6  C6  DEN d   1       3.013   4.515  -2.206  0.00  0.00     0.001 A 
ATOM      7  C7  DEN d   1       4.251   4.128  -2.647  0.00  0.00     0.017 A 
ATOM      8  C8  DEN d   1       4.725   4.663  -3.837  0.00  0.00    -0.094 A 
ATOM      9  C9  DEN d   1       3.996   5.613  -4.532  0.00  0.00    -0.072 A 
ENDROOT
TORSDOF 0
ENDMDL
