MODEL 1
REMARK minimizedAffinity -0.918613434
REMARK minimizedRMSD -1
REMARK  0 active torsions:
REMARK  status: ('A' for Active; 'I' for Inactive)
ROOT
ATOM      1  C1  DEN d   1       5.999   5.953  -2.577  0.00  0.00     0.130 A 
ATOM      2  C2  DEN d   1       5.065   5.746  -1.474  0.00  0.00    -0.031 A 
ATOM      3  C3  DEN d   1       3.976   4.872  -1.956  0.00  0.00     0.027 A 
ATOM      4  C4  DEN d   1       3.652   3.821  -4.289  0.00  0.00     0.027 A 
ATOM      5  C5  DEN d   1       4.178   3.720  -5.558  0.00  0.00    -0.003 A 
ATOM      6  C6  DEN d   1       5.321   4.378  -5.929  0.00  0.00     0.001 A 
ATOM      7  C7  DEN d   1       6.000   5.132  -5.008  0.00  0.00     0.017 A 
ATOM      8  C8  DEN d   1       5.471   5.244  -3.729  0.00  0.00    -0.094 A 
ATOM      9  C9  DEN d   1       4.321   4.561  -3.370  0.00  0.00    -0.072 A 
ENDROOT
TORSDOF 0
ENDMDL
