MODEL 1
REMARK minimizedAffinity 11.6581354
REMARK minimizedRMSD -1
REMARK  0 active torsions:
REMARK  status: ('A' for Active; 'I' for Inactive)
ROOT
ATOM      1  C1  DEN d   1       5.998   2.808  -3.558  0.00  0.00     0.130 A 
ATOM      2  C2  DEN d   1       4.957   2.229  -4.402  0.00  0.00    -0.031 A 
ATOM      3  C3  DEN d   1       3.736   3.044  -4.244  0.00  0.00     0.027 A 
ATOM      4  C4  DEN d   1       3.360   5.139  -2.787  0.00  0.00     0.027 A 
ATOM      5  C5  DEN d   1       3.948   6.000  -1.887  0.00  0.00    -0.003 A 
ATOM      6  C6  DEN d   1       5.238   5.839  -1.458  0.00  0.00     0.001 A 
ATOM      7  C7  DEN d   1       5.999   4.818  -1.964  0.00  0.00     0.017 A 
ATOM      8  C8  DEN d   1       5.412   3.942  -2.866  0.00  0.00    -0.094 A 
ATOM      9  C9  DEN d   1       4.109   4.129  -3.297  0.00  0.00    -0.072 A 
ENDROOT
TORSDOF 0
ENDMDL
