MODEL 1
REMARK minimizedAffinity -1.74005604
REMARK minimizedRMSD -1
REMARK  0 active torsions:
REMARK  status: ('A' for Active; 'I' for Inactive)
ROOT
ATOM      1  C1  DEN d   1       4.626   4.315  -5.501  0.00  0.00     0.130 A 
ATOM      2  C2  DEN d   1       5.701   5.264  -5.778  0.00  0.00    -0.031 A 
ATOM      3  C3  DEN d   1       5.993   6.000  -4.531  0.00  0.00     0.027 A 
ATOM      4  C4  DEN d   1       4.893   5.760  -2.210  0.00  0.00     0.027 A 
ATOM      5  C5  DEN d   1       3.927   5.093  -1.489  0.00  0.00    -0.003 A 
ATOM      6  C6  DEN d   1       3.110   4.153  -2.058  0.00  0.00     0.001 A 
ATOM      7  C7  DEN d   1       3.275   3.819  -3.377  0.00  0.00     0.017 A 
ATOM      8  C8  DEN d   1       4.242   4.492  -4.112  0.00  0.00    -0.094 A 
ATOM      9  C9  DEN d   1       5.066   5.431  -3.516  0.00  0.00    -0.072 A 
ENDROOT
TORSDOF 0
ENDMDL
