MODEL 1
REMARK minimizedAffinity 9.34734058
REMARK minimizedRMSD -1
REMARK  0 active torsions:
REMARK  status: ('A' for Active; 'I' for Inactive)
ROOT
ATOM      1  C1  DEN d   1       4.656   3.037  -4.354  0.00  0.00     0.130 A 
ATOM      2  C2  DEN d   1       5.964   3.651  -4.568  0.00  0.00    -0.031 A 
ATOM      3  C3  DEN d   1       5.999   4.923  -3.819  0.00  0.00     0.027 A 
ATOM      4  C4  DEN d   1       4.168   5.994  -2.352  0.00  0.00     0.027 A 
ATOM      5  C5  DEN d   1       2.883   5.851  -1.879  0.00  0.00    -0.003 A 
ATOM      6  C6  DEN d   1       2.093   4.785  -2.222  0.00  0.00     0.001 A 
ATOM      7  C7  DEN d   1       2.597   3.798  -3.026  0.00  0.00     0.017 A 
ATOM      8  C8  DEN d   1       3.889   3.939  -3.513  0.00  0.00    -0.094 A 
ATOM      9  C9  DEN d   1       4.676   5.017  -3.145  0.00  0.00    -0.072 A 
ENDROOT
TORSDOF 0
ENDMDL
