MODEL 1
REMARK minimizedAffinity 9.26850319
REMARK minimizedRMSD -1
REMARK  0 active torsions:
REMARK  status: ('A' for Active; 'I' for Inactive)
ROOT
ATOM      1  C1  DEN d   1       2.253   5.274  -2.221  0.00  0.00     0.130 A 
ATOM      2  C2  DEN d   1       2.601   5.065  -0.818  0.00  0.00    -0.031 A 
ATOM      3  C3  DEN d   1       4.064   5.214  -0.684  0.00  0.00     0.027 A 
ATOM      4  C4  DEN d   1       5.814   5.749  -2.501  0.00  0.00     0.027 A 
ATOM      5  C5  DEN d   1       5.999   6.000  -3.843  0.00  0.00    -0.003 A 
ATOM      6  C6  DEN d   1       4.961   5.992  -4.736  0.00  0.00     0.001 A 
ATOM      7  C7  DEN d   1       3.684   5.773  -4.291  0.00  0.00     0.017 A 
ATOM      8  C8  DEN d   1       3.491   5.513  -2.941  0.00  0.00    -0.094 A 
ATOM      9  C9  DEN d   1       4.552   5.537  -2.052  0.00  0.00    -0.072 A 
ENDROOT
TORSDOF 0
ENDMDL
