MODEL 1
REMARK minimizedAffinity 6.89099932
REMARK minimizedRMSD -1
REMARK  0 active torsions:
REMARK  status: ('A' for Active; 'I' for Inactive)
ROOT
ATOM      1  C1  DEN d   1       4.850   5.217  -5.245  0.00  0.00     0.130 A 
ATOM      2  C2  DEN d   1       6.000   4.487  -4.718  0.00  0.00    -0.031 A 
ATOM      3  C3  DEN d   1       5.731   4.174  -3.300  0.00  0.00     0.027 A 
ATOM      4  C4  DEN d   1       3.655   4.742  -1.878  0.00  0.00     0.027 A 
ATOM      5  C5  DEN d   1       2.425   5.361  -1.885  0.00  0.00    -0.003 A 
ATOM      6  C6  DEN d   1       1.935   6.000  -2.993  0.00  0.00     0.001 A 
ATOM      7  C7  DEN d   1       2.661   5.995  -4.156  0.00  0.00     0.017 A 
ATOM      8  C8  DEN d   1       3.906   5.379  -4.154  0.00  0.00    -0.094 A 
ATOM      9  C9  DEN d   1       4.378   4.728  -3.027  0.00  0.00    -0.072 A 
ENDROOT
TORSDOF 0
ENDMDL
