MODEL 1
REMARK minimizedAffinity 2.46259499
REMARK minimizedRMSD -1
REMARK  0 active torsions:
REMARK  status: ('A' for Active; 'I' for Inactive)
ROOT
ATOM      1  C1  DEN d   1       6.000   4.223  -4.863  0.00  0.00     0.130 A 
ATOM      2  C2  DEN d   1       5.003   3.330  -5.447  0.00  0.00    -0.031 A 
ATOM      3  C3  DEN d   1       3.814   3.339  -4.571  0.00  0.00     0.027 A 
ATOM      4  C4  DEN d   1       3.420   4.645  -2.382  0.00  0.00     0.027 A 
ATOM      5  C5  DEN d   1       3.982   5.523  -1.483  0.00  0.00    -0.003 A 
ATOM      6  C6  DEN d   1       5.258   6.000  -1.627  0.00  0.00     0.001 A 
ATOM      7  C7  DEN d   1       5.999   5.635  -2.720  0.00  0.00     0.017 A 
ATOM      8  C8  DEN d   1       5.441   4.744  -3.628  0.00  0.00    -0.094 A 
ATOM      9  C9  DEN d   1       4.145   4.283  -3.471  0.00  0.00    -0.072 A 
ENDROOT
TORSDOF 0
ENDMDL
