MODEL 1
REMARK minimizedAffinity 0.905258238
REMARK minimizedRMSD -1
REMARK  0 active torsions:
REMARK  status: ('A' for Active; 'I' for Inactive)
ROOT
ATOM      1  C1  DEN d   1       5.958   5.391  -2.014  0.00  0.00     0.130 A 
ATOM      2  C2  DEN d   1       4.862   5.999  -1.264  0.00  0.00    -0.031 A 
ATOM      3  C3  DEN d   1       3.595   5.432  -1.768  0.00  0.00     0.027 A 
ATOM      4  C4  DEN d   1       3.226   3.678  -3.623  0.00  0.00     0.027 A 
ATOM      5  C5  DEN d   1       3.853   2.880  -4.554  0.00  0.00    -0.003 A 
ATOM      6  C6  DEN d   1       5.212   2.888  -4.726  0.00  0.00     0.001 A 
ATOM      7  C7  DEN d   1       5.993   3.678  -3.924  0.00  0.00     0.017 A 
ATOM      8  C8  DEN d   1       5.367   4.490  -2.988  0.00  0.00    -0.094 A 
ATOM      9  C9  DEN d   1       3.993   4.459  -2.821  0.00  0.00    -0.072 A 
ENDROOT
TORSDOF 0
ENDMDL
