MODEL 1
REMARK minimizedAffinity -3.87719011
REMARK minimizedRMSD -1
REMARK  0 active torsions:
REMARK  status: ('A' for Active; 'I' for Inactive)
ROOT
ATOM      1  N1  IND d   1      -0.742   1.888  -1.111  0.00  0.00    -0.196 N 
ATOM      2  C2  IND d   1      -1.590   1.493  -0.114  0.00  0.00     0.054 A 
ATOM      3  C3  IND d   1      -1.235   0.273   0.349  0.00  0.00    -0.031 A 
ATOM      4  C4  IND d   1       0.763  -1.210  -0.312  0.00  0.00     0.051 A 
ATOM      5  C5  IND d   1       1.796  -1.290  -1.202  0.00  0.00    -0.031 A 
ATOM      6  C6  IND d   1       2.043  -0.293  -2.124  0.00  0.00     0.015 A 
ATOM      7  C7  IND d   1       1.269   0.831  -2.183  0.00  0.00    -0.016 A 
ATOM      8  C8  IND d   1       0.214   0.912  -1.285  0.00  0.00    -0.047 A 
ATOM      9  C9  IND d   1      -0.067  -0.115  -0.376  0.00  0.00    -0.096 A 
ATOM     10  HN1 IND d   1      -0.797   2.623  -1.554  0.00  0.00     0.298 HD
ENDROOT
TORSDOF 0
ENDMDL
