MODEL 1
REMARK minimizedAffinity -5.4374299
REMARK minimizedRMSD -1
REMARK  0 active torsions:
REMARK  status: ('A' for Active; 'I' for Inactive)
ROOT
ATOM      1  N1  IND d   1      -0.685   0.600  -0.877  0.00  0.00    -0.196 N 
ATOM      2  C2  IND d   1      -0.831   0.252   0.437  0.00  0.00     0.054 A 
ATOM      3  C3  IND d   1       0.356  -0.137   0.955  0.00  0.00    -0.031 A 
ATOM      4  C4  IND d   1       2.684  -0.183  -0.143  0.00  0.00     0.051 A 
ATOM      5  C5  IND d   1       3.314   0.010  -1.340  0.00  0.00    -0.031 A 
ATOM      6  C6  IND d   1       2.630   0.420  -2.466  0.00  0.00     0.015 A 
ATOM      7  C7  IND d   1       1.286   0.665  -2.434  0.00  0.00    -0.016 A 
ATOM      8  C8  IND d   1       0.642   0.463  -1.222  0.00  0.00    -0.047 A 
ATOM      9  C9  IND d   1       1.323   0.006  -0.086  0.00  0.00    -0.096 A 
ATOM     10  HN1 IND d   1      -1.316   0.860  -1.400  0.00  0.00     0.298 HD
ENDROOT
TORSDOF 0
ENDMDL
