MODEL 1
REMARK minimizedAffinity -3.40426421
REMARK minimizedRMSD -1
REMARK  0 active torsions:
REMARK  status: ('A' for Active; 'I' for Inactive)
ROOT
ATOM      1  N1  IND d   1      -0.366   1.722   0.728  0.00  0.00    -0.196 N 
ATOM      2  C2  IND d   1      -0.351   0.722  -0.204  0.00  0.00     0.054 A 
ATOM      3  C3  IND d   1      -1.262  -0.227   0.110  0.00  0.00    -0.031 A 
ATOM      4  C4  IND d   1      -2.953  -0.293   2.049  0.00  0.00     0.051 A 
ATOM      5  C5  IND d   1      -3.321   0.379   3.181  0.00  0.00    -0.031 A 
ATOM      6  C6  IND d   1      -2.712   1.558   3.559  0.00  0.00     0.015 A 
ATOM      7  C7  IND d   1      -1.716   2.118   2.810  0.00  0.00    -0.016 A 
ATOM      8  C8  IND d   1      -1.335   1.434   1.664  0.00  0.00    -0.047 A 
ATOM      9  C9  IND d   1      -1.920   0.215   1.298  0.00  0.00    -0.096 A 
ATOM     10  HN1 IND d   1       0.145   2.414   0.730  0.00  0.00     0.298 HD
ENDROOT
TORSDOF 0
ENDMDL
