MODEL 1
REMARK minimizedAffinity -3.73793721
REMARK minimizedRMSD -1
REMARK  0 active torsions:
REMARK  status: ('A' for Active; 'I' for Inactive)
ROOT
ATOM      1  N1  IND d   1       0.152   1.189  -0.868  0.00  0.00    -0.196 N 
ATOM      2  C2  IND d   1      -0.933   1.204  -0.037  0.00  0.00     0.054 A 
ATOM      3  C3  IND d   1      -1.082   0.003   0.565  0.00  0.00    -0.031 A 
ATOM      4  C4  IND d   1       0.399  -2.097   0.411  0.00  0.00     0.051 A 
ATOM      5  C5  IND d   1       1.483  -2.605  -0.248  0.00  0.00    -0.031 A 
ATOM      6  C6  IND d   1       2.195  -1.858  -1.164  0.00  0.00     0.015 A 
ATOM      7  C7  IND d   1       1.855  -0.566  -1.447  0.00  0.00    -0.016 A 
ATOM      8  C8  IND d   1       0.750  -0.049  -0.785  0.00  0.00    -0.047 A 
ATOM      9  C9  IND d   1      -0.002  -0.816   0.114  0.00  0.00    -0.096 A 
ATOM     10  HN1 IND d   1       0.417   1.843  -1.359  0.00  0.00     0.298 HD
ENDROOT
TORSDOF 0
ENDMDL
