MODEL 1
REMARK minimizedAffinity -3.73419714
REMARK minimizedRMSD -1
REMARK  0 active torsions:
REMARK  status: ('A' for Active; 'I' for Inactive)
ROOT
ATOM      1  N1  IND d   1      -0.484   1.222  -0.521  0.00  0.00    -0.196 N 
ATOM      2  C2  IND d   1      -1.272   0.568   0.385  0.00  0.00     0.054 A 
ATOM      3  C3  IND d   1      -0.731  -0.630   0.701  0.00  0.00    -0.031 A 
ATOM      4  C4  IND d   1       1.491  -1.676  -0.072  0.00  0.00     0.051 A 
ATOM      5  C5  IND d   1       2.538  -1.472  -0.926  0.00  0.00    -0.031 A 
ATOM      6  C6  IND d   1       2.634  -0.336  -1.703  0.00  0.00     0.015 A 
ATOM      7  C7  IND d   1       1.689   0.649  -1.646  0.00  0.00    -0.016 A 
ATOM      8  C8  IND d   1       0.621   0.442  -0.784  0.00  0.00    -0.047 A 
ATOM      9  C9  IND d   1       0.496  -0.728  -0.025  0.00  0.00    -0.096 A 
ATOM     10  HN1 IND d   1      -0.650   1.991  -0.868  0.00  0.00     0.298 HD
ENDROOT
TORSDOF 0
ENDMDL
