MODEL 1
REMARK minimizedAffinity -3.85360217
REMARK minimizedRMSD -1
REMARK  0 active torsions:
REMARK  status: ('A' for Active; 'I' for Inactive)
ROOT
ATOM      1  N1  IND d   1       0.120   1.099   0.848  0.00  0.00    -0.196 N 
ATOM      2  C2  IND d   1      -0.062   0.175  -0.144  0.00  0.00     0.054 A 
ATOM      3  C3  IND d   1      -1.160  -0.572   0.105  0.00  0.00    -0.031 A 
ATOM      4  C4  IND d   1      -2.864  -0.386   2.025  0.00  0.00     0.051 A 
ATOM      5  C5  IND d   1      -3.102   0.282   3.194  0.00  0.00    -0.031 A 
ATOM      6  C6  IND d   1      -2.263   1.279   3.647  0.00  0.00     0.015 A 
ATOM      7  C7  IND d   1      -1.155   1.654   2.941  0.00  0.00    -0.016 A 
ATOM      8  C8  IND d   1      -0.907   0.973   1.757  0.00  0.00    -0.047 A 
ATOM      9  C9  IND d   1      -1.732  -0.069   1.313  0.00  0.00    -0.096 A 
ATOM     10  HN1 IND d   1       0.766   1.664   0.895  0.00  0.00     0.298 HD
ENDROOT
TORSDOF 0
ENDMDL
