MODEL 1
REMARK minimizedAffinity -0.676464558
REMARK minimizedRMSD -1
REMARK  0 active torsions:
REMARK  status: ('A' for Active; 'I' for Inactive)
ROOT
ATOM      1  N1  IND d   1       0.210   1.933   0.489  0.00  0.00    -0.196 N 
ATOM      2  C2  IND d   1      -0.101   0.960  -0.420  0.00  0.00     0.054 A 
ATOM      3  C3  IND d   1      -0.876   0.012   0.152  0.00  0.00    -0.031 A 
ATOM      4  C4  IND d   1      -1.839  -0.093   2.538  0.00  0.00     0.051 A 
ATOM      5  C5  IND d   1      -1.803   0.549   3.743  0.00  0.00    -0.031 A 
ATOM      6  C6  IND d   1      -1.081   1.711   3.929  0.00  0.00     0.015 A 
ATOM      7  C7  IND d   1      -0.375   2.282   2.908  0.00  0.00    -0.016 A 
ATOM      8  C8  IND d   1      -0.404   1.628   1.684  0.00  0.00    -0.047 A 
ATOM      9  C9  IND d   1      -1.100   0.426   1.501  0.00  0.00    -0.096 A 
ATOM     10  HN1 IND d   1       0.705   2.619   0.340  0.00  0.00     0.298 HD
ENDROOT
TORSDOF 0
ENDMDL
