MODEL 1
REMARK minimizedAffinity -4.20628214
REMARK minimizedRMSD -1
REMARK  0 active torsions:
REMARK  status: ('A' for Active; 'I' for Inactive)
ROOT
ATOM      1  N1  IND d   1      -0.510   0.810  -0.083  0.00  0.00    -0.196 N 
ATOM      2  C2  IND d   1      -0.658  -0.361   0.607  0.00  0.00     0.054 A 
ATOM      3  C3  IND d   1       0.394  -1.178   0.377  0.00  0.00    -0.031 A 
ATOM      4  C4  IND d   1       2.518  -0.758  -1.015  0.00  0.00     0.051 A 
ATOM      5  C5  IND d   1       3.090   0.151  -1.861  0.00  0.00    -0.031 A 
ATOM      6  C6  IND d   1       2.480   1.352  -2.160  0.00  0.00     0.015 A 
ATOM      7  C7  IND d   1       1.275   1.694  -1.615  0.00  0.00    -0.016 A 
ATOM      8  C8  IND d   1       0.688   0.771  -0.762  0.00  0.00    -0.047 A 
ATOM      9  C9  IND d   1       1.283  -0.468  -0.487  0.00  0.00    -0.096 A 
ATOM     10  HN1 IND d   1      -1.071   1.462  -0.092  0.00  0.00     0.298 HD
ENDROOT
TORSDOF 0
ENDMDL
