MODEL 1
REMARK minimizedAffinity -4.11272097
REMARK minimizedRMSD -1
REMARK  0 active torsions:
REMARK  status: ('A' for Active; 'I' for Inactive)
ROOT
ATOM      1  N1  IND d   1      -0.488   0.398   0.109  0.00  0.00    -0.196 N 
ATOM      2  C2  IND d   1      -0.381  -0.833   0.696  0.00  0.00     0.054 A 
ATOM      3  C3  IND d   1       0.506  -1.599   0.023  0.00  0.00    -0.031 A 
ATOM      4  C4  IND d   1       1.975  -1.003  -2.006  0.00  0.00     0.051 A 
ATOM      5  C5  IND d   1       2.204  -0.009  -2.915  0.00  0.00    -0.031 A 
ATOM      6  C6  IND d   1       1.536   1.197  -2.860  0.00  0.00     0.015 A 
ATOM      7  C7  IND d   1       0.618   1.459  -1.882  0.00  0.00    -0.016 A 
ATOM      8  C8  IND d   1       0.378   0.449  -0.961  0.00  0.00    -0.047 A 
ATOM      9  C9  IND d   1       1.022  -0.793  -1.037  0.00  0.00    -0.096 A 
ATOM     10  HN1 IND d   1      -1.008   1.032   0.366  0.00  0.00     0.298 HD
ENDROOT
TORSDOF 0
ENDMDL
