MODEL 1
REMARK minimizedAffinity -4.6612134
REMARK minimizedRMSD -1
REMARK  0 active torsions:
REMARK  status: ('A' for Active; 'I' for Inactive)
ROOT
ATOM      1  N1  IND d   1      -0.354   1.133  -0.312  0.00  0.00    -0.196 N 
ATOM      2  C2  IND d   1      -0.498   0.003   0.443  0.00  0.00     0.054 A 
ATOM      3  C3  IND d   1       0.501  -0.869   0.181  0.00  0.00    -0.031 A 
ATOM      4  C4  IND d   1       2.534  -0.606  -1.377  0.00  0.00     0.051 A 
ATOM      5  C5  IND d   1       3.079   0.237  -2.304  0.00  0.00    -0.031 A 
ATOM      6  C6  IND d   1       2.497   1.448  -2.619  0.00  0.00     0.015 A 
ATOM      7  C7  IND d   1       1.349   1.867  -2.008  0.00  0.00    -0.016 A 
ATOM      8  C8  IND d   1       0.789   1.011  -1.071  0.00  0.00    -0.047 A 
ATOM      9  C9  IND d   1       1.353  -0.238  -0.778  0.00  0.00    -0.096 A 
ATOM     10  HN1 IND d   1      -0.888   1.807  -0.314  0.00  0.00     0.298 HD
ENDROOT
TORSDOF 0
ENDMDL
