MODEL 1
REMARK minimizedAffinity 0.631550193
REMARK minimizedRMSD -1
REMARK  0 active torsions:
REMARK  status: ('A' for Active; 'I' for Inactive)
ROOT
ATOM      1  N1  IND d   1      -0.283  -0.690   3.042  0.00  0.00    -0.196 N 
ATOM      2  C2  IND d   1      -1.044   0.347   3.503  0.00  0.00     0.054 A 
ATOM      3  C3  IND d   1      -1.425   1.143   2.478  0.00  0.00    -0.031 A 
ATOM      4  C4  IND d   1      -0.998   0.875  -0.046  0.00  0.00     0.051 A 
ATOM      5  C5  IND d   1      -0.321   0.103  -0.948  0.00  0.00    -0.031 A 
ATOM      6  C6  IND d   1       0.415  -0.997  -0.559  0.00  0.00     0.015 A 
ATOM      7  C7  IND d   1       0.494  -1.374   0.752  0.00  0.00    -0.016 A 
ATOM      8  C8  IND d   1      -0.186  -0.588   1.672  0.00  0.00    -0.047 A 
ATOM      9  C9  IND d   1      -0.900   0.554   1.287  0.00  0.00    -0.096 A 
ATOM     10  HN1 IND d   1       0.076  -1.303   3.527  0.00  0.00     0.298 HD
ENDROOT
TORSDOF 0
ENDMDL
