MODEL 1
REMARK minimizedAffinity -4.47343349
REMARK minimizedRMSD -1
REMARK  0 active torsions:
REMARK  status: ('A' for Active; 'I' for Inactive)
ROOT
ATOM      1  N1  IND d   1      -0.425   0.986  -0.082  0.00  0.00    -0.196 N 
ATOM      2  C2  IND d   1      -0.872  -0.190   0.453  0.00  0.00     0.054 A 
ATOM      3  C3  IND d   1      -0.062  -1.209   0.091  0.00  0.00    -0.031 A 
ATOM      4  C4  IND d   1       2.110  -1.161  -1.290  0.00  0.00     0.051 A 
ATOM      5  C5  IND d   1       2.901  -0.323  -2.024  0.00  0.00    -0.031 A 
ATOM      6  C6  IND d   1       2.620   1.022  -2.149  0.00  0.00     0.015 A 
ATOM      7  C7  IND d   1       1.538   1.584  -1.532  0.00  0.00    -0.016 A 
ATOM      8  C8  IND d   1       0.728   0.734  -0.791  0.00  0.00    -0.047 A 
ATOM      9  C9  IND d   1       0.985  -0.640  -0.696  0.00  0.00    -0.096 A 
ATOM     10  HN1 IND d   1      -0.802   1.754   0.009  0.00  0.00     0.298 HD
ENDROOT
TORSDOF 0
ENDMDL
