MODEL 1
REMARK minimizedAffinity -6.18804502
REMARK minimizedRMSD -1
REMARK  0 active torsions:
REMARK  status: ('A' for Active; 'I' for Inactive)
ROOT
ATOM      1  N1  IND d   1      -0.536   0.721  -0.558  0.00  0.00    -0.196 N 
ATOM      2  C2  IND d   1      -0.993  -0.441  -0.002  0.00  0.00     0.054 A 
ATOM      3  C3  IND d   1      -0.063  -1.416  -0.120  0.00  0.00    -0.031 A 
ATOM      4  C4  IND d   1       2.316  -1.298  -1.096  0.00  0.00     0.051 A 
ATOM      5  C5  IND d   1       3.170  -0.458  -1.755  0.00  0.00    -0.031 A 
ATOM      6  C6  IND d   1       2.826   0.845  -2.052  0.00  0.00     0.015 A 
ATOM      7  C7  IND d   1       1.614   1.362  -1.690  0.00  0.00    -0.016 A 
ATOM      8  C8  IND d   1       0.742   0.510  -1.027  0.00  0.00    -0.047 A 
ATOM      9  C9  IND d   1       1.069  -0.826  -0.760  0.00  0.00    -0.096 A 
ATOM     10  HN1 IND d   1      -0.973   1.460  -0.606  0.00  0.00     0.298 HD
ENDROOT
TORSDOF 0
ENDMDL
