MODEL 1
REMARK minimizedAffinity -1.86168838
REMARK minimizedRMSD -1
REMARK  0 active torsions:
REMARK  status: ('A' for Active; 'I' for Inactive)
ROOT
ATOM      1  N1  IND d   1       4.668  -0.125   4.872  0.00  0.00    -0.196 N 
ATOM      2  C2  IND d   1       5.409  -0.377   5.993  0.00  0.00     0.054 A 
ATOM      3  C3  IND d   1       5.831  -1.661   5.999  0.00  0.00    -0.031 A 
ATOM      4  C4  IND d   1       5.509  -3.497   4.223  0.00  0.00     0.051 A 
ATOM      5  C5  IND d   1       4.872  -3.753   3.042  0.00  0.00    -0.031 A 
ATOM      6  C6  IND d   1       4.121  -2.792   2.395  0.00  0.00     0.015 A 
ATOM      7  C7  IND d   1       3.988  -1.531   2.903  0.00  0.00    -0.016 A 
ATOM      8  C8  IND d   1       4.628  -1.270   4.107  0.00  0.00    -0.047 A 
ATOM      9  C9  IND d   1       5.357  -2.253   4.788  0.00  0.00    -0.096 A 
ATOM     10  HN1 IND d   1       4.290   0.623   4.678  0.00  0.00     0.298 HD
ENDROOT
TORSDOF 0
ENDMDL
