MODEL 1
REMARK minimizedAffinity -4.79888821
REMARK minimizedRMSD -1
REMARK  0 active torsions:
REMARK  status: ('A' for Active; 'I' for Inactive)
ROOT
ATOM      1  N1  IND d   1       5.999  -2.873   5.513  0.00  0.00    -0.196 N 
ATOM      2  C2  IND d   1       5.999  -1.604   5.004  0.00  0.00     0.054 A 
ATOM      3  C3  IND d   1       5.087  -1.496   4.012  0.00  0.00    -0.031 A 
ATOM      4  C4  IND d   1       3.415  -3.244   3.129  0.00  0.00     0.051 A 
ATOM      5  C5  IND d   1       3.063  -4.558   3.257  0.00  0.00    -0.031 A 
ATOM      6  C6  IND d   1       3.681  -5.394   4.164  0.00  0.00     0.015 A 
ATOM      7  C7  IND d   1       4.673  -4.941   4.989  0.00  0.00    -0.016 A 
ATOM      8  C8  IND d   1       5.038  -3.609   4.856  0.00  0.00    -0.047 A 
ATOM      9  C9  IND d   1       4.443  -2.767   3.908  0.00  0.00    -0.096 A 
ATOM     10  HN1 IND d   1       6.513  -3.162   6.139  0.00  0.00     0.298 HD
ENDROOT
TORSDOF 0
ENDMDL
