MODEL 1
REMARK minimizedAffinity -4.66216803
REMARK minimizedRMSD -1
REMARK  0 active torsions:
REMARK  status: ('A' for Active; 'I' for Inactive)
ROOT
ATOM      1  N1  IND d   1       1.492   1.664  -2.333  0.00  0.00    -0.196 N 
ATOM      2  C2  IND d   1       2.577   1.144  -2.982  0.00  0.00     0.054 A 
ATOM      3  C3  IND d   1       2.774  -0.142  -2.613  0.00  0.00    -0.031 A 
ATOM      4  C4  IND d   1       1.377  -1.624  -1.039  0.00  0.00     0.051 A 
ATOM      5  C5  IND d   1       0.313  -1.582  -0.182  0.00  0.00    -0.031 A 
ATOM      6  C6  IND d   1      -0.430  -0.434   0.002  0.00  0.00     0.015 A 
ATOM      7  C7  IND d   1      -0.141   0.718  -0.674  0.00  0.00    -0.016 A 
ATOM      8  C8  IND d   1       0.943   0.681  -1.539  0.00  0.00    -0.047 A 
ATOM      9  C9  IND d   1       1.727  -0.470  -1.699  0.00  0.00    -0.096 A 
ATOM     10  HN1 IND d   1       1.200   2.469  -2.409  0.00  0.00     0.298 HD
ENDROOT
TORSDOF 0
ENDMDL
