MODEL 1
REMARK minimizedAffinity -5.7821064
REMARK minimizedRMSD -1
REMARK  0 active torsions:
REMARK  status: ('A' for Active; 'I' for Inactive)
ROOT
ATOM      1  N1  IND d   1       0.016   1.765   0.542  0.00  0.00    -0.196 N 
ATOM      2  C2  IND d   1      -0.306   0.969   1.605  0.00  0.00     0.054 A 
ATOM      3  C3  IND d   1       0.066  -0.309   1.366  0.00  0.00    -0.031 A 
ATOM      4  C4  IND d   1       1.309  -1.298  -0.660  0.00  0.00     0.051 A 
ATOM      5  C5  IND d   1       1.782  -0.969  -1.899  0.00  0.00    -0.031 A 
ATOM      6  C6  IND d   1       1.691   0.314  -2.397  0.00  0.00     0.015 A 
ATOM      7  C7  IND d   1       1.131   1.324  -1.666  0.00  0.00    -0.016 A 
ATOM      8  C8  IND d   1       0.644   0.992  -0.410  0.00  0.00    -0.047 A 
ATOM      9  C9  IND d   1       0.695  -0.318   0.083  0.00  0.00    -0.096 A 
ATOM     10  HN1 IND d   1      -0.147   2.607   0.478  0.00  0.00     0.298 HD
ENDROOT
TORSDOF 0
ENDMDL
