MODEL 1
REMARK minimizedAffinity -3.24068427
REMARK minimizedRMSD -1
REMARK  1 active torsions:
REMARK  status: ('A' for Active; 'I' for Inactive)
REMARK    1  A    between atoms: C1_2  and  C2_3 
ROOT
ATOM      1  C2  UNL d   1      -0.278   0.351  -0.004  0.00  0.00    -0.077 A 
ATOM      2  C3  UNL d   1       1.089   0.200   0.267  0.00  0.00     0.002 A 
ATOM      3  C4  UNL d   1       1.513  -0.323   1.490  0.00  0.00     0.002 A 
ATOM      4  C5  UNL d   1       0.577  -0.703   2.449  0.00  0.00    -0.004 A 
ATOM      5  C6  UNL d   1      -0.785  -0.555   2.190  0.00  0.00     0.002 A 
ATOM      6  C7  UNL d   1      -1.211  -0.031   0.969  0.00  0.00     0.002 A 
ENDROOT
BRANCH   1   7
ATOM      7  C1  UNL d   1      -0.739   0.869  -1.342  0.00  0.00     0.055 C 
ATOM      8  C   UNL d   1      -0.101   2.212  -1.664  0.00  0.00     0.019 C 
ENDBRANCH   1   7
TORSDOF 1
ENDMDL
