MODEL 1
REMARK minimizedAffinity -3.65175533
REMARK minimizedRMSD -1
REMARK  1 active torsions:
REMARK  status: ('A' for Active; 'I' for Inactive)
REMARK    1  A    between atoms: C1_2  and  C2_3 
ROOT
ATOM      1  C2  UNL d   1       0.231  -0.096  -1.115  0.00  0.00    -0.077 A 
ATOM      2  C3  UNL d   1      -0.621   0.103  -0.020  0.00  0.00     0.002 A 
ATOM      3  C4  UNL d   1      -0.130   0.007   1.284  0.00  0.00     0.002 A 
ATOM      4  C5  UNL d   1       1.215  -0.284   1.503  0.00  0.00    -0.004 A 
ATOM      5  C6  UNL d   1       2.070  -0.486   0.420  0.00  0.00     0.002 A 
ATOM      6  C7  UNL d   1       1.580  -0.391  -0.883  0.00  0.00     0.002 A 
ENDROOT
BRANCH   1   7
ATOM      7  C1  UNL d   1      -0.286   0.057  -2.522  0.00  0.00     0.055 C 
ATOM      8  C   UNL d   1      -1.113   1.325  -2.674  0.00  0.00     0.019 C 
ENDBRANCH   1   7
TORSDOF 1
ENDMDL
