MODEL 1
REMARK minimizedAffinity -2.14024806
REMARK minimizedRMSD -1
REMARK  1 active torsions:
REMARK  status: ('A' for Active; 'I' for Inactive)
REMARK    1  A    between atoms: C1_2  and  C2_3 
ROOT
ATOM      1  C2  UNL d   1       0.348  -0.694   1.173  0.00  0.00    -0.077 A 
ATOM      2  C3  UNL d   1      -0.793   0.081   0.918  0.00  0.00     0.002 A 
ATOM      3  C4  UNL d   1      -1.066   0.532  -0.374  0.00  0.00     0.002 A 
ATOM      4  C5  UNL d   1      -0.206   0.211  -1.422  0.00  0.00    -0.004 A 
ATOM      5  C6  UNL d   1       0.932  -0.556  -1.179  0.00  0.00     0.002 A 
ATOM      6  C7  UNL d   1       1.207  -1.008   0.112  0.00  0.00     0.002 A 
ENDROOT
BRANCH   1   7
ATOM      7  C1  UNL d   1       0.618  -1.223   2.557  0.00  0.00     0.055 C 
ATOM      8  C   UNL d   1      -0.437  -2.236   2.978  0.00  0.00     0.019 C 
ENDBRANCH   1   7
TORSDOF 1
ENDMDL
