MODEL 1
REMARK minimizedAffinity -3.82743192
REMARK minimizedRMSD -1
REMARK  1 active torsions:
REMARK  status: ('A' for Active; 'I' for Inactive)
REMARK    1  A    between atoms: C1_2  and  C2_3 
ROOT
ATOM      1  C2  UNL d   1      -0.536   1.082  -0.911  0.00  0.00    -0.077 A 
ATOM      2  C3  UNL d   1       0.380   0.026  -1.015  0.00  0.00     0.002 A 
ATOM      3  C4  UNL d   1       0.740  -0.710   0.116  0.00  0.00     0.002 A 
ATOM      4  C5  UNL d   1       0.187  -0.401   1.356  0.00  0.00    -0.004 A 
ATOM      5  C6  UNL d   1      -0.724   0.649   1.470  0.00  0.00     0.002 A 
ATOM      6  C7  UNL d   1      -1.084   1.387   0.341  0.00  0.00     0.002 A 
ENDROOT
BRANCH   1   7
ATOM      7  C1  UNL d   1      -0.963   1.845  -2.138  0.00  0.00     0.055 C 
ATOM      8  C   UNL d   1      -0.370   3.247  -2.152  0.00  0.00     0.019 C 
ENDBRANCH   1   7
TORSDOF 1
ENDMDL
