MODEL 1
REMARK minimizedAffinity -4.72233534
REMARK minimizedRMSD -1
REMARK  1 active torsions:
REMARK  status: ('A' for Active; 'I' for Inactive)
REMARK    1  A    between atoms: C1_2  and  C2_3 
ROOT
ATOM      1  C2  UNL d   1      -3.681   2.806  -3.240  0.00  0.00    -0.077 A 
ATOM      2  C3  UNL d   1      -3.628   1.435  -2.953  0.00  0.00     0.002 A 
ATOM      3  C4  UNL d   1      -4.751   0.629  -3.146  0.00  0.00     0.002 A 
ATOM      4  C5  UNL d   1      -5.934   1.184  -3.632  0.00  0.00    -0.004 A 
ATOM      5  C6  UNL d   1      -5.997   2.547  -3.919  0.00  0.00     0.002 A 
ATOM      6  C7  UNL d   1      -4.875   3.354  -3.725  0.00  0.00     0.002 A 
ENDROOT
BRANCH   1   7
ATOM      7  C1  UNL d   1      -2.456   3.668  -3.079  0.00  0.00     0.055 C 
ATOM      8  C   UNL d   1      -1.195   2.921  -3.492  0.00  0.00     0.019 C 
ENDBRANCH   1   7
TORSDOF 1
ENDMDL
