MODEL 1
REMARK minimizedAffinity -1.80571461
REMARK minimizedRMSD -1
REMARK  1 active torsions:
REMARK  status: ('A' for Active; 'I' for Inactive)
REMARK    1  A    between atoms: C1_2  and  C2_3 
ROOT
ATOM      1  C2  UNL d   1      -0.007   0.688  -1.498  0.00  0.00    -0.077 A 
ATOM      2  C3  UNL d   1      -0.145   1.197  -0.199  0.00  0.00     0.002 A 
ATOM      3  C4  UNL d   1       0.399   0.511   0.889  0.00  0.00     0.002 A 
ATOM      4  C5  UNL d   1       1.087  -0.683   0.689  0.00  0.00    -0.004 A 
ATOM      5  C6  UNL d   1       1.228  -1.198  -0.599  0.00  0.00     0.002 A 
ATOM      6  C7  UNL d   1       0.684  -0.515  -1.688  0.00  0.00     0.002 A 
ENDROOT
BRANCH   1   7
ATOM      7  C1  UNL d   1      -0.551   1.451  -2.678  0.00  0.00     0.055 C 
ATOM      8  C   UNL d   1      -0.398   2.953  -2.484  0.00  0.00     0.019 C 
ENDBRANCH   1   7
TORSDOF 1
ENDMDL
