MODEL 1
REMARK minimizedAffinity 1.41765451
REMARK minimizedRMSD -1
REMARK  0 active torsions:
REMARK  status: ('A' for Active; 'I' for Inactive)
ROOT
ATOM      1  O1  BZF d   1      -0.438  -3.279   0.845  0.00  0.00    -0.204 OA
ATOM      2  C2  BZF d   1      -0.853  -2.015   1.215  0.00  0.00     0.174 A 
ATOM      3  C3  BZF d   1       0.177  -1.146   1.188  0.00  0.00    -0.012 A 
ATOM      4  C3A BZF d   1       1.288  -1.895   0.685  0.00  0.00    -0.107 A 
ATOM      5  C4  BZF d   1       2.589  -1.578   0.416  0.00  0.00     0.055 A 
ATOM      6  C5  BZF d   1       3.435  -2.558   0.004  0.00  0.00    -0.016 A 
ATOM      7  C6  BZF d   1       3.016  -3.864  -0.145  0.00  0.00     0.022 A 
ATOM      8  C7  BZF d   1       1.734  -4.225   0.106  0.00  0.00     0.029 A 
ATOM      9  C7A BZF d   1       0.869  -3.231   0.491  0.00  0.00     0.058 A 
ENDROOT
TORSDOF 0
ENDMDL
