MODEL 1
REMARK minimizedAffinity -3.60221982
REMARK minimizedRMSD -1
REMARK  0 active torsions:
REMARK  status: ('A' for Active; 'I' for Inactive)
ROOT
ATOM      1  O1  BZF d   1      -0.260  -3.555   0.782  0.00  0.00    -0.204 OA
ATOM      2  C2  BZF d   1      -1.425  -2.838   0.980  0.00  0.00     0.174 A 
ATOM      3  C3  BZF d   1      -1.187  -1.512   0.915  0.00  0.00    -0.012 A 
ATOM      4  C3A BZF d   1       0.196  -1.394   0.569  0.00  0.00    -0.107 A 
ATOM      5  C4  BZF d   1       1.020  -0.328   0.343  0.00  0.00     0.055 A 
ATOM      6  C5  BZF d   1       2.338  -0.553   0.097  0.00  0.00    -0.016 A 
ATOM      7  C6  BZF d   1       2.865  -1.827   0.074  0.00  0.00     0.022 A 
ATOM      8  C7  BZF d   1       2.087  -2.916   0.287  0.00  0.00     0.029 A 
ATOM      9  C7A BZF d   1       0.748  -2.694   0.504  0.00  0.00     0.058 A 
ENDROOT
TORSDOF 0
ENDMDL
