MODEL 1
REMARK minimizedAffinity -1.08072209
REMARK minimizedRMSD -1
REMARK  0 active torsions:
REMARK  status: ('A' for Active; 'I' for Inactive)
ROOT
ATOM      1  O1  BZF d   1       3.532  -2.359   0.126  0.00  0.00    -0.204 OA
ATOM      2  C2  BZF d   1       3.695  -3.709  -0.117  0.00  0.00     0.174 A 
ATOM      3  C3  BZF d   1       2.523  -4.363   0.012  0.00  0.00    -0.012 A 
ATOM      4  C3A BZF d   1       1.550  -3.346   0.266  0.00  0.00    -0.107 A 
ATOM      5  C4  BZF d   1       0.199  -3.368   0.468  0.00  0.00     0.055 A 
ATOM      6  C5  BZF d   1      -0.443  -2.207   0.763  0.00  0.00    -0.016 A 
ATOM      7  C6  BZF d   1       0.233  -1.009   0.868  0.00  0.00     0.022 A 
ATOM      8  C7  BZF d   1       1.572  -0.937   0.671  0.00  0.00     0.029 A 
ATOM      9  C7A BZF d   1       2.219  -2.102   0.341  0.00  0.00     0.058 A 
ENDROOT
TORSDOF 0
ENDMDL
