MODEL 1
REMARK minimizedAffinity 1.75054646
REMARK minimizedRMSD -1
REMARK  0 active torsions:
REMARK  status: ('A' for Active; 'I' for Inactive)
ROOT
ATOM      1  O1  BZF d   1       0.373  -3.731   0.227  0.00  0.00    -0.204 OA
ATOM      2  C2  BZF d   1      -0.409  -2.702   0.714  0.00  0.00     0.174 A 
ATOM      3  C3  BZF d   1       0.341  -1.610   0.966  0.00  0.00    -0.012 A 
ATOM      4  C3A BZF d   1       1.660  -1.949   0.528  0.00  0.00    -0.107 A 
ATOM      5  C4  BZF d   1       2.844  -1.270   0.503  0.00  0.00     0.055 A 
ATOM      6  C5  BZF d   1       3.965  -1.913   0.080  0.00  0.00    -0.016 A 
ATOM      7  C6  BZF d   1       3.938  -3.233  -0.319  0.00  0.00     0.022 A 
ATOM      8  C7  BZF d   1       2.785  -3.946  -0.316  0.00  0.00     0.029 A 
ATOM      9  C7A BZF d   1       1.645  -3.290   0.080  0.00  0.00     0.058 A 
ENDROOT
TORSDOF 0
ENDMDL
