MODEL 1
REMARK minimizedAffinity 0.894843757
REMARK minimizedRMSD -1
REMARK  0 active torsions:
REMARK  status: ('A' for Active; 'I' for Inactive)
ROOT
ATOM      1  O1  BZF d   1       2.706  -2.776   0.669  0.00  0.00    -0.204 OA
ATOM      2  C2  BZF d   1       2.219  -4.011   0.287  0.00  0.00     0.174 A 
ATOM      3  C3  BZF d   1       0.878  -3.974   0.147  0.00  0.00    -0.012 A 
ATOM      4  C3A BZF d   1       0.514  -2.609   0.371  0.00  0.00    -0.107 A 
ATOM      5  C4  BZF d   1      -0.677  -1.940   0.354  0.00  0.00     0.055 A 
ATOM      6  C5  BZF d   1      -0.699  -0.623   0.688  0.00  0.00    -0.016 A 
ATOM      7  C6  BZF d   1       0.448   0.055   1.047  0.00  0.00     0.022 A 
ATOM      8  C7  BZF d   1       1.653  -0.565   1.074  0.00  0.00     0.029 A 
ATOM      9  C7A BZF d   1       1.684  -1.888   0.705  0.00  0.00     0.058 A 
ENDROOT
TORSDOF 0
ENDMDL
