MODEL 1
REMARK minimizedAffinity -3.42763591
REMARK minimizedRMSD -1
REMARK  0 active torsions:
REMARK  status: ('A' for Active; 'I' for Inactive)
ROOT
ATOM      1  O1  BZF d   1       0.856  -3.728  -0.231  0.00  0.00    -0.204 OA
ATOM      2  C2  BZF d   1       2.204  -3.840   0.048  0.00  0.00     0.174 A 
ATOM      3  C3  BZF d   1       2.664  -2.722   0.645  0.00  0.00    -0.012 A 
ATOM      4  C3A BZF d   1       1.512  -1.893   0.830  0.00  0.00    -0.107 A 
ATOM      5  C4  BZF d   1       1.322  -0.660   1.385  0.00  0.00     0.055 A 
ATOM      6  C5  BZF d   1       0.084  -0.100   1.342  0.00  0.00    -0.016 A 
ATOM      7  C6  BZF d   1      -0.983  -0.742   0.748  0.00  0.00     0.022 A 
ATOM      8  C7  BZF d   1      -0.844  -1.969   0.189  0.00  0.00     0.029 A 
ATOM      9  C7A BZF d   1       0.398  -2.551   0.260  0.00  0.00     0.058 A 
ENDROOT
TORSDOF 0
ENDMDL
