MODEL 1
REMARK minimizedAffinity -1.66810191
REMARK minimizedRMSD -1
REMARK  0 active torsions:
REMARK  status: ('A' for Active; 'I' for Inactive)
ROOT
ATOM      1  O1  BZF d   1      -0.083  -3.655   0.699  0.00  0.00    -0.204 OA
ATOM      2  C2  BZF d   1      -0.706  -2.492   1.110  0.00  0.00     0.174 A 
ATOM      3  C3  BZF d   1       0.167  -1.464   1.133  0.00  0.00    -0.012 A 
ATOM      4  C3A BZF d   1       1.391  -1.999   0.622  0.00  0.00    -0.107 A 
ATOM      5  C4  BZF d   1       2.625  -1.462   0.387  0.00  0.00     0.055 A 
ATOM      6  C5  BZF d   1       3.626  -2.272  -0.047  0.00  0.00    -0.016 A 
ATOM      7  C6  BZF d   1       3.431  -3.622  -0.252  0.00  0.00     0.022 A 
ATOM      8  C7  BZF d   1       2.223  -4.199  -0.037  0.00  0.00     0.029 A 
ATOM      9  C7A BZF d   1       1.201  -3.377   0.370  0.00  0.00     0.058 A 
ENDROOT
TORSDOF 0
ENDMDL
