MODEL 1
REMARK minimizedAffinity -3.23971629
REMARK minimizedRMSD -1
REMARK  0 active torsions:
REMARK  status: ('A' for Active; 'I' for Inactive)
ROOT
ATOM      1  O1  BZF d   1      -0.717  -1.795   0.763  0.00  0.00    -0.204 OA
ATOM      2  C2  BZF d   1      -0.479  -0.464   1.046  0.00  0.00     0.174 A 
ATOM      3  C3  BZF d   1       0.825  -0.165   0.878  0.00  0.00    -0.012 A 
ATOM      4  C3A BZF d   1       1.424  -1.362   0.374  0.00  0.00    -0.107 A 
ATOM      5  C4  BZF d   1       2.695  -1.689  -0.003  0.00  0.00     0.055 A 
ATOM      6  C5  BZF d   1       2.964  -2.967  -0.380  0.00  0.00    -0.016 A 
ATOM      7  C6  BZF d   1       1.989  -3.942  -0.387  0.00  0.00     0.022 A 
ATOM      8  C7  BZF d   1       0.713  -3.665  -0.026  0.00  0.00     0.029 A 
ATOM      9  C7A BZF d   1       0.430  -2.367   0.324  0.00  0.00     0.058 A 
ENDROOT
TORSDOF 0
ENDMDL
