MODEL 1
REMARK minimizedAffinity -4.05759668
REMARK minimizedRMSD -1
REMARK  0 active torsions:
REMARK  status: ('A' for Active; 'I' for Inactive)
ROOT
ATOM      1  O1  BZF d   1       1.040  -3.781   0.113  0.00  0.00    -0.204 OA
ATOM      2  C2  BZF d   1       2.289  -3.570  -0.440  0.00  0.00     0.174 A 
ATOM      3  C3  BZF d   1       2.645  -2.274  -0.338  0.00  0.00    -0.012 A 
ATOM      4  C3A BZF d   1       1.591  -1.651   0.403  0.00  0.00    -0.107 A 
ATOM      5  C4  BZF d   1       1.377  -0.375   0.840  0.00  0.00     0.055 A 
ATOM      6  C5  BZF d   1       0.212  -0.081   1.474  0.00  0.00    -0.016 A 
ATOM      7  C6  BZF d   1      -0.762  -1.035   1.683  0.00  0.00     0.022 A 
ATOM      8  C7  BZF d   1      -0.594  -2.315   1.272  0.00  0.00     0.029 A 
ATOM      9  C7A BZF d   1       0.597  -2.624   0.660  0.00  0.00     0.058 A 
ENDROOT
TORSDOF 0
ENDMDL
