MODEL 1
REMARK minimizedAffinity -1.91959989
REMARK minimizedRMSD -1
REMARK  0 active torsions:
REMARK  status: ('A' for Active; 'I' for Inactive)
ROOT
ATOM      1  O1  BZF d   1       3.431  -1.754   0.022  0.00  0.00    -0.204 OA
ATOM      2  C2  BZF d   1       3.553  -3.078  -0.351  0.00  0.00     0.174 A 
ATOM      3  C3  BZF d   1       2.357  -3.699  -0.310  0.00  0.00    -0.012 A 
ATOM      4  C3A BZF d   1       1.414  -2.677   0.028  0.00  0.00    -0.107 A 
ATOM      5  C4  BZF d   1       0.060  -2.671   0.203  0.00  0.00     0.055 A 
ATOM      6  C5  BZF d   1      -0.549  -1.523   0.601  0.00  0.00    -0.016 A 
ATOM      7  C6  BZF d   1       0.165  -0.367   0.838  0.00  0.00     0.022 A 
ATOM      8  C7  BZF d   1       1.510  -0.323   0.673  0.00  0.00     0.029 A 
ATOM      9  C7A BZF d   1       2.124  -1.473   0.239  0.00  0.00     0.058 A 
ENDROOT
TORSDOF 0
ENDMDL
