MODEL 1
REMARK minimizedAffinity 3.89489579
REMARK minimizedRMSD -1
REMARK  0 active torsions:
REMARK  status: ('A' for Active; 'I' for Inactive)
ROOT
ATOM      1  O1  BZF d   1       0.772  -1.491   1.673  0.00  0.00    -0.204 OA
ATOM      2  C2  BZF d   1       0.594  -2.511   0.759  0.00  0.00     0.174 A 
ATOM      3  C3  BZF d   1      -0.651  -2.479   0.242  0.00  0.00    -0.012 A 
ATOM      4  C3A BZF d   1      -1.262  -1.314   0.805  0.00  0.00    -0.107 A 
ATOM      5  C4  BZF d   1      -2.492  -0.738   0.663  0.00  0.00     0.055 A 
ATOM      6  C5  BZF d   1      -2.799   0.356   1.409  0.00  0.00    -0.016 A 
ATOM      7  C6  BZF d   1      -1.904   0.895   2.310  0.00  0.00     0.022 A 
ATOM      8  C7  BZF d   1      -0.670   0.361   2.482  0.00  0.00     0.029 A 
ATOM      9  C7A BZF d   1      -0.345  -0.724   1.705  0.00  0.00     0.058 A 
ENDROOT
TORSDOF 0
ENDMDL
