MODEL 1
REMARK minimizedAffinity -3.92018509
REMARK minimizedRMSD -1
REMARK  0 active torsions:
REMARK  status: ('A' for Active; 'I' for Inactive)
ROOT
ATOM      1  O1  BZF d   1       3.346  -2.315   0.661  0.00  0.00    -0.204 OA
ATOM      2  C2  BZF d   1       3.339  -3.610   0.178  0.00  0.00     0.174 A 
ATOM      3  C3  BZF d   1       2.078  -4.031  -0.046  0.00  0.00    -0.012 A 
ATOM      4  C3A BZF d   1       1.248  -2.898   0.232  0.00  0.00    -0.107 A 
ATOM      5  C4  BZF d   1      -0.100  -2.686   0.177  0.00  0.00     0.055 A 
ATOM      6  C5  BZF d   1      -0.597  -1.488   0.584  0.00  0.00    -0.016 A 
ATOM      7  C6  BZF d   1       0.224  -0.484   1.055  0.00  0.00     0.022 A 
ATOM      8  C7  BZF d   1       1.567  -0.647   1.124  0.00  0.00     0.029 A 
ATOM      9  C7A BZF d   1       2.076  -1.844   0.682  0.00  0.00     0.058 A 
ENDROOT
TORSDOF 0
ENDMDL
