MODEL 1
REMARK minimizedAffinity -2.6314199
REMARK minimizedRMSD -1
REMARK  0 active torsions:
REMARK  status: ('A' for Active; 'I' for Inactive)
ROOT
ATOM      1  O1  BZF d   1       3.120  -1.960   0.420  0.00  0.00    -0.204 OA
ATOM      2  C2  BZF d   1       3.030  -3.177  -0.227  0.00  0.00     0.174 A 
ATOM      3  C3  BZF d   1       1.744  -3.572  -0.326  0.00  0.00    -0.012 A 
ATOM      4  C3A BZF d   1       0.976  -2.493   0.217  0.00  0.00    -0.107 A 
ATOM      5  C4  BZF d   1      -0.363  -2.284   0.382  0.00  0.00     0.055 A 
ATOM      6  C5  BZF d   1      -0.783  -1.156   1.013  0.00  0.00    -0.016 A 
ATOM      7  C6  BZF d   1       0.108  -0.220   1.495  0.00  0.00     0.022 A 
ATOM      8  C7  BZF d   1       1.446  -0.381   1.351  0.00  0.00     0.029 A 
ATOM      9  C7A BZF d   1       1.872  -1.504   0.684  0.00  0.00     0.058 A 
ENDROOT
TORSDOF 0
ENDMDL
