MODEL 1
REMARK minimizedAffinity 2.31336474
REMARK minimizedRMSD -1
REMARK  0 active torsions:
REMARK  status: ('A' for Active; 'I' for Inactive)
ROOT
ATOM      1  O1  BZF d   1       2.433  -2.860   0.042  0.00  0.00    -0.204 OA
ATOM      2  C2  BZF d   1       1.697  -4.023  -0.076  0.00  0.00     0.174 A 
ATOM      3  C3  BZF d   1       0.414  -3.816   0.287  0.00  0.00    -0.012 A 
ATOM      4  C3A BZF d   1       0.323  -2.416   0.565  0.00  0.00    -0.107 A 
ATOM      5  C4  BZF d   1      -0.700  -1.601   0.958  0.00  0.00     0.055 A 
ATOM      6  C5  BZF d   1      -0.441  -0.292   1.215  0.00  0.00    -0.016 A 
ATOM      7  C6  BZF d   1       0.829   0.234   1.095  0.00  0.00     0.022 A 
ATOM      8  C7  BZF d   1       1.875  -0.534   0.704  0.00  0.00     0.029 A 
ATOM      9  C7A BZF d   1       1.610  -1.850   0.411  0.00  0.00     0.058 A 
ENDROOT
TORSDOF 0
ENDMDL
