MODEL 1
REMARK minimizedAffinity -2.69924426
REMARK minimizedRMSD -1
REMARK  0 active torsions:
REMARK  status: ('A' for Active; 'I' for Inactive)
ROOT
ATOM      1  O1  BZF d   1       3.402  -2.292   0.258  0.00  0.00    -0.204 OA
ATOM      2  C2  BZF d   1       3.340  -3.656   0.050  0.00  0.00     0.174 A 
ATOM      3  C3  BZF d   1       2.074  -4.103   0.184  0.00  0.00    -0.012 A 
ATOM      4  C3A BZF d   1       1.283  -2.932   0.403  0.00  0.00    -0.107 A 
ATOM      5  C4  BZF d   1      -0.053  -2.724   0.594  0.00  0.00     0.055 A 
ATOM      6  C5  BZF d   1      -0.496  -1.465   0.854  0.00  0.00    -0.016 A 
ATOM      7  C6  BZF d   1       0.370  -0.394   0.936  0.00  0.00     0.022 A 
ATOM      8  C7  BZF d   1       1.703  -0.550   0.750  0.00  0.00     0.029 A 
ATOM      9  C7A BZF d   1       2.149  -1.815   0.454  0.00  0.00     0.058 A 
ENDROOT
TORSDOF 0
ENDMDL
