MODEL 1
REMARK minimizedAffinity -2.21331477
REMARK minimizedRMSD -1
REMARK  0 active torsions:
REMARK  status: ('A' for Active; 'I' for Inactive)
ROOT
ATOM      1  O1  BZF d   1      -0.598  -1.641   1.046  0.00  0.00    -0.204 OA
ATOM      2  C2  BZF d   1      -0.342  -0.296   1.234  0.00  0.00     0.174 A 
ATOM      3  C3  BZF d   1       0.933  -0.002   0.907  0.00  0.00    -0.012 A 
ATOM      4  C3A BZF d   1       1.483  -1.222   0.400  0.00  0.00    -0.107 A 
ATOM      5  C4  BZF d   1       2.706  -1.564  -0.100  0.00  0.00     0.055 A 
ATOM      6  C5  BZF d   1       2.942  -2.859  -0.441  0.00  0.00    -0.016 A 
ATOM      7  C6  BZF d   1       1.981  -3.836  -0.290  0.00  0.00     0.022 A 
ATOM      8  C7  BZF d   1       0.750  -3.544   0.197  0.00  0.00     0.029 A 
ATOM      9  C7A BZF d   1       0.498  -2.231   0.511  0.00  0.00     0.058 A 
ENDROOT
TORSDOF 0
ENDMDL
