MODEL 1
REMARK minimizedAffinity 1.02983367
REMARK minimizedRMSD -1
REMARK  0 active torsions:
REMARK  status: ('A' for Active; 'I' for Inactive)
ROOT
ATOM      1  O1  BZF d   1      -0.505  -3.273   0.092  0.00  0.00    -0.204 OA
ATOM      2  C2  BZF d   1      -1.556  -2.936   0.923  0.00  0.00     0.174 A 
ATOM      3  C3  BZF d   1      -1.252  -1.849   1.662  0.00  0.00    -0.012 A 
ATOM      4  C3A BZF d   1       0.036  -1.429   1.200  0.00  0.00    -0.107 A 
ATOM      5  C4  BZF d   1       0.862  -0.396   1.538  0.00  0.00     0.055 A 
ATOM      6  C5  BZF d   1       2.084  -0.309   0.949  0.00  0.00    -0.016 A 
ATOM      7  C6  BZF d   1       2.513  -1.238   0.025  0.00  0.00     0.022 A 
ATOM      8  C7  BZF d   1       1.726  -2.278  -0.345  0.00  0.00     0.029 A 
ATOM      9  C7A BZF d   1       0.478  -2.350   0.223  0.00  0.00     0.058 A 
ENDROOT
TORSDOF 0
ENDMDL
