MODEL 1
REMARK minimizedAffinity -4.73529053
REMARK minimizedRMSD -1
REMARK  1 active torsions:
REMARK  status: ('A' for Active; 'I' for Inactive)
REMARK    1  A    between atoms: C3_4  and  O_7 
ROOT
ATOM      1  C   UNL d   1      -0.223   3.685   0.319  0.00  0.00    -0.033 A 
ATOM      2  C1  UNL d   1      -1.191   2.841   0.868  0.00  0.00     0.039 A 
ATOM      3  C2  UNL d   1      -0.970   1.464   0.921  0.00  0.00    -0.080 A 
ATOM      4  C3  UNL d   1       0.221   0.943   0.423  0.00  0.00     0.150 A 
ATOM      5  C4  UNL d   1       1.192   1.778  -0.122  0.00  0.00    -0.007 A 
ATOM      6  C5  UNL d   1       0.969   3.153  -0.175  0.00  0.00     0.039 A 
ENDROOT
BRANCH   4   7
ATOM      7  O   UNL d   1       0.480  -0.395   0.449  0.00  0.00    -0.526 OA
ATOM      8  H5  UNL d   1      -0.291  -0.850   0.826  0.00  0.00     0.418 HD
ENDBRANCH   4   7
TORSDOF 1
ENDMDL
