MODEL 1
REMARK minimizedAffinity -4.41811085
REMARK minimizedRMSD -1
REMARK  1 active torsions:
REMARK  status: ('A' for Active; 'I' for Inactive)
REMARK    1  A    between atoms: C3_4  and  O_7 
ROOT
ATOM      1  C   UNL d   1       0.485  -0.088   0.867  0.00  0.00    -0.033 A 
ATOM      2  C1  UNL d   1      -0.776   0.508   0.801  0.00  0.00     0.039 A 
ATOM      3  C2  UNL d   1      -0.921   1.782   0.249  0.00  0.00    -0.080 A 
ATOM      4  C3  UNL d   1       0.201   2.449  -0.234  0.00  0.00     0.150 A 
ATOM      5  C4  UNL d   1       1.460   1.860  -0.176  0.00  0.00    -0.007 A 
ATOM      6  C5  UNL d   1       1.603   0.588   0.377  0.00  0.00     0.039 A 
ENDROOT
BRANCH   4   7
ATOM      7  O   UNL d   1       0.110   3.696  -0.778  0.00  0.00    -0.526 OA
ATOM      8  H5  UNL d   1      -0.815   3.987  -0.725  0.00  0.00     0.418 HD
ENDBRANCH   4   7
TORSDOF 1
ENDMDL
