MODEL 1
REMARK minimizedAffinity -3.44294214
REMARK minimizedRMSD -1
REMARK  1 active torsions:
REMARK  status: ('A' for Active; 'I' for Inactive)
REMARK    1  A    between atoms: C3_4  and  O_7 
ROOT
ATOM      1  C   UNL d   1      -0.743   2.279   1.307  0.00  0.00    -0.033 A 
ATOM      2  C1  UNL d   1       0.386   1.972   0.545  0.00  0.00     0.039 A 
ATOM      3  C2  UNL d   1       0.505   0.716  -0.054  0.00  0.00    -0.080 A 
ATOM      4  C3  UNL d   1      -0.511  -0.220   0.114  0.00  0.00     0.150 A 
ATOM      5  C4  UNL d   1      -1.640   0.081   0.869  0.00  0.00    -0.007 A 
ATOM      6  C5  UNL d   1      -1.757   1.334   1.467  0.00  0.00     0.039 A 
ENDROOT
BRANCH   4   7
ATOM      7  O   UNL d   1      -0.437  -1.460  -0.447  0.00  0.00    -0.526 OA
ATOM      8  H5  UNL d   1       0.411  -1.536  -0.915  0.00  0.00     0.418 HD
ENDBRANCH   4   7
TORSDOF 1
ENDMDL
