MODEL 1
REMARK minimizedAffinity -3.17010236
REMARK minimizedRMSD -1
REMARK  1 active torsions:
REMARK  status: ('A' for Active; 'I' for Inactive)
REMARK    1  A    between atoms: C3_4  and  O_7 
ROOT
ATOM      1  C   UNL d   1       1.294   0.127  -0.128  0.00  0.00    -0.033 A 
ATOM      2  C1  UNL d   1       0.544  -1.049  -0.058  0.00  0.00     0.039 A 
ATOM      3  C2  UNL d   1      -0.763  -1.016   0.431  0.00  0.00    -0.080 A 
ATOM      4  C3  UNL d   1      -1.308   0.196   0.845  0.00  0.00     0.150 A 
ATOM      5  C4  UNL d   1      -0.568   1.371   0.775  0.00  0.00    -0.007 A 
ATOM      6  C5  UNL d   1       0.738   1.337   0.287  0.00  0.00     0.039 A 
ENDROOT
BRANCH   4   7
ATOM      7  O   UNL d   1      -2.578   0.276   1.334  0.00  0.00    -0.526 OA
ATOM      8  H5  UNL d   1      -2.958  -0.618   1.351  0.00  0.00     0.418 HD
ENDBRANCH   4   7
TORSDOF 1
ENDMDL
