MODEL 1
REMARK minimizedAffinity -2.23495388
REMARK minimizedRMSD -1
REMARK  1 active torsions:
REMARK  status: ('A' for Active; 'I' for Inactive)
REMARK    1  A    between atoms: C3_4  and  O_7 
ROOT
ATOM      1  C   UNL d   1       0.025  -0.599   0.352  0.00  0.00    -0.033 A 
ATOM      2  C1  UNL d   1       1.250   0.022   0.101  0.00  0.00     0.039 A 
ATOM      3  C2  UNL d   1       1.333   1.415   0.060  0.00  0.00    -0.080 A 
ATOM      4  C3  UNL d   1       0.186   2.175   0.273  0.00  0.00     0.150 A 
ATOM      5  C4  UNL d   1      -1.037   1.563   0.528  0.00  0.00    -0.007 A 
ATOM      6  C5  UNL d   1      -1.119   0.172   0.567  0.00  0.00     0.039 A 
ENDROOT
BRANCH   4   7
ATOM      7  O   UNL d   1       0.217   3.537   0.239  0.00  0.00    -0.526 OA
ATOM      8  H5  UNL d   1       1.122   3.819   0.024  0.00  0.00     0.418 HD
ENDBRANCH   4   7
TORSDOF 1
ENDMDL
