MODEL 1
REMARK minimizedAffinity -3.92600846
REMARK minimizedRMSD -1
REMARK  1 active torsions:
REMARK  status: ('A' for Active; 'I' for Inactive)
REMARK    1  A    between atoms: C3_4  and  O_7 
ROOT
ATOM      1  C   UNL d   1      -0.867  -0.123   0.360  0.00  0.00    -0.033 A 
ATOM      2  C1  UNL d   1       0.264   0.285  -0.349  0.00  0.00     0.039 A 
ATOM      3  C2  UNL d   1       0.493   1.643  -0.581  0.00  0.00    -0.080 A 
ATOM      4  C3  UNL d   1      -0.415   2.581  -0.098  0.00  0.00     0.150 A 
ATOM      5  C4  UNL d   1      -1.542   2.182   0.613  0.00  0.00    -0.007 A 
ATOM      6  C5  UNL d   1      -1.769   0.826   0.843  0.00  0.00     0.039 A 
ENDROOT
BRANCH   4   7
ATOM      7  O   UNL d   1      -0.236   3.917  -0.303  0.00  0.00    -0.526 OA
ATOM      8  H5  UNL d   1       0.568   4.042  -0.833  0.00  0.00     0.418 HD
ENDBRANCH   4   7
TORSDOF 1
ENDMDL
