MODEL 1
REMARK minimizedAffinity -3.83391094
REMARK minimizedRMSD -1
REMARK  1 active torsions:
REMARK  status: ('A' for Active; 'I' for Inactive)
REMARK    1  A    between atoms: C3_4  and  O_7 
ROOT
ATOM      1  C   UNL d   1      -0.269  -0.018   0.170  0.00  0.00    -0.033 A 
ATOM      2  C1  UNL d   1      -1.282   0.759   0.736  0.00  0.00     0.039 A 
ATOM      3  C2  UNL d   1      -1.219   2.152   0.663  0.00  0.00    -0.080 A 
ATOM      4  C3  UNL d   1      -0.141   2.755   0.021  0.00  0.00     0.150 A 
ATOM      5  C4  UNL d   1       0.869   1.987  -0.549  0.00  0.00    -0.007 A 
ATOM      6  C5  UNL d   1       0.805   0.596  -0.474  0.00  0.00     0.039 A 
ENDROOT
BRANCH   4   7
ATOM      7  O   UNL d   1      -0.034   4.110  -0.071  0.00  0.00    -0.526 OA
ATOM      8  H5  UNL d   1      -0.788   4.511   0.392  0.00  0.00     0.418 HD
ENDBRANCH   4   7
TORSDOF 1
ENDMDL
