MODEL 1
REMARK minimizedAffinity -4.89840555
REMARK minimizedRMSD -1
REMARK  1 active torsions:
REMARK  status: ('A' for Active; 'I' for Inactive)
REMARK    1  A    between atoms: C3_4  and  O_7 
ROOT
ATOM      1  C   UNL d   1      -0.243   0.471   0.049  0.00  0.00    -0.033 A 
ATOM      2  C1  UNL d   1      -0.823   1.318   0.995  0.00  0.00     0.039 A 
ATOM      3  C2  UNL d   1      -0.638   2.699   0.905  0.00  0.00    -0.080 A 
ATOM      4  C3  UNL d   1       0.127   3.220  -0.135  0.00  0.00     0.150 A 
ATOM      5  C4  UNL d   1       0.705   2.382  -1.083  0.00  0.00    -0.007 A 
ATOM      6  C5  UNL d   1       0.520   1.003  -0.991  0.00  0.00     0.039 A 
ENDROOT
BRANCH   4   7
ATOM      7  O   UNL d   1       0.339   4.560  -0.262  0.00  0.00    -0.526 OA
ATOM      8  H5  UNL d   1      -0.096   5.012   0.480  0.00  0.00     0.418 HD
ENDBRANCH   4   7
TORSDOF 1
ENDMDL
