MODEL 1
REMARK minimizedAffinity -4.26688814
REMARK minimizedRMSD -1
REMARK  1 active torsions:
REMARK  status: ('A' for Active; 'I' for Inactive)
REMARK    1  A    between atoms: C3_4  and  O_7 
ROOT
ATOM      1  C   UNL d   1      -1.077  -0.277   0.367  0.00  0.00    -0.033 A 
ATOM      2  C1  UNL d   1      -0.028   0.017  -0.507  0.00  0.00     0.039 A 
ATOM      3  C2  UNL d   1       0.298   1.346  -0.787  0.00  0.00    -0.080 A 
ATOM      4  C3  UNL d   1      -0.431   2.369  -0.187  0.00  0.00     0.150 A 
ATOM      5  C4  UNL d   1      -1.475   2.083   0.687  0.00  0.00    -0.007 A 
ATOM      6  C5  UNL d   1      -1.799   0.756   0.964  0.00  0.00     0.039 A 
ENDROOT
BRANCH   4   7
ATOM      7  O   UNL d   1      -0.154   3.681  -0.434  0.00  0.00    -0.526 OA
ATOM      8  H5  UNL d   1       0.572   3.726  -1.078  0.00  0.00     0.418 HD
ENDBRANCH   4   7
TORSDOF 1
ENDMDL
