MODEL 1
REMARK minimizedAffinity -3.94910455
REMARK minimizedRMSD -1
REMARK  1 active torsions:
REMARK  status: ('A' for Active; 'I' for Inactive)
REMARK    1  A    between atoms: C3_4  and  O_7 
ROOT
ATOM      1  C   UNL d   1      -0.981   1.507   0.785  0.00  0.00    -0.033 A 
ATOM      2  C1  UNL d   1      -0.200   2.640   1.018  0.00  0.00     0.039 A 
ATOM      3  C2  UNL d   1       1.192   2.538   1.042  0.00  0.00    -0.080 A 
ATOM      4  C3  UNL d   1       1.790   1.299   0.830  0.00  0.00     0.150 A 
ATOM      5  C4  UNL d   1       1.018   0.166   0.593  0.00  0.00    -0.007 A 
ATOM      6  C5  UNL d   1      -0.372   0.270   0.571  0.00  0.00     0.039 A 
ENDROOT
BRANCH   4   7
ATOM      7  O   UNL d   1       3.145   1.149   0.849  0.00  0.00    -0.526 OA
ATOM      8  H5  UNL d   1       3.547   2.010   1.053  0.00  0.00     0.418 HD
ENDBRANCH   4   7
TORSDOF 1
ENDMDL
