MODEL 1
REMARK minimizedAffinity -4.11206341
REMARK minimizedRMSD -1
REMARK  1 active torsions:
REMARK  status: ('A' for Active; 'I' for Inactive)
REMARK    1  A    between atoms: C3_4  and  O_7 
ROOT
ATOM      1  C   UNL d   1      -1.197  -0.172   0.973  0.00  0.00    -0.033 A 
ATOM      2  C1  UNL d   1      -1.965   0.897   1.439  0.00  0.00     0.039 A 
ATOM      3  C2  UNL d   1      -1.741   2.185   0.951  0.00  0.00    -0.080 A 
ATOM      4  C3  UNL d   1      -0.747   2.392  -0.002  0.00  0.00     0.150 A 
ATOM      5  C4  UNL d   1       0.019   1.331  -0.474  0.00  0.00    -0.007 A 
ATOM      6  C5  UNL d   1      -0.206   0.045   0.015  0.00  0.00     0.039 A 
ENDROOT
BRANCH   4   7
ATOM      7  O   UNL d   1      -0.488   3.632  -0.504  0.00  0.00    -0.526 OA
ATOM      8  H5  UNL d   1      -1.075   4.271  -0.066  0.00  0.00     0.418 HD
ENDBRANCH   4   7
TORSDOF 1
ENDMDL
