MODEL 1
REMARK minimizedAffinity -2.52144933
REMARK minimizedRMSD -1
REMARK  1 active torsions:
REMARK  status: ('A' for Active; 'I' for Inactive)
REMARK    1  A    between atoms: C3_4  and  O_7 
ROOT
ATOM      1  C   UNL d   1      -1.227   0.450   1.114  0.00  0.00    -0.033 A 
ATOM      2  C1  UNL d   1      -1.579   1.538   1.916  0.00  0.00     0.039 A 
ATOM      3  C2  UNL d   1      -1.087   2.811   1.624  0.00  0.00    -0.080 A 
ATOM      4  C3  UNL d   1      -0.246   2.984   0.528  0.00  0.00     0.150 A 
ATOM      5  C4  UNL d   1       0.106   1.906  -0.277  0.00  0.00    -0.007 A 
ATOM      6  C5  UNL d   1      -0.385   0.635   0.016  0.00  0.00     0.039 A 
ENDROOT
BRANCH   4   7
ATOM      7  O   UNL d   1       0.263   4.207   0.207  0.00  0.00    -0.526 OA
ATOM      8  H5  UNL d   1      -0.043   4.851   0.867  0.00  0.00     0.418 HD
ENDBRANCH   4   7
TORSDOF 1
ENDMDL
