MODEL 1
REMARK minimizedAffinity -2.721457
REMARK minimizedRMSD -1
REMARK  1 active torsions:
REMARK  status: ('A' for Active; 'I' for Inactive)
REMARK    1  A    between atoms: C3_4  and  O_7 
ROOT
ATOM      1  C   UNL d   1      -0.197  -0.979   0.008  0.00  0.00    -0.033 A 
ATOM      2  C1  UNL d   1      -1.465  -0.467   0.291  0.00  0.00     0.039 A 
ATOM      3  C2  UNL d   1      -1.660   0.913   0.376  0.00  0.00    -0.080 A 
ATOM      4  C3  UNL d   1      -0.580   1.769   0.177  0.00  0.00     0.150 A 
ATOM      5  C4  UNL d   1       0.685   1.266  -0.109  0.00  0.00    -0.007 A 
ATOM      6  C5  UNL d   1       0.877  -0.113  -0.193  0.00  0.00     0.039 A 
ENDROOT
BRANCH   4   7
ATOM      7  O   UNL d   1      -0.720   3.123   0.255  0.00  0.00    -0.526 OA
ATOM      8  H5  UNL d   1      -1.642   3.324   0.487  0.00  0.00     0.418 HD
ENDBRANCH   4   7
TORSDOF 1
ENDMDL
