MODEL 1
REMARK minimizedAffinity -2.98476505
REMARK minimizedRMSD -1
REMARK  1 active torsions:
REMARK  status: ('A' for Active; 'I' for Inactive)
REMARK    1  A    between atoms: C3_4  and  O_7 
ROOT
ATOM      1  C   UNL d   1      -0.648   0.044   0.119  0.00  0.00    -0.033 A 
ATOM      2  C1  UNL d   1      -1.389   0.944   0.888  0.00  0.00     0.039 A 
ATOM      3  C2  UNL d   1      -1.193   2.318   0.740  0.00  0.00    -0.080 A 
ATOM      4  C3  UNL d   1      -0.255   2.779  -0.180  0.00  0.00     0.150 A 
ATOM      5  C4  UNL d   1       0.483   1.888  -0.952  0.00  0.00    -0.007 A 
ATOM      6  C5  UNL d   1       0.287   0.516  -0.802  0.00  0.00     0.039 A 
ENDROOT
BRANCH   4   7
ATOM      7  O   UNL d   1      -0.025   4.111  -0.357  0.00  0.00    -0.526 OA
ATOM      8  H5  UNL d   1      -0.586   4.605   0.264  0.00  0.00     0.418 HD
ENDBRANCH   4   7
TORSDOF 1
ENDMDL
