MODEL 1
REMARK minimizedAffinity -5.54125595
REMARK minimizedRMSD -1
REMARK  1 active torsions:
REMARK  status: ('A' for Active; 'I' for Inactive)
REMARK    1  A    between atoms: C3_4  and  O_7 
ROOT
ATOM      1  C   UNL d   1       0.009  -0.583   0.411  0.00  0.00    -0.033 A 
ATOM      2  C1  UNL d   1       1.263  -0.044   0.120  0.00  0.00     0.039 A 
ATOM      3  C2  UNL d   1       1.411   1.335  -0.045  0.00  0.00    -0.080 A 
ATOM      4  C3  UNL d   1       0.299   2.162   0.086  0.00  0.00     0.150 A 
ATOM      5  C4  UNL d   1      -0.953   1.631   0.380  0.00  0.00    -0.007 A 
ATOM      6  C5  UNL d   1      -1.099   0.255   0.543  0.00  0.00     0.039 A 
ENDROOT
BRANCH   4   7
ATOM      7  O   UNL d   1       0.393   3.513  -0.071  0.00  0.00    -0.526 OA
ATOM      8  H5  UNL d   1       1.312   3.733  -0.299  0.00  0.00     0.418 HD
ENDBRANCH   4   7
TORSDOF 1
ENDMDL
