MODEL 1
REMARK minimizedAffinity -3.68903947
REMARK minimizedRMSD -1
REMARK  1 active torsions:
REMARK  status: ('A' for Active; 'I' for Inactive)
REMARK    1  A    between atoms: C3_4  and  O_7 
ROOT
ATOM      1  C   UNL d   1      -0.118  -0.779   0.281  0.00  0.00    -0.033 A 
ATOM      2  C1  UNL d   1       1.108  -0.253  -0.130  0.00  0.00     0.039 A 
ATOM      3  C2  UNL d   1       1.240   1.118  -0.361  0.00  0.00    -0.080 A 
ATOM      4  C3  UNL d   1       0.140   1.951  -0.177  0.00  0.00     0.150 A 
ATOM      5  C4  UNL d   1      -1.084   1.434   0.237  0.00  0.00    -0.007 A 
ATOM      6  C5  UNL d   1      -1.214   0.065   0.466  0.00  0.00     0.039 A 
ENDROOT
BRANCH   4   7
ATOM      7  O   UNL d   1       0.219   3.294  -0.394  0.00  0.00    -0.526 OA
ATOM      8  H5  UNL d   1       1.116   3.503  -0.703  0.00  0.00     0.418 HD
ENDBRANCH   4   7
TORSDOF 1
ENDMDL
