MODEL 1
REMARK minimizedAffinity -4.06392002
REMARK minimizedRMSD -1
REMARK  0 active torsions:
REMARK  status: ('A' for Active; 'I' for Inactive)
ROOT
ATOM      1  C1  DEN d   1      -1.096  -0.048  -0.674  0.00  0.00     0.130 A 
ATOM      2  C2  DEN d   1       0.041  -0.080  -1.590  0.00  0.00    -0.031 A 
ATOM      3  C3  DEN d   1       1.239  -0.465  -0.818  0.00  0.00     0.027 A 
ATOM      4  C4  DEN d   1       1.442  -1.016   1.694  0.00  0.00     0.027 A 
ATOM      5  C5  DEN d   1       0.751  -1.112   2.881  0.00  0.00    -0.003 A 
ATOM      6  C6  DEN d   1      -0.586  -0.830   2.973  0.00  0.00     0.001 A 
ATOM      7  C7  DEN d   1      -1.285  -0.481   1.848  0.00  0.00     0.017 A 
ATOM      8  C8  DEN d   1      -0.593  -0.375   0.648  0.00  0.00    -0.094 A 
ATOM      9  C9  DEN d   1       0.756  -0.676   0.573  0.00  0.00    -0.072 A 
ENDROOT
TORSDOF 0
ENDMDL
