MODEL 1
REMARK minimizedAffinity -7.20267916
REMARK minimizedRMSD -1
REMARK  0 active torsions:
REMARK  status: ('A' for Active; 'I' for Inactive)
ROOT
ATOM      1  C1  DEN d   1      -0.605  -0.113   0.552  0.00  0.00     0.130 A 
ATOM      2  C2  DEN d   1      -0.582  -0.132  -0.908  0.00  0.00    -0.031 A 
ATOM      3  C3  DEN d   1       0.680  -0.767  -1.336  0.00  0.00     0.027 A 
ATOM      4  C4  DEN d   1       2.589  -1.724   0.111  0.00  0.00     0.027 A 
ATOM      5  C5  DEN d   1       3.026  -1.925   1.402  0.00  0.00    -0.003 A 
ATOM      6  C6  DEN d   1       2.306  -1.509   2.490  0.00  0.00     0.001 A 
ATOM      7  C7  DEN d   1       1.087  -0.911   2.309  0.00  0.00     0.017 A 
ATOM      8  C8  DEN d   1       0.643  -0.698   1.010  0.00  0.00    -0.094 A 
ATOM      9  C9  DEN d   1       1.380  -1.137  -0.076  0.00  0.00    -0.072 A 
ENDROOT
TORSDOF 0
ENDMDL
