MODEL 1
REMARK minimizedAffinity -3.73583031
REMARK minimizedRMSD -1
REMARK  0 active torsions:
REMARK  status: ('A' for Active; 'I' for Inactive)
ROOT
ATOM      1  C1  DEN d   1      -0.340   1.337   1.182  0.00  0.00     0.130 A 
ATOM      2  C2  DEN d   1       0.157   0.148   1.869  0.00  0.00    -0.031 A 
ATOM      3  C3  DEN d   1       0.456  -0.877   0.849  0.00  0.00     0.027 A 
ATOM      4  C4  DEN d   1       0.204  -0.738  -1.714  0.00  0.00     0.027 A 
ATOM      5  C5  DEN d   1      -0.190   0.066  -2.761  0.00  0.00    -0.003 A 
ATOM      6  C6  DEN d   1      -0.689   1.326  -2.566  0.00  0.00     0.001 A 
ATOM      7  C7  DEN d   1      -0.765   1.838  -1.298  0.00  0.00     0.017 A 
ATOM      8  C8  DEN d   1      -0.377   1.031  -0.236  0.00  0.00    -0.094 A 
ATOM      9  C9  DEN d   1       0.136  -0.236  -0.455  0.00  0.00    -0.072 A 
ENDROOT
TORSDOF 0
ENDMDL
