MODEL 1
REMARK minimizedAffinity -6.58750725
REMARK minimizedRMSD -1
REMARK  0 active torsions:
REMARK  status: ('A' for Active; 'I' for Inactive)
ROOT
ATOM      1  C1  DEN d   1       1.717  -1.419  -1.248  0.00  0.00     0.130 A 
ATOM      2  C2  DEN d   1       0.612  -0.633  -1.791  0.00  0.00    -0.031 A 
ATOM      3  C3  DEN d   1      -0.098  -0.003  -0.660  0.00  0.00     0.027 A 
ATOM      4  C4  DEN d   1       0.406  -0.163   1.865  0.00  0.00     0.027 A 
ATOM      5  C5  DEN d   1       1.236  -0.722   2.810  0.00  0.00    -0.003 A 
ATOM      6  C6  DEN d   1       2.256  -1.573   2.475  0.00  0.00     0.001 A 
ATOM      7  C7  DEN d   1       2.500  -1.854   1.156  0.00  0.00     0.017 A 
ATOM      8  C8  DEN d   1       1.662  -1.299   0.198  0.00  0.00    -0.094 A 
ATOM      9  C9  DEN d   1       0.644  -0.432   0.556  0.00  0.00    -0.072 A 
ENDROOT
TORSDOF 0
ENDMDL
