MODEL 1
REMARK minimizedAffinity -4.42803764
REMARK minimizedRMSD -1
REMARK  0 active torsions:
REMARK  status: ('A' for Active; 'I' for Inactive)
ROOT
ATOM      1  C1  DEN d   1       0.315  -0.630   0.408  0.00  0.00     0.130 A 
ATOM      2  C2  DEN d   1      -0.636  -1.140   1.391  0.00  0.00    -0.031 A 
ATOM      3  C3  DEN d   1      -1.994  -1.001   0.828  0.00  0.00     0.027 A 
ATOM      4  C4  DEN d   1      -2.712  -0.055  -1.462  0.00  0.00     0.027 A 
ATOM      5  C5  DEN d   1      -2.261   0.511  -2.634  0.00  0.00    -0.003 A 
ATOM      6  C6  DEN d   1      -0.934   0.765  -2.859  0.00  0.00     0.001 A 
ATOM      7  C7  DEN d   1      -0.006   0.411  -1.915  0.00  0.00     0.017 A 
ATOM      8  C8  DEN d   1      -0.453  -0.152  -0.728  0.00  0.00    -0.094 A 
ATOM      9  C9  DEN d   1      -1.798  -0.413  -0.524  0.00  0.00    -0.072 A 
ENDROOT
TORSDOF 0
ENDMDL
