MODEL 1
REMARK minimizedAffinity 1.293486
REMARK minimizedRMSD -1
REMARK  0 active torsions:
REMARK  status: ('A' for Active; 'I' for Inactive)
ROOT
ATOM      1  C   UNL d   1       5.999   0.130  -5.896  0.00  0.00     0.077 C 
ATOM      2  C1  UNL d   1       5.248   1.424  -5.790  0.00  0.00    -0.074 A 
ATOM      3  C2  UNL d   1       3.875   1.439  -5.529  0.00  0.00    -0.005 A 
ATOM      4  C3  UNL d   1       3.192   2.651  -5.423  0.00  0.00     0.006 A 
ATOM      5  C4  UNL d   1       3.875   3.858  -5.578  0.00  0.00    -0.005 A 
ATOM      6  C5  UNL d   1       5.249   3.863  -5.838  0.00  0.00    -0.074 A 
ATOM      7  C6  UNL d   1       6.000   5.151  -5.997  0.00  0.00     0.077 C 
ATOM      8  C7  UNL d   1       5.929   2.641  -5.936  0.00  0.00    -0.001 A 
ENDROOT
TORSDOF 0
ENDMDL
