MODEL 1
REMARK minimizedAffinity -4.2474122
REMARK minimizedRMSD -1
REMARK  0 active torsions:
REMARK  status: ('A' for Active; 'I' for Inactive)
ROOT
ATOM      1  C   UNL d   1       3.784   3.561  -5.961  0.00  0.00     0.077 C 
ATOM      2  C1  UNL d   1       4.562   2.781  -4.942  0.00  0.00    -0.074 A 
ATOM      3  C2  UNL d   1       4.932   3.360  -3.724  0.00  0.00    -0.005 A 
ATOM      4  C3  UNL d   1       5.647   2.619  -2.783  0.00  0.00     0.006 A 
ATOM      5  C4  UNL d   1       5.999   1.296  -3.050  0.00  0.00    -0.005 A 
ATOM      6  C5  UNL d   1       5.638   0.701  -4.263  0.00  0.00    -0.074 A 
ATOM      7  C6  UNL d   1       6.000  -0.724  -4.562  0.00  0.00     0.077 C 
ATOM      8  C7  UNL d   1       4.913   1.449  -5.200  0.00  0.00    -0.001 A 
ENDROOT
TORSDOF 0
ENDMDL
