MODEL 1
REMARK minimizedAffinity 9.70610809
REMARK minimizedRMSD -1
REMARK  0 active torsions:
REMARK  status: ('A' for Active; 'I' for Inactive)
ROOT
ATOM      1  C   UNL d   1       6.000  -1.122  -1.583  0.00  0.00     0.077 C 
ATOM      2  C1  UNL d   1       5.462   0.043  -2.358  0.00  0.00    -0.074 A 
ATOM      3  C2  UNL d   1       4.878   1.133  -1.705  0.00  0.00    -0.005 A 
ATOM      4  C3  UNL d   1       4.390   2.215  -2.440  0.00  0.00     0.006 A 
ATOM      5  C4  UNL d   1       4.482   2.216  -3.832  0.00  0.00    -0.005 A 
ATOM      6  C5  UNL d   1       5.064   1.136  -4.502  0.00  0.00    -0.074 A 
ATOM      7  C6  UNL d   1       5.179   1.126  -5.998  0.00  0.00     0.077 C 
ATOM      8  C7  UNL d   1       5.557   0.056  -3.757  0.00  0.00    -0.001 A 
ENDROOT
TORSDOF 0
ENDMDL
