MODEL 1
REMARK minimizedAffinity 2.66677237
REMARK minimizedRMSD -1
REMARK  0 active torsions:
REMARK  status: ('A' for Active; 'I' for Inactive)
ROOT
ATOM      1  C   UNL d   1       0.643   2.088   2.401  0.00  0.00     0.077 C 
ATOM      2  C1  UNL d   1      -0.375   2.727   1.504  0.00  0.00    -0.074 A 
ATOM      3  C2  UNL d   1      -0.040   3.827   0.707  0.00  0.00    -0.005 A 
ATOM      4  C3  UNL d   1      -0.994   4.405  -0.130  0.00  0.00     0.006 A 
ATOM      5  C4  UNL d   1      -2.291   3.891  -0.178  0.00  0.00    -0.005 A 
ATOM      6  C5  UNL d   1      -2.643   2.792   0.610  0.00  0.00    -0.074 A 
ATOM      7  C6  UNL d   1      -4.029   2.221   0.563  0.00  0.00     0.077 C 
ATOM      8  C7  UNL d   1      -1.677   2.212   1.444  0.00  0.00    -0.001 A 
ENDROOT
TORSDOF 0
ENDMDL
