MODEL 1
REMARK minimizedAffinity 8.61834145
REMARK minimizedRMSD -1
REMARK  0 active torsions:
REMARK  status: ('A' for Active; 'I' for Inactive)
ROOT
ATOM      1  C   UNL d   1      -2.552   6.000  -6.000  0.00  0.00     0.077 C 
ATOM      2  C1  UNL d   1      -2.567   4.864  -5.020  0.00  0.00    -0.074 A 
ATOM      3  C2  UNL d   1      -3.215   3.662  -5.324  0.00  0.00    -0.005 A 
ATOM      4  C3  UNL d   1      -3.213   2.612  -4.406  0.00  0.00     0.006 A 
ATOM      5  C4  UNL d   1      -2.564   2.752  -3.179  0.00  0.00    -0.005 A 
ATOM      6  C5  UNL d   1      -1.910   3.946  -2.859  0.00  0.00    -0.074 A 
ATOM      7  C6  UNL d   1      -1.200   4.109  -1.548  0.00  0.00     0.077 C 
ATOM      8  C7  UNL d   1      -1.911   4.994  -3.789  0.00  0.00    -0.001 A 
ENDROOT
TORSDOF 0
ENDMDL
