MODEL 1
REMARK minimizedAffinity 5.26744699
REMARK minimizedRMSD -1
REMARK  0 active torsions:
REMARK  status: ('A' for Active; 'I' for Inactive)
ROOT
ATOM      1  C   UNL d   1      -1.864  -3.794  -1.421  0.00  0.00     0.077 C 
ATOM      2  C1  UNL d   1      -0.450  -3.909  -1.908  0.00  0.00    -0.074 A 
ATOM      3  C2  UNL d   1       0.623  -3.869  -1.013  0.00  0.00    -0.005 A 
ATOM      4  C3  UNL d   1       1.933  -3.987  -1.480  0.00  0.00     0.006 A 
ATOM      5  C4  UNL d   1       2.181  -4.146  -2.844  0.00  0.00    -0.005 A 
ATOM      6  C5  UNL d   1       1.119  -4.189  -3.754  0.00  0.00    -0.074 A 
ATOM      7  C6  UNL d   1       1.368  -4.370  -5.222  0.00  0.00     0.077 C 
ATOM      8  C7  UNL d   1      -0.194  -4.077  -3.276  0.00  0.00    -0.001 A 
ENDROOT
TORSDOF 0
ENDMDL
