MODEL 1
REMARK minimizedAffinity 3.41501021
REMARK minimizedRMSD -1
REMARK  0 active torsions:
REMARK  status: ('A' for Active; 'I' for Inactive)
ROOT
ATOM      1  C   UNL d   1      -5.999   2.796  -3.079  0.00  0.00     0.077 C 
ATOM      2  C1  UNL d   1      -5.286   3.625  -4.105  0.00  0.00    -0.074 A 
ATOM      3  C2  UNL d   1      -6.000   4.381  -5.041  0.00  0.00    -0.005 A 
ATOM      4  C3  UNL d   1      -5.322   5.155  -5.984  0.00  0.00     0.006 A 
ATOM      5  C4  UNL d   1      -3.927   5.181  -6.000  0.00  0.00    -0.005 A 
ATOM      6  C5  UNL d   1      -3.197   4.433  -5.071  0.00  0.00    -0.074 A 
ATOM      7  C6  UNL d   1      -1.697   4.457  -5.068  0.00  0.00     0.077 C 
ATOM      8  C7  UNL d   1      -3.885   3.663  -4.123  0.00  0.00    -0.001 A 
ENDROOT
TORSDOF 0
ENDMDL
