MODEL 1
REMARK minimizedAffinity 15.214057
REMARK minimizedRMSD -1
REMARK  0 active torsions:
REMARK  status: ('A' for Active; 'I' for Inactive)
ROOT
ATOM      1  C   UNL d   1      -2.666   0.496   1.967  0.00  0.00     0.077 C 
ATOM      2  C1  UNL d   1      -1.548   1.419   1.582  0.00  0.00    -0.074 A 
ATOM      3  C2  UNL d   1      -1.801   2.752   1.241  0.00  0.00    -0.005 A 
ATOM      4  C3  UNL d   1      -0.750   3.600   0.894  0.00  0.00     0.006 A 
ATOM      5  C4  UNL d   1       0.562   3.126   0.884  0.00  0.00    -0.005 A 
ATOM      6  C5  UNL d   1       0.834   1.797   1.222  0.00  0.00    -0.074 A 
ATOM      7  C6  UNL d   1       2.240   1.274   1.226  0.00  0.00     0.077 C 
ATOM      8  C7  UNL d   1      -0.226   0.952   1.577  0.00  0.00    -0.001 A 
ENDROOT
TORSDOF 0
ENDMDL
