MODEL 1
REMARK minimizedAffinity 7.02482557
REMARK minimizedRMSD -1
REMARK  0 active torsions:
REMARK  status: ('A' for Active; 'I' for Inactive)
ROOT
ATOM      1  C   UNL d   1      -1.633  -2.329   2.222  0.00  0.00     0.077 C 
ATOM      2  C1  UNL d   1      -1.289  -2.435   0.766  0.00  0.00    -0.074 A 
ATOM      3  C2  UNL d   1      -0.584  -1.416   0.118  0.00  0.00    -0.005 A 
ATOM      4  C3  UNL d   1      -0.262  -1.533  -1.234  0.00  0.00     0.006 A 
ATOM      5  C4  UNL d   1      -0.642  -2.669  -1.951  0.00  0.00    -0.005 A 
ATOM      6  C5  UNL d   1      -1.346  -3.699  -1.319  0.00  0.00    -0.074 A 
ATOM      7  C6  UNL d   1      -1.753  -4.930  -2.072  0.00  0.00     0.077 C 
ATOM      8  C7  UNL d   1      -1.660  -3.577   0.041  0.00  0.00    -0.001 A 
ENDROOT
TORSDOF 0
ENDMDL
