MODEL 1
REMARK minimizedAffinity 11.9706316
REMARK minimizedRMSD -1
REMARK  0 active torsions:
REMARK  status: ('A' for Active; 'I' for Inactive)
ROOT
ATOM      1  C   UNL d   1      -1.750  -2.372   2.109  0.00  0.00     0.077 C 
ATOM      2  C1  UNL d   1      -1.389  -2.688   0.688  0.00  0.00    -0.074 A 
ATOM      3  C2  UNL d   1      -0.429  -1.935   0.005  0.00  0.00    -0.005 A 
ATOM      4  C3  UNL d   1      -0.097  -2.246  -1.313  0.00  0.00     0.006 A 
ATOM      5  C4  UNL d   1      -0.721  -3.313  -1.962  0.00  0.00    -0.005 A 
ATOM      6  C5  UNL d   1      -1.684  -4.077  -1.295  0.00  0.00    -0.074 A 
ATOM      7  C6  UNL d   1      -2.358  -5.233  -1.974  0.00  0.00     0.077 C 
ATOM      8  C7  UNL d   1      -2.007  -3.763   0.032  0.00  0.00    -0.001 A 
ENDROOT
TORSDOF 0
ENDMDL
