MODEL 1
REMARK minimizedAffinity 10.8969421
REMARK minimizedRMSD -1
REMARK  0 active torsions:
REMARK  status: ('A' for Active; 'I' for Inactive)
ROOT
ATOM      1  C   UNL d   1      -1.908  -2.106   2.480  0.00  0.00     0.077 C 
ATOM      2  C1  UNL d   1      -1.445  -2.362   1.077  0.00  0.00    -0.074 A 
ATOM      3  C2  UNL d   1      -0.377  -1.644   0.530  0.00  0.00    -0.005 A 
ATOM      4  C3  UNL d   1       0.049  -1.900  -0.774  0.00  0.00     0.006 A 
ATOM      5  C4  UNL d   1      -0.589  -2.874  -1.542  0.00  0.00    -0.005 A 
ATOM      6  C5  UNL d   1      -1.659  -3.603  -1.012  0.00  0.00    -0.074 A 
ATOM      7  C6  UNL d   1      -2.349  -4.660  -1.821  0.00  0.00     0.077 C 
ATOM      8  C7  UNL d   1      -2.076  -3.345   0.301  0.00  0.00    -0.001 A 
ENDROOT
TORSDOF 0
ENDMDL
