MODEL 1
REMARK minimizedAffinity 4.61582518
REMARK minimizedRMSD -1
REMARK  0 active torsions:
REMARK  status: ('A' for Active; 'I' for Inactive)
ROOT
ATOM      1  C   UNL d   1      -1.735   4.044  -0.383  0.00  0.00     0.077 C 
ATOM      2  C1  UNL d   1      -1.148   3.148   0.667  0.00  0.00    -0.074 A 
ATOM      3  C2  UNL d   1       0.089   2.526   0.470  0.00  0.00    -0.005 A 
ATOM      4  C3  UNL d   1       0.627   1.703   1.460  0.00  0.00     0.006 A 
ATOM      5  C4  UNL d   1      -0.065   1.494   2.653  0.00  0.00    -0.005 A 
ATOM      6  C5  UNL d   1      -1.303   2.109   2.868  0.00  0.00    -0.074 A 
ATOM      7  C6  UNL d   1      -2.055   1.903   4.149  0.00  0.00     0.077 C 
ATOM      8  C7  UNL d   1      -1.833   2.940   1.872  0.00  0.00    -0.001 A 
ENDROOT
TORSDOF 0
ENDMDL
