MODEL 1
REMARK minimizedAffinity 3.51583433
REMARK minimizedRMSD -1
REMARK  0 active torsions:
REMARK  status: ('A' for Active; 'I' for Inactive)
ROOT
ATOM      1  C   UNL d   1       1.805  -5.247  -4.900  0.00  0.00     0.077 C 
ATOM      2  C1  UNL d   1       0.520  -5.229  -4.128  0.00  0.00    -0.074 A 
ATOM      3  C2  UNL d   1      -0.576  -5.996  -4.538  0.00  0.00    -0.005 A 
ATOM      4  C3  UNL d   1      -1.762  -5.976  -3.804  0.00  0.00     0.006 A 
ATOM      5  C4  UNL d   1      -1.865  -5.191  -2.656  0.00  0.00    -0.005 A 
ATOM      6  C5  UNL d   1      -0.780  -4.417  -2.230  0.00  0.00    -0.074 A 
ATOM      7  C6  UNL d   1      -0.871  -3.575  -0.993  0.00  0.00     0.077 C 
ATOM      8  C7  UNL d   1       0.411  -4.448  -2.969  0.00  0.00    -0.001 A 
ENDROOT
TORSDOF 0
ENDMDL
