MODEL 1
REMARK minimizedAffinity 5.46651077
REMARK minimizedRMSD -1
REMARK  0 active torsions:
REMARK  status: ('A' for Active; 'I' for Inactive)
ROOT
ATOM      1  C   UNL d   1      -3.390   3.483  -4.172  0.00  0.00     0.077 C 
ATOM      2  C1  UNL d   1      -3.395   3.554  -2.673  0.00  0.00    -0.074 A 
ATOM      3  C2  UNL d   1      -2.493   4.375  -1.990  0.00  0.00    -0.005 A 
ATOM      4  C3  UNL d   1      -2.516   4.438  -0.597  0.00  0.00     0.006 A 
ATOM      5  C4  UNL d   1      -3.439   3.681   0.126  0.00  0.00    -0.005 A 
ATOM      6  C5  UNL d   1      -4.349   2.854  -0.541  0.00  0.00    -0.074 A 
ATOM      7  C6  UNL d   1      -5.354   2.042   0.220  0.00  0.00     0.077 C 
ATOM      8  C7  UNL d   1      -4.325   2.802  -1.941  0.00  0.00    -0.001 A 
ENDROOT
TORSDOF 0
ENDMDL
