MODEL 1
REMARK minimizedAffinity -1.78393602
REMARK minimizedRMSD -1
REMARK  0 active torsions:
REMARK  status: ('A' for Active; 'I' for Inactive)
ROOT
ATOM      1  C   UNL d   1       5.993  -0.008  -4.786  0.00  0.00     0.077 C 
ATOM      2  C1  UNL d   1       5.265   1.231  -5.216  0.00  0.00    -0.074 A 
ATOM      3  C2  UNL d   1       3.923   1.176  -5.607  0.00  0.00    -0.005 A 
ATOM      4  C3  UNL d   1       3.256   2.338  -5.996  0.00  0.00     0.006 A 
ATOM      5  C4  UNL d   1       3.923   3.564  -5.998  0.00  0.00    -0.005 A 
ATOM      6  C5  UNL d   1       5.265   3.638  -5.610  0.00  0.00    -0.074 A 
ATOM      7  C6  UNL d   1       5.993   4.949  -5.597  0.00  0.00     0.077 C 
ATOM      8  C7  UNL d   1       5.926   2.467  -5.214  0.00  0.00    -0.001 A 
ENDROOT
TORSDOF 0
ENDMDL
