MODEL 1
REMARK minimizedAffinity 5.54073334
REMARK minimizedRMSD -1
REMARK  0 active torsions:
REMARK  status: ('A' for Active; 'I' for Inactive)
ROOT
ATOM      1  C   UNL d   1      -0.783  -0.455   0.327  0.00  0.00     0.124 A 
ATOM      2  C1  UNL d   1      -1.754   0.424   0.787  0.00  0.00     0.062 A 
ATOM      3  C2  UNL d   1      -1.470   1.296   1.834  0.00  0.00     0.162 A 
ATOM      4  C3  UNL d   1      -0.208   1.295   2.428  0.00  0.00    -0.034 A 
ATOM      5  C4  UNL d   1       0.764   0.408   1.960  0.00  0.00     0.162 A 
ATOM      6  C5  UNL d   1       0.475  -0.462   0.914  0.00  0.00     0.062 A 
ATOM      7  F   UNL d   1       1.415  -1.309   0.471  0.00  0.00    -0.097 F 
ATOM      8  F1  UNL d   1       1.988   0.381   2.508  0.00  0.00    -0.096 F 
ATOM      9  I   UNL d   1       0.221   2.598   3.993  0.00  0.00    -0.060 I 
ATOM     10  F2  UNL d   1      -2.428   2.134   2.258  0.00  0.00    -0.096 F 
ATOM     11  F3  UNL d   1      -2.970   0.432   0.223  0.00  0.00    -0.097 F 
ATOM     12  F4  UNL d   1      -1.059  -1.293  -0.679  0.00  0.00    -0.092 F 
ENDROOT
TORSDOF 0
ENDMDL
