MODEL 1
REMARK minimizedAffinity 5.73891973
REMARK minimizedRMSD -1
REMARK  0 active torsions:
REMARK  status: ('A' for Active; 'I' for Inactive)
ROOT
ATOM      1  C   UNL d   1      -0.423   1.437   1.026  0.00  0.00     0.124 A 
ATOM      2  C1  UNL d   1      -0.777   0.258   1.669  0.00  0.00     0.062 A 
ATOM      3  C2  UNL d   1      -0.624  -0.965   1.022  0.00  0.00     0.162 A 
ATOM      4  C3  UNL d   1      -0.114  -1.016  -0.275  0.00  0.00    -0.034 A 
ATOM      5  C4  UNL d   1       0.238   0.174  -0.916  0.00  0.00     0.162 A 
ATOM      6  C5  UNL d   1       0.083   1.393  -0.265  0.00  0.00     0.062 A 
ATOM      7  F   UNL d   1       0.425   2.531  -0.887  0.00  0.00    -0.097 F 
ATOM      8  F1  UNL d   1       0.731   0.161  -2.163  0.00  0.00    -0.096 F 
ATOM      9  I   UNL d   1       0.116  -2.843  -1.246  0.00  0.00    -0.060 I 
ATOM     10  F2  UNL d   1      -0.973  -2.088   1.667  0.00  0.00    -0.096 F 
ATOM     11  F3  UNL d   1      -1.268   0.297   2.916  0.00  0.00    -0.097 F 
ATOM     12  F4  UNL d   1      -0.573   2.612   1.651  0.00  0.00    -0.092 F 
ENDROOT
TORSDOF 0
ENDMDL
