MODEL 1
REMARK minimizedAffinity -1.04721212
REMARK minimizedRMSD -1
REMARK  0 active torsions:
REMARK  status: ('A' for Active; 'I' for Inactive)
ROOT
ATOM      1  C   UNL d   1      -0.825   1.565  -0.561  0.00  0.00     0.124 A 
ATOM      2  C1  UNL d   1       0.452   1.550  -1.105  0.00  0.00     0.062 A 
ATOM      3  C2  UNL d   1       1.149   0.351  -1.222  0.00  0.00     0.162 A 
ATOM      4  C3  UNL d   1       0.570  -0.844  -0.796  0.00  0.00    -0.034 A 
ATOM      5  C4  UNL d   1      -0.714  -0.821  -0.249  0.00  0.00     0.162 A 
ATOM      6  C5  UNL d   1      -1.407   0.380  -0.134  0.00  0.00     0.062 A 
ATOM      7  F   UNL d   1      -2.640   0.392   0.391  0.00  0.00    -0.097 F 
ATOM      8  F1  UNL d   1      -1.301  -1.952   0.171  0.00  0.00    -0.096 F 
ATOM      9  I   UNL d   1       1.609  -2.639  -0.969  0.00  0.00    -0.060 I 
ATOM     10  F2  UNL d   1       2.382   0.367  -1.751  0.00  0.00    -0.096 F 
ATOM     11  F3  UNL d   1       1.017   2.694  -1.517  0.00  0.00    -0.097 F 
ATOM     12  F4  UNL d   1      -1.493   2.721  -0.449  0.00  0.00    -0.092 F 
ENDROOT
TORSDOF 0
ENDMDL
