MODEL 1
REMARK minimizedAffinity 2.57425284
REMARK minimizedRMSD -1
REMARK  0 active torsions:
REMARK  status: ('A' for Active; 'I' for Inactive)
ROOT
ATOM      1  C   UNL d   1      -0.496   1.539   0.914  0.00  0.00     0.124 A 
ATOM      2  C1  UNL d   1      -0.535   0.402   1.710  0.00  0.00     0.062 A 
ATOM      3  C2  UNL d   1      -0.065  -0.813   1.219  0.00  0.00     0.162 A 
ATOM      4  C3  UNL d   1       0.448  -0.898  -0.075  0.00  0.00    -0.034 A 
ATOM      5  C4  UNL d   1       0.484   0.249  -0.870  0.00  0.00     0.162 A 
ATOM      6  C5  UNL d   1       0.013   1.461  -0.375  0.00  0.00     0.062 A 
ATOM      7  F   UNL d   1       0.052   2.558  -1.146  0.00  0.00    -0.097 F 
ATOM      8  F1  UNL d   1       0.971   0.203  -2.119  0.00  0.00    -0.096 F 
ATOM      9  I   UNL d   1       1.151  -2.713  -0.812  0.00  0.00    -0.060 I 
ATOM     10  F2  UNL d   1      -0.115  -1.895   2.010  0.00  0.00    -0.096 F 
ATOM     11  F3  UNL d   1      -1.027   0.474   2.955  0.00  0.00    -0.097 F 
ATOM     12  F4  UNL d   1      -0.949   2.706   1.388  0.00  0.00    -0.092 F 
ENDROOT
TORSDOF 0
ENDMDL
