MODEL 1
REMARK minimizedAffinity 0.324710369
REMARK minimizedRMSD -1
REMARK  0 active torsions:
REMARK  status: ('A' for Active; 'I' for Inactive)
ROOT
ATOM      1  C   UNL d   1       0.055  -3.262  -2.018  0.00  0.00     0.124 A 
ATOM      2  C1  UNL d   1       0.954  -2.729  -1.105  0.00  0.00     0.062 A 
ATOM      3  C2  UNL d   1       0.716  -1.482  -0.534  0.00  0.00     0.162 A 
ATOM      4  C3  UNL d   1      -0.427  -0.759  -0.874  0.00  0.00    -0.034 A 
ATOM      5  C4  UNL d   1      -1.327  -1.301  -1.793  0.00  0.00     0.162 A 
ATOM      6  C5  UNL d   1      -1.084  -2.548  -2.361  0.00  0.00     0.062 A 
ATOM      7  F   UNL d   1      -1.954  -3.061  -3.243  0.00  0.00    -0.097 F 
ATOM      8  F1  UNL d   1      -2.436  -0.633  -2.142  0.00  0.00    -0.096 F 
ATOM      9  I   UNL d   1      -0.787   1.106  -0.022  0.00  0.00    -0.060 I 
ATOM     10  F2  UNL d   1       1.602  -0.991   0.346  0.00  0.00    -0.096 F 
ATOM     11  F3  UNL d   1       2.056  -3.416  -0.772  0.00  0.00    -0.097 F 
ATOM     12  F4  UNL d   1       0.287  -4.461  -2.566  0.00  0.00    -0.092 F 
ENDROOT
TORSDOF 0
ENDMDL
