MODEL 1
REMARK minimizedAffinity 0.761869073
REMARK minimizedRMSD -1
REMARK  0 active torsions:
REMARK  status: ('A' for Active; 'I' for Inactive)
ROOT
ATOM      1  C   UNL d   1      -1.184   2.107  -0.602  0.00  0.00     0.124 A 
ATOM      2  C1  UNL d   1      -1.803   0.915  -0.252  0.00  0.00     0.062 A 
ATOM      3  C2  UNL d   1      -1.157  -0.299  -0.469  0.00  0.00     0.162 A 
ATOM      4  C3  UNL d   1       0.117  -0.327  -1.038  0.00  0.00    -0.034 A 
ATOM      5  C4  UNL d   1       0.732   0.876  -1.388  0.00  0.00     0.162 A 
ATOM      6  C5  UNL d   1       0.083   2.087  -1.169  0.00  0.00     0.062 A 
ATOM      7  F   UNL d   1       0.682   3.237  -1.508  0.00  0.00    -0.097 F 
ATOM      8  F1  UNL d   1       1.956   0.886  -1.936  0.00  0.00    -0.096 F 
ATOM      9  I   UNL d   1       1.086  -2.140  -1.363  0.00  0.00    -0.060 I 
ATOM     10  F2  UNL d   1      -1.778  -1.435  -0.121  0.00  0.00    -0.096 F 
ATOM     11  F3  UNL d   1      -3.026   0.932   0.295  0.00  0.00    -0.097 F 
ATOM     12  F4  UNL d   1      -1.808   3.273  -0.393  0.00  0.00    -0.092 F 
ENDROOT
TORSDOF 0
ENDMDL
