MODEL 1
REMARK minimizedAffinity 7.424016
REMARK minimizedRMSD -1
REMARK  0 active torsions:
REMARK  status: ('A' for Active; 'I' for Inactive)
ROOT
ATOM      1  C   UNL d   1      -4.657  -2.535   3.637  0.00  0.00     0.124 A 
ATOM      2  C1  UNL d   1      -3.971  -2.481   2.432  0.00  0.00     0.062 A 
ATOM      3  C2  UNL d   1      -2.582  -2.382   2.420  0.00  0.00     0.162 A 
ATOM      4  C3  UNL d   1      -1.870  -2.338   3.619  0.00  0.00    -0.034 A 
ATOM      5  C4  UNL d   1      -2.567  -2.391   4.827  0.00  0.00     0.162 A 
ATOM      6  C5  UNL d   1      -3.955  -2.490   4.833  0.00  0.00     0.062 A 
ATOM      7  F   UNL d   1      -4.616  -2.542   5.999  0.00  0.00    -0.097 F 
ATOM      8  F1  UNL d   1      -1.913  -2.351   5.998  0.00  0.00    -0.096 F 
ATOM      9  I   UNL d   1       0.206  -2.190   3.606  0.00  0.00    -0.060 I 
ATOM     10  F2  UNL d   1      -1.946  -2.332   1.241  0.00  0.00    -0.096 F 
ATOM     11  F3  UNL d   1      -4.647  -2.523   1.275  0.00  0.00    -0.097 F 
ATOM     12  F4  UNL d   1      -5.993  -2.629   3.645  0.00  0.00    -0.092 F 
ENDROOT
TORSDOF 0
ENDMDL
