MODEL 1
REMARK minimizedAffinity 8.14017391
REMARK minimizedRMSD -1
REMARK  0 active torsions:
REMARK  status: ('A' for Active; 'I' for Inactive)
ROOT
ATOM      1  C   UNL d   1       0.114  -3.645  -2.725  0.00  0.00     0.124 A 
ATOM      2  C1  UNL d   1       0.099  -2.317  -3.130  0.00  0.00     0.062 A 
ATOM      3  C2  UNL d   1       0.627  -1.328  -2.306  0.00  0.00     0.162 A 
ATOM      4  C3  UNL d   1       1.176  -1.662  -1.068  0.00  0.00    -0.034 A 
ATOM      5  C4  UNL d   1       1.186  -2.999  -0.667  0.00  0.00     0.162 A 
ATOM      6  C5  UNL d   1       0.657  -3.984  -1.494  0.00  0.00     0.062 A 
ATOM      7  F   UNL d   1       0.672  -5.266  -1.101  0.00  0.00    -0.097 F 
ATOM      8  F1  UNL d   1       1.706  -3.355   0.517  0.00  0.00    -0.096 F 
ATOM      9  I   UNL d   1       1.967  -0.185   0.167  0.00  0.00    -0.060 I 
ATOM     10  F2  UNL d   1       0.600  -0.053  -2.724  0.00  0.00    -0.096 F 
ATOM     11  F3  UNL d   1      -0.426  -1.987  -4.319  0.00  0.00    -0.097 F 
ATOM     12  F4  UNL d   1      -0.396  -4.595  -3.520  0.00  0.00    -0.092 F 
ENDROOT
TORSDOF 0
ENDMDL
