MODEL 1
REMARK minimizedAffinity 2.88546634
REMARK minimizedRMSD -1
REMARK  0 active torsions:
REMARK  status: ('A' for Active; 'I' for Inactive)
ROOT
ATOM      1  C   UNL d   1       0.821  -3.137  -1.036  0.00  0.00     0.124 A 
ATOM      2  C1  UNL d   1      -0.459  -2.607  -0.954  0.00  0.00     0.062 A 
ATOM      3  C2  UNL d   1      -0.641  -1.232  -0.835  0.00  0.00     0.162 A 
ATOM      4  C3  UNL d   1       0.461  -0.377  -0.798  0.00  0.00    -0.034 A 
ATOM      5  C4  UNL d   1       1.745  -0.918  -0.879  0.00  0.00     0.162 A 
ATOM      6  C5  UNL d   1       1.922  -2.292  -0.998  0.00  0.00     0.062 A 
ATOM      7  F   UNL d   1       3.159  -2.803  -1.077  0.00  0.00    -0.097 F 
ATOM      8  F1  UNL d   1       2.826  -0.124  -0.846  0.00  0.00    -0.096 F 
ATOM      9  I   UNL d   1       0.193   1.679  -0.620  0.00  0.00    -0.060 I 
ATOM     10  F2  UNL d   1      -1.889  -0.747  -0.758  0.00  0.00    -0.096 F 
ATOM     11  F3  UNL d   1      -1.524  -3.421  -0.990  0.00  0.00    -0.097 F 
ATOM     12  F4  UNL d   1       0.994  -4.460  -1.150  0.00  0.00    -0.092 F 
ENDROOT
TORSDOF 0
ENDMDL
