MODEL 1
REMARK minimizedAffinity 3.14639592
REMARK minimizedRMSD -1
REMARK  0 active torsions:
REMARK  status: ('A' for Active; 'I' for Inactive)
ROOT
ATOM      1  C   UNL d   1       0.283  -3.809  -2.236  0.00  0.00     0.124 A 
ATOM      2  C1  UNL d   1      -0.710  -3.003  -2.774  0.00  0.00     0.062 A 
ATOM      3  C2  UNL d   1      -0.867  -1.694  -2.329  0.00  0.00     0.162 A 
ATOM      4  C3  UNL d   1      -0.027  -1.181  -1.341  0.00  0.00    -0.034 A 
ATOM      5  C4  UNL d   1       0.970  -1.998  -0.804  0.00  0.00     0.162 A 
ATOM      6  C5  UNL d   1       1.122  -3.306  -1.252  0.00  0.00     0.062 A 
ATOM      7  F   UNL d   1       2.083  -4.084  -0.731  0.00  0.00    -0.097 F 
ATOM      8  F1  UNL d   1       1.795  -1.537   0.148  0.00  0.00    -0.096 F 
ATOM      9  I   UNL d   1      -0.258   0.776  -0.672  0.00  0.00    -0.060 I 
ATOM     10  F2  UNL d   1      -1.836  -0.938  -2.867  0.00  0.00    -0.096 F 
ATOM     11  F3  UNL d   1      -1.523  -3.487  -3.725  0.00  0.00    -0.097 F 
ATOM     12  F4  UNL d   1       0.431  -5.069  -2.666  0.00  0.00    -0.092 F 
ENDROOT
TORSDOF 0
ENDMDL
