MODEL 1
REMARK minimizedAffinity -2.29405475
REMARK minimizedRMSD -1
REMARK  0 active torsions:
REMARK  status: ('A' for Active; 'I' for Inactive)
ROOT
ATOM      1  C   UNL d   1      -0.802   0.978   1.375  0.00  0.00     0.124 A 
ATOM      2  C1  UNL d   1      -1.447   1.087   0.151  0.00  0.00     0.062 A 
ATOM      3  C2  UNL d   1      -1.082   0.261  -0.908  0.00  0.00     0.162 A 
ATOM      4  C3  UNL d   1      -0.066  -0.681  -0.748  0.00  0.00    -0.034 A 
ATOM      5  C4  UNL d   1       0.579  -0.784   0.485  0.00  0.00     0.162 A 
ATOM      6  C5  UNL d   1       0.210   0.044   1.541  0.00  0.00     0.062 A 
ATOM      7  F   UNL d   1       0.835  -0.062   2.723  0.00  0.00    -0.097 F 
ATOM      8  F1  UNL d   1       1.560  -1.679   0.674  0.00  0.00    -0.096 F 
ATOM      9  I   UNL d   1       0.483  -1.917  -2.330  0.00  0.00    -0.060 I 
ATOM     10  F2  UNL d   1      -1.723   0.388  -2.080  0.00  0.00    -0.096 F 
ATOM     11  F3  UNL d   1      -2.425   1.989  -0.012  0.00  0.00    -0.097 F 
ATOM     12  F4  UNL d   1      -1.155   1.775   2.392  0.00  0.00    -0.092 F 
ENDROOT
TORSDOF 0
ENDMDL
