MODEL 1
REMARK minimizedAffinity -3.57388759
REMARK minimizedRMSD -1
REMARK  0 active torsions:
REMARK  status: ('A' for Active; 'I' for Inactive)
ROOT
ATOM      1  C   UNL d   1       0.076  -3.427  -2.662  0.00  0.00     0.124 A 
ATOM      2  C1  UNL d   1      -1.103  -2.710  -2.805  0.00  0.00     0.062 A 
ATOM      3  C2  UNL d   1      -1.352  -1.604  -1.997  0.00  0.00     0.162 A 
ATOM      4  C3  UNL d   1      -0.419  -1.207  -1.040  0.00  0.00    -0.034 A 
ATOM      5  C4  UNL d   1       0.765  -1.934  -0.902  0.00  0.00     0.162 A 
ATOM      6  C5  UNL d   1       1.009  -3.039  -1.711  0.00  0.00     0.062 A 
ATOM      7  F   UNL d   1       2.150  -3.730  -1.572  0.00  0.00    -0.097 F 
ATOM      8  F1  UNL d   1       1.685  -1.580   0.008  0.00  0.00    -0.096 F 
ATOM      9  I   UNL d   1      -0.787   0.446   0.169  0.00  0.00    -0.060 I 
ATOM     10  F2  UNL d   1      -2.501  -0.930  -2.157  0.00  0.00    -0.096 F 
ATOM     11  F3  UNL d   1      -2.007  -3.085  -3.722  0.00  0.00    -0.097 F 
ATOM     12  F4  UNL d   1       0.313  -4.492  -3.440  0.00  0.00    -0.092 F 
ENDROOT
TORSDOF 0
ENDMDL
