MODEL 1
REMARK minimizedAffinity 2.76447868
REMARK minimizedRMSD -1
REMARK  0 active torsions:
REMARK  status: ('A' for Active; 'I' for Inactive)
ROOT
ATOM      1  C   UNL d   1      -0.604   1.698   0.994  0.00  0.00     0.124 A 
ATOM      2  C1  UNL d   1      -0.232   1.561  -0.336  0.00  0.00     0.062 A 
ATOM      3  C2  UNL d   1       0.102   0.309  -0.845  0.00  0.00     0.162 A 
ATOM      4  C3  UNL d   1       0.063  -0.817  -0.023  0.00  0.00    -0.034 A 
ATOM      5  C4  UNL d   1      -0.311  -0.672   1.314  0.00  0.00     0.162 A 
ATOM      6  C5  UNL d   1      -0.643   0.581   1.818  0.00  0.00     0.062 A 
ATOM      7  F   UNL d   1      -1.002   0.711   3.103  0.00  0.00    -0.097 F 
ATOM      8  F1  UNL d   1      -0.358  -1.734   2.132  0.00  0.00    -0.096 F 
ATOM      9  I   UNL d   1       0.561  -2.691  -0.780  0.00  0.00    -0.060 I 
ATOM     10  F2  UNL d   1       0.457   0.207  -2.134  0.00  0.00    -0.096 F 
ATOM     11  F3  UNL d   1      -0.192   2.638  -1.133  0.00  0.00    -0.097 F 
ATOM     12  F4  UNL d   1      -0.923   2.903   1.482  0.00  0.00    -0.092 F 
ENDROOT
TORSDOF 0
ENDMDL
