MODEL 1
REMARK minimizedAffinity -1.94280851
REMARK minimizedRMSD -1
REMARK  0 active torsions:
REMARK  status: ('A' for Active; 'I' for Inactive)
ROOT
ATOM      1  C   UNL d   1      -0.794   1.451   1.815  0.00  0.00     0.124 A 
ATOM      2  C1  UNL d   1      -1.318   1.431   0.530  0.00  0.00     0.062 A 
ATOM      3  C2  UNL d   1      -0.971   0.411  -0.352  0.00  0.00     0.162 A 
ATOM      4  C3  UNL d   1      -0.096  -0.599   0.049  0.00  0.00    -0.034 A 
ATOM      5  C4  UNL d   1       0.428  -0.571   1.343  0.00  0.00     0.162 A 
ATOM      6  C5  UNL d   1       0.078   0.450   2.220  0.00  0.00     0.062 A 
ATOM      7  F   UNL d   1       0.586   0.468   3.461  0.00  0.00    -0.097 F 
ATOM      8  F1  UNL d   1       1.272  -1.526   1.761  0.00  0.00    -0.096 F 
ATOM      9  I   UNL d   1       0.425  -2.126  -1.266  0.00  0.00    -0.060 I 
ATOM     10  F2  UNL d   1      -1.493   0.416  -1.587  0.00  0.00    -0.096 F 
ATOM     11  F3  UNL d   1      -2.160   2.397   0.135  0.00  0.00    -0.097 F 
ATOM     12  F4  UNL d   1      -1.128   2.434   2.660  0.00  0.00    -0.092 F 
ENDROOT
TORSDOF 0
ENDMDL
