MODEL 1
REMARK minimizedAffinity -2.19877577
REMARK minimizedRMSD -1
REMARK  0 active torsions:
REMARK  status: ('A' for Active; 'I' for Inactive)
ROOT
ATOM      1  C   UNL d   1      -1.073   1.193   1.823  0.00  0.00     0.124 A 
ATOM      2  C1  UNL d   1      -1.144   1.270   0.439  0.00  0.00     0.062 A 
ATOM      3  C2  UNL d   1      -0.577   0.272  -0.348  0.00  0.00     0.162 A 
ATOM      4  C3  UNL d   1       0.066  -0.814   0.247  0.00  0.00    -0.034 A 
ATOM      5  C4  UNL d   1       0.135  -0.884   1.639  0.00  0.00     0.162 A 
ATOM      6  C5  UNL d   1      -0.433   0.116   2.422  0.00  0.00     0.062 A 
ATOM      7  F   UNL d   1      -0.363   0.040   3.759  0.00  0.00    -0.097 F 
ATOM      8  F1  UNL d   1       0.746  -1.913   2.244  0.00  0.00    -0.096 F 
ATOM      9  I   UNL d   1       0.915  -2.308  -0.926  0.00  0.00    -0.060 I 
ATOM     10  F2  UNL d   1      -0.662   0.372  -1.683  0.00  0.00    -0.096 F 
ATOM     11  F3  UNL d   1      -1.760   2.309  -0.142  0.00  0.00    -0.097 F 
ATOM     12  F4  UNL d   1      -1.618   2.155   2.578  0.00  0.00    -0.092 F 
ENDROOT
TORSDOF 0
ENDMDL
