MODEL 1
REMARK minimizedAffinity -2.82961726
REMARK minimizedRMSD -1
REMARK  0 active torsions:
REMARK  status: ('A' for Active; 'I' for Inactive)
ROOT
ATOM      1  C   UNL d   1      -0.809   0.481   1.627  0.00  0.00     0.172 C 
ATOM      2  N   UNL d   1      -0.310  -0.540   2.518  0.00  0.00    -0.070 N 
ATOM      3  C1  UNL d   1      -1.074  -1.334   3.330  0.00  0.00    -0.004 A 
ATOM      4  C2  UNL d   1      -0.226  -2.175   4.018  0.00  0.00    -0.047 A 
ATOM      5  C3  UNL d   1       1.094  -1.875   3.605  0.00  0.00    -0.047 A 
ATOM      6  C4  UNL d   1       1.013  -0.860   2.676  0.00  0.00    -0.004 A 
ENDROOT
TORSDOF 0
ENDMDL
