MODEL 1
REMARK minimizedAffinity -0.782415271
REMARK minimizedRMSD -1
REMARK  0 active torsions:
REMARK  status: ('A' for Active; 'I' for Inactive)
ROOT
ATOM      1  C   UNL d   1       1.026  -2.312   4.082  0.00  0.00     0.172 C 
ATOM      2  N   UNL d   1       0.519  -1.419   3.066  0.00  0.00    -0.070 N 
ATOM      3  C1  UNL d   1       1.281  -0.665   2.214  0.00  0.00    -0.004 A 
ATOM      4  C2  UNL d   1       0.425   0.046   1.401  0.00  0.00    -0.047 A 
ATOM      5  C3  UNL d   1      -0.896  -0.292   1.778  0.00  0.00    -0.047 A 
ATOM      6  C4  UNL d   1      -0.809  -1.201   2.811  0.00  0.00    -0.004 A 
ENDROOT
TORSDOF 0
ENDMDL
