MODEL 1
REMARK minimizedAffinity 1.22304833
REMARK minimizedRMSD -1
REMARK  0 active torsions:
REMARK  status: ('A' for Active; 'I' for Inactive)
ROOT
ATOM      1  C   UNL d   1       0.096  -0.744   2.164  0.00  0.00     0.172 C 
ATOM      2  N   UNL d   1       0.963  -1.094   3.264  0.00  0.00    -0.070 N 
ATOM      3  C1  UNL d   1       0.714  -2.061   4.200  0.00  0.00    -0.004 A 
ATOM      4  C2  UNL d   1       1.779  -2.086   5.075  0.00  0.00    -0.047 A 
ATOM      5  C3  UNL d   1       2.699  -1.099   4.650  0.00  0.00    -0.047 A 
ATOM      6  C4  UNL d   1       2.169  -0.500   3.527  0.00  0.00    -0.004 A 
ENDROOT
TORSDOF 0
ENDMDL
