MODEL 1
REMARK minimizedAffinity -1.59478486
REMARK minimizedRMSD -1
REMARK  0 active torsions:
REMARK  status: ('A' for Active; 'I' for Inactive)
ROOT
ATOM      1  C   UNL d   1       1.177  -1.636   4.498  0.00  0.00     0.172 C 
ATOM      2  N   UNL d   1      -0.163  -1.482   3.980  0.00  0.00    -0.070 N 
ATOM      3  C1  UNL d   1      -0.607  -0.438   3.213  0.00  0.00    -0.004 A 
ATOM      4  C2  UNL d   1      -1.936  -0.663   2.925  0.00  0.00    -0.047 A 
ATOM      5  C3  UNL d   1      -2.303  -1.883   3.540  0.00  0.00    -0.047 A 
ATOM      6  C4  UNL d   1      -1.186  -2.369   4.186  0.00  0.00    -0.004 A 
ENDROOT
TORSDOF 0
ENDMDL
