MODEL 1
REMARK minimizedAffinity 1.24970019
REMARK minimizedRMSD -1
REMARK  0 active torsions:
REMARK  status: ('A' for Active; 'I' for Inactive)
ROOT
ATOM      1  C   UNL d   1      -1.328  -0.332   2.139  0.00  0.00     0.172 C 
ATOM      2  N   UNL d   1      -0.215  -1.055   2.708  0.00  0.00    -0.070 N 
ATOM      3  C1  UNL d   1       1.106  -0.851   2.411  0.00  0.00    -0.004 A 
ATOM      4  C2  UNL d   1       1.849  -1.737   3.161  0.00  0.00    -0.047 A 
ATOM      5  C3  UNL d   1       0.944  -2.500   3.935  0.00  0.00    -0.047 A 
ATOM      6  C4  UNL d   1      -0.327  -2.057   3.636  0.00  0.00    -0.004 A 
ENDROOT
TORSDOF 0
ENDMDL
