MODEL 1
REMARK minimizedAffinity 2.77623844
REMARK minimizedRMSD -1
REMARK  0 active torsions:
REMARK  status: ('A' for Active; 'I' for Inactive)
ROOT
ATOM      1  C   UNL d   1      -1.225   0.507   1.571  0.00  0.00     0.172 C 
ATOM      2  N   UNL d   1      -0.173  -0.173   2.289  0.00  0.00    -0.070 N 
ATOM      3  C1  UNL d   1       1.010  -0.605   1.752  0.00  0.00    -0.004 A 
ATOM      4  C2  UNL d   1       1.739  -1.201   2.759  0.00  0.00    -0.047 A 
ATOM      5  C3  UNL d   1       0.966  -1.124   3.942  0.00  0.00    -0.047 A 
ATOM      6  C4  UNL d   1      -0.212  -0.483   3.623  0.00  0.00    -0.004 A 
ENDROOT
TORSDOF 0
ENDMDL
