MODEL 1
REMARK minimizedAffinity 1.41195667
REMARK minimizedRMSD -1
REMARK  0 active torsions:
REMARK  status: ('A' for Active; 'I' for Inactive)
ROOT
ATOM      1  C   UNL d   1       1.048  -5.636  -6.000  0.00  0.00     0.172 C 
ATOM      2  N   UNL d   1       0.759  -5.391  -4.606  0.00  0.00    -0.070 N 
ATOM      3  C1  UNL d   1       1.437  -4.525  -3.790  0.00  0.00    -0.004 A 
ATOM      4  C2  UNL d   1       0.857  -4.580  -2.542  0.00  0.00    -0.047 A 
ATOM      5  C3  UNL d   1      -0.206  -5.513  -2.608  0.00  0.00    -0.047 A 
ATOM      6  C4  UNL d   1      -0.243  -6.000  -3.898  0.00  0.00    -0.004 A 
ENDROOT
TORSDOF 0
ENDMDL
