MODEL 1
REMARK minimizedAffinity -0.454674393
REMARK minimizedRMSD -1
REMARK  0 active torsions:
REMARK  status: ('A' for Active; 'I' for Inactive)
ROOT
ATOM      1  N1  IND d   1      -2.369   1.290   2.726  0.00  0.00    -0.196 N 
ATOM      2  C2  IND d   1      -2.387   2.641   2.523  0.00  0.00     0.054 A 
ATOM      3  C3  IND d   1      -1.341   3.015   1.752  0.00  0.00    -0.031 A 
ATOM      4  C4  IND d   1       0.465   1.563   0.630  0.00  0.00     0.051 A 
ATOM      5  C5  IND d   1       0.918   0.276   0.553  0.00  0.00    -0.031 A 
ATOM      6  C6  IND d   1       0.285  -0.760   1.208  0.00  0.00     0.015 A 
ATOM      7  C7  IND d   1      -0.838  -0.549   1.958  0.00  0.00    -0.016 A 
ATOM      8  C8  IND d   1      -1.297   0.758   2.044  0.00  0.00    -0.047 A 
ATOM      9  C9  IND d   1      -0.633   1.820   1.416  0.00  0.00    -0.096 A 
ATOM     10  HN1 IND d   1      -2.933   0.846   3.200  0.00  0.00     0.298 HD
ENDROOT
TORSDOF 0
ENDMDL
