MODEL 1
REMARK minimizedAffinity 5.23368216
REMARK minimizedRMSD -1
REMARK  0 active torsions:
REMARK  status: ('A' for Active; 'I' for Inactive)
ROOT
ATOM      1  N1  IND d   1      -1.918   2.943   1.695  0.00  0.00    -0.196 N 
ATOM      2  C2  IND d   1      -0.718   2.525   1.190  0.00  0.00     0.054 A 
ATOM      3  C3  IND d   1      -0.504   1.227   1.500  0.00  0.00    -0.031 A 
ATOM      4  C4  IND d   1      -2.032  -0.432   2.740  0.00  0.00     0.051 A 
ATOM      5  C5  IND d   1      -3.214  -0.505   3.422  0.00  0.00    -0.031 A 
ATOM      6  C6  IND d   1      -4.043   0.590   3.564  0.00  0.00     0.015 A 
ATOM      7  C7  IND d   1      -3.723   1.800   3.017  0.00  0.00    -0.016 A 
ATOM      8  C8  IND d   1      -2.521   1.879   2.329  0.00  0.00    -0.047 A 
ATOM      9  C9  IND d   1      -1.656   0.783   2.219  0.00  0.00    -0.096 A 
ATOM     10  HN1 IND d   1      -2.241   3.737   1.627  0.00  0.00     0.298 HD
ENDROOT
TORSDOF 0
ENDMDL
