MODEL 1
REMARK minimizedAffinity -5.1895771
REMARK minimizedRMSD -1
REMARK  0 active torsions:
REMARK  status: ('A' for Active; 'I' for Inactive)
ROOT
ATOM      1  N1  IND d   1      -0.555   2.966   1.824  0.00  0.00    -0.196 N 
ATOM      2  C2  IND d   1       0.610   3.176   1.141  0.00  0.00     0.054 A 
ATOM      3  C3  IND d   1       1.098   2.005   0.672  0.00  0.00    -0.031 A 
ATOM      4  C4  IND d   1       0.095  -0.361   0.820  0.00  0.00     0.051 A 
ATOM      5  C5  IND d   1      -0.939  -1.060   1.378  0.00  0.00    -0.031 A 
ATOM      6  C6  IND d   1      -1.919  -0.439   2.125  0.00  0.00     0.015 A 
ATOM      7  C7  IND d   1      -1.908   0.911   2.335  0.00  0.00    -0.016 A 
ATOM      8  C8  IND d   1      -0.855   1.622   1.776  0.00  0.00    -0.047 A 
ATOM      9  C9  IND d   1       0.165   0.992   1.052  0.00  0.00    -0.096 A 
ATOM     10  HN1 IND d   1      -1.022   3.571   2.218  0.00  0.00     0.298 HD
ENDROOT
TORSDOF 0
ENDMDL
