MODEL 1
REMARK minimizedAffinity 8.77896404
REMARK minimizedRMSD -1
REMARK  0 active torsions:
REMARK  status: ('A' for Active; 'I' for Inactive)
ROOT
ATOM      1  N1  IND d   1      -5.997   1.230   5.493  0.00  0.00    -0.196 N 
ATOM      2  C2  IND d   1      -5.995   2.500   6.000  0.00  0.00     0.054 A 
ATOM      3  C3  IND d   1      -5.029   3.240   5.412  0.00  0.00    -0.031 A 
ATOM      4  C4  IND d   1      -3.401   2.600   3.523  0.00  0.00     0.051 A 
ATOM      5  C5  IND d   1      -2.998   1.539   2.761  0.00  0.00    -0.031 A 
ATOM      6  C6  IND d   1      -3.588   0.296   2.872  0.00  0.00     0.015 A 
ATOM      7  C7  IND d   1      -4.615   0.070   3.744  0.00  0.00    -0.016 A 
ATOM      8  C8  IND d   1      -5.022   1.144   4.524  0.00  0.00    -0.047 A 
ATOM      9  C9  IND d   1      -4.399   2.396   4.446  0.00  0.00    -0.096 A 
ATOM     10  HN1 IND d   1      -6.519   0.592   5.739  0.00  0.00     0.298 HD
ENDROOT
TORSDOF 0
ENDMDL
