MODEL 1
REMARK minimizedAffinity 4.04496479
REMARK minimizedRMSD -1
REMARK  0 active torsions:
REMARK  status: ('A' for Active; 'I' for Inactive)
ROOT
ATOM      1  N1  IND d   1      -2.309   0.696   2.932  0.00  0.00    -0.196 N 
ATOM      2  C2  IND d   1      -2.707   1.990   3.119  0.00  0.00     0.054 A 
ATOM      3  C3  IND d   1      -1.965   2.825   2.358  0.00  0.00    -0.031 A 
ATOM      4  C4  IND d   1      -0.113   2.276   0.656  0.00  0.00     0.051 A 
ATOM      5  C5  IND d   1       0.626   1.236   0.166  0.00  0.00    -0.031 A 
ATOM      6  C6  IND d   1       0.418  -0.064   0.580  0.00  0.00     0.015 A 
ATOM      7  C7  IND d   1      -0.549  -0.375   1.494  0.00  0.00    -0.016 A 
ATOM      8  C8  IND d   1      -1.296   0.679   1.999  0.00  0.00    -0.047 A 
ATOM      9  C9  IND d   1      -1.061   2.006   1.615  0.00  0.00    -0.096 A 
ATOM     10  HN1 IND d   1      -2.636   0.008   3.331  0.00  0.00     0.298 HD
ENDROOT
TORSDOF 0
ENDMDL
