MODEL 1
REMARK minimizedAffinity 3.8257916
REMARK minimizedRMSD -1
REMARK  0 active torsions:
REMARK  status: ('A' for Active; 'I' for Inactive)
ROOT
ATOM      1  N1  IND d   1      -2.406   1.561   2.512  0.00  0.00    -0.196 N 
ATOM      2  C2  IND d   1      -2.353   2.872   2.131  0.00  0.00     0.054 A 
ATOM      3  C3  IND d   1      -1.215   3.116   1.442  0.00  0.00    -0.031 A 
ATOM      4  C4  IND d   1       0.650   1.489   0.737  0.00  0.00     0.051 A 
ATOM      5  C5  IND d   1       1.063   0.194   0.884  0.00  0.00    -0.031 A 
ATOM      6  C6  IND d   1       0.325  -0.730   1.594  0.00  0.00     0.015 A 
ATOM      7  C7  IND d   1      -0.866  -0.396   2.176  0.00  0.00    -0.016 A 
ATOM      8  C8  IND d   1      -1.284   0.919   2.034  0.00  0.00    -0.047 A 
ATOM      9  C9  IND d   1      -0.518   1.873   1.351  0.00  0.00    -0.096 A 
ATOM     10  HN1 IND d   1      -3.034   1.198   2.974  0.00  0.00     0.298 HD
ENDROOT
TORSDOF 0
ENDMDL
