MODEL 1
REMARK minimizedAffinity 3.456738
REMARK minimizedRMSD -1
REMARK  0 active torsions:
REMARK  status: ('A' for Active; 'I' for Inactive)
ROOT
ATOM      1  N1  IND d   1      -2.001   1.028   2.806  0.00  0.00    -0.196 N 
ATOM      2  C2  IND d   1      -2.115   2.368   2.560  0.00  0.00     0.054 A 
ATOM      3  C3  IND d   1      -1.206   2.756   1.638  0.00  0.00    -0.031 A 
ATOM      4  C4  IND d   1       0.498   1.342   0.324  0.00  0.00     0.051 A 
ATOM      5  C5  IND d   1       1.000   0.075   0.229  0.00  0.00    -0.031 A 
ATOM      6  C6  IND d   1       0.516  -0.961   1.002  0.00  0.00     0.015 A 
ATOM      7  C7  IND d   1      -0.500  -0.770   1.894  0.00  0.00    -0.016 A 
ATOM      8  C8  IND d   1      -1.008   0.517   1.998  0.00  0.00    -0.047 A 
ATOM      9  C9  IND d   1      -0.493   1.582   1.248  0.00  0.00    -0.096 A 
ATOM     10  HN1 IND d   1      -2.471   0.579   3.369  0.00  0.00     0.298 HD
ENDROOT
TORSDOF 0
ENDMDL
