MODEL 1
REMARK minimizedAffinity -4.412817
REMARK minimizedRMSD -1
REMARK  0 active torsions:
REMARK  status: ('A' for Active; 'I' for Inactive)
ROOT
ATOM      1  N1  IND d   1       1.720   1.861   0.335  0.00  0.00    -0.196 N 
ATOM      2  C2  IND d   1       2.424   0.753  -0.047  0.00  0.00     0.054 A 
ATOM      3  C3  IND d   1       1.763  -0.370   0.311  0.00  0.00    -0.031 A 
ATOM      4  C4  IND d   1      -0.536  -0.626   1.441  0.00  0.00     0.051 A 
ATOM      5  C5  IND d   1      -1.543   0.101   2.011  0.00  0.00    -0.031 A 
ATOM      6  C6  IND d   1      -1.514   1.480   2.051  0.00  0.00     0.015 A 
ATOM      7  C7  IND d   1      -0.478   2.187   1.508  0.00  0.00    -0.016 A 
ATOM      8  C8  IND d   1       0.549   1.452   0.934  0.00  0.00    -0.047 A 
ATOM      9  C9  IND d   1       0.546   0.051   0.929  0.00  0.00    -0.096 A 
ATOM     10  HN1 IND d   1       1.966   2.677   0.220  0.00  0.00     0.298 HD
ENDROOT
TORSDOF 0
ENDMDL
