MODEL 1
REMARK minimizedAffinity -0.109760366
REMARK minimizedRMSD -1
REMARK  0 active torsions:
REMARK  status: ('A' for Active; 'I' for Inactive)
ROOT
ATOM      1  N1  IND d   1      -2.887   2.185   2.921  0.00  0.00    -0.196 N 
ATOM      2  C2  IND d   1      -3.699   1.104   3.125  0.00  0.00     0.054 A 
ATOM      3  C3  IND d   1      -3.187   0.010   2.519  0.00  0.00    -0.031 A 
ATOM      4  C4  IND d   1      -0.978  -0.259   1.224  0.00  0.00     0.051 A 
ATOM      5  C5  IND d   1       0.082   0.456   0.743  0.00  0.00    -0.031 A 
ATOM      6  C6  IND d   1       0.211   1.811   0.970  0.00  0.00     0.015 A 
ATOM      7  C7  IND d   1      -0.714   2.502   1.700  0.00  0.00    -0.016 A 
ATOM      8  C8  IND d   1      -1.796   1.780   2.184  0.00  0.00    -0.047 A 
ATOM      9  C9  IND d   1      -1.954   0.414   1.920  0.00  0.00    -0.096 A 
ATOM     10  HN1 IND d   1      -3.034   2.983   3.204  0.00  0.00     0.298 HD
ENDROOT
TORSDOF 0
ENDMDL
