MODEL 1
REMARK minimizedAffinity 3.7980094
REMARK minimizedRMSD -1
REMARK  0 active torsions:
REMARK  status: ('A' for Active; 'I' for Inactive)
ROOT
ATOM      1  N1  IND d   1      -2.692   1.459   2.237  0.00  0.00    -0.196 N 
ATOM      2  C2  IND d   1      -2.669   2.793   1.938  0.00  0.00     0.054 A 
ATOM      3  C3  IND d   1      -1.526   3.110   1.289  0.00  0.00    -0.031 A 
ATOM      4  C4  IND d   1       0.398   1.582   0.523  0.00  0.00     0.051 A 
ATOM      5  C5  IND d   1       0.845   0.292   0.599  0.00  0.00    -0.031 A 
ATOM      6  C6  IND d   1       0.120  -0.694   1.235  0.00  0.00     0.015 A 
ATOM      7  C7  IND d   1      -1.090  -0.430   1.812  0.00  0.00    -0.016 A 
ATOM      8  C8  IND d   1      -1.543   0.880   1.743  0.00  0.00    -0.047 A 
ATOM      9  C9  IND d   1      -0.792   1.894   1.136  0.00  0.00    -0.096 A 
ATOM     10  HN1 IND d   1      -3.317   1.051   2.662  0.00  0.00     0.298 HD
ENDROOT
TORSDOF 0
ENDMDL
