MODEL 1
REMARK minimizedAffinity 2.25585246
REMARK minimizedRMSD -1
REMARK  0 active torsions:
REMARK  status: ('A' for Active; 'I' for Inactive)
ROOT
ATOM      1  N1  IND d   1      -2.379  -3.395  -3.338  0.00  0.00    -0.196 N 
ATOM      2  C2  IND d   1      -2.886  -2.127  -3.265  0.00  0.00     0.054 A 
ATOM      3  C3  IND d   1      -3.719  -2.015  -2.206  0.00  0.00    -0.031 A 
ATOM      4  C4  IND d   1      -4.315  -3.751  -0.402  0.00  0.00     0.051 A 
ATOM      5  C5  IND d   1      -4.127  -5.062  -0.065  0.00  0.00    -0.031 A 
ATOM      6  C6  IND d   1      -3.328  -5.901  -0.815  0.00  0.00     0.015 A 
ATOM      7  C7  IND d   1      -2.676  -5.454  -1.929  0.00  0.00    -0.016 A 
ATOM      8  C8  IND d   1      -2.870  -4.125  -2.278  0.00  0.00    -0.047 A 
ATOM      9  C9  IND d   1      -3.713  -3.281  -1.545  0.00  0.00    -0.096 A 
ATOM     10  HN1 IND d   1      -1.842  -3.686  -3.944  0.00  0.00     0.298 HD
ENDROOT
TORSDOF 0
ENDMDL
