MODEL 1
REMARK minimizedAffinity -0.25905174
REMARK minimizedRMSD -1
REMARK  0 active torsions:
REMARK  status: ('A' for Active; 'I' for Inactive)
ROOT
ATOM      1  N1  IND d   1      -2.770   0.704   2.669  0.00  0.00    -0.196 N 
ATOM      2  C2  IND d   1      -2.938  -0.653   2.663  0.00  0.00     0.054 A 
ATOM      3  C3  IND d   1      -1.931  -1.249   1.986  0.00  0.00    -0.031 A 
ATOM      4  C4  IND d   1       0.151  -0.199   0.895  0.00  0.00     0.051 A 
ATOM      5  C5  IND d   1       0.725   1.008   0.610  0.00  0.00    -0.031 A 
ATOM      6  C6  IND d   1       0.154   2.199   1.007  0.00  0.00     0.015 A 
ATOM      7  C7  IND d   1      -1.013   2.227   1.717  0.00  0.00    -0.016 A 
ATOM      8  C8  IND d   1      -1.602   1.004   2.002  0.00  0.00    -0.047 A 
ATOM      9  C9  IND d   1      -1.049  -0.206   1.565  0.00  0.00    -0.096 A 
ATOM     10  HN1 IND d   1      -3.303   1.274   3.030  0.00  0.00     0.298 HD
ENDROOT
TORSDOF 0
ENDMDL
