MODEL 1
REMARK minimizedAffinity -1.47908294
REMARK minimizedRMSD -1
REMARK  0 active torsions:
REMARK  status: ('A' for Active; 'I' for Inactive)
ROOT
ATOM      1  N1  IND d   1      -2.531   1.635   2.254  0.00  0.00    -0.196 N 
ATOM      2  C2  IND d   1      -2.339   2.971   2.036  0.00  0.00     0.054 A 
ATOM      3  C3  IND d   1      -1.081   3.200   1.596  0.00  0.00    -0.031 A 
ATOM      4  C4  IND d   1       0.797   1.520   1.067  0.00  0.00     0.051 A 
ATOM      5  C5  IND d   1       1.107   0.191   1.143  0.00  0.00    -0.031 A 
ATOM      6  C6  IND d   1       0.201  -0.744   1.601  0.00  0.00     0.015 A 
ATOM      7  C7  IND d   1      -1.059  -0.384   1.990  0.00  0.00    -0.016 A 
ATOM      8  C8  IND d   1      -1.374   0.966   1.920  0.00  0.00    -0.047 A 
ATOM      9  C9  IND d   1      -0.445   1.924   1.497  0.00  0.00    -0.096 A 
ATOM     10  HN1 IND d   1      -3.253   1.274   2.551  0.00  0.00     0.298 HD
ENDROOT
TORSDOF 0
ENDMDL
