MODEL 1
REMARK minimizedAffinity 1.08351028
REMARK minimizedRMSD -1
REMARK  1 active torsions:
REMARK  status: ('A' for Active; 'I' for Inactive)
REMARK    1  A    between atoms: C3_4  and  O_7 
ROOT
ATOM      1  C   UNL d   1       3.030  -0.494   4.162  0.00  0.00    -0.033 A 
ATOM      2  C1  UNL d   1       4.210  -0.731   3.454  0.00  0.00     0.039 A 
ATOM      3  C2  UNL d   1       5.221  -1.511   4.019  0.00  0.00    -0.080 A 
ATOM      4  C3  UNL d   1       5.040  -2.048   5.290  0.00  0.00     0.150 A 
ATOM      5  C4  UNL d   1       3.865  -1.820   6.000  0.00  0.00    -0.007 A 
ATOM      6  C5  UNL d   1       2.857  -1.040   5.435  0.00  0.00     0.039 A 
ENDROOT
BRANCH   4   7
ATOM      7  O   UNL d   1       6.000  -2.812   5.885  0.00  0.00    -0.526 OA
ATOM      8  H5  UNL d   1       6.766  -2.860   5.290  0.00  0.00     0.418 HD
ENDBRANCH   4   7
TORSDOF 1
ENDMDL
