MODEL 1
REMARK minimizedAffinity 1.15963101
REMARK minimizedRMSD -1
REMARK  1 active torsions:
REMARK  status: ('A' for Active; 'I' for Inactive)
REMARK    1  A    between atoms: C3_4  and  O_7 
ROOT
ATOM      1  C   UNL d   1       3.009  -1.716   0.961  0.00  0.00    -0.033 A 
ATOM      2  C1  UNL d   1       1.750  -1.119   1.050  0.00  0.00     0.039 A 
ATOM      3  C2  UNL d   1       1.233  -0.758   2.296  0.00  0.00    -0.080 A 
ATOM      4  C3  UNL d   1       1.984  -1.000   3.443  0.00  0.00     0.150 A 
ATOM      5  C4  UNL d   1       3.241  -1.591   3.361  0.00  0.00    -0.007 A 
ATOM      6  C5  UNL d   1       3.755  -1.951   2.116  0.00  0.00     0.039 A 
ENDROOT
BRANCH   4   7
ATOM      7  O   UNL d   1       1.520  -0.670   4.682  0.00  0.00    -0.526 OA
ATOM      8  H5  UNL d   1       0.628  -0.296   4.586  0.00  0.00     0.418 HD
ENDBRANCH   4   7
TORSDOF 1
ENDMDL
