MODEL 1
REMARK minimizedAffinity 2.86558771
REMARK minimizedRMSD -1
REMARK  1 active torsions:
REMARK  status: ('A' for Active; 'I' for Inactive)
REMARK    1  A    between atoms: C3_4  and  O_7 
ROOT
ATOM      1  C   UNL d   1       2.808  -5.978  -2.468  0.00  0.00    -0.033 A 
ATOM      2  C1  UNL d   1       4.169  -5.969  -2.157  0.00  0.00     0.039 A 
ATOM      3  C2  UNL d   1       5.120  -5.975  -3.179  0.00  0.00    -0.080 A 
ATOM      4  C3  UNL d   1       4.697  -5.988  -4.506  0.00  0.00     0.150 A 
ATOM      5  C4  UNL d   1       3.343  -5.992  -4.822  0.00  0.00    -0.007 A 
ATOM      6  C5  UNL d   1       2.394  -5.987  -3.800  0.00  0.00     0.039 A 
ENDROOT
BRANCH   4   7
ATOM      7  O   UNL d   1       5.588  -5.999  -5.538  0.00  0.00    -0.526 OA
ATOM      8  H5  UNL d   1       6.487  -6.023  -5.168  0.00  0.00     0.418 HD
ENDBRANCH   4   7
TORSDOF 1
ENDMDL
