MODEL 1
REMARK minimizedAffinity -0.378598779
REMARK minimizedRMSD -1
REMARK  1 active torsions:
REMARK  status: ('A' for Active; 'I' for Inactive)
REMARK    1  A    between atoms: C3_4  and  O_7 
ROOT
ATOM      1  C   UNL d   1       2.170  -3.526   4.755  0.00  0.00    -0.033 A 
ATOM      2  C1  UNL d   1       2.122  -3.835   3.394  0.00  0.00     0.039 A 
ATOM      3  C2  UNL d   1       2.352  -2.840   2.442  0.00  0.00    -0.080 A 
ATOM      4  C3  UNL d   1       2.629  -1.542   2.863  0.00  0.00     0.150 A 
ATOM      5  C4  UNL d   1       2.683  -1.228   4.217  0.00  0.00    -0.007 A 
ATOM      6  C5  UNL d   1       2.452  -2.223   5.166  0.00  0.00     0.039 A 
ENDROOT
BRANCH   4   7
ATOM      7  O   UNL d   1       2.856  -0.537   1.970  0.00  0.00    -0.526 OA
ATOM      8  H5  UNL d   1       2.758  -0.895   1.072  0.00  0.00     0.418 HD
ENDBRANCH   4   7
TORSDOF 1
ENDMDL
