MODEL 1
REMARK minimizedAffinity 6.51194143
REMARK minimizedRMSD -1
REMARK  1 active torsions:
REMARK  status: ('A' for Active; 'I' for Inactive)
REMARK    1  A    between atoms: C3_4  and  O_7 
ROOT
ATOM      1  C   UNL d   1      -4.094   3.473   0.017  0.00  0.00    -0.033 A 
ATOM      2  C1  UNL d   1      -5.466   3.590   0.249  0.00  0.00     0.039 A 
ATOM      3  C2  UNL d   1      -5.999   3.238   1.491  0.00  0.00    -0.080 A 
ATOM      4  C3  UNL d   1      -5.150   2.771   2.491  0.00  0.00     0.150 A 
ATOM      5  C4  UNL d   1      -3.782   2.655   2.268  0.00  0.00    -0.007 A 
ATOM      6  C5  UNL d   1      -3.252   3.007   1.027  0.00  0.00     0.039 A 
ENDROOT
BRANCH   4   7
ATOM      7  O   UNL d   1      -5.625   2.411   3.717  0.00  0.00    -0.526 OA
ATOM      8  H5  UNL d   1      -6.591   2.516   3.716  0.00  0.00     0.418 HD
ENDBRANCH   4   7
TORSDOF 1
ENDMDL
