MODEL 1
REMARK minimizedAffinity 6.16013956
REMARK minimizedRMSD -1
REMARK  1 active torsions:
REMARK  status: ('A' for Active; 'I' for Inactive)
REMARK    1  A    between atoms: C3_4  and  O_7 
ROOT
ATOM      1  C   UNL d   1      -3.931   3.737   0.549  0.00  0.00    -0.033 A 
ATOM      2  C1  UNL d   1      -5.308   3.947   0.649  0.00  0.00     0.039 A 
ATOM      3  C2  UNL d   1      -5.997   3.538   1.792  0.00  0.00    -0.080 A 
ATOM      4  C3  UNL d   1      -5.299   2.922   2.827  0.00  0.00     0.150 A 
ATOM      5  C4  UNL d   1      -3.927   2.713   2.737  0.00  0.00    -0.007 A 
ATOM      6  C5  UNL d   1      -3.240   3.122   1.594  0.00  0.00     0.039 A 
ENDROOT
BRANCH   4   7
ATOM      7  O   UNL d   1      -5.930   2.501   3.960  0.00  0.00    -0.526 OA
ATOM      8  H5  UNL d   1      -6.880   2.685   3.870  0.00  0.00     0.418 HD
ENDBRANCH   4   7
TORSDOF 1
ENDMDL
