MODEL 1
REMARK minimizedAffinity 3.51977253
REMARK minimizedRMSD -1
REMARK  1 active torsions:
REMARK  status: ('A' for Active; 'I' for Inactive)
REMARK    1  A    between atoms: C3_4  and  O_7 
ROOT
ATOM      1  C   UNL d   1      -4.131   3.539   0.740  0.00  0.00    -0.033 A 
ATOM      2  C1  UNL d   1      -3.250   3.293   1.796  0.00  0.00     0.039 A 
ATOM      3  C2  UNL d   1      -3.743   2.897   3.040  0.00  0.00    -0.080 A 
ATOM      4  C3  UNL d   1      -5.116   2.749   3.216  0.00  0.00     0.150 A 
ATOM      5  C4  UNL d   1      -5.999   2.988   2.168  0.00  0.00    -0.007 A 
ATOM      6  C5  UNL d   1      -5.505   3.384   0.926  0.00  0.00     0.039 A 
ENDROOT
BRANCH   4   7
ATOM      7  O   UNL d   1      -5.645   2.369   4.414  0.00  0.00    -0.526 OA
ATOM      8  H5  UNL d   1      -4.919   2.267   5.052  0.00  0.00     0.418 HD
ENDBRANCH   4   7
TORSDOF 1
ENDMDL
