MODEL 1
REMARK minimizedAffinity 15.451786
REMARK minimizedRMSD -1
REMARK  2 active torsions:
REMARK  status: ('A' for Active; 'I' for Inactive)
REMARK    1  A    between atoms: C2'_3  and  C1'_4 
REMARK    2  A    between atoms: C1'_4  and  C1_5 
ROOT
ATOM      1  C1  I4B d   1       4.098  -1.150   3.231  0.00  0.00    -0.075 A 
ATOM      2  C2  I4B d   1       2.891  -0.674   2.782  0.00  0.00     0.003 A 
ATOM      3  C3  I4B d   1       2.759  -0.206   1.452  0.00  0.00     0.002 A 
ATOM      4  C4  I4B d   1       3.865  -0.186   0.627  0.00  0.00    -0.004 A 
ATOM      5  C5  I4B d   1       5.082  -0.689   1.076  0.00  0.00     0.002 A 
ATOM      6  C6  I4B d   1       5.197  -1.186   2.383  0.00  0.00     0.003 A 
ENDROOT
BRANCH   1   7
ATOM      7  C1' I4B d   1       4.210  -1.605   4.652  0.00  0.00     0.060 C 
BRANCH   7   8
ATOM      8  C2' I4B d   1       5.678  -1.610   5.026  0.00  0.00    -0.013 C 
ATOM      9  C4' I4B d   1       6.000  -0.497   5.988  0.00  0.00     0.013 C 
ATOM     10  C3' I4B d   1       6.000  -2.949   5.620  0.00  0.00     0.013 C 
ENDBRANCH   7   8
ENDBRANCH   1   7
TORSDOF 2
ENDMDL
