MODEL 1
REMARK minimizedAffinity 11.9001236
REMARK minimizedRMSD -1
REMARK  2 active torsions:
REMARK  status: ('A' for Active; 'I' for Inactive)
REMARK    1  A    between atoms: C2'_3  and  C1'_4 
REMARK    2  A    between atoms: C1'_4  and  C1_5 
ROOT
ATOM      1  C1  I4B d   1       3.051   2.026  -0.333  0.00  0.00    -0.075 A 
ATOM      2  C2  I4B d   1       2.003   2.664   0.282  0.00  0.00     0.003 A 
ATOM      3  C3  I4B d   1       1.336   2.052   1.370  0.00  0.00     0.002 A 
ATOM      4  C4  I4B d   1       1.713   0.788   1.775  0.00  0.00    -0.004 A 
ATOM      5  C5  I4B d   1       2.790   0.151   1.164  0.00  0.00     0.002 A 
ATOM      6  C6  I4B d   1       3.471   0.779   0.111  0.00  0.00     0.003 A 
ENDROOT
BRANCH   1   7
ATOM      7  C1' I4B d   1       3.712   2.687  -1.501  0.00  0.00     0.060 C 
BRANCH   7   8
ATOM      8  C2' I4B d   1       4.395   1.612  -2.322  0.00  0.00    -0.013 C 
ATOM      9  C4' I4B d   1       3.960   1.668  -3.762  0.00  0.00     0.013 C 
ATOM     10  C3' I4B d   1       5.877   1.803  -2.195  0.00  0.00     0.013 C 
ENDBRANCH   7   8
ENDBRANCH   1   7
TORSDOF 2
ENDMDL
