MODEL 1
REMARK minimizedAffinity 14.3846712
REMARK minimizedRMSD -1
REMARK  2 active torsions:
REMARK  status: ('A' for Active; 'I' for Inactive)
REMARK    1  A    between atoms: C2'_3  and  C1'_4 
REMARK    2  A    between atoms: C1'_4  and  C1_5 
ROOT
ATOM      1  C1  I4B d   1       4.552   5.397   3.592  0.00  0.00    -0.075 A 
ATOM      2  C2  I4B d   1       5.451   4.359   3.592  0.00  0.00     0.003 A 
ATOM      3  C3  I4B d   1       5.974   3.869   4.812  0.00  0.00     0.002 A 
ATOM      4  C4  I4B d   1       5.612   4.474   5.999  0.00  0.00    -0.004 A 
ATOM      5  C5  I4B d   1       4.684   5.511   5.999  0.00  0.00     0.002 A 
ATOM      6  C6  I4B d   1       4.141   5.968   4.790  0.00  0.00     0.003 A 
ENDROOT
BRANCH   1   7
ATOM      7  C1' I4B d   1       4.045   5.913   2.283  0.00  0.00     0.060 C 
BRANCH   7   8
ATOM      8  C2' I4B d   1       4.720   5.125   1.178  0.00  0.00    -0.013 C 
ATOM      9  C4' I4B d   1       4.028   3.807   0.947  0.00  0.00     0.013 C 
ATOM     10  C3' I4B d   1       4.711   5.967  -0.063  0.00  0.00     0.013 C 
ENDBRANCH   7   8
ENDBRANCH   1   7
TORSDOF 2
ENDMDL
