MODEL 1
REMARK minimizedAffinity -2.39322853
REMARK minimizedRMSD -1
REMARK  2 active torsions:
REMARK  status: ('A' for Active; 'I' for Inactive)
REMARK    1  A    between atoms: C2'_3  and  C1'_4 
REMARK    2  A    between atoms: C1'_4  and  C1_5 
ROOT
ATOM      1  C1  I4B d   1       4.191   3.950  -4.889  0.00  0.00    -0.075 A 
ATOM      2  C2  I4B d   1       4.545   5.120  -5.514  0.00  0.00     0.003 A 
ATOM      3  C3  I4B d   1       3.547   6.000  -5.998  0.00  0.00     0.002 A 
ATOM      4  C4  I4B d   1       2.218   5.649  -5.882  0.00  0.00    -0.004 A 
ATOM      5  C5  I4B d   1       1.860   4.474  -5.228  0.00  0.00     0.002 A 
ATOM      6  C6  I4B d   1       2.852   3.625  -4.717  0.00  0.00     0.003 A 
ENDROOT
BRANCH   1   7
ATOM      7  C1' I4B d   1       5.271   3.029  -4.418  0.00  0.00     0.060 C 
BRANCH   7   8
ATOM      8  C2' I4B d   1       5.194   2.952  -2.907  0.00  0.00    -0.013 C 
ATOM      9  C4' I4B d   1       4.868   4.295  -2.309  0.00  0.00     0.013 C 
ATOM     10  C3' I4B d   1       4.155   1.932  -2.547  0.00  0.00     0.013 C 
ENDBRANCH   7   8
ENDBRANCH   1   7
TORSDOF 2
ENDMDL
