MODEL 1
REMARK minimizedAffinity 6.87637758
REMARK minimizedRMSD -1
REMARK  2 active torsions:
REMARK  status: ('A' for Active; 'I' for Inactive)
REMARK    1  A    between atoms: C2'_3  and  C1'_4 
REMARK    2  A    between atoms: C1'_4  and  C1_5 
ROOT
ATOM      1  C1  I4B d   1       3.022   3.572  -4.460  0.00  0.00    -0.075 A 
ATOM      2  C2  I4B d   1       3.627   4.231  -5.501  0.00  0.00     0.003 A 
ATOM      3  C3  I4B d   1       3.077   5.438  -5.998  0.00  0.00     0.002 A 
ATOM      4  C4  I4B d   1       1.900   5.919  -5.462  0.00  0.00    -0.004 A 
ATOM      5  C5  I4B d   1       1.300   5.262  -4.391  0.00  0.00     0.002 A 
ATOM      6  C6  I4B d   1       1.870   4.088  -3.879  0.00  0.00     0.003 A 
ENDROOT
BRANCH   1   7
ATOM      7  C1' I4B d   1       3.612   2.284  -3.982  0.00  0.00     0.060 C 
BRANCH   7   8
ATOM      8  C2' I4B d   1       4.966   2.587  -3.375  0.00  0.00    -0.013 C 
ATOM      9  C4' I4B d   1       5.985   2.893  -4.442  0.00  0.00     0.013 C 
ATOM     10  C3' I4B d   1       4.804   3.743  -2.434  0.00  0.00     0.013 C 
ENDBRANCH   7   8
ENDBRANCH   1   7
TORSDOF 2
ENDMDL
