MODEL 1
REMARK minimizedAffinity 15.7521486
REMARK minimizedRMSD -1
REMARK  2 active torsions:
REMARK  status: ('A' for Active; 'I' for Inactive)
REMARK    1  A    between atoms: C2'_3  and  C1'_4 
REMARK    2  A    between atoms: C1'_4  and  C1_5 
ROOT
ATOM      1  C1  I4B d   1      -1.492  -3.020   1.491  0.00  0.00    -0.075 A 
ATOM      2  C2  I4B d   1      -0.929  -2.108   0.633  0.00  0.00     0.003 A 
ATOM      3  C3  I4B d   1      -0.258  -0.970   1.143  0.00  0.00     0.002 A 
ATOM      4  C4  I4B d   1      -0.219  -0.758   2.506  0.00  0.00    -0.004 A 
ATOM      5  C5  I4B d   1      -0.770  -1.695   3.375  0.00  0.00     0.002 A 
ATOM      6  C6  I4B d   1      -1.400  -2.840   2.865  0.00  0.00     0.003 A 
ENDROOT
BRANCH   1   7
ATOM      7  C1' I4B d   1      -2.221  -4.194   0.918  0.00  0.00     0.060 C 
BRANCH   7   8
ATOM      8  C2' I4B d   1      -2.528  -5.151   2.052  0.00  0.00    -0.013 C 
ATOM      9  C4' I4B d   1      -3.732  -6.000   1.738  0.00  0.00     0.013 C 
ATOM     10  C3' I4B d   1      -1.313  -5.999   2.284  0.00  0.00     0.013 C 
ENDBRANCH   7   8
ENDBRANCH   1   7
TORSDOF 2
ENDMDL
