MODEL 1
REMARK minimizedAffinity 0.358175367
REMARK minimizedRMSD -1
REMARK  2 active torsions:
REMARK  status: ('A' for Active; 'I' for Inactive)
REMARK    1  A    between atoms: C2'_3  and  C1'_4 
REMARK    2  A    between atoms: C1'_4  and  C1_5 
ROOT
ATOM      1  C1  I4B d   1       3.406   3.781  -4.337  0.00  0.00    -0.075 A 
ATOM      2  C2  I4B d   1       4.299   4.822  -4.370  0.00  0.00     0.003 A 
ATOM      3  C3  I4B d   1       4.034   5.963  -5.165  0.00  0.00     0.002 A 
ATOM      4  C4  I4B d   1       2.897   5.999  -5.946  0.00  0.00    -0.004 A 
ATOM      5  C5  I4B d   1       1.981   4.952  -5.894  0.00  0.00     0.002 A 
ATOM      6  C6  I4B d   1       2.231   3.841  -5.075  0.00  0.00     0.003 A 
ENDROOT
BRANCH   1   7
ATOM      7  C1' I4B d   1       3.733   2.577  -3.511  0.00  0.00     0.060 C 
BRANCH   7   8
ATOM      8  C2' I4B d   1       5.185   2.679  -3.092  0.00  0.00    -0.013 C 
ATOM      9  C4' I4B d   1       5.356   2.346  -1.633  0.00  0.00     0.013 C 
ATOM     10  C3' I4B d   1       5.983   1.749  -3.957  0.00  0.00     0.013 C 
ENDBRANCH   7   8
ENDBRANCH   1   7
TORSDOF 2
ENDMDL
