MODEL 1
REMARK minimizedAffinity 15.004921
REMARK minimizedRMSD -1
REMARK  1 active torsions:
REMARK  status: ('A' for Active; 'I' for Inactive)
REMARK    1  A    between atoms: C1_2  and  C2_3 
ROOT
ATOM      1  C2  UNL d   1      -0.833   1.971   0.591  0.00  0.00    -0.073 A 
ATOM      2  C3  UNL d   1      -1.941   1.154   0.340  0.00  0.00    -0.002 A 
ATOM      3  C4  UNL d   1      -1.983  -0.149   0.839  0.00  0.00     0.004 A 
ATOM      4  C5  UNL d   1      -0.924  -0.645   1.599  0.00  0.00    -0.004 A 
ATOM      5  C6  UNL d   1       0.186   0.161   1.871  0.00  0.00    -0.075 A 
ATOM      6  C7  UNL d   1       1.335  -0.358   2.685  0.00  0.00     0.076 C 
ATOM      7  C8  UNL d   1       0.223   1.467   1.364  0.00  0.00     0.001 A 
ENDROOT
BRANCH   1   8
ATOM      8  C1  UNL d   1      -0.785   3.380   0.060  0.00  0.00     0.053 C 
ATOM      9  C   UNL d   1       0.391   3.595  -0.880  0.00  0.00     0.018 C 
ENDBRANCH   1   8
TORSDOF 1
ENDMDL
