MODEL 1
REMARK minimizedAffinity 9.36036968
REMARK minimizedRMSD -1
REMARK  1 active torsions:
REMARK  status: ('A' for Active; 'I' for Inactive)
REMARK    1  A    between atoms: C1_2  and  C2_3 
ROOT
ATOM      1  C2  UNL d   1      -1.572  -1.183   0.240  0.00  0.00    -0.073 A 
ATOM      2  C3  UNL d   1      -0.885  -2.400   0.163  0.00  0.00    -0.002 A 
ATOM      3  C4  UNL d   1      -1.554  -3.564  -0.217  0.00  0.00     0.004 A 
ATOM      4  C5  UNL d   1      -2.912  -3.522  -0.532  0.00  0.00    -0.004 A 
ATOM      5  C6  UNL d   1      -3.613  -2.313  -0.473  0.00  0.00    -0.075 A 
ATOM      6  C7  UNL d   1      -5.075  -2.252  -0.807  0.00  0.00     0.076 C 
ATOM      7  C8  UNL d   1      -2.935  -1.149  -0.087  0.00  0.00     0.001 A 
ENDROOT
BRANCH   1   8
ATOM      8  C1  UNL d   1      -0.852   0.078   0.644  0.00  0.00     0.053 C 
ATOM      9  C   UNL d   1       0.404  -0.216   1.449  0.00  0.00     0.018 C 
ENDBRANCH   1   8
TORSDOF 1
ENDMDL
