MODEL 1
REMARK minimizedAffinity 5.70166588
REMARK minimizedRMSD -1
REMARK  1 active torsions:
REMARK  status: ('A' for Active; 'I' for Inactive)
REMARK    1  A    between atoms: C1_2  and  C2_3 
ROOT
ATOM      1  C2  UNL d   1      -2.316  -2.585  -0.318  0.00  0.00    -0.073 A 
ATOM      2  C3  UNL d   1      -3.113  -3.651   0.116  0.00  0.00    -0.002 A 
ATOM      3  C4  UNL d   1      -2.771  -4.964  -0.210  0.00  0.00     0.004 A 
ATOM      4  C5  UNL d   1      -1.628  -5.225  -0.965  0.00  0.00    -0.004 A 
ATOM      5  C6  UNL d   1      -0.812  -4.174  -1.397  0.00  0.00    -0.075 A 
ATOM      6  C7  UNL d   1       0.420  -4.439  -2.212  0.00  0.00     0.076 C 
ATOM      7  C8  UNL d   1      -1.164  -2.858  -1.069  0.00  0.00     0.001 A 
ENDROOT
BRANCH   1   8
ATOM      8  C1  UNL d   1      -2.678  -1.165   0.036  0.00  0.00     0.053 C 
ATOM      9  C   UNL d   1      -2.744  -0.271  -1.191  0.00  0.00     0.018 C 
ENDBRANCH   1   8
TORSDOF 1
ENDMDL
