MODEL 1
REMARK minimizedAffinity -1.57941949
REMARK minimizedRMSD -1
REMARK  1 active torsions:
REMARK  status: ('A' for Active; 'I' for Inactive)
REMARK    1  A    between atoms: C1_2  and  C2_3 
ROOT
ATOM      1  C2  UNL d   1       0.361  -1.892   1.818  0.00  0.00    -0.073 A 
ATOM      2  C3  UNL d   1       0.228  -0.521   1.567  0.00  0.00    -0.002 A 
ATOM      3  C4  UNL d   1      -0.761  -0.056   0.700  0.00  0.00     0.004 A 
ATOM      4  C5  UNL d   1      -1.631  -0.954   0.081  0.00  0.00    -0.004 A 
ATOM      5  C6  UNL d   1      -1.521  -2.326   0.328  0.00  0.00    -0.075 A 
ATOM      6  C7  UNL d   1      -2.447  -3.306  -0.332  0.00  0.00     0.076 C 
ATOM      7  C8  UNL d   1      -0.523  -2.786   1.198  0.00  0.00     0.001 A 
ENDROOT
BRANCH   1   8
ATOM      8  C1  UNL d   1       1.424  -2.398   2.759  0.00  0.00     0.053 C 
ATOM      9  C   UNL d   1       1.063  -2.148   4.214  0.00  0.00     0.018 C 
ENDBRANCH   1   8
TORSDOF 1
ENDMDL
