MODEL 1
REMARK minimizedAffinity 4.25203848
REMARK minimizedRMSD -1
REMARK  1 active torsions:
REMARK  status: ('A' for Active; 'I' for Inactive)
REMARK    1  A    between atoms: C1_2  and  C2_3 
ROOT
ATOM      1  C2  UNL d   1       2.027  -3.301   3.202  0.00  0.00    -0.073 A 
ATOM      2  C3  UNL d   1       1.669  -3.019   4.525  0.00  0.00    -0.002 A 
ATOM      3  C4  UNL d   1       1.032  -1.819   4.843  0.00  0.00     0.004 A 
ATOM      4  C5  UNL d   1       0.739  -0.893   3.842  0.00  0.00    -0.004 A 
ATOM      5  C6  UNL d   1       1.078  -1.162   2.512  0.00  0.00    -0.075 A 
ATOM      6  C7  UNL d   1       0.772  -0.175   1.424  0.00  0.00     0.076 C 
ATOM      7  C8  UNL d   1       1.720  -2.368   2.201  0.00  0.00     0.001 A 
ENDROOT
BRANCH   1   8
ATOM      8  C1  UNL d   1       2.709  -4.598   2.853  0.00  0.00     0.053 C 
ATOM      9  C   UNL d   1       1.750  -5.777   2.899  0.00  0.00     0.018 C 
ENDBRANCH   1   8
TORSDOF 1
ENDMDL
