MODEL 1
REMARK minimizedAffinity 4.66501713
REMARK minimizedRMSD -1
REMARK  1 active torsions:
REMARK  status: ('A' for Active; 'I' for Inactive)
REMARK    1  A    between atoms: C1_2  and  C2_3 
ROOT
ATOM      1  C2  UNL d   1       2.250  -2.938   2.571  0.00  0.00    -0.073 A 
ATOM      2  C3  UNL d   1       1.850  -1.893   1.731  0.00  0.00    -0.002 A 
ATOM      3  C4  UNL d   1       1.350  -0.707   2.271  0.00  0.00     0.004 A 
ATOM      4  C5  UNL d   1       1.251  -0.552   3.653  0.00  0.00    -0.004 A 
ATOM      5  C6  UNL d   1       1.656  -1.581   4.509  0.00  0.00    -0.075 A 
ATOM      6  C7  UNL d   1       1.554  -1.431   5.999  0.00  0.00     0.076 C 
ATOM      7  C8  UNL d   1       2.155  -2.770   3.960  0.00  0.00     0.001 A 
ENDROOT
BRANCH   1   8
ATOM      8  C1  UNL d   1       2.797  -4.218   1.993  0.00  0.00     0.053 C 
ATOM      9  C   UNL d   1       2.149  -5.446   2.612  0.00  0.00     0.018 C 
ENDBRANCH   1   8
TORSDOF 1
ENDMDL
