MODEL 1
REMARK minimizedAffinity 2.56101823
REMARK minimizedRMSD -1
REMARK  1 active torsions:
REMARK  status: ('A' for Active; 'I' for Inactive)
REMARK    1  A    between atoms: N_2  and  C1_3 
ROOT
ATOM      1  C1  UNL d   1       0.450  -2.388   0.152  0.00  0.00     0.143 A 
ATOM      2  C2  UNL d   1      -0.744  -2.004   0.772  0.00  0.00    -0.057 A 
ATOM      3  C3  UNL d   1      -0.880  -0.745   1.369  0.00  0.00     0.033 A 
ATOM      4  C4  UNL d   1       0.190   0.144   1.383  0.00  0.00    -0.042 A 
ATOM      5  C5  UNL d   1       1.394  -0.226   0.795  0.00  0.00     0.033 A 
ATOM      6  C6  UNL d   1       1.522  -1.482   0.194  0.00  0.00    -0.057 A 
ENDROOT
BRANCH   1   7
ATOM      7  N   UNL d   1       0.679  -3.663  -0.372  0.00  0.00    -0.732 N 
ATOM      8  C   UNL d   1       2.013  -4.072  -0.757  0.00  0.00     0.284 C 
ATOM      9  H3  UNL d   1       0.146  -4.383   0.110  0.00  0.00     0.395 HD
ENDBRANCH   1   7
TORSDOF 1
ENDMDL
