MODEL 1
REMARK minimizedAffinity -2.36931849
REMARK minimizedRMSD -1
REMARK  1 active torsions:
REMARK  status: ('A' for Active; 'I' for Inactive)
REMARK    1  A    between atoms: N_2  and  C1_3 
ROOT
ATOM      1  C1  UNL d   1       0.197  -1.757   0.609  0.00  0.00     0.143 A 
ATOM      2  C2  UNL d   1       1.201  -0.796   0.767  0.00  0.00    -0.057 A 
ATOM      3  C3  UNL d   1       2.523  -1.059   0.389  0.00  0.00     0.033 A 
ATOM      4  C4  UNL d   1       2.871  -2.302  -0.129  0.00  0.00    -0.042 A 
ATOM      5  C5  UNL d   1       1.894  -3.281  -0.272  0.00  0.00     0.033 A 
ATOM      6  C6  UNL d   1       0.574  -3.010   0.101  0.00  0.00    -0.057 A 
ENDROOT
BRANCH   1   7
ATOM      7  N   UNL d   1      -1.116  -1.591   1.057  0.00  0.00    -0.732 N 
ATOM      8  C   UNL d   1      -1.605  -0.284   1.440  0.00  0.00     0.284 C 
ATOM      9  H3  UNL d   1      -1.782  -2.143   0.521  0.00  0.00     0.395 HD
ENDBRANCH   1   7
TORSDOF 1
ENDMDL
