MODEL 1
REMARK minimizedAffinity -2.7159791
REMARK minimizedRMSD -1
REMARK  1 active torsions:
REMARK  status: ('A' for Active; 'I' for Inactive)
REMARK    1  A    between atoms: N_2  and  C1_3 
ROOT
ATOM      1  C1  UNL d   1      -5.252  -3.592   4.789  0.00  0.00     0.143 A 
ATOM      2  C2  UNL d   1      -5.044  -3.028   3.526  0.00  0.00    -0.057 A 
ATOM      3  C3  UNL d   1      -4.893  -3.830   2.388  0.00  0.00     0.033 A 
ATOM      4  C4  UNL d   1      -4.918  -5.216   2.499  0.00  0.00    -0.042 A 
ATOM      5  C5  UNL d   1      -5.099  -5.799   3.748  0.00  0.00     0.033 A 
ATOM      6  C6  UNL d   1      -5.255  -4.993   4.879  0.00  0.00    -0.057 A 
ENDROOT
BRANCH   1   7
ATOM      7  N   UNL d   1      -5.310  -2.851   5.972  0.00  0.00    -0.732 N 
ATOM      8  C   UNL d   1      -4.873  -1.472   6.000  0.00  0.00     0.284 C 
ATOM      9  H3  UNL d   1      -6.162  -3.028   6.499  0.00  0.00     0.395 HD
ENDBRANCH   1   7
TORSDOF 1
ENDMDL
