MODEL 1
REMARK minimizedAffinity 0.532818913
REMARK minimizedRMSD -1
REMARK  1 active torsions:
REMARK  status: ('A' for Active; 'I' for Inactive)
REMARK    1  A    between atoms: N_2  and  C1_3 
ROOT
ATOM      1  C1  UNL d   1       0.648  -1.701   0.002  0.00  0.00     0.143 A 
ATOM      2  C2  UNL d   1      -0.690  -1.348   0.208  0.00  0.00    -0.057 A 
ATOM      3  C3  UNL d   1      -1.056  -0.443   1.212  0.00  0.00     0.033 A 
ATOM      4  C4  UNL d   1      -0.089   0.104   2.049  0.00  0.00    -0.042 A 
ATOM      5  C5  UNL d   1       1.244  -0.251   1.878  0.00  0.00     0.033 A 
ATOM      6  C6  UNL d   1       1.604  -1.150   0.870  0.00  0.00    -0.057 A 
ENDROOT
BRANCH   1   7
ATOM      7  N   UNL d   1       1.065  -2.670  -0.914  0.00  0.00    -0.732 N 
ATOM      8  C   UNL d   1       0.645  -4.048  -0.772  0.00  0.00     0.284 C 
ATOM      9  H3  UNL d   1       1.053  -2.328  -1.873  0.00  0.00     0.395 HD
ENDBRANCH   1   7
TORSDOF 1
ENDMDL
