MODEL 1
REMARK minimizedAffinity 5.71538353
REMARK minimizedRMSD -1
REMARK  1 active torsions:
REMARK  status: ('A' for Active; 'I' for Inactive)
REMARK    1  A    between atoms: N_2  and  C1_3 
ROOT
ATOM      1  C1  UNL d   1       0.538  -0.736   1.169  0.00  0.00     0.143 A 
ATOM      2  C2  UNL d   1       0.555  -0.806   2.566  0.00  0.00    -0.057 A 
ATOM      3  C3  UNL d   1       1.719  -0.532   3.293  0.00  0.00     0.033 A 
ATOM      4  C4  UNL d   1       2.900  -0.209   2.632  0.00  0.00    -0.042 A 
ATOM      5  C5  UNL d   1       2.913  -0.158   1.242  0.00  0.00     0.033 A 
ATOM      6  C6  UNL d   1       1.745  -0.427   0.522  0.00  0.00    -0.057 A 
ENDROOT
BRANCH   1   7
ATOM      7  N   UNL d   1      -0.562  -1.094   0.385  0.00  0.00    -0.732 N 
ATOM      8  C   UNL d   1      -0.418  -1.286  -1.042  0.00  0.00     0.284 C 
ATOM      9  H3  UNL d   1      -1.155  -1.784   0.840  0.00  0.00     0.395 HD
ENDBRANCH   1   7
TORSDOF 1
ENDMDL
