MODEL 1
REMARK minimizedAffinity 2.55637288
REMARK minimizedRMSD -1
REMARK  1 active torsions:
REMARK  status: ('A' for Active; 'I' for Inactive)
REMARK    1  A    between atoms: N_2  and  C1_3 
ROOT
ATOM      1  C1  UNL d   1       0.935  -0.330   1.571  0.00  0.00     0.143 A 
ATOM      2  C2  UNL d   1       1.078  -1.553   0.908  0.00  0.00    -0.057 A 
ATOM      3  C3  UNL d   1      -0.015  -2.177   0.293  0.00  0.00     0.033 A 
ATOM      4  C4  UNL d   1      -1.279  -1.600   0.355  0.00  0.00    -0.042 A 
ATOM      5  C5  UNL d   1      -1.449  -0.397   1.030  0.00  0.00     0.033 A 
ATOM      6  C6  UNL d   1      -0.353   0.225   1.637  0.00  0.00    -0.057 A 
ENDROOT
BRANCH   1   7
ATOM      7  N   UNL d   1       1.962   0.291   2.286  0.00  0.00    -0.732 N 
ATOM      8  C   UNL d   1       3.201   0.653   1.633  0.00  0.00     0.284 C 
ATOM      9  H3  UNL d   1       1.614   0.994   2.935  0.00  0.00     0.395 HD
ENDBRANCH   1   7
TORSDOF 1
ENDMDL
