MODEL 1
REMARK minimizedAffinity 1.54452157
REMARK minimizedRMSD -1
REMARK  1 active torsions:
REMARK  status: ('A' for Active; 'I' for Inactive)
REMARK    1  A    between atoms: N_2  and  C1_3 
ROOT
ATOM      1  C1  UNL d   1       1.971  -0.143   1.479  0.00  0.00     0.143 A 
ATOM      2  C2  UNL d   1       2.093  -0.826   0.264  0.00  0.00    -0.057 A 
ATOM      3  C3  UNL d   1       0.966  -1.300  -0.418  0.00  0.00     0.033 A 
ATOM      4  C4  UNL d   1      -0.305  -1.126   0.120  0.00  0.00    -0.042 A 
ATOM      5  C5  UNL d   1      -0.448  -0.472   1.339  0.00  0.00     0.033 A 
ATOM      6  C6  UNL d   1       0.681   0.005   2.012  0.00  0.00    -0.057 A 
ENDROOT
BRANCH   1   7
ATOM      7  N   UNL d   1       3.059   0.266   2.253  0.00  0.00    -0.732 N 
ATOM      8  C   UNL d   1       4.132  -0.655   2.562  0.00  0.00     0.284 C 
ATOM      9  H3  UNL d   1       3.372   1.205   2.018  0.00  0.00     0.395 HD
ENDBRANCH   1   7
TORSDOF 1
ENDMDL
