MODEL 1
REMARK minimizedAffinity 0.981746912
REMARK minimizedRMSD -1
REMARK  1 active torsions:
REMARK  status: ('A' for Active; 'I' for Inactive)
REMARK    1  A    between atoms: N_2  and  C1_3 
ROOT
ATOM      1  C1  UNL d   1       1.411  -2.715  -0.508  0.00  0.00     0.143 A 
ATOM      2  C2  UNL d   1       0.104  -2.799  -0.014  0.00  0.00    -0.057 A 
ATOM      3  C3  UNL d   1      -0.478  -1.733   0.684  0.00  0.00     0.033 A 
ATOM      4  C4  UNL d   1       0.250  -0.573   0.926  0.00  0.00    -0.042 A 
ATOM      5  C5  UNL d   1       1.558  -0.477   0.466  0.00  0.00     0.033 A 
ATOM      6  C6  UNL d   1       2.132  -1.542  -0.236  0.00  0.00    -0.057 A 
ENDROOT
BRANCH   1   7
ATOM      7  N   UNL d   1       2.079  -3.777  -1.123  0.00  0.00    -0.732 N 
ATOM      8  C   UNL d   1       3.459  -4.067  -0.796  0.00  0.00     0.284 C 
ATOM      9  H3  UNL d   1       1.492  -4.602  -1.218  0.00  0.00     0.395 HD
ENDBRANCH   1   7
TORSDOF 1
ENDMDL
