MODEL 1
REMARK minimizedAffinity -2.83582735
REMARK minimizedRMSD -1
REMARK  1 active torsions:
REMARK  status: ('A' for Active; 'I' for Inactive)
REMARK    1  A    between atoms: N_2  and  C1_3 
ROOT
ATOM      1  C1  UNL d   1       1.460  -2.866   0.051  0.00  0.00     0.143 A 
ATOM      2  C2  UNL d   1       2.141  -1.643   0.074  0.00  0.00    -0.057 A 
ATOM      3  C3  UNL d   1       1.479  -0.450   0.388  0.00  0.00     0.033 A 
ATOM      4  C4  UNL d   1       0.114  -0.454   0.656  0.00  0.00    -0.042 A 
ATOM      5  C5  UNL d   1      -0.587  -1.654   0.614  0.00  0.00     0.033 A 
ATOM      6  C6  UNL d   1       0.081  -2.843   0.307  0.00  0.00    -0.057 A 
ENDROOT
BRANCH   1   7
ATOM      7  N   UNL d   1       2.041  -4.071  -0.350  0.00  0.00    -0.732 N 
ATOM      8  C   UNL d   1       3.478  -4.195  -0.467  0.00  0.00     0.284 C 
ATOM      9  H3  UNL d   1       1.587  -4.879   0.070  0.00  0.00     0.395 HD
ENDBRANCH   1   7
TORSDOF 1
ENDMDL
