MODEL 1
REMARK minimizedAffinity -2.15050149
REMARK minimizedRMSD -1
REMARK  1 active torsions:
REMARK  status: ('A' for Active; 'I' for Inactive)
REMARK    1  A    between atoms: N_2  and  C1_3 
ROOT
ATOM      1  C1  UNL d   1      -0.226  -0.687   1.118  0.00  0.00     0.143 A 
ATOM      2  C2  UNL d   1       1.138  -0.429   0.947  0.00  0.00    -0.057 A 
ATOM      3  C3  UNL d   1       1.976  -1.348   0.302  0.00  0.00     0.033 A 
ATOM      4  C4  UNL d   1       1.467  -2.557  -0.159  0.00  0.00    -0.042 A 
ATOM      5  C5  UNL d   1       0.119  -2.846   0.022  0.00  0.00     0.033 A 
ATOM      6  C6  UNL d   1      -0.714  -1.922   0.661  0.00  0.00    -0.057 A 
ENDROOT
BRANCH   1   7
ATOM      7  N   UNL d   1      -1.090   0.142   1.837  0.00  0.00    -0.732 N 
ATOM      8  C   UNL d   1      -2.181   0.824   1.174  0.00  0.00     0.284 C 
ATOM      9  H3  UNL d   1      -1.334  -0.247   2.746  0.00  0.00     0.395 HD
ENDBRANCH   1   7
TORSDOF 1
ENDMDL
