MODEL 1
REMARK minimizedAffinity 8.35600567
REMARK minimizedRMSD -1
REMARK  1 active torsions:
REMARK  status: ('A' for Active; 'I' for Inactive)
REMARK    1  A    between atoms: N_2  and  C1_3 
ROOT
ATOM      1  C1  UNL d   1       2.886   2.696  -3.076  0.00  0.00     0.143 A 
ATOM      2  C2  UNL d   1       4.001   2.194  -2.397  0.00  0.00    -0.057 A 
ATOM      3  C3  UNL d   1       4.677   2.963  -1.442  0.00  0.00     0.033 A 
ATOM      4  C4  UNL d   1       4.264   4.263  -1.169  0.00  0.00    -0.042 A 
ATOM      5  C5  UNL d   1       3.173   4.792  -1.850  0.00  0.00     0.033 A 
ATOM      6  C6  UNL d   1       2.499   4.016  -2.798  0.00  0.00    -0.057 A 
ENDROOT
BRANCH   1   7
ATOM      7  N   UNL d   1       2.232   2.017  -4.107  0.00  0.00    -0.732 N 
ATOM      8  C   UNL d   1       2.174   0.571  -4.117  0.00  0.00     0.284 C 
ATOM      9  H3  UNL d   1       1.363   2.470  -4.381  0.00  0.00     0.395 HD
ENDBRANCH   1   7
TORSDOF 1
ENDMDL
