MODEL 1
REMARK minimizedAffinity -3.39146495
REMARK minimizedRMSD -1
REMARK  1 active torsions:
REMARK  status: ('A' for Active; 'I' for Inactive)
REMARK    1  A    between atoms: N_2  and  C1_3 
ROOT
ATOM      1  C1  UNL d   1       1.141  -2.623  -0.098  0.00  0.00     0.143 A 
ATOM      2  C2  UNL d   1      -0.158  -2.624   0.419  0.00  0.00    -0.057 A 
ATOM      3  C3  UNL d   1      -0.716  -1.471   0.983  0.00  0.00     0.033 A 
ATOM      4  C4  UNL d   1       0.029  -0.299   1.066  0.00  0.00    -0.042 A 
ATOM      5  C5  UNL d   1       1.332  -0.282   0.582  0.00  0.00     0.033 A 
ATOM      6  C6  UNL d   1       1.881  -1.436   0.014  0.00  0.00    -0.057 A 
ENDROOT
BRANCH   1   7
ATOM      7  N   UNL d   1       1.787  -3.764  -0.581  0.00  0.00    -0.732 N 
ATOM      8  C   UNL d   1       3.228  -3.880  -0.514  0.00  0.00     0.284 C 
ATOM      9  H3  UNL d   1       1.290  -4.620  -0.348  0.00  0.00     0.395 HD
ENDBRANCH   1   7
TORSDOF 1
ENDMDL
