MODEL 1
REMARK minimizedAffinity 0.418551266
REMARK minimizedRMSD -1
REMARK  1 active torsions:
REMARK  status: ('A' for Active; 'I' for Inactive)
REMARK    1  A    between atoms: N_2  and  C1_3 
ROOT
ATOM      1  C1  UNL d   1       0.933  -1.131   1.942  0.00  0.00     0.143 A 
ATOM      2  C2  UNL d   1       1.604  -0.643   0.816  0.00  0.00    -0.057 A 
ATOM      3  C3  UNL d   1       1.241  -1.043  -0.476  0.00  0.00     0.033 A 
ATOM      4  C4  UNL d   1       0.216  -1.964  -0.663  0.00  0.00    -0.042 A 
ATOM      5  C5  UNL d   1      -0.449  -2.482   0.443  0.00  0.00     0.033 A 
ATOM      6  C6  UNL d   1      -0.086  -2.074   1.730  0.00  0.00    -0.057 A 
ENDROOT
BRANCH   1   7
ATOM      7  N   UNL d   1       1.311  -0.848   3.256  0.00  0.00    -0.732 N 
ATOM      8  C   UNL d   1       1.739  -1.907   4.145  0.00  0.00     0.284 C 
ATOM      9  H3  UNL d   1       1.865   0.003   3.326  0.00  0.00     0.395 HD
ENDBRANCH   1   7
TORSDOF 1
ENDMDL
