MODEL 1
REMARK minimizedAffinity -3.62702489
REMARK minimizedRMSD -1
REMARK  1 active torsions:
REMARK  status: ('A' for Active; 'I' for Inactive)
REMARK    1  A    between atoms: N_2  and  C1_3 
ROOT
ATOM      1  C1  UNL d   1       1.240  -2.590  -0.027  0.00  0.00     0.143 A 
ATOM      2  C2  UNL d   1       0.051  -2.652   0.707  0.00  0.00    -0.057 A 
ATOM      3  C3  UNL d   1      -0.524  -1.500   1.257  0.00  0.00     0.033 A 
ATOM      4  C4  UNL d   1       0.098  -0.265   1.106  0.00  0.00    -0.042 A 
ATOM      5  C5  UNL d   1       1.294  -0.183   0.402  0.00  0.00     0.033 A 
ATOM      6  C6  UNL d   1       1.859  -1.336  -0.151  0.00  0.00    -0.057 A 
ENDROOT
BRANCH   1   7
ATOM      7  N   UNL d   1       1.913  -3.713  -0.515  0.00  0.00    -0.732 N 
ATOM      8  C   UNL d   1       3.351  -3.699  -0.673  0.00  0.00     0.284 C 
ATOM      9  H3  UNL d   1       1.544  -4.582  -0.135  0.00  0.00     0.395 HD
ENDBRANCH   1   7
TORSDOF 1
ENDMDL
