MODEL 1
REMARK minimizedAffinity 1.8972044
REMARK minimizedRMSD -1
REMARK  1 active torsions:
REMARK  status: ('A' for Active; 'I' for Inactive)
REMARK    1  A    between atoms: N_2  and  C1_3 
ROOT
ATOM      1  C1  UNL d   1       1.911  -1.150   0.076  0.00  0.00     0.143 A 
ATOM      2  C2  UNL d   1       0.739  -1.442  -0.629  0.00  0.00    -0.057 A 
ATOM      3  C3  UNL d   1      -0.516  -1.057  -0.142  0.00  0.00     0.033 A 
ATOM      4  C4  UNL d   1      -0.623  -0.396   1.077  0.00  0.00    -0.042 A 
ATOM      5  C5  UNL d   1       0.527  -0.118   1.807  0.00  0.00     0.033 A 
ATOM      6  C6  UNL d   1       1.778  -0.499   1.313  0.00  0.00    -0.057 A 
ENDROOT
BRANCH   1   7
ATOM      7  N   UNL d   1       3.180  -1.592  -0.307  0.00  0.00    -0.732 N 
ATOM      8  C   UNL d   1       3.482  -3.006  -0.361  0.00  0.00     0.284 C 
ATOM      9  H3  UNL d   1       3.561  -1.055  -1.083  0.00  0.00     0.395 HD
ENDBRANCH   1   7
TORSDOF 1
ENDMDL
