MODEL 1
REMARK minimizedAffinity -2.21223426
REMARK minimizedRMSD -1
REMARK  1 active torsions:
REMARK  status: ('A' for Active; 'I' for Inactive)
REMARK    1  A    between atoms: C1_2  and  C2_3 
ROOT
ATOM      1  C2  UNL d   1       0.867  -0.369  -2.562  0.00  0.00    -0.076 A 
ATOM      2  C3  UNL d   1      -0.475  -0.423  -2.978  0.00  0.00     0.004 A 
ATOM      3  C4  UNL d   1      -0.923   0.339  -4.055  0.00  0.00    -0.003 A 
ATOM      4  C5  UNL d   1      -0.037   1.167  -4.735  0.00  0.00     0.000 A 
ATOM      5  C6  UNL d   1       1.301   1.219  -4.348  0.00  0.00     0.000 A 
ATOM      6  C7  UNL d   1       1.774   0.445  -3.274  0.00  0.00    -0.073 A 
ATOM      7  C8  UNL d   1       3.226   0.545  -2.895  0.00  0.00     0.078 C 
ENDROOT
BRANCH   1   8
ATOM      8  C1  UNL d   1       1.290  -1.198  -1.370  0.00  0.00     0.053 C 
ATOM      9  C   UNL d   1       0.728  -0.665  -0.061  0.00  0.00     0.018 C 
ENDBRANCH   1   8
TORSDOF 1
ENDMDL
