MODEL 1
REMARK minimizedAffinity -4.27143717
REMARK minimizedRMSD -1
REMARK  1 active torsions:
REMARK  status: ('A' for Active; 'I' for Inactive)
REMARK    1  A    between atoms: C1_2  and  C2_3 
ROOT
ATOM      1  C2  UNL d   1       0.273  -0.263   0.877  0.00  0.00    -0.076 A 
ATOM      2  C3  UNL d   1       1.467  -0.040   1.585  0.00  0.00     0.004 A 
ATOM      3  C4  UNL d   1       1.479   0.726   2.750  0.00  0.00    -0.003 A 
ATOM      4  C5  UNL d   1       0.296   1.281   3.226  0.00  0.00     0.000 A 
ATOM      5  C6  UNL d   1      -0.901   1.056   2.546  0.00  0.00     0.000 A 
ATOM      6  C7  UNL d   1      -0.932   0.273   1.379  0.00  0.00    -0.073 A 
ATOM      7  C8  UNL d   1      -2.250   0.068   0.683  0.00  0.00     0.078 C 
ENDROOT
BRANCH   1   8
ATOM      8  C1  UNL d   1       0.326  -1.079  -0.394  0.00  0.00     0.053 C 
ATOM      9  C   UNL d   1       0.578  -0.223  -1.626  0.00  0.00     0.018 C 
ENDBRANCH   1   8
TORSDOF 1
ENDMDL
