MODEL 1
REMARK minimizedAffinity -1.05974174
REMARK minimizedRMSD -1
REMARK  1 active torsions:
REMARK  status: ('A' for Active; 'I' for Inactive)
REMARK    1  A    between atoms: C1_2  and  C2_3 
ROOT
ATOM      1  C2  UNL d   1      -0.439  -0.236   0.647  0.00  0.00    -0.076 A 
ATOM      2  C3  UNL d   1      -0.987  -0.111   1.936  0.00  0.00     0.004 A 
ATOM      3  C4  UNL d   1      -0.810   1.053   2.681  0.00  0.00    -0.003 A 
ATOM      4  C5  UNL d   1      -0.083   2.113   2.149  0.00  0.00     0.000 A 
ATOM      5  C6  UNL d   1       0.452   2.013   0.865  0.00  0.00     0.000 A 
ATOM      6  C7  UNL d   1       0.269   0.852   0.094  0.00  0.00    -0.073 A 
ATOM      7  C8  UNL d   1       0.873   0.797  -1.282  0.00  0.00     0.078 C 
ENDROOT
BRANCH   1   8
ATOM      8  C1  UNL d   1      -0.641  -1.533  -0.103  0.00  0.00     0.053 C 
ATOM      9  C   UNL d   1      -2.109  -1.836  -0.359  0.00  0.00     0.018 C 
ENDBRANCH   1   8
TORSDOF 1
ENDMDL
