MODEL 1
REMARK minimizedAffinity -4.42464304
REMARK minimizedRMSD -1
REMARK  1 active torsions:
REMARK  status: ('A' for Active; 'I' for Inactive)
REMARK    1  A    between atoms: C1_2  and  C2_3 
ROOT
ATOM      1  C2  UNL d   1       0.320  -0.063  -3.060  0.00  0.00    -0.076 A 
ATOM      2  C3  UNL d   1      -0.914  -0.498  -3.575  0.00  0.00     0.004 A 
ATOM      3  C4  UNL d   1      -1.328  -0.128  -4.853  0.00  0.00    -0.003 A 
ATOM      4  C5  UNL d   1      -0.515   0.682  -5.638  0.00  0.00     0.000 A 
ATOM      5  C6  UNL d   1       0.720   1.109  -5.150  0.00  0.00     0.000 A 
ATOM      6  C7  UNL d   1       1.160   0.731  -3.870  0.00  0.00    -0.073 A 
ATOM      7  C8  UNL d   1       2.498   1.225  -3.392  0.00  0.00     0.078 C 
ENDROOT
BRANCH   1   8
ATOM      8  C1  UNL d   1       0.704  -0.474  -1.656  0.00  0.00     0.053 C 
ATOM      9  C   UNL d   1      -0.477  -1.006  -0.861  0.00  0.00     0.018 C 
ENDBRANCH   1   8
TORSDOF 1
ENDMDL
