MODEL 1
REMARK minimizedAffinity -2.30097914
REMARK minimizedRMSD -1
REMARK  1 active torsions:
REMARK  status: ('A' for Active; 'I' for Inactive)
REMARK    1  A    between atoms: C1_2  and  C2_3 
ROOT
ATOM      1  C2  UNL d   1      -0.156  -0.540   0.584  0.00  0.00    -0.076 A 
ATOM      2  C3  UNL d   1      -1.539  -0.295   0.554  0.00  0.00     0.004 A 
ATOM      3  C4  UNL d   1      -2.179   0.338   1.619  0.00  0.00    -0.003 A 
ATOM      4  C5  UNL d   1      -1.445   0.737   2.730  0.00  0.00     0.000 A 
ATOM      5  C6  UNL d   1      -0.068   0.519   2.769  0.00  0.00     0.000 A 
ATOM      6  C7  UNL d   1       0.595  -0.104   1.697  0.00  0.00    -0.073 A 
ATOM      7  C8  UNL d   1       2.080  -0.320   1.795  0.00  0.00     0.078 C 
ENDROOT
BRANCH   1   8
ATOM      8  C1  UNL d   1       0.479  -1.255  -0.587  0.00  0.00     0.053 C 
ATOM      9  C   UNL d   1       0.575  -0.375  -1.824  0.00  0.00     0.018 C 
ENDBRANCH   1   8
TORSDOF 1
ENDMDL
