MODEL 1
REMARK minimizedAffinity -4.29213667
REMARK minimizedRMSD -1
REMARK  1 active torsions:
REMARK  status: ('A' for Active; 'I' for Inactive)
REMARK    1  A    between atoms: C1_2  and  C2_3 
ROOT
ATOM      1  C2  UNL d   1      -0.142  -0.145   0.314  0.00  0.00    -0.076 A 
ATOM      2  C3  UNL d   1      -1.466   0.322   0.243  0.00  0.00     0.004 A 
ATOM      3  C4  UNL d   1      -2.031   1.039   1.297  0.00  0.00    -0.003 A 
ATOM      4  C5  UNL d   1      -1.281   1.301   2.438  0.00  0.00     0.000 A 
ATOM      5  C6  UNL d   1       0.040   0.860   2.518  0.00  0.00     0.000 A 
ATOM      6  C7  UNL d   1       0.630   0.150   1.459  0.00  0.00    -0.073 A 
ATOM      7  C8  UNL d   1       2.056  -0.306   1.601  0.00  0.00     0.078 C 
ENDROOT
BRANCH   1   8
ATOM      8  C1  UNL d   1       0.409  -0.941  -0.848  0.00  0.00     0.053 C 
ATOM      9  C   UNL d   1       0.916  -0.053  -1.974  0.00  0.00     0.018 C 
ENDBRANCH   1   8
TORSDOF 1
ENDMDL
