MODEL 1
REMARK minimizedAffinity -1.00163257
REMARK minimizedRMSD -1
REMARK  3 active torsions:
REMARK  status: ('A' for Active; 'I' for Inactive)
REMARK    1  A    between atoms: C3'_2  and  C2'_3 
REMARK    2  A    between atoms: C2'_3  and  C1'_4 
REMARK    3  A    between atoms: C1'_4  and  C1_5 
ROOT
ATOM      1  C1  N4B d   1      -0.804  -0.283   0.268  0.00  0.00    -0.075 A 
ATOM      2  C2  N4B d   1      -0.540   0.951  -0.364  0.00  0.00     0.002 A 
ATOM      3  C3  N4B d   1       0.409   1.026  -1.354  0.00  0.00     0.002 A 
ATOM      4  C4  N4B d   1       1.117  -0.111  -1.714  0.00  0.00    -0.004 A 
ATOM      5  C5  N4B d   1       0.837  -1.305  -1.116  0.00  0.00     0.002 A 
ATOM      6  C6  N4B d   1      -0.117  -1.396  -0.122  0.00  0.00     0.002 A 
ENDROOT
BRANCH   1   7
ATOM      7  C1' N4B d   1      -1.772  -0.397   1.415  0.00  0.00     0.057 C 
BRANCH   7   8
ATOM      8  C2' N4B d   1      -1.553   0.770   2.372  0.00  0.00     0.009 C 
BRANCH   8   9
ATOM      9  C3' N4B d   1      -2.456   0.682   3.591  0.00  0.00     0.004 C 
ATOM     10  C4' N4B d   1      -2.067  -0.427   4.522  0.00  0.00     0.003 C 
ENDBRANCH   8   9
ENDBRANCH   7   8
ENDBRANCH   1   7
TORSDOF 3
ENDMDL
