MODEL 1
REMARK minimizedAffinity -3.54619074
REMARK minimizedRMSD -1
REMARK  3 active torsions:
REMARK  status: ('A' for Active; 'I' for Inactive)
REMARK    1  A    between atoms: C3'_2  and  C2'_3 
REMARK    2  A    between atoms: C2'_3  and  C1'_4 
REMARK    3  A    between atoms: C1'_4  and  C1_5 
ROOT
ATOM      1  C1  N4B d   1       0.062  -0.099  -0.722  0.00  0.00    -0.075 A 
ATOM      2  C2  N4B d   1       1.079  -1.078  -0.773  0.00  0.00     0.002 A 
ATOM      3  C3  N4B d   1       2.172  -0.890  -1.584  0.00  0.00     0.002 A 
ATOM      4  C4  N4B d   1       2.260   0.254  -2.363  0.00  0.00    -0.004 A 
ATOM      5  C5  N4B d   1       1.285   1.206  -2.288  0.00  0.00     0.002 A 
ATOM      6  C6  N4B d   1       0.184   1.033  -1.474  0.00  0.00     0.002 A 
ENDROOT
BRANCH   1   7
ATOM      7  C1' N4B d   1      -1.192  -0.300   0.084  0.00  0.00     0.057 C 
BRANCH   7   8
ATOM      8  C2' N4B d   1      -1.361   0.872   1.047  0.00  0.00     0.009 C 
BRANCH   8   9
ATOM      9  C3' N4B d   1      -2.400   0.583   2.117  0.00  0.00     0.004 C 
ATOM     10  C4' N4B d   1      -2.097   1.260   3.420  0.00  0.00     0.003 C 
ENDBRANCH   8   9
ENDBRANCH   7   8
ENDBRANCH   1   7
TORSDOF 3
ENDMDL
