MODEL 1
REMARK minimizedAffinity -2.10747361
REMARK minimizedRMSD -1
REMARK  3 active torsions:
REMARK  status: ('A' for Active; 'I' for Inactive)
REMARK    1  A    between atoms: C3'_2  and  C2'_3 
REMARK    2  A    between atoms: C2'_3  and  C1'_4 
REMARK    3  A    between atoms: C1'_4  and  C1_5 
ROOT
ATOM      1  C1  N4B d   1      -0.176  -0.161   0.190  0.00  0.00    -0.075 A 
ATOM      2  C2  N4B d   1       0.349   0.770  -0.733  0.00  0.00     0.002 A 
ATOM      3  C3  N4B d   1       1.354   0.396  -1.590  0.00  0.00     0.002 A 
ATOM      4  C4  N4B d   1       1.862  -0.894  -1.531  0.00  0.00    -0.004 A 
ATOM      5  C5  N4B d   1       1.332  -1.795  -0.654  0.00  0.00     0.002 A 
ATOM      6  C6  N4B d   1       0.319  -1.433   0.211  0.00  0.00     0.002 A 
ENDROOT
BRANCH   1   7
ATOM      7  C1' N4B d   1      -1.216   0.226   1.205  0.00  0.00     0.057 C 
BRANCH   7   8
ATOM      8  C2' N4B d   1      -0.565   1.085   2.286  0.00  0.00     0.009 C 
BRANCH   8   9
ATOM      9  C3' N4B d   1      -1.271   0.947   3.623  0.00  0.00     0.004 C 
ATOM     10  C4' N4B d   1      -1.898  -0.402   3.812  0.00  0.00     0.003 C 
ENDBRANCH   8   9
ENDBRANCH   7   8
ENDBRANCH   1   7
TORSDOF 3
ENDMDL
