MODEL 1
REMARK minimizedAffinity -5.2888875
REMARK minimizedRMSD -1
REMARK  3 active torsions:
REMARK  status: ('A' for Active; 'I' for Inactive)
REMARK    1  A    between atoms: C3'_2  and  C2'_3 
REMARK    2  A    between atoms: C2'_3  and  C1'_4 
REMARK    3  A    between atoms: C1'_4  and  C1_5 
ROOT
ATOM      1  C1  N4B d   1       0.310  -0.343  -0.504  0.00  0.00    -0.075 A 
ATOM      2  C2  N4B d   1       0.291   0.899  -1.175  0.00  0.00     0.002 A 
ATOM      3  C3  N4B d   1       1.177   1.142  -2.195  0.00  0.00     0.002 A 
ATOM      4  C4  N4B d   1       2.101   0.170  -2.547  0.00  0.00    -0.004 A 
ATOM      5  C5  N4B d   1       2.096  -1.037  -1.911  0.00  0.00     0.002 A 
ATOM      6  C6  N4B d   1       1.208  -1.297  -0.887  0.00  0.00     0.002 A 
ENDROOT
BRANCH   1   7
ATOM      7  C1' N4B d   1      -0.583  -0.623   0.674  0.00  0.00     0.057 C 
BRANCH   7   8
ATOM      8  C2' N4B d   1      -1.486   0.583   0.916  0.00  0.00     0.009 C 
BRANCH   8   9
ATOM      9  C3' N4B d   1      -1.888   0.707   2.376  0.00  0.00     0.004 C 
ATOM     10  C4' N4B d   1      -1.519   2.034   2.968  0.00  0.00     0.003 C 
ENDBRANCH   8   9
ENDBRANCH   7   8
ENDBRANCH   1   7
TORSDOF 3
ENDMDL
