MODEL 1
REMARK minimizedAffinity -3.81902361
REMARK minimizedRMSD -1
REMARK  3 active torsions:
REMARK  status: ('A' for Active; 'I' for Inactive)
REMARK    1  A    between atoms: C3'_2  and  C2'_3 
REMARK    2  A    between atoms: C2'_3  and  C1'_4 
REMARK    3  A    between atoms: C1'_4  and  C1_5 
ROOT
ATOM      1  C1  N4B d   1      -0.948   0.307   1.040  0.00  0.00    -0.075 A 
ATOM      2  C2  N4B d   1      -2.066  -0.470   1.413  0.00  0.00     0.002 A 
ATOM      3  C3  N4B d   1      -2.771  -0.159   2.550  0.00  0.00     0.002 A 
ATOM      4  C4  N4B d   1      -2.366   0.909   3.337  0.00  0.00    -0.004 A 
ATOM      5  C5  N4B d   1      -1.300   1.671   2.956  0.00  0.00     0.002 A 
ATOM      6  C6  N4B d   1      -0.585   1.372   1.814  0.00  0.00     0.002 A 
ENDROOT
BRANCH   1   7
ATOM      7  C1' N4B d   1      -0.095  -0.046  -0.147  0.00  0.00     0.057 C 
BRANCH   7   8
ATOM      8  C2' N4B d   1       0.232  -1.536  -0.103  0.00  0.00     0.009 C 
BRANCH   8   9
ATOM      9  C3' N4B d   1       1.243  -1.927  -1.167  0.00  0.00     0.004 C 
ATOM     10  C4' N4B d   1       2.269  -0.861  -1.414  0.00  0.00     0.003 C 
ENDBRANCH   8   9
ENDBRANCH   7   8
ENDBRANCH   1   7
TORSDOF 3
ENDMDL
