MODEL 1
REMARK minimizedAffinity -2.38042712
REMARK minimizedRMSD -1
REMARK  3 active torsions:
REMARK  status: ('A' for Active; 'I' for Inactive)
REMARK    1  A    between atoms: C3'_2  and  C2'_3 
REMARK    2  A    between atoms: C2'_3  and  C1'_4 
REMARK    3  A    between atoms: C1'_4  and  C1_5 
ROOT
ATOM      1  C1  N4B d   1      -0.176  -0.319  -0.206  0.00  0.00    -0.075 A 
ATOM      2  C2  N4B d   1       0.794   0.304  -1.023  0.00  0.00     0.002 A 
ATOM      3  C3  N4B d   1       1.925  -0.383  -1.391  0.00  0.00     0.002 A 
ATOM      4  C4  N4B d   1       2.116  -1.681  -0.941  0.00  0.00    -0.004 A 
ATOM      5  C5  N4B d   1       1.163  -2.284  -0.173  0.00  0.00     0.002 A 
ATOM      6  C6  N4B d   1       0.019  -1.607   0.201  0.00  0.00     0.002 A 
ENDROOT
BRANCH   1   7
ATOM      7  C1' N4B d   1      -1.387   0.421   0.292  0.00  0.00     0.057 C 
BRANCH   7   8
ATOM      8  C2' N4B d   1      -1.839  -0.192   1.614  0.00  0.00     0.009 C 
BRANCH   8   9
ATOM      9  C3' N4B d   1      -1.940   0.847   2.718  0.00  0.00     0.004 C 
ATOM     10  C4' N4B d   1      -1.959   0.238   4.088  0.00  0.00     0.003 C 
ENDBRANCH   8   9
ENDBRANCH   7   8
ENDBRANCH   1   7
TORSDOF 3
ENDMDL
