MODEL 1
REMARK minimizedAffinity -2.16055465
REMARK minimizedRMSD -1
REMARK  3 active torsions:
REMARK  status: ('A' for Active; 'I' for Inactive)
REMARK    1  A    between atoms: C3'_2  and  C2'_3 
REMARK    2  A    between atoms: C2'_3  and  C1'_4 
REMARK    3  A    between atoms: C1'_4  and  C1_5 
ROOT
ATOM      1  C1  N4B d   1       0.380   0.164  -0.179  0.00  0.00    -0.075 A 
ATOM      2  C2  N4B d   1       0.861   0.794  -1.348  0.00  0.00     0.002 A 
ATOM      3  C3  N4B d   1       1.669   0.103  -2.217  0.00  0.00     0.002 A 
ATOM      4  C4  N4B d   1       2.022  -1.207  -1.931  0.00  0.00    -0.004 A 
ATOM      5  C5  N4B d   1       1.532  -1.817  -0.813  0.00  0.00     0.002 A 
ATOM      6  C6  N4B d   1       0.717  -1.135   0.068  0.00  0.00     0.002 A 
ENDROOT
BRANCH   1   7
ATOM      7  C1' N4B d   1      -0.436   0.906   0.844  0.00  0.00     0.057 C 
BRANCH   7   8
ATOM      8  C2' N4B d   1      -1.864   0.369   0.831  0.00  0.00     0.009 C 
BRANCH   8   9
ATOM      9  C3' N4B d   1      -2.531   0.495   2.191  0.00  0.00     0.004 C 
ATOM     10  C4' N4B d   1      -1.919   1.568   3.040  0.00  0.00     0.003 C 
ENDBRANCH   8   9
ENDBRANCH   7   8
ENDBRANCH   1   7
TORSDOF 3
ENDMDL
