MODEL 1
REMARK minimizedAffinity -2.1639998
REMARK minimizedRMSD -1
REMARK  3 active torsions:
REMARK  status: ('A' for Active; 'I' for Inactive)
REMARK    1  A    between atoms: C3'_2  and  C2'_3 
REMARK    2  A    between atoms: C2'_3  and  C1'_4 
REMARK    3  A    between atoms: C1'_4  and  C1_5 
ROOT
ATOM      1  C1  N4B d   1       0.461   0.728  -1.234  0.00  0.00    -0.075 A 
ATOM      2  C2  N4B d   1       0.947  -0.579  -1.014  0.00  0.00     0.002 A 
ATOM      3  C3  N4B d   1       1.833  -1.141  -1.901  0.00  0.00     0.002 A 
ATOM      4  C4  N4B d   1       2.231  -0.423  -3.019  0.00  0.00    -0.004 A 
ATOM      5  C5  N4B d   1       1.778   0.849  -3.210  0.00  0.00     0.002 A 
ATOM      6  C6  N4B d   1       0.890   1.427  -2.325  0.00  0.00     0.002 A 
ENDROOT
BRANCH   1   7
ATOM      7  C1' N4B d   1      -0.575   1.352  -0.338  0.00  0.00     0.057 C 
BRANCH   7   8
ATOM      8  C2' N4B d   1      -1.465   0.254   0.237  0.00  0.00     0.009 C 
BRANCH   8   9
ATOM      9  C3' N4B d   1      -1.804   0.504   1.696  0.00  0.00     0.004 C 
ATOM     10  C4' N4B d   1      -2.915  -0.372   2.193  0.00  0.00     0.003 C 
ENDBRANCH   8   9
ENDBRANCH   7   8
ENDBRANCH   1   7
TORSDOF 3
ENDMDL
