MODEL 1
REMARK minimizedAffinity -4.35629797
REMARK minimizedRMSD -1
REMARK  3 active torsions:
REMARK  status: ('A' for Active; 'I' for Inactive)
REMARK    1  A    between atoms: C3'_2  and  C2'_3 
REMARK    2  A    between atoms: C2'_3  and  C1'_4 
REMARK    3  A    between atoms: C1'_4  and  C1_5 
ROOT
ATOM      1  C1  N4B d   1       0.156   0.058   2.159  0.00  0.00    -0.075 A 
ATOM      2  C2  N4B d   1      -0.929   0.595   1.431  0.00  0.00     0.002 A 
ATOM      3  C3  N4B d   1      -1.958   1.219   2.093  0.00  0.00     0.002 A 
ATOM      4  C4  N4B d   1      -1.932   1.302   3.477  0.00  0.00    -0.004 A 
ATOM      5  C5  N4B d   1      -0.868   0.804   4.171  0.00  0.00     0.002 A 
ATOM      6  C6  N4B d   1       0.175   0.178   3.518  0.00  0.00     0.002 A 
ENDROOT
BRANCH   1   7
ATOM      7  C1' N4B d   1       1.262  -0.709   1.486  0.00  0.00     0.057 C 
BRANCH   7   8
ATOM      8  C2' N4B d   1       0.718  -1.363   0.219  0.00  0.00     0.009 C 
BRANCH   8   9
ATOM      9  C3' N4B d   1       1.812  -1.613  -0.805  0.00  0.00     0.004 C 
ATOM     10  C4' N4B d   1       1.669  -0.755  -2.027  0.00  0.00     0.003 C 
ENDBRANCH   8   9
ENDBRANCH   7   8
ENDBRANCH   1   7
TORSDOF 3
ENDMDL
