MODEL 1
REMARK minimizedAffinity -1.23777854
REMARK minimizedRMSD -1
REMARK  3 active torsions:
REMARK  status: ('A' for Active; 'I' for Inactive)
REMARK    1  A    between atoms: C3'_2  and  C2'_3 
REMARK    2  A    between atoms: C2'_3  and  C1'_4 
REMARK    3  A    between atoms: C1'_4  and  C1_5 
ROOT
ATOM      1  C1  N4B d   1      -1.714   0.565   1.343  0.00  0.00    -0.075 A 
ATOM      2  C2  N4B d   1      -2.229  -0.341   2.297  0.00  0.00     0.002 A 
ATOM      3  C3  N4B d   1      -2.323   0.031   3.616  0.00  0.00     0.002 A 
ATOM      4  C4  N4B d   1      -1.894   1.291   4.005  0.00  0.00    -0.004 A 
ATOM      5  C5  N4B d   1      -1.422   2.168   3.074  0.00  0.00     0.002 A 
ATOM      6  C6  N4B d   1      -1.325   1.810   1.744  0.00  0.00     0.002 A 
ENDROOT
BRANCH   1   7
ATOM      7  C1' N4B d   1      -1.512   0.173  -0.095  0.00  0.00     0.057 C 
BRANCH   7   8
ATOM      8  C2' N4B d   1      -0.042  -0.169  -0.319  0.00  0.00     0.009 C 
BRANCH   8   9
ATOM      9  C3' N4B d   1       0.154  -1.636  -0.662  0.00  0.00     0.004 C 
ATOM     10  C4' N4B d   1       1.445  -2.188  -0.134  0.00  0.00     0.003 C 
ENDBRANCH   8   9
ENDBRANCH   7   8
ENDBRANCH   1   7
TORSDOF 3
ENDMDL
