MODEL 1
REMARK minimizedAffinity 8.94382668
REMARK minimizedRMSD -1
REMARK  0 active torsions:
REMARK  status: ('A' for Active; 'I' for Inactive)
ROOT
ATOM      1  C2' OXE d   1       0.122   1.039   3.300  0.00  0.00     0.078 C 
ATOM      2  C1' OXE d   1       1.640   3.399   3.363  0.00  0.00     0.078 C 
ATOM      3  C1  OXE d   1       0.728   3.181   2.182  0.00  0.00    -0.078 A 
ATOM      4  C2  OXE d   1       0.024   2.002   2.136  0.00  0.00    -0.078 A 
ATOM      5  C3  OXE d   1      -0.873   1.774   1.097  0.00  0.00     0.003 A 
ATOM      6  C4  OXE d   1      -0.950   2.665   0.019  0.00  0.00    -0.002 A 
ATOM      7  C5  OXE d   1      -0.212   3.853   0.026  0.00  0.00    -0.002 A 
ATOM      8  C6  OXE d   1       0.598   4.146   1.118  0.00  0.00     0.003 A 
ENDROOT
TORSDOF 0
ENDMDL
