MODEL 1
REMARK minimizedAffinity 15.9604731
REMARK minimizedRMSD -1
REMARK  0 active torsions:
REMARK  status: ('A' for Active; 'I' for Inactive)
ROOT
ATOM      1  C2' OXE d   1      -0.931   1.201  -0.775  0.00  0.00     0.078 C 
ATOM      2  C1' OXE d   1      -0.316   2.650   1.550  0.00  0.00     0.078 C 
ATOM      3  C1  OXE d   1      -0.430   3.414   0.254  0.00  0.00    -0.078 A 
ATOM      4  C2  OXE d   1      -0.685   2.690  -0.886  0.00  0.00    -0.078 A 
ATOM      5  C3  OXE d   1      -0.854   3.352  -2.099  0.00  0.00     0.003 A 
ATOM      6  C4  OXE d   1      -0.616   4.728  -2.195  0.00  0.00    -0.002 A 
ATOM      7  C5  OXE d   1      -0.316   5.478  -1.053  0.00  0.00    -0.002 A 
ATOM      8  C6  OXE d   1      -0.262   4.844   0.184  0.00  0.00     0.003 A 
ENDROOT
TORSDOF 0
ENDMDL
