MODEL 1
REMARK minimizedAffinity 6.77566576
REMARK minimizedRMSD -1
REMARK  0 active torsions:
REMARK  status: ('A' for Active; 'I' for Inactive)
ROOT
ATOM      1  C2' OXE d   1       0.064   1.198   3.332  0.00  0.00     0.078 C 
ATOM      2  C1' OXE d   1       1.792   3.396   3.582  0.00  0.00     0.078 C 
ATOM      3  C1  OXE d   1       0.941   3.307   2.339  0.00  0.00    -0.078 A 
ATOM      4  C2  OXE d   1       0.133   2.204   2.204  0.00  0.00    -0.078 A 
ATOM      5  C3  OXE d   1      -0.712   2.100   1.103  0.00  0.00     0.003 A 
ATOM      6  C4  OXE d   1      -0.634   3.030   0.059  0.00  0.00    -0.002 A 
ATOM      7  C5  OXE d   1       0.211   4.140   0.159  0.00  0.00    -0.002 A 
ATOM      8  C6  OXE d   1       0.973   4.315   1.309  0.00  0.00     0.003 A 
ENDROOT
TORSDOF 0
ENDMDL
