MODEL 1
REMARK minimizedAffinity 5.2068758
REMARK minimizedRMSD -1
REMARK  0 active torsions:
REMARK  status: ('A' for Active; 'I' for Inactive)
ROOT
ATOM      1  C2' OXE d   1      -0.122   2.007  -0.457  0.00  0.00     0.078 C 
ATOM      2  C1' OXE d   1      -1.447   2.290   2.002  0.00  0.00     0.078 C 
ATOM      3  C1  OXE d   1      -2.019   1.317   1.002  0.00  0.00    -0.078 A 
ATOM      4  C2  OXE d   1      -1.391   1.219  -0.216  0.00  0.00    -0.078 A 
ATOM      5  C3  OXE d   1      -1.846   0.296  -1.154  0.00  0.00     0.003 A 
ATOM      6  C4  OXE d   1      -3.026  -0.421  -0.928  0.00  0.00    -0.002 A 
ATOM      7  C5  OXE d   1      -3.704  -0.307   0.290  0.00  0.00    -0.002 A 
ATOM      8  C6  OXE d   1      -3.191   0.524   1.280  0.00  0.00     0.003 A 
ENDROOT
TORSDOF 0
ENDMDL
