MODEL 1
REMARK minimizedAffinity 10.9260712
REMARK minimizedRMSD -1
REMARK  0 active torsions:
REMARK  status: ('A' for Active; 'I' for Inactive)
ROOT
ATOM      1  C2' OXE d   1      -0.741   1.866  -0.598  0.00  0.00     0.078 C 
ATOM      2  C1' OXE d   1      -3.200   0.599  -1.077  0.00  0.00     0.078 C 
ATOM      3  C1  OXE d   1      -1.952  -0.061  -1.610  0.00  0.00    -0.078 A 
ATOM      4  C2  OXE d   1      -0.759   0.590  -1.411  0.00  0.00    -0.078 A 
ATOM      5  C3  OXE d   1       0.428  -0.002  -1.834  0.00  0.00     0.003 A 
ATOM      6  C4  OXE d   1       0.402  -1.178  -2.595  0.00  0.00    -0.002 A 
ATOM      7  C5  OXE d   1      -0.807  -1.836  -2.843  0.00  0.00    -0.002 A 
ATOM      8  C6  OXE d   1      -1.986  -1.315  -2.322  0.00  0.00     0.003 A 
ENDROOT
TORSDOF 0
ENDMDL
