MODEL 1
REMARK minimizedAffinity 7.51426506
REMARK minimizedRMSD -1
REMARK  0 active torsions:
REMARK  status: ('A' for Active; 'I' for Inactive)
ROOT
ATOM      1  C2' OXE d   1      -0.137   0.850  -0.381  0.00  0.00     0.078 C 
ATOM      2  C1' OXE d   1      -1.114   1.937   2.015  0.00  0.00     0.078 C 
ATOM      3  C1  OXE d   1      -0.942   2.866   0.840  0.00  0.00    -0.078 A 
ATOM      4  C2  OXE d   1      -0.419   2.335  -0.314  0.00  0.00    -0.078 A 
ATOM      5  C3  OXE d   1      -0.290   3.136  -1.445  0.00  0.00     0.003 A 
ATOM      6  C4  OXE d   1      -0.543   4.511  -1.373  0.00  0.00    -0.002 A 
ATOM      7  C5  OXE d   1      -1.039   5.080  -0.195  0.00  0.00    -0.002 A 
ATOM      8  C6  OXE d   1      -1.284   4.266   0.905  0.00  0.00     0.003 A 
ENDROOT
TORSDOF 0
ENDMDL
