MODEL 1
REMARK minimizedAffinity -1.52621102
REMARK minimizedRMSD -1
REMARK  0 active torsions:
REMARK  status: ('A' for Active; 'I' for Inactive)
ROOT
ATOM      1  C2' OXE d   1      -3.365   1.425  -1.238  0.00  0.00     0.078 C 
ATOM      2  C1' OXE d   1      -0.744   2.409  -1.042  0.00  0.00     0.078 C 
ATOM      3  C1  OXE d   1      -0.929   0.915  -1.134  0.00  0.00    -0.078 A 
ATOM      4  C2  OXE d   1      -2.218   0.440  -1.182  0.00  0.00    -0.078 A 
ATOM      5  C3  OXE d   1      -2.444  -0.927  -1.323  0.00  0.00     0.003 A 
ATOM      6  C4  OXE d   1      -1.377  -1.832  -1.260  0.00  0.00    -0.002 A 
ATOM      7  C5  OXE d   1      -0.059  -1.371  -1.171  0.00  0.00    -0.002 A 
ATOM      8  C6  OXE d   1       0.184  -0.002  -1.150  0.00  0.00     0.003 A 
ENDROOT
TORSDOF 0
ENDMDL
