MODEL 1
REMARK minimizedAffinity 9.4981451
REMARK minimizedRMSD -1
REMARK  0 active torsions:
REMARK  status: ('A' for Active; 'I' for Inactive)
ROOT
ATOM      1  C2' OXE d   1      -0.246   2.077  -0.761  0.00  0.00     0.078 C 
ATOM      2  C1' OXE d   1       0.873  -0.418  -1.396  0.00  0.00     0.078 C 
ATOM      3  C1  OXE d   1      -0.629  -0.324  -1.303  0.00  0.00    -0.078 A 
ATOM      4  C2  OXE d   1      -1.166   0.890  -0.946  0.00  0.00    -0.078 A 
ATOM      5  C3  OXE d   1      -2.548   1.045  -0.899  0.00  0.00     0.003 A 
ATOM      6  C4  OXE d   1      -3.392  -0.060  -1.061  0.00  0.00    -0.002 A 
ATOM      7  C5  OXE d   1      -2.864  -1.314  -1.386  0.00  0.00    -0.002 A 
ATOM      8  C6  OXE d   1      -1.490  -1.453  -1.552  0.00  0.00     0.003 A 
ENDROOT
TORSDOF 0
ENDMDL
