MODEL 1
REMARK minimizedAffinity -2.62938786
REMARK minimizedRMSD -1
REMARK  1 active torsions:
REMARK  status: ('A' for Active; 'I' for Inactive)
REMARK    1  A    between atoms: N_2  and  C1_3 
ROOT
ATOM      1  C1  UNL d   1       0.554   2.229   0.281  0.00  0.00     0.143 A 
ATOM      2  C2  UNL d   1       0.956   1.310  -0.694  0.00  0.00    -0.057 A 
ATOM      3  C3  UNL d   1       0.406   0.024  -0.752  0.00  0.00     0.033 A 
ATOM      4  C4  UNL d   1      -0.540  -0.377   0.186  0.00  0.00    -0.042 A 
ATOM      5  C5  UNL d   1      -0.937   0.511   1.179  0.00  0.00     0.033 A 
ATOM      6  C6  UNL d   1      -0.388   1.796   1.228  0.00  0.00    -0.057 A 
ENDROOT
BRANCH   1   7
ATOM      7  N   UNL d   1       1.135   3.487   0.451  0.00  0.00    -0.732 N 
ATOM      8  C   UNL d   1       2.524   3.612   0.840  0.00  0.00     0.284 C 
ATOM      9  H3  UNL d   1       0.843   4.150  -0.264  0.00  0.00     0.395 HD
ENDBRANCH   1   7
TORSDOF 1
ENDMDL
