MODEL 1
REMARK minimizedAffinity -4.06608152
REMARK minimizedRMSD -1
REMARK  1 active torsions:
REMARK  status: ('A' for Active; 'I' for Inactive)
REMARK    1  A    between atoms: N_2  and  C1_3 
ROOT
ATOM      1  C1  UNL d   1       0.232   0.649  -0.043  0.00  0.00     0.143 A 
ATOM      2  C2  UNL d   1       0.417  -0.048  -1.241  0.00  0.00    -0.057 A 
ATOM      3  C3  UNL d   1       0.366  -1.446  -1.283  0.00  0.00     0.033 A 
ATOM      4  C4  UNL d   1       0.157  -2.176  -0.118  0.00  0.00    -0.042 A 
ATOM      5  C5  UNL d   1      -0.005  -1.505   1.089  0.00  0.00     0.033 A 
ATOM      6  C6  UNL d   1       0.041  -0.108   1.124  0.00  0.00    -0.057 A 
ENDROOT
BRANCH   1   7
ATOM      7  N   UNL d   1       0.369   2.034   0.081  0.00  0.00    -0.732 N 
ATOM      8  C   UNL d   1       1.629   2.616   0.490  0.00  0.00     0.284 C 
ATOM      9  H3  UNL d   1      -0.098   2.539  -0.669  0.00  0.00     0.395 HD
ENDBRANCH   1   7
TORSDOF 1
ENDMDL
