MODEL 1
REMARK minimizedAffinity -4.33962297
REMARK minimizedRMSD -1
REMARK  1 active torsions:
REMARK  status: ('A' for Active; 'I' for Inactive)
REMARK    1  A    between atoms: N_2  and  C1_3 
ROOT
ATOM      1  C1  UNL d   1       0.141  -0.202  -0.252  0.00  0.00     0.143 A 
ATOM      2  C2  UNL d   1      -0.602  -0.717   0.816  0.00  0.00    -0.057 A 
ATOM      3  C3  UNL d   1      -0.695  -2.096   1.038  0.00  0.00     0.033 A 
ATOM      4  C4  UNL d   1      -0.068  -2.989   0.176  0.00  0.00    -0.042 A 
ATOM      5  C5  UNL d   1       0.655  -2.502  -0.907  0.00  0.00     0.033 A 
ATOM      6  C6  UNL d   1       0.749  -1.123  -1.120  0.00  0.00    -0.057 A 
ENDROOT
BRANCH   1   7
ATOM      7  N   UNL d   1       0.190   1.154  -0.583  0.00  0.00    -0.732 N 
ATOM      8  C   UNL d   1       0.728   2.121   0.349  0.00  0.00     0.284 C 
ATOM      9  H3  UNL d   1       0.470   1.308  -1.550  0.00  0.00     0.395 HD
ENDBRANCH   1   7
TORSDOF 1
ENDMDL
