MODEL 1
REMARK minimizedAffinity -1.17463696
REMARK minimizedRMSD -1
REMARK  1 active torsions:
REMARK  status: ('A' for Active; 'I' for Inactive)
REMARK    1  A    between atoms: N_2  and  C1_3 
ROOT
ATOM      1  C1  UNL d   1       0.621   2.008  -0.018  0.00  0.00     0.143 A 
ATOM      2  C2  UNL d   1       0.118   3.067   0.745  0.00  0.00    -0.057 A 
ATOM      3  C3  UNL d   1       0.962   4.061   1.253  0.00  0.00     0.033 A 
ATOM      4  C4  UNL d   1       2.334   3.998   1.030  0.00  0.00    -0.042 A 
ATOM      5  C5  UNL d   1       2.859   2.941   0.295  0.00  0.00     0.033 A 
ATOM      6  C6  UNL d   1       2.009   1.954  -0.215  0.00  0.00    -0.057 A 
ENDROOT
BRANCH   1   7
ATOM      7  N   UNL d   1      -0.155   0.936  -0.468  0.00  0.00    -0.732 N 
ATOM      8  C   UNL d   1       0.256  -0.428  -0.214  0.00  0.00     0.284 C 
ATOM      9  H3  UNL d   1      -1.152   1.100  -0.346  0.00  0.00     0.395 HD
ENDBRANCH   1   7
TORSDOF 1
ENDMDL
