MODEL 1
REMARK minimizedAffinity -4.64494228
REMARK minimizedRMSD -1
REMARK  1 active torsions:
REMARK  status: ('A' for Active; 'I' for Inactive)
REMARK    1  A    between atoms: N_2  and  C1_3 
ROOT
ATOM      1  C1  UNL d   1      -0.099   0.608  -0.389  0.00  0.00     0.143 A 
ATOM      2  C2  UNL d   1       0.185  -0.600  -1.035  0.00  0.00    -0.057 A 
ATOM      3  C3  UNL d   1       0.022  -1.828  -0.382  0.00  0.00     0.033 A 
ATOM      4  C4  UNL d   1      -0.400  -1.869   0.942  0.00  0.00    -0.042 A 
ATOM      5  C5  UNL d   1      -0.665  -0.679   1.612  0.00  0.00     0.033 A 
ATOM      6  C6  UNL d   1      -0.507   0.544   0.953  0.00  0.00    -0.057 A 
ENDROOT
BRANCH   1   7
ATOM      7  N   UNL d   1       0.136   1.865  -0.951  0.00  0.00    -0.732 N 
ATOM      8  C   UNL d   1       0.376   3.016  -0.108  0.00  0.00     0.284 C 
ATOM      9  H3  UNL d   1       0.737   1.817  -1.771  0.00  0.00     0.395 HD
ENDBRANCH   1   7
TORSDOF 1
ENDMDL
