MODEL 1
REMARK minimizedAffinity -4.40206528
REMARK minimizedRMSD -1
REMARK  1 active torsions:
REMARK  status: ('A' for Active; 'I' for Inactive)
REMARK    1  A    between atoms: N_2  and  C1_3 
ROOT
ATOM      1  C1  UNL d   1      -0.172   0.385  -0.195  0.00  0.00     0.143 A 
ATOM      2  C2  UNL d   1       0.418  -0.836  -0.536  0.00  0.00    -0.057 A 
ATOM      3  C3  UNL d   1       0.009  -2.033   0.064  0.00  0.00     0.033 A 
ATOM      4  C4  UNL d   1      -0.981  -2.026   1.040  0.00  0.00    -0.042 A 
ATOM      5  C5  UNL d   1      -1.565  -0.820   1.413  0.00  0.00     0.033 A 
ATOM      6  C6  UNL d   1      -1.157   0.371   0.805  0.00  0.00    -0.057 A 
ENDROOT
BRANCH   1   7
ATOM      7  N   UNL d   1       0.258   1.621  -0.685  0.00  0.00    -0.732 N 
ATOM      8  C   UNL d   1       0.398   2.756   0.202  0.00  0.00     0.284 C 
ATOM      9  H3  UNL d   1       1.010   1.529  -1.364  0.00  0.00     0.395 HD
ENDBRANCH   1   7
TORSDOF 1
ENDMDL
