MODEL 1
REMARK minimizedAffinity -5.53057051
REMARK minimizedRMSD -1
REMARK  1 active torsions:
REMARK  status: ('A' for Active; 'I' for Inactive)
REMARK    1  A    between atoms: N_2  and  C1_3 
ROOT
ATOM      1  C1  UNL d   1      -0.013  -0.692  -0.833  0.00  0.00     0.143 A 
ATOM      2  C2  UNL d   1      -0.297  -1.339   0.374  0.00  0.00    -0.057 A 
ATOM      3  C3  UNL d   1      -0.274  -2.735   0.474  0.00  0.00     0.033 A 
ATOM      4  C4  UNL d   1       0.007  -3.513  -0.645  0.00  0.00    -0.042 A 
ATOM      5  C5  UNL d   1       0.268  -2.893  -1.861  0.00  0.00     0.033 A 
ATOM      6  C6  UNL d   1       0.250  -1.498  -1.952  0.00  0.00    -0.057 A 
ENDROOT
BRANCH   1   7
ATOM      7  N   UNL d   1      -0.116   0.688  -1.020  0.00  0.00    -0.732 N 
ATOM      8  C   UNL d   1       0.244   1.604   0.041  0.00  0.00     0.284 C 
ATOM      9  H3  UNL d   1       0.193   0.980  -1.944  0.00  0.00     0.395 HD
ENDBRANCH   1   7
TORSDOF 1
ENDMDL
