MODEL 1
REMARK minimizedAffinity -5.00706577
REMARK minimizedRMSD -1
REMARK  1 active torsions:
REMARK  status: ('A' for Active; 'I' for Inactive)
REMARK    1  A    between atoms: N_2  and  C1_3 
ROOT
ATOM      1  C1  UNL d   1      -0.058  -0.233  -0.387  0.00  0.00     0.143 A 
ATOM      2  C2  UNL d   1      -0.415  -0.973   0.745  0.00  0.00    -0.057 A 
ATOM      3  C3  UNL d   1      -0.145  -2.344   0.831  0.00  0.00     0.033 A 
ATOM      4  C4  UNL d   1       0.463  -3.008  -0.229  0.00  0.00    -0.042 A 
ATOM      5  C5  UNL d   1       0.804  -2.298  -1.375  0.00  0.00     0.033 A 
ATOM      6  C6  UNL d   1       0.538  -0.927  -1.452  0.00  0.00    -0.057 A 
ENDROOT
BRANCH   1   7
ATOM      7  N   UNL d   1      -0.388   1.111  -0.574  0.00  0.00    -0.732 N 
ATOM      8  C   UNL d   1       0.469   2.158  -0.060  0.00  0.00     0.284 C 
ATOM      9  H3  UNL d   1      -0.757   1.295  -1.504  0.00  0.00     0.395 HD
ENDBRANCH   1   7
TORSDOF 1
ENDMDL
