MODEL 1
REMARK minimizedAffinity -4.06408215
REMARK minimizedRMSD -1
REMARK  1 active torsions:
REMARK  status: ('A' for Active; 'I' for Inactive)
REMARK    1  A    between atoms: N_2  and  C1_3 
ROOT
ATOM      1  C1  UNL d   1       0.102  -0.195  -0.129  0.00  0.00     0.143 A 
ATOM      2  C2  UNL d   1       1.211  -0.995  -0.426  0.00  0.00    -0.057 A 
ATOM      3  C3  UNL d   1       1.305  -2.309   0.049  0.00  0.00     0.033 A 
ATOM      4  C4  UNL d   1       0.303  -2.838   0.856  0.00  0.00    -0.042 A 
ATOM      5  C5  UNL d   1      -0.796  -2.051   1.184  0.00  0.00     0.033 A 
ATOM      6  C6  UNL d   1      -0.888  -0.742   0.702  0.00  0.00    -0.057 A 
ENDROOT
BRANCH   1   7
ATOM      7  N   UNL d   1      -0.003   1.151  -0.488  0.00  0.00    -0.732 N 
ATOM      8  C   UNL d   1       1.042   2.091  -0.143  0.00  0.00     0.284 C 
ATOM      9  H3  UNL d   1      -0.380   1.274  -1.425  0.00  0.00     0.395 HD
ENDBRANCH   1   7
TORSDOF 1
ENDMDL
