MODEL 1
REMARK minimizedAffinity -4.40258265
REMARK minimizedRMSD -1
REMARK  1 active torsions:
REMARK  status: ('A' for Active; 'I' for Inactive)
REMARK    1  A    between atoms: N_2  and  C1_3 
ROOT
ATOM      1  C1  UNL d   1       0.156   0.190  -0.040  0.00  0.00     0.143 A 
ATOM      2  C2  UNL d   1      -0.610  -0.386   0.979  0.00  0.00    -0.057 A 
ATOM      3  C3  UNL d   1      -0.795  -1.772   1.053  0.00  0.00     0.033 A 
ATOM      4  C4  UNL d   1      -0.238  -2.607   0.089  0.00  0.00    -0.042 A 
ATOM      5  C5  UNL d   1       0.506  -2.054  -0.946  0.00  0.00     0.033 A 
ATOM      6  C6  UNL d   1       0.693  -0.670  -1.011  0.00  0.00    -0.057 A 
ENDROOT
BRANCH   1   7
ATOM      7  N   UNL d   1       0.295   1.568  -0.224  0.00  0.00    -0.732 N 
ATOM      8  C   UNL d   1       1.576   2.212  -0.026  0.00  0.00     0.284 C 
ATOM      9  H3  UNL d   1      -0.220   1.905  -1.034  0.00  0.00     0.395 HD
ENDBRANCH   1   7
TORSDOF 1
ENDMDL
