MODEL 1
REMARK minimizedAffinity -5.06066847
REMARK minimizedRMSD -1
REMARK  1 active torsions:
REMARK  status: ('A' for Active; 'I' for Inactive)
REMARK    1  A    between atoms: C1_2  and  C2_3 
ROOT
ATOM      1  C2  UNL d   1      -0.046   0.109   1.049  0.00  0.00    -0.077 A 
ATOM      2  C3  UNL d   1       0.911   0.540   0.121  0.00  0.00     0.002 A 
ATOM      3  C4  UNL d   1       0.546   0.802  -1.201  0.00  0.00     0.002 A 
ATOM      4  C5  UNL d   1      -0.777   0.639  -1.605  0.00  0.00    -0.004 A 
ATOM      5  C6  UNL d   1      -1.737   0.209  -0.690  0.00  0.00     0.002 A 
ATOM      6  C7  UNL d   1      -1.373  -0.054   0.632  0.00  0.00     0.002 A 
ENDROOT
BRANCH   1   7
ATOM      7  C1  UNL d   1       0.336  -0.126   2.487  0.00  0.00     0.055 C 
ATOM      8  C   UNL d   1      -0.670  -1.028   3.187  0.00  0.00     0.019 C 
ENDBRANCH   1   7
TORSDOF 1
ENDMDL
