MODEL 1
REMARK minimizedAffinity -3.13348269
REMARK minimizedRMSD -1
REMARK  1 active torsions:
REMARK  status: ('A' for Active; 'I' for Inactive)
REMARK    1  A    between atoms: C1_2  and  C2_3 
ROOT
ATOM      1  C2  UNL d   1      -0.047   0.034   0.103  0.00  0.00    -0.077 A 
ATOM      2  C3  UNL d   1      -0.860  -0.168   1.227  0.00  0.00     0.002 A 
ATOM      3  C4  UNL d   1      -0.333  -0.038   2.513  0.00  0.00     0.002 A 
ATOM      4  C5  UNL d   1       1.007   0.300   2.688  0.00  0.00    -0.004 A 
ATOM      5  C6  UNL d   1       1.825   0.501   1.576  0.00  0.00     0.002 A 
ATOM      6  C7  UNL d   1       1.300   0.370   0.290  0.00  0.00     0.002 A 
ENDROOT
BRANCH   1   7
ATOM      7  C1  UNL d   1      -0.625  -0.058  -1.285  0.00  0.00     0.055 C 
ATOM      8  C   UNL d   1       0.465  -0.262  -2.327  0.00  0.00     0.019 C 
ENDBRANCH   1   7
TORSDOF 1
ENDMDL
