MODEL 1
REMARK minimizedAffinity -3.72936749
REMARK minimizedRMSD -1
REMARK  1 active torsions:
REMARK  status: ('A' for Active; 'I' for Inactive)
REMARK    1  A    between atoms: C1_2  and  C2_3 
ROOT
ATOM      1  C2  UNL d   1       0.832  -1.756  -1.374  0.00  0.00    -0.077 A 
ATOM      2  C3  UNL d   1       1.253  -2.148  -0.095  0.00  0.00     0.002 A 
ATOM      3  C4  UNL d   1       0.923  -1.380   1.023  0.00  0.00     0.002 A 
ATOM      4  C5  UNL d   1       0.167  -0.219   0.875  0.00  0.00    -0.004 A 
ATOM      5  C6  UNL d   1      -0.255   0.179  -0.392  0.00  0.00     0.002 A 
ATOM      6  C7  UNL d   1       0.075  -0.586  -1.511  0.00  0.00     0.002 A 
ENDROOT
BRANCH   1   7
ATOM      7  C1  UNL d   1       1.145  -2.609  -2.575  0.00  0.00     0.055 C 
ATOM      8  C   UNL d   1       1.667  -1.767  -3.731  0.00  0.00     0.019 C 
ENDBRANCH   1   7
TORSDOF 1
ENDMDL
