MODEL 1
REMARK minimizedAffinity -4.59322596
REMARK minimizedRMSD -1
REMARK  1 active torsions:
REMARK  status: ('A' for Active; 'I' for Inactive)
REMARK    1  A    between atoms: C1_2  and  C2_3 
ROOT
ATOM      1  C2  UNL d   1      -0.026   0.259  -0.014  0.00  0.00    -0.077 A 
ATOM      2  C3  UNL d   1       0.941   0.689   0.906  0.00  0.00     0.002 A 
ATOM      3  C4  UNL d   1       0.839   0.336   2.253  0.00  0.00     0.002 A 
ATOM      4  C5  UNL d   1      -0.224  -0.450   2.691  0.00  0.00    -0.004 A 
ATOM      5  C6  UNL d   1      -1.191  -0.881   1.784  0.00  0.00     0.002 A 
ATOM      6  C7  UNL d   1      -1.092  -0.529   0.438  0.00  0.00     0.002 A 
ENDROOT
BRANCH   1   7
ATOM      7  C1  UNL d   1       0.109   0.596  -1.476  0.00  0.00     0.055 C 
ATOM      8  C   UNL d   1       0.163  -0.661  -2.332  0.00  0.00     0.019 C 
ENDBRANCH   1   7
TORSDOF 1
ENDMDL
