MODEL 1
REMARK minimizedAffinity -3.44480562
REMARK minimizedRMSD -1
REMARK  1 active torsions:
REMARK  status: ('A' for Active; 'I' for Inactive)
REMARK    1  A    between atoms: C1_2  and  C2_3 
ROOT
ATOM      1  C2  UNL d   1       0.252  -0.088  -0.555  0.00  0.00    -0.077 A 
ATOM      2  C3  UNL d   1      -0.828  -0.375   0.292  0.00  0.00     0.002 A 
ATOM      3  C4  UNL d   1      -0.645  -0.436   1.674  0.00  0.00     0.002 A 
ATOM      4  C5  UNL d   1       0.615  -0.207   2.223  0.00  0.00    -0.004 A 
ATOM      5  C6  UNL d   1       1.696   0.078   1.389  0.00  0.00     0.002 A 
ATOM      6  C7  UNL d   1       1.515   0.138   0.006  0.00  0.00     0.002 A 
ENDROOT
BRANCH   1   7
ATOM      7  C1  UNL d   1       0.046   0.027  -2.043  0.00  0.00     0.055 C 
ATOM      8  C   UNL d   1       1.206  -0.589  -2.811  0.00  0.00     0.019 C 
ENDBRANCH   1   7
TORSDOF 1
ENDMDL
