MODEL 1
REMARK minimizedAffinity -4.9502387
REMARK minimizedRMSD -1
REMARK  1 active torsions:
REMARK  status: ('A' for Active; 'I' for Inactive)
REMARK    1  A    between atoms: C1_2  and  C2_3 
ROOT
ATOM      1  C2  UNL d   1      -0.976  -0.492   0.908  0.00  0.00    -0.077 A 
ATOM      2  C3  UNL d   1       0.215  -0.119   0.271  0.00  0.00     0.002 A 
ATOM      3  C4  UNL d   1       0.183   0.503  -0.979  0.00  0.00     0.002 A 
ATOM      4  C5  UNL d   1      -1.037   0.759  -1.600  0.00  0.00    -0.004 A 
ATOM      5  C6  UNL d   1      -2.228   0.389  -0.975  0.00  0.00     0.002 A 
ATOM      6  C7  UNL d   1      -2.197  -0.233   0.274  0.00  0.00     0.002 A 
ENDROOT
BRANCH   1   7
ATOM      7  C1  UNL d   1      -0.945  -1.118   2.278  0.00  0.00     0.055 C 
ATOM      8  C   UNL d   1      -0.379  -0.157   3.313  0.00  0.00     0.019 C 
ENDBRANCH   1   7
TORSDOF 1
ENDMDL
