MODEL 1
REMARK minimizedAffinity -5.15907574
REMARK minimizedRMSD -1
REMARK  1 active torsions:
REMARK  status: ('A' for Active; 'I' for Inactive)
REMARK    1  A    between atoms: C1_2  and  C2_3 
ROOT
ATOM      1  C2  UNL d   1      -0.355   0.077  -0.618  0.00  0.00    -0.077 A 
ATOM      2  C3  UNL d   1      -1.668  -0.269  -0.268  0.00  0.00     0.002 A 
ATOM      3  C4  UNL d   1      -1.979  -0.619   1.048  0.00  0.00     0.002 A 
ATOM      4  C5  UNL d   1      -0.985  -0.623   2.023  0.00  0.00    -0.004 A 
ATOM      5  C6  UNL d   1       0.324  -0.282   1.685  0.00  0.00     0.002 A 
ATOM      6  C7  UNL d   1       0.638   0.067   0.370  0.00  0.00     0.002 A 
ENDROOT
BRANCH   1   7
ATOM      7  C1  UNL d   1      -0.027   0.502  -2.025  0.00  0.00     0.055 C 
ATOM      8  C   UNL d   1       0.350  -0.691  -2.891  0.00  0.00     0.019 C 
ENDBRANCH   1   7
TORSDOF 1
ENDMDL
