MODEL 1
REMARK minimizedAffinity -4.96977282
REMARK minimizedRMSD -1
REMARK  1 active torsions:
REMARK  status: ('A' for Active; 'I' for Inactive)
REMARK    1  A    between atoms: C1_2  and  C2_3 
ROOT
ATOM      1  C2  UNL d   1       0.300  -0.003  -0.946  0.00  0.00    -0.077 A 
ATOM      2  C3  UNL d   1      -0.403  -0.881  -0.109  0.00  0.00     0.002 A 
ATOM      3  C4  UNL d   1      -0.321  -0.751   1.279  0.00  0.00     0.002 A 
ATOM      4  C5  UNL d   1       0.457   0.258   1.842  0.00  0.00    -0.004 A 
ATOM      5  C6  UNL d   1       1.161   1.135   1.018  0.00  0.00     0.002 A 
ATOM      6  C7  UNL d   1       1.082   1.006  -0.370  0.00  0.00     0.002 A 
ENDROOT
BRANCH   1   7
ATOM      7  C1  UNL d   1       0.174  -0.110  -2.443  0.00  0.00     0.055 C 
ATOM      8  C   UNL d   1       0.294  -1.555  -2.906  0.00  0.00     0.019 C 
ENDBRANCH   1   7
TORSDOF 1
ENDMDL
