MODEL 1
REMARK minimizedAffinity -3.86829376
REMARK minimizedRMSD -1
REMARK  1 active torsions:
REMARK  status: ('A' for Active; 'I' for Inactive)
REMARK    1  A    between atoms: C1_2  and  C2_3 
ROOT
ATOM      1  C2  UNL d   1       0.088  -0.068  -0.456  0.00  0.00    -0.077 A 
ATOM      2  C3  UNL d   1      -0.875  -0.863   0.182  0.00  0.00     0.002 A 
ATOM      3  C4  UNL d   1      -0.946  -0.903   1.575  0.00  0.00     0.002 A 
ATOM      4  C5  UNL d   1      -0.061  -0.148   2.342  0.00  0.00    -0.004 A 
ATOM      5  C6  UNL d   1       0.901   0.644   1.717  0.00  0.00     0.002 A 
ATOM      6  C7  UNL d   1       0.974   0.684   0.324  0.00  0.00     0.002 A 
ENDROOT
BRANCH   1   7
ATOM      7  C1  UNL d   1       0.134   0.015  -1.960  0.00  0.00     0.055 C 
ATOM      8  C   UNL d   1       0.427  -1.344  -2.580  0.00  0.00     0.019 C 
ENDBRANCH   1   7
TORSDOF 1
ENDMDL
