MODEL 1
REMARK minimizedAffinity -1.36267829
REMARK minimizedRMSD -1
REMARK  1 active torsions:
REMARK  status: ('A' for Active; 'I' for Inactive)
REMARK    1  A    between atoms: C1_2  and  C2_3 
ROOT
ATOM      1  C2  UNL d   1      -0.610   0.100   1.603  0.00  0.00    -0.077 A 
ATOM      2  C3  UNL d   1       0.469  -0.338   0.823  0.00  0.00     0.002 A 
ATOM      3  C4  UNL d   1       0.355  -0.405  -0.566  0.00  0.00     0.002 A 
ATOM      4  C5  UNL d   1      -0.834  -0.031  -1.188  0.00  0.00    -0.004 A 
ATOM      5  C6  UNL d   1      -1.914   0.403  -0.421  0.00  0.00     0.002 A 
ATOM      6  C7  UNL d   1      -1.803   0.470   0.968  0.00  0.00     0.002 A 
ENDROOT
BRANCH   1   7
ATOM      7  C1  UNL d   1      -0.473   0.219   3.099  0.00  0.00     0.055 C 
ATOM      8  C   UNL d   1       0.109   1.568   3.495  0.00  0.00     0.019 C 
ENDBRANCH   1   7
TORSDOF 1
ENDMDL
