MODEL 1
REMARK minimizedAffinity 4.93312645
REMARK minimizedRMSD -1
REMARK  1 active torsions:
REMARK  status: ('A' for Active; 'I' for Inactive)
REMARK    1  A    between atoms: N_2  and  C1_3 
ROOT
ATOM      1  C1  UNL d   1       4.153  -0.650  -3.882  0.00  0.00     0.143 A 
ATOM      2  C2  UNL d   1       3.399   0.354  -4.499  0.00  0.00    -0.057 A 
ATOM      3  C3  UNL d   1       3.921   1.108  -5.557  0.00  0.00     0.033 A 
ATOM      4  C4  UNL d   1       5.222   0.890  -5.998  0.00  0.00    -0.042 A 
ATOM      5  C5  UNL d   1       5.999  -0.085  -5.383  0.00  0.00     0.033 A 
ATOM      6  C6  UNL d   1       5.470  -0.839  -4.332  0.00  0.00    -0.057 A 
ENDROOT
BRANCH   1   7
ATOM      7  N   UNL d   1       3.726  -1.366  -2.761  0.00  0.00    -0.732 N 
ATOM      8  C   UNL d   1       2.896  -2.542  -2.910  0.00  0.00     0.284 C 
ATOM      9  H3  UNL d   1       4.456  -1.460  -2.058  0.00  0.00     0.395 HD
ENDBRANCH   1   7
TORSDOF 1
ENDMDL
