MODEL 1
REMARK minimizedAffinity 4.45977736
REMARK minimizedRMSD -1
REMARK  1 active torsions:
REMARK  status: ('A' for Active; 'I' for Inactive)
REMARK    1  A    between atoms: N_2  and  C1_3 
ROOT
ATOM      1  C1  UNL d   1       3.737   5.062  -2.970  0.00  0.00     0.143 A 
ATOM      2  C2  UNL d   1       4.874   5.523  -2.298  0.00  0.00    -0.057 A 
ATOM      3  C3  UNL d   1       5.990   5.996  -2.999  0.00  0.00     0.033 A 
ATOM      4  C4  UNL d   1       5.999   5.989  -4.390  0.00  0.00    -0.042 A 
ATOM      5  C5  UNL d   1       4.890   5.511  -5.079  0.00  0.00     0.033 A 
ATOM      6  C6  UNL d   1       3.776   5.046  -4.373  0.00  0.00    -0.057 A 
ENDROOT
BRANCH   1   7
ATOM      7  N   UNL d   1       2.636   4.487  -2.331  0.00  0.00    -0.732 N 
ATOM      8  C   UNL d   1       2.103   5.066  -1.116  0.00  0.00     0.284 C 
ATOM      9  H3  UNL d   1       1.925   4.174  -2.988  0.00  0.00     0.395 HD
ENDBRANCH   1   7
TORSDOF 1
ENDMDL
