MODEL 1
REMARK minimizedAffinity 3.86215758
REMARK minimizedRMSD -1
REMARK  1 active torsions:
REMARK  status: ('A' for Active; 'I' for Inactive)
REMARK    1  A    between atoms: N_2  and  C1_3 
ROOT
ATOM      1  C1  UNL d   1      -0.542  -0.524   0.400  0.00  0.00     0.143 A 
ATOM      2  C2  UNL d   1      -0.784  -1.865   0.715  0.00  0.00    -0.057 A 
ATOM      3  C3  UNL d   1       0.266  -2.743   1.008  0.00  0.00     0.033 A 
ATOM      4  C4  UNL d   1       1.584  -2.301   0.963  0.00  0.00    -0.042 A 
ATOM      5  C5  UNL d   1       1.850  -0.978   0.627  0.00  0.00     0.033 A 
ATOM      6  C6  UNL d   1       0.797  -0.104   0.342  0.00  0.00    -0.057 A 
ENDROOT
BRANCH   1   7
ATOM      7  N   UNL d   1      -1.536   0.374   0.003  0.00  0.00    -0.732 N 
ATOM      8  C   UNL d   1      -1.919   0.481  -1.389  0.00  0.00     0.284 C 
ATOM      9  H3  UNL d   1      -2.318   0.399   0.653  0.00  0.00     0.395 HD
ENDBRANCH   1   7
TORSDOF 1
ENDMDL
