MODEL 1
REMARK minimizedAffinity 0.724491358
REMARK minimizedRMSD -1
REMARK  1 active torsions:
REMARK  status: ('A' for Active; 'I' for Inactive)
REMARK    1  A    between atoms: N_2  and  C1_3 
ROOT
ATOM      1  C1  UNL d   1      -4.882  -4.875  -3.753  0.00  0.00     0.143 A 
ATOM      2  C2  UNL d   1      -4.883  -3.479  -3.854  0.00  0.00    -0.057 A 
ATOM      3  C3  UNL d   1      -5.449  -2.832  -4.959  0.00  0.00     0.033 A 
ATOM      4  C4  UNL d   1      -5.999  -3.573  -6.000  0.00  0.00    -0.042 A 
ATOM      5  C5  UNL d   1      -5.987  -4.961  -5.932  0.00  0.00     0.033 A 
ATOM      6  C6  UNL d   1      -5.426  -5.602  -4.823  0.00  0.00    -0.057 A 
ENDROOT
BRANCH   1   7
ATOM      7  N   UNL d   1      -4.247  -5.580  -2.727  0.00  0.00    -0.732 N 
ATOM      8  C   UNL d   1      -4.508  -5.257  -1.341  0.00  0.00     0.284 C 
ATOM      9  H3  UNL d   1      -4.191  -6.577  -2.918  0.00  0.00     0.395 HD
ENDBRANCH   1   7
TORSDOF 1
ENDMDL
