MODEL 1
REMARK minimizedAffinity 7.8933363
REMARK minimizedRMSD -1
REMARK  1 active torsions:
REMARK  status: ('A' for Active; 'I' for Inactive)
REMARK    1  A    between atoms: N_2  and  C1_3 
ROOT
ATOM      1  C1  UNL d   1       3.052   2.088   0.329  0.00  0.00     0.143 A 
ATOM      2  C2  UNL d   1       3.862   0.949   0.262  0.00  0.00    -0.057 A 
ATOM      3  C3  UNL d   1       3.550  -0.207   0.987  0.00  0.00     0.033 A 
ATOM      4  C4  UNL d   1       2.433  -0.235   1.816  0.00  0.00    -0.042 A 
ATOM      5  C5  UNL d   1       1.628   0.893   1.918  0.00  0.00     0.033 A 
ATOM      6  C6  UNL d   1       1.941   2.043   1.186  0.00  0.00    -0.057 A 
ENDROOT
BRANCH   1   7
ATOM      7  N   UNL d   1       3.363   3.301  -0.290  0.00  0.00    -0.732 N 
ATOM      8  C   UNL d   1       2.390   3.974  -1.124  0.00  0.00     0.284 C 
ATOM      9  H3  UNL d   1       3.890   3.923   0.318  0.00  0.00     0.395 HD
ENDBRANCH   1   7
TORSDOF 1
ENDMDL
