MODEL 1
REMARK minimizedAffinity 2.85221577
REMARK minimizedRMSD -1
REMARK  1 active torsions:
REMARK  status: ('A' for Active; 'I' for Inactive)
REMARK    1  A    between atoms: N_2  and  C1_3 
ROOT
ATOM      1  C1  UNL d   1       2.548  -1.810   2.538  0.00  0.00     0.143 A 
ATOM      2  C2  UNL d   1       2.319  -2.392   3.790  0.00  0.00    -0.057 A 
ATOM      3  C3  UNL d   1       1.677  -1.684   4.813  0.00  0.00     0.033 A 
ATOM      4  C4  UNL d   1       1.279  -0.367   4.611  0.00  0.00    -0.042 A 
ATOM      5  C5  UNL d   1       1.519   0.240   3.384  0.00  0.00     0.033 A 
ATOM      6  C6  UNL d   1       2.154  -0.475   2.364  0.00  0.00    -0.057 A 
ENDROOT
BRANCH   1   7
ATOM      7  N   UNL d   1       3.269  -2.429   1.514  0.00  0.00    -0.732 N 
ATOM      8  C   UNL d   1       4.713  -2.502   1.568  0.00  0.00     0.284 C 
ATOM      9  H3  UNL d   1       2.821  -3.281   1.184  0.00  0.00     0.395 HD
ENDBRANCH   1   7
TORSDOF 1
ENDMDL
