MODEL 1
REMARK minimizedAffinity -1.16165197
REMARK minimizedRMSD -1
REMARK  1 active torsions:
REMARK  status: ('A' for Active; 'I' for Inactive)
REMARK    1  A    between atoms: N_2  and  C1_3 
ROOT
ATOM      1  C1  UNL d   1       1.394   0.273   3.916  0.00  0.00     0.143 A 
ATOM      2  C2  UNL d   1       2.111  -0.109   2.777  0.00  0.00    -0.057 A 
ATOM      3  C3  UNL d   1       2.481  -1.443   2.566  0.00  0.00     0.033 A 
ATOM      4  C4  UNL d   1       2.163  -2.417   3.507  0.00  0.00    -0.042 A 
ATOM      5  C5  UNL d   1       1.472  -2.055   4.659  0.00  0.00     0.033 A 
ATOM      6  C6  UNL d   1       1.100  -0.723   4.861  0.00  0.00    -0.057 A 
ENDROOT
BRANCH   1   7
ATOM      7  N   UNL d   1       1.083   1.598   4.231  0.00  0.00    -0.732 N 
ATOM      8  C   UNL d   1       0.919   2.585   3.185  0.00  0.00     0.284 C 
ATOM      9  H3  UNL d   1       0.399   1.669   4.980  0.00  0.00     0.395 HD
ENDBRANCH   1   7
TORSDOF 1
ENDMDL
