MODEL 1
REMARK minimizedAffinity 1.74284983
REMARK minimizedRMSD -1
REMARK  1 active torsions:
REMARK  status: ('A' for Active; 'I' for Inactive)
REMARK    1  A    between atoms: N_2  and  C1_3 
ROOT
ATOM      1  C1  UNL d   1      -5.505  -3.510  -5.465  0.00  0.00     0.143 A 
ATOM      2  C2  UNL d   1      -4.675  -3.578  -4.341  0.00  0.00    -0.057 A 
ATOM      3  C3  UNL d   1      -4.293  -4.809  -3.793  0.00  0.00     0.033 A 
ATOM      4  C4  UNL d   1      -4.761  -5.997  -4.345  0.00  0.00    -0.042 A 
ATOM      5  C5  UNL d   1      -5.607  -5.953  -5.447  0.00  0.00     0.033 A 
ATOM      6  C6  UNL d   1      -5.979  -4.721  -5.994  0.00  0.00    -0.057 A 
ENDROOT
BRANCH   1   7
ATOM      7  N   UNL d   1      -5.999  -2.316  -5.996  0.00  0.00    -0.732 N 
ATOM      8  C   UNL d   1      -5.999  -1.103  -5.208  0.00  0.00     0.284 C 
ATOM      9  H3  UNL d   1      -5.727  -2.181  -6.967  0.00  0.00     0.395 HD
ENDBRANCH   1   7
TORSDOF 1
ENDMDL
