MODEL 1
REMARK minimizedAffinity 15.0097265
REMARK minimizedRMSD -1
REMARK  2 active torsions:
REMARK  status: ('A' for Active; 'I' for Inactive)
REMARK    1  A    between atoms: C1_2  and  C2_3 
REMARK    2  A    between atoms: C2_3  and  C3_4 
ROOT
ATOM      1  C3  UNL d   1      -1.077   1.751  -0.800  0.00  0.00    -0.075 A 
ATOM      2  C4  UNL d   1      -1.083   2.797  -1.734  0.00  0.00     0.002 A 
ATOM      3  C5  UNL d   1      -0.626   4.067  -1.378  0.00  0.00     0.002 A 
ATOM      4  C6  UNL d   1      -0.168   4.308  -0.085  0.00  0.00    -0.004 A 
ATOM      5  C7  UNL d   1      -0.173   3.280   0.856  0.00  0.00     0.002 A 
ATOM      6  C8  UNL d   1      -0.626   2.008   0.501  0.00  0.00     0.002 A 
ENDROOT
BRANCH   1   7
ATOM      7  C2  UNL d   1      -1.543   0.368  -1.188  0.00  0.00     0.056 C 
BRANCH   7   8
ATOM      8  C1  UNL d   1      -2.870  -0.047  -0.544  0.00  0.00     0.007 C 
ATOM      9  C   UNL d   1      -4.028  -0.095  -1.532  0.00  0.00     0.009 C 
ENDBRANCH   7   8
ENDBRANCH   1   7
TORSDOF 2
ENDMDL
