MODEL 1
REMARK minimizedAffinity 5.61164093
REMARK minimizedRMSD -1
REMARK  2 active torsions:
REMARK  status: ('A' for Active; 'I' for Inactive)
REMARK    1  A    between atoms: C1_2  and  C2_3 
REMARK    2  A    between atoms: C2_3  and  C3_4 
ROOT
ATOM      1  C3  UNL d   1      -0.685   3.051   0.456  0.00  0.00    -0.075 A 
ATOM      2  C4  UNL d   1       0.575   2.939   1.062  0.00  0.00     0.002 A 
ATOM      3  C5  UNL d   1       0.693   2.468   2.370  0.00  0.00     0.002 A 
ATOM      4  C6  UNL d   1      -0.445   2.113   3.091  0.00  0.00    -0.004 A 
ATOM      5  C7  UNL d   1      -1.703   2.236   2.505  0.00  0.00     0.002 A 
ATOM      6  C8  UNL d   1      -1.824   2.703   1.195  0.00  0.00     0.002 A 
ENDROOT
BRANCH   1   7
ATOM      7  C2  UNL d   1      -0.817   3.532  -0.969  0.00  0.00     0.056 C 
BRANCH   7   8
ATOM      8  C1  UNL d   1      -0.306   4.959  -1.196  0.00  0.00     0.007 C 
ATOM      9  C   UNL d   1      -0.982   5.988  -0.299  0.00  0.00     0.009 C 
ENDBRANCH   7   8
ENDBRANCH   1   7
TORSDOF 2
ENDMDL
