MODEL 1
REMARK minimizedAffinity 5.65041542
REMARK minimizedRMSD -1
REMARK  2 active torsions:
REMARK  status: ('A' for Active; 'I' for Inactive)
REMARK    1  A    between atoms: C1_2  and  C2_3 
REMARK    2  A    between atoms: C2_3  and  C3_4 
ROOT
ATOM      1  C3  UNL d   1      -0.128   3.163   1.756  0.00  0.00    -0.075 A 
ATOM      2  C4  UNL d   1      -0.125   4.551   1.559  0.00  0.00     0.002 A 
ATOM      3  C5  UNL d   1      -0.232   5.084   0.274  0.00  0.00     0.002 A 
ATOM      4  C6  UNL d   1      -0.332   4.238  -0.828  0.00  0.00    -0.004 A 
ATOM      5  C7  UNL d   1      -0.319   2.857  -0.646  0.00  0.00     0.002 A 
ATOM      6  C8  UNL d   1      -0.216   2.321   0.639  0.00  0.00     0.002 A 
ENDROOT
BRANCH   1   7
ATOM      7  C2  UNL d   1      -0.042   2.580   3.146  0.00  0.00     0.056 C 
BRANCH   7   8
ATOM      8  C1  UNL d   1       1.391   2.378   3.651  0.00  0.00     0.007 C 
ATOM      9  C   UNL d   1       2.033   3.661   4.163  0.00  0.00     0.009 C 
ENDBRANCH   7   8
ENDBRANCH   1   7
TORSDOF 2
ENDMDL
