MODEL 1
REMARK minimizedAffinity 7.97559834
REMARK minimizedRMSD -1
REMARK  2 active torsions:
REMARK  status: ('A' for Active; 'I' for Inactive)
REMARK    1  A    between atoms: C1_2  and  C2_3 
REMARK    2  A    between atoms: C2_3  and  C3_4 
ROOT
ATOM      1  C3  UNL d   1      -1.411   1.990  -0.238  0.00  0.00    -0.075 A 
ATOM      2  C4  UNL d   1      -1.224   1.863   1.146  0.00  0.00     0.002 A 
ATOM      3  C5  UNL d   1      -0.694   2.919   1.888  0.00  0.00     0.002 A 
ATOM      4  C6  UNL d   1      -0.335   4.107   1.257  0.00  0.00    -0.004 A 
ATOM      5  C7  UNL d   1      -0.500   4.238  -0.120  0.00  0.00     0.002 A 
ATOM      6  C8  UNL d   1      -1.035   3.185  -0.865  0.00  0.00     0.002 A 
ENDROOT
BRANCH   1   7
ATOM      7  C2  UNL d   1      -2.012   0.862  -1.043  0.00  0.00     0.056 C 
BRANCH   7   8
ATOM      8  C1  UNL d   1      -3.306   0.294  -0.451  0.00  0.00     0.007 C 
ATOM      9  C   UNL d   1      -4.494   0.392  -1.399  0.00  0.00     0.009 C 
ENDBRANCH   7   8
ENDBRANCH   1   7
TORSDOF 2
ENDMDL
