MODEL 1
REMARK minimizedAffinity 9.37682152
REMARK minimizedRMSD -1
REMARK  2 active torsions:
REMARK  status: ('A' for Active; 'I' for Inactive)
REMARK    1  A    between atoms: C1_2  and  C2_3 
REMARK    2  A    between atoms: C2_3  and  C3_4 
ROOT
ATOM      1  C3  UNL d   1      -2.143   1.491   0.187  0.00  0.00    -0.075 A 
ATOM      2  C4  UNL d   1      -2.102   1.221   1.562  0.00  0.00     0.002 A 
ATOM      3  C5  UNL d   1      -0.984   1.569   2.320  0.00  0.00     0.002 A 
ATOM      4  C6  UNL d   1       0.111   2.180   1.712  0.00  0.00    -0.004 A 
ATOM      5  C7  UNL d   1       0.088   2.437   0.343  0.00  0.00     0.002 A 
ATOM      6  C8  UNL d   1      -1.032   2.095  -0.417  0.00  0.00     0.002 A 
ENDROOT
BRANCH   1   7
ATOM      7  C2  UNL d   1      -3.362   1.144  -0.633  0.00  0.00     0.056 C 
BRANCH   7   8
ATOM      8  C1  UNL d   1      -4.369   0.247   0.095  0.00  0.00     0.007 C 
ATOM      9  C   UNL d   1      -5.563   1.011   0.650  0.00  0.00     0.009 C 
ENDBRANCH   7   8
ENDBRANCH   1   7
TORSDOF 2
ENDMDL
