MODEL 1
REMARK minimizedAffinity 8.66786194
REMARK minimizedRMSD -1
REMARK  2 active torsions:
REMARK  status: ('A' for Active; 'I' for Inactive)
REMARK    1  A    between atoms: C1_2  and  C2_3 
REMARK    2  A    between atoms: C2_3  and  C3_4 
ROOT
ATOM      1  C3  UNL d   1      -1.038   1.067  -0.858  0.00  0.00    -0.075 A 
ATOM      2  C4  UNL d   1      -2.439   1.113  -0.803  0.00  0.00     0.002 A 
ATOM      3  C5  UNL d   1      -3.197  -0.018  -1.107  0.00  0.00     0.002 A 
ATOM      4  C6  UNL d   1      -2.568  -1.204  -1.478  0.00  0.00    -0.004 A 
ATOM      5  C7  UNL d   1      -1.177  -1.256  -1.552  0.00  0.00     0.002 A 
ATOM      6  C8  UNL d   1      -0.416  -0.128  -1.245  0.00  0.00     0.002 A 
ENDROOT
BRANCH   1   7
ATOM      7  C2  UNL d   1      -0.211   2.279  -0.503  0.00  0.00     0.056 C 
BRANCH   7   8
ATOM      8  C1  UNL d   1      -0.338   3.435  -1.500  0.00  0.00     0.007 C 
ATOM      9  C   UNL d   1       0.122   4.771  -0.932  0.00  0.00     0.009 C 
ENDBRANCH   7   8
ENDBRANCH   1   7
TORSDOF 2
ENDMDL
