MODEL 1
REMARK minimizedAffinity 16.9443092
REMARK minimizedRMSD -1
REMARK  2 active torsions:
REMARK  status: ('A' for Active; 'I' for Inactive)
REMARK    1  A    between atoms: C2'_3  and  C1'_4 
REMARK    2  A    between atoms: C1'_4  and  C1_5 
ROOT
ATOM      1  C1  I4B d   1      -4.416   1.455   2.995  0.00  0.00    -0.075 A 
ATOM      2  C2  I4B d   1      -4.903   0.799   1.893  0.00  0.00     0.003 A 
ATOM      3  C3  I4B d   1      -4.022   0.102   1.031  0.00  0.00     0.002 A 
ATOM      4  C4  I4B d   1      -2.665   0.129   1.279  0.00  0.00    -0.004 A 
ATOM      5  C5  I4B d   1      -2.175   0.775   2.410  0.00  0.00     0.002 A 
ATOM      6  C6  I4B d   1      -3.057   1.432   3.281  0.00  0.00     0.003 A 
ENDROOT
BRANCH   1   7
ATOM      7  C1' I4B d   1      -5.371   2.208   3.866  0.00  0.00     0.060 C 
BRANCH   7   8
ATOM      8  C2' I4B d   1      -4.943   2.012   5.307  0.00  0.00    -0.013 C 
ATOM      9  C4' I4B d   1      -4.739   3.334   5.999  0.00  0.00     0.013 C 
ATOM     10  C3' I4B d   1      -5.996   1.197   5.995  0.00  0.00     0.013 C 
ENDBRANCH   7   8
ENDBRANCH   1   7
TORSDOF 2
ENDMDL
