MODEL 1
REMARK minimizedAffinity 9.77592373
REMARK minimizedRMSD -1
REMARK  2 active torsions:
REMARK  status: ('A' for Active; 'I' for Inactive)
REMARK    1  A    between atoms: C2'_3  and  C1'_4 
REMARK    2  A    between atoms: C1'_4  and  C1_5 
ROOT
ATOM      1  C1  I4B d   1       1.251  -1.744   0.568  0.00  0.00    -0.075 A 
ATOM      2  C2  I4B d   1       1.839  -0.569   0.963  0.00  0.00     0.003 A 
ATOM      3  C3  I4B d   1       1.133   0.341   1.787  0.00  0.00     0.002 A 
ATOM      4  C4  I4B d   1      -0.169   0.060   2.149  0.00  0.00    -0.004 A 
ATOM      5  C5  I4B d   1      -0.756  -1.143   1.767  0.00  0.00     0.002 A 
ATOM      6  C6  I4B d   1      -0.038  -2.057   0.981  0.00  0.00     0.003 A 
ENDROOT
BRANCH   1   7
ATOM      7  C1' I4B d   1       2.014  -2.666  -0.329  0.00  0.00     0.060 C 
BRANCH   7   8
ATOM      8  C2' I4B d   1       2.574  -3.787   0.521  0.00  0.00    -0.013 C 
ATOM      9  C4' I4B d   1       2.112  -5.132   0.025  0.00  0.00     0.013 C 
ATOM     10  C3' I4B d   1       4.070  -3.686   0.494  0.00  0.00     0.013 C 
ENDBRANCH   7   8
ENDBRANCH   1   7
TORSDOF 2
ENDMDL
