MODEL 1
REMARK minimizedAffinity 8.62935352
REMARK minimizedRMSD -1
REMARK  2 active torsions:
REMARK  status: ('A' for Active; 'I' for Inactive)
REMARK    1  A    between atoms: C2'_3  and  C1'_4 
REMARK    2  A    between atoms: C1'_4  and  C1_5 
ROOT
ATOM      1  C1  I4B d   1       1.487  -2.114   0.657  0.00  0.00    -0.075 A 
ATOM      2  C2  I4B d   1       1.877  -0.927   1.226  0.00  0.00     0.003 A 
ATOM      3  C3  I4B d   1       0.954  -0.159   1.976  0.00  0.00     0.002 A 
ATOM      4  C4  I4B d   1      -0.353  -0.587   2.088  0.00  0.00    -0.004 A 
ATOM      5  C5  I4B d   1      -0.741  -1.802   1.530  0.00  0.00     0.002 A 
ATOM      6  C6  I4B d   1       0.188  -2.577   0.821  0.00  0.00     0.003 A 
ENDROOT
BRANCH   1   7
ATOM      7  C1' I4B d   1       2.479  -2.884  -0.156  0.00  0.00     0.060 C 
BRANCH   7   8
ATOM      8  C2' I4B d   1       3.151  -3.890   0.757  0.00  0.00    -0.013 C 
ATOM      9  C4' I4B d   1       2.709  -5.294   0.441  0.00  0.00     0.013 C 
ATOM     10  C3' I4B d   1       4.635  -3.741   0.598  0.00  0.00     0.013 C 
ENDBRANCH   7   8
ENDBRANCH   1   7
TORSDOF 2
ENDMDL
