MODEL 1
REMARK minimizedAffinity 5.25622606
REMARK minimizedRMSD -1
REMARK  2 active torsions:
REMARK  status: ('A' for Active; 'I' for Inactive)
REMARK    1  A    between atoms: C2'_3  and  C1'_4 
REMARK    2  A    between atoms: C1'_4  and  C1_5 
ROOT
ATOM      1  C1  I4B d   1       1.946   0.375   0.554  0.00  0.00    -0.075 A 
ATOM      2  C2  I4B d   1       1.735   1.351   1.496  0.00  0.00     0.003 A 
ATOM      3  C3  I4B d   1       2.684   2.386   1.675  0.00  0.00     0.002 A 
ATOM      4  C4  I4B d   1       3.846   2.379   0.931  0.00  0.00    -0.004 A 
ATOM      5  C5  I4B d   1       4.048   1.402  -0.040  0.00  0.00     0.002 A 
ATOM      6  C6  I4B d   1       3.086   0.401  -0.239  0.00  0.00     0.003 A 
ENDROOT
BRANCH   1   7
ATOM      7  C1' I4B d   1       0.938  -0.721   0.413  0.00  0.00     0.060 C 
BRANCH   7   8
ATOM      8  C2' I4B d   1       0.328  -0.972   1.777  0.00  0.00    -0.013 C 
ATOM      9  C4' I4B d   1      -1.065  -0.406   1.864  0.00  0.00     0.013 C 
ATOM     10  C3' I4B d   1       0.327  -2.452   2.019  0.00  0.00     0.013 C 
ENDBRANCH   7   8
ENDBRANCH   1   7
TORSDOF 2
ENDMDL
