MODEL 1
REMARK minimizedAffinity 5.93846226
REMARK minimizedRMSD -1
REMARK  2 active torsions:
REMARK  status: ('A' for Active; 'I' for Inactive)
REMARK    1  A    between atoms: C2'_3  and  C1'_4 
REMARK    2  A    between atoms: C1'_4  and  C1_5 
ROOT
ATOM      1  C1  I4B d   1      -5.255   2.190   4.163  0.00  0.00    -0.075 A 
ATOM      2  C2  I4B d   1      -4.052   2.777   3.857  0.00  0.00     0.003 A 
ATOM      3  C3  I4B d   1      -3.565   3.854   4.638  0.00  0.00     0.002 A 
ATOM      4  C4  I4B d   1      -4.332   4.341   5.677  0.00  0.00    -0.004 A 
ATOM      5  C5  I4B d   1      -5.540   3.730   5.999  0.00  0.00     0.002 A 
ATOM      6  C6  I4B d   1      -5.999   2.640   5.246  0.00  0.00     0.003 A 
ENDROOT
BRANCH   1   7
ATOM      7  C1' I4B d   1      -5.754   1.077   3.298  0.00  0.00     0.060 C 
BRANCH   7   8
ATOM      8  C2' I4B d   1      -5.294   1.346   1.880  0.00  0.00    -0.013 C 
ATOM      9  C4' I4B d   1      -3.799   1.213   1.757  0.00  0.00     0.013 C 
ATOM     10  C3' I4B d   1      -5.999   0.381   0.974  0.00  0.00     0.013 C 
ENDBRANCH   7   8
ENDBRANCH   1   7
TORSDOF 2
ENDMDL
