MODEL 1
REMARK minimizedAffinity 3.95240808
REMARK minimizedRMSD -1
REMARK  2 active torsions:
REMARK  status: ('A' for Active; 'I' for Inactive)
REMARK    1  A    between atoms: C2'_3  and  C1'_4 
REMARK    2  A    between atoms: C1'_4  and  C1_5 
ROOT
ATOM      1  C1  I4B d   1       3.275  -4.182   0.532  0.00  0.00    -0.075 A 
ATOM      2  C2  I4B d   1       3.922  -4.191   1.743  0.00  0.00     0.003 A 
ATOM      3  C3  I4B d   1       5.171  -4.845   1.879  0.00  0.00     0.002 A 
ATOM      4  C4  I4B d   1       5.707  -5.517   0.800  0.00  0.00    -0.004 A 
ATOM      5  C5  I4B d   1       5.061  -5.488  -0.433  0.00  0.00     0.002 A 
ATOM      6  C6  I4B d   1       3.843  -4.806  -0.571  0.00  0.00     0.003 A 
ENDROOT
BRANCH   1   7
ATOM      7  C1' I4B d   1       1.943  -3.510   0.432  0.00  0.00     0.060 C 
BRANCH   7   8
ATOM      8  C2' I4B d   1       2.170  -2.013   0.490  0.00  0.00    -0.013 C 
ATOM      9  C4' I4B d   1       2.135  -1.402  -0.887  0.00  0.00     0.013 C 
ATOM     10  C3' I4B d   1       1.114  -1.418   1.372  0.00  0.00     0.013 C 
ENDBRANCH   7   8
ENDBRANCH   1   7
TORSDOF 2
ENDMDL
