MODEL 1
REMARK minimizedAffinity 14.2494812
REMARK minimizedRMSD -1
REMARK  1 active torsions:
REMARK  status: ('A' for Active; 'I' for Inactive)
REMARK    1  A    between atoms: C1_2  and  C2_3 
ROOT
ATOM      1  C2  UNL d   1      -2.896   2.342  -2.474  0.00  0.00    -0.076 A 
ATOM      2  C3  UNL d   1      -3.690   1.206  -2.710  0.00  0.00     0.004 A 
ATOM      3  C4  UNL d   1      -3.193  -0.077  -2.485  0.00  0.00    -0.003 A 
ATOM      4  C5  UNL d   1      -1.893  -0.244  -2.020  0.00  0.00     0.000 A 
ATOM      5  C6  UNL d   1      -1.097   0.872  -1.764  0.00  0.00     0.000 A 
ATOM      6  C7  UNL d   1      -1.589   2.173  -1.970  0.00  0.00    -0.073 A 
ATOM      7  C8  UNL d   1      -0.685   3.340  -1.683  0.00  0.00     0.078 C 
ENDROOT
BRANCH   1   8
ATOM      8  C1  UNL d   1      -3.481   3.706  -2.762  0.00  0.00     0.053 C 
ATOM      9  C   UNL d   1      -4.349   3.717  -4.011  0.00  0.00     0.018 C 
ENDBRANCH   1   8
TORSDOF 1
ENDMDL
