MODEL 1
REMARK minimizedAffinity 3.73537803
REMARK minimizedRMSD -1
REMARK  1 active torsions:
REMARK  status: ('A' for Active; 'I' for Inactive)
REMARK    1  A    between atoms: C1_2  and  C2_3 
ROOT
ATOM      1  C2  UNL d   1      -1.072   4.089   0.753  0.00  0.00    -0.076 A 
ATOM      2  C3  UNL d   1      -0.268   3.545  -0.264  0.00  0.00     0.004 A 
ATOM      3  C4  UNL d   1      -0.092   4.213  -1.475  0.00  0.00    -0.003 A 
ATOM      4  C5  UNL d   1      -0.717   5.437  -1.688  0.00  0.00     0.000 A 
ATOM      5  C6  UNL d   1      -1.503   6.000  -0.683  0.00  0.00     0.000 A 
ATOM      6  C7  UNL d   1      -1.678   5.347   0.549  0.00  0.00    -0.073 A 
ATOM      7  C8  UNL d   1      -2.542   5.997   1.595  0.00  0.00     0.078 C 
ENDROOT
BRANCH   1   8
ATOM      8  C1  UNL d   1      -1.248   3.305   2.034  0.00  0.00     0.053 C 
ATOM      9  C   UNL d   1      -1.117   1.805   1.822  0.00  0.00     0.018 C 
ENDBRANCH   1   8
TORSDOF 1
ENDMDL
