MODEL 1
REMARK minimizedAffinity 4.11208391
REMARK minimizedRMSD -1
REMARK  1 active torsions:
REMARK  status: ('A' for Active; 'I' for Inactive)
REMARK    1  A    between atoms: C1_2  and  C2_3 
ROOT
ATOM      1  C2  UNL d   1      -0.623   2.191  -1.384  0.00  0.00    -0.076 A 
ATOM      2  C3  UNL d   1       0.233   3.259  -1.064  0.00  0.00     0.004 A 
ATOM      3  C4  UNL d   1      -0.083   4.566  -1.431  0.00  0.00    -0.003 A 
ATOM      4  C5  UNL d   1      -1.260   4.826  -2.124  0.00  0.00     0.000 A 
ATOM      5  C6  UNL d   1      -2.130   3.781  -2.434  0.00  0.00     0.000 A 
ATOM      6  C7  UNL d   1      -1.834   2.460  -2.056  0.00  0.00    -0.073 A 
ATOM      7  C8  UNL d   1      -2.805   1.370  -2.422  0.00  0.00     0.078 C 
ENDROOT
BRANCH   1   8
ATOM      8  C1  UNL d   1      -0.215   0.791  -0.983  0.00  0.00     0.053 C 
ATOM      9  C   UNL d   1       0.054  -0.103  -2.183  0.00  0.00     0.018 C 
ENDBRANCH   1   8
TORSDOF 1
ENDMDL
