MODEL 1
REMARK minimizedAffinity 8.08444023
REMARK minimizedRMSD -1
REMARK  1 active torsions:
REMARK  status: ('A' for Active; 'I' for Inactive)
REMARK    1  A    between atoms: C1_2  and  C2_3 
ROOT
ATOM      1  C2  UNL d   1      -5.837  -1.953   3.996  0.00  0.00    -0.076 A 
ATOM      2  C3  UNL d   1      -5.934  -2.949   3.008  0.00  0.00     0.004 A 
ATOM      3  C4  UNL d   1      -5.996  -2.614   1.656  0.00  0.00    -0.003 A 
ATOM      4  C5  UNL d   1      -5.960  -1.279   1.270  0.00  0.00     0.000 A 
ATOM      5  C6  UNL d   1      -5.847  -0.279   2.235  0.00  0.00     0.000 A 
ATOM      6  C7  UNL d   1      -5.767  -0.600   3.601  0.00  0.00    -0.073 A 
ATOM      7  C8  UNL d   1      -5.651   0.519   4.600  0.00  0.00     0.078 C 
ENDROOT
BRANCH   1   8
ATOM      8  C1  UNL d   1      -5.802  -2.374   5.447  0.00  0.00     0.053 C 
ATOM      9  C   UNL d   1      -4.385  -2.459   5.995  0.00  0.00     0.018 C 
ENDBRANCH   1   8
TORSDOF 1
ENDMDL
