MODEL 1
REMARK minimizedAffinity 0.0289183967
REMARK minimizedRMSD -1
REMARK  1 active torsions:
REMARK  status: ('A' for Active; 'I' for Inactive)
REMARK    1  A    between atoms: C1_2  and  C2_3 
ROOT
ATOM      1  C2  UNL d   1       1.125   0.152   1.024  0.00  0.00    -0.076 A 
ATOM      2  C3  UNL d   1       1.315  -0.614  -0.140  0.00  0.00     0.004 A 
ATOM      3  C4  UNL d   1       0.794  -0.199  -1.364  0.00  0.00    -0.003 A 
ATOM      4  C5  UNL d   1       0.075   0.988  -1.445  0.00  0.00     0.000 A 
ATOM      5  C6  UNL d   1      -0.108   1.769  -0.304  0.00  0.00     0.000 A 
ATOM      6  C7  UNL d   1       0.424   1.374   0.935  0.00  0.00    -0.073 A 
ATOM      7  C8  UNL d   1       0.192   2.251   2.134  0.00  0.00     0.078 C 
ENDROOT
BRANCH   1   8
ATOM      8  C1  UNL d   1       1.690  -0.362   2.329  0.00  0.00     0.053 C 
ATOM      9  C   UNL d   1       0.634  -0.476   3.417  0.00  0.00     0.018 C 
ENDBRANCH   1   8
TORSDOF 1
ENDMDL
