MODEL 1
REMARK minimizedAffinity 3.24567938
REMARK minimizedRMSD -1
REMARK  1 active torsions:
REMARK  status: ('A' for Active; 'I' for Inactive)
REMARK    1  A    between atoms: C1_2  and  C2_3 
ROOT
ATOM      1  C2  UNL d   1       0.242   2.943  -0.049  0.00  0.00    -0.076 A 
ATOM      2  C3  UNL d   1      -0.315   2.224  -1.121  0.00  0.00     0.004 A 
ATOM      3  C4  UNL d   1      -0.634   0.873  -0.990  0.00  0.00    -0.003 A 
ATOM      4  C5  UNL d   1      -0.402   0.220   0.215  0.00  0.00     0.000 A 
ATOM      5  C6  UNL d   1       0.133   0.922   1.295  0.00  0.00     0.000 A 
ATOM      6  C7  UNL d   1       0.445   2.288   1.185  0.00  0.00    -0.073 A 
ATOM      7  C8  UNL d   1       1.025   2.995   2.379  0.00  0.00     0.078 C 
ENDROOT
BRANCH   1   8
ATOM      8  C1  UNL d   1       0.593   4.399  -0.258  0.00  0.00     0.053 C 
ATOM      9  C   UNL d   1       0.125   4.923  -1.607  0.00  0.00     0.018 C 
ENDBRANCH   1   8
TORSDOF 1
ENDMDL
