MODEL 1
REMARK minimizedAffinity -0.4761419
REMARK minimizedRMSD -1
REMARK  1 active torsions:
REMARK  status: ('A' for Active; 'I' for Inactive)
REMARK    1  A    between atoms: C1_2  and  C2_3 
ROOT
ATOM      1  C2  UNL d   1       0.660  -2.319   1.090  0.00  0.00    -0.081 A 
ATOM      2  C3  UNL d   1       0.548  -1.580  -0.094  0.00  0.00     0.006 A 
ATOM      3  C4  UNL d   1      -0.074  -0.329  -0.091  0.00  0.00     0.002 A 
ATOM      4  C5  UNL d   1      -0.586   0.207   1.095  0.00  0.00    -0.080 A 
ATOM      5  C6  UNL d   1      -1.229   1.562   1.117  0.00  0.00     0.076 C 
ATOM      6  C7  UNL d   1      -0.490  -0.539   2.275  0.00  0.00     0.002 A 
ATOM      7  C8  UNL d   1       0.131  -1.790   2.273  0.00  0.00     0.006 A 
ENDROOT
BRANCH   1   8
ATOM      8  C1  UNL d   1       1.387  -3.639   1.103  0.00  0.00     0.054 C 
ATOM      9  C   UNL d   1       2.760  -3.508   1.748  0.00  0.00     0.018 C 
ENDBRANCH   1   8
TORSDOF 1
ENDMDL
