MODEL 1
REMARK minimizedAffinity 2.04346061
REMARK minimizedRMSD -1
REMARK  1 active torsions:
REMARK  status: ('A' for Active; 'I' for Inactive)
REMARK    1  A    between atoms: C1_2  and  C2_3 
ROOT
ATOM      1  C2  UNL d   1       1.280  -3.457   2.419  0.00  0.00    -0.081 A 
ATOM      2  C3  UNL d   1       1.738  -3.499   1.096  0.00  0.00     0.006 A 
ATOM      3  C4  UNL d   1       3.050  -3.887   0.813  0.00  0.00     0.002 A 
ATOM      4  C5  UNL d   1       3.922  -4.246   1.845  0.00  0.00    -0.080 A 
ATOM      5  C6  UNL d   1       5.324  -4.693   1.553  0.00  0.00     0.076 C 
ATOM      6  C7  UNL d   1       3.471  -4.186   3.168  0.00  0.00     0.002 A 
ATOM      7  C8  UNL d   1       2.159  -3.798   3.452  0.00  0.00     0.006 A 
ENDROOT
BRANCH   1   8
ATOM      8  C1  UNL d   1      -0.153  -3.101   2.723  0.00  0.00     0.054 C 
ATOM      9  C   UNL d   1      -0.303  -1.617   3.022  0.00  0.00     0.018 C 
ENDBRANCH   1   8
TORSDOF 1
ENDMDL
