MODEL 1
REMARK minimizedAffinity 6.54678822
REMARK minimizedRMSD -1
REMARK  1 active torsions:
REMARK  status: ('A' for Active; 'I' for Inactive)
REMARK    1  A    between atoms: C1_2  and  C2_3 
ROOT
ATOM      1  C2  UNL d   1       4.617  -4.932   0.664  0.00  0.00    -0.081 A 
ATOM      2  C3  UNL d   1       4.215  -4.964   2.004  0.00  0.00     0.006 A 
ATOM      3  C4  UNL d   1       2.916  -4.594   2.362  0.00  0.00     0.002 A 
ATOM      4  C5  UNL d   1       1.997  -4.194   1.386  0.00  0.00    -0.080 A 
ATOM      5  C6  UNL d   1       0.591  -3.823   1.754  0.00  0.00     0.076 C 
ATOM      6  C7  UNL d   1       2.405  -4.145   0.049  0.00  0.00     0.002 A 
ATOM      7  C8  UNL d   1       3.703  -4.515  -0.310  0.00  0.00     0.006 A 
ENDROOT
BRANCH   1   8
ATOM      8  C1  UNL d   1       5.997  -5.392   0.267  0.00  0.00     0.054 C 
ATOM      9  C   UNL d   1       5.998  -6.000  -1.129  0.00  0.00     0.018 C 
ENDBRANCH   1   8
TORSDOF 1
ENDMDL
