MODEL 1
REMARK minimizedAffinity -0.092062071
REMARK minimizedRMSD -1
REMARK  1 active torsions:
REMARK  status: ('A' for Active; 'I' for Inactive)
REMARK    1  A    between atoms: C1_2  and  C2_3 
ROOT
ATOM      1  C2  UNL d   1       0.461  -1.179   1.008  0.00  0.00    -0.081 A 
ATOM      2  C3  UNL d   1       0.157  -1.532   2.328  0.00  0.00     0.006 A 
ATOM      3  C4  UNL d   1      -0.915  -0.931   2.993  0.00  0.00     0.002 A 
ATOM      4  C5  UNL d   1      -1.704   0.025   2.347  0.00  0.00    -0.080 A 
ATOM      5  C6  UNL d   1      -2.876   0.656   3.038  0.00  0.00     0.076 C 
ATOM      6  C7  UNL d   1      -1.390   0.391   1.033  0.00  0.00     0.002 A 
ATOM      7  C8  UNL d   1      -0.318  -0.209   0.368  0.00  0.00     0.006 A 
ENDROOT
BRANCH   1   8
ATOM      8  C1  UNL d   1       1.576  -1.872   0.267  0.00  0.00     0.054 C 
ATOM      9  C   UNL d   1       2.036  -3.123   1.002  0.00  0.00     0.018 C 
ENDBRANCH   1   8
TORSDOF 1
ENDMDL
