MODEL 1
REMARK minimizedAffinity -4.71120834
REMARK minimizedRMSD -1
REMARK  1 active torsions:
REMARK  status: ('A' for Active; 'I' for Inactive)
REMARK    1  A    between atoms: C1_2  and  C2_3 
ROOT
ATOM      1  C2  UNL d   1       1.418  -1.852   2.558  0.00  0.00    -0.081 A 
ATOM      2  C3  UNL d   1       1.313  -2.839   1.571  0.00  0.00     0.006 A 
ATOM      3  C4  UNL d   1       2.243  -3.879   1.506  0.00  0.00     0.002 A 
ATOM      4  C5  UNL d   1       3.288  -3.955   2.433  0.00  0.00    -0.080 A 
ATOM      5  C6  UNL d   1       4.276  -5.083   2.394  0.00  0.00     0.076 C 
ATOM      6  C7  UNL d   1       3.404  -2.959   3.409  0.00  0.00     0.002 A 
ATOM      7  C8  UNL d   1       2.475  -1.918   3.473  0.00  0.00     0.006 A 
ENDROOT
BRANCH   1   8
ATOM      8  C1  UNL d   1       0.380  -0.765   2.670  0.00  0.00     0.054 C 
ATOM      9  C   UNL d   1      -0.109  -0.324   1.298  0.00  0.00     0.018 C 
ENDBRANCH   1   8
TORSDOF 1
ENDMDL
