MODEL 1
REMARK minimizedAffinity 6.00574636
REMARK minimizedRMSD -1
REMARK  0 active torsions:
REMARK  status: ('A' for Active; 'I' for Inactive)
ROOT
ATOM      1  C   UNL d   1      -1.678   1.405   0.043  0.00  0.00    -0.002 A 
ATOM      2  C1  UNL d   1      -2.102   0.347  -0.748  0.00  0.00     0.010 A 
ATOM      3  C2  UNL d   1      -2.049  -0.964  -0.269  0.00  0.00     0.041 A 
ATOM      4  C3  UNL d   1      -1.559  -1.195   1.031  0.00  0.00    -0.075 A 
ATOM      5  S   UNL d   1      -1.403  -2.716   1.828  0.00  0.00     0.015 SA
ATOM      6  C4  UNL d   1      -0.769  -1.997   3.237  0.00  0.00     0.022 A 
ATOM      7  C5  UNL d   1      -0.672  -0.631   3.120  0.00  0.00     0.026 A 
ATOM      8  C6  UNL d   1      -1.126  -0.146   1.847  0.00  0.00    -0.082 A 
ATOM      9  C7  UNL d   1      -1.192   1.172   1.333  0.00  0.00     0.045 A 
ENDROOT
TORSDOF 0
ENDMDL
