MODEL 1
REMARK minimizedAffinity 1.65757418
REMARK minimizedRMSD -1
REMARK  0 active torsions:
REMARK  status: ('A' for Active; 'I' for Inactive)
ROOT
ATOM      1  C   UNL d   1      -1.027  -0.439   1.371  0.00  0.00    -0.002 A 
ATOM      2  C1  UNL d   1      -1.120  -1.217   2.516  0.00  0.00     0.010 A 
ATOM      3  C2  UNL d   1      -0.258  -2.297   2.714  0.00  0.00     0.041 A 
ATOM      4  C3  UNL d   1       0.710  -2.585   1.732  0.00  0.00    -0.075 A 
ATOM      5  S   UNL d   1       1.873  -3.857   1.761  0.00  0.00     0.015 SA
ATOM      6  C4  UNL d   1       2.522  -3.398   0.253  0.00  0.00     0.022 A 
ATOM      7  C5  UNL d   1       1.879  -2.303  -0.273  0.00  0.00     0.026 A 
ATOM      8  C6  UNL d   1       0.825  -1.816   0.571  0.00  0.00    -0.082 A 
ATOM      9  C7  UNL d   1      -0.065  -0.728   0.399  0.00  0.00     0.045 A 
ENDROOT
TORSDOF 0
ENDMDL
