MODEL 1
REMARK minimizedAffinity 6.34307432
REMARK minimizedRMSD -1
REMARK  0 active torsions:
REMARK  status: ('A' for Active; 'I' for Inactive)
ROOT
ATOM      1  C   UNL d   1      -1.148  -0.900   3.051  0.00  0.00    -0.002 A 
ATOM      2  C1  UNL d   1      -1.353   0.066   2.078  0.00  0.00     0.010 A 
ATOM      3  C2  UNL d   1      -0.597   0.064   0.904  0.00  0.00     0.041 A 
ATOM      4  C3  UNL d   1       0.377  -0.937   0.723  0.00  0.00    -0.075 A 
ATOM      5  S   UNL d   1       1.421  -1.139  -0.635  0.00  0.00     0.015 SA
ATOM      6  C4  UNL d   1       2.163  -2.513   0.046  0.00  0.00     0.022 A 
ATOM      7  C5  UNL d   1       1.640  -2.825   1.278  0.00  0.00     0.026 A 
ATOM      8  C6  UNL d   1       0.602  -1.922   1.689  0.00  0.00    -0.082 A 
ATOM      9  C7  UNL d   1      -0.180  -1.892   2.868  0.00  0.00     0.045 A 
ENDROOT
TORSDOF 0
ENDMDL
