MODEL 1
REMARK minimizedAffinity 5.56798506
REMARK minimizedRMSD -1
REMARK  0 active torsions:
REMARK  status: ('A' for Active; 'I' for Inactive)
ROOT
ATOM      1  C   UNL d   1      -2.596  -0.354   1.890  0.00  0.00    -0.002 A 
ATOM      2  C1  UNL d   1      -1.665  -0.837   2.798  0.00  0.00     0.010 A 
ATOM      3  C2  UNL d   1      -0.380  -1.189   2.379  0.00  0.00     0.041 A 
ATOM      4  C3  UNL d   1      -0.043  -1.043   1.019  0.00  0.00    -0.075 A 
ATOM      5  S   UNL d   1       1.470  -1.408   0.278  0.00  0.00     0.015 SA
ATOM      6  C4  UNL d   1       0.917  -0.930  -1.261  0.00  0.00     0.022 A 
ATOM      7  C5  UNL d   1      -0.388  -0.500  -1.229  0.00  0.00     0.026 A 
ATOM      8  C6  UNL d   1      -0.963  -0.557   0.086  0.00  0.00    -0.082 A 
ATOM      9  C7  UNL d   1      -2.258  -0.210   0.541  0.00  0.00     0.045 A 
ENDROOT
TORSDOF 0
ENDMDL
