MODEL 1
REMARK minimizedAffinity 4.18191814
REMARK minimizedRMSD -1
REMARK  0 active torsions:
REMARK  status: ('A' for Active; 'I' for Inactive)
ROOT
ATOM      1  C   UNL d   1       4.623  -3.693   0.003  0.00  0.00    -0.002 A 
ATOM      2  C1  UNL d   1       3.313  -4.135   0.128  0.00  0.00     0.010 A 
ATOM      3  C2  UNL d   1       2.248  -3.238   0.030  0.00  0.00     0.041 A 
ATOM      4  C3  UNL d   1       2.524  -1.875  -0.200  0.00  0.00    -0.075 A 
ATOM      5  S   UNL d   1       1.379  -0.596  -0.358  0.00  0.00     0.015 SA
ATOM      6  C4  UNL d   1       2.602   0.568  -0.595  0.00  0.00     0.022 A 
ATOM      7  C5  UNL d   1       3.858   0.011  -0.558  0.00  0.00     0.026 A 
ATOM      8  C6  UNL d   1       3.834  -1.406  -0.331  0.00  0.00    -0.082 A 
ATOM      9  C7  UNL d   1       4.892  -2.341  -0.225  0.00  0.00     0.045 A 
ENDROOT
TORSDOF 0
ENDMDL
