MODEL 1
REMARK minimizedAffinity -5.43045521
REMARK minimizedRMSD -1
REMARK  1 active torsions:
REMARK  status: ('A' for Active; 'I' for Inactive)
REMARK    1  A    between atoms: C3_4  and  O_7 
ROOT
ATOM      1  C   UNL d   1      -0.962   0.748   3.090  0.00  0.00    -0.033 A 
ATOM      2  C1  UNL d   1      -1.845   0.618   2.017  0.00  0.00     0.039 A 
ATOM      3  C2  UNL d   1      -1.374   0.207   0.769  0.00  0.00    -0.080 A 
ATOM      4  C3  UNL d   1      -0.019  -0.070   0.607  0.00  0.00     0.150 A 
ATOM      5  C4  UNL d   1       0.866   0.054   1.673  0.00  0.00    -0.007 A 
ATOM      6  C5  UNL d   1       0.393   0.465   2.919  0.00  0.00     0.039 A 
ENDROOT
BRANCH   4   7
ATOM      7  O   UNL d   1       0.488  -0.469  -0.593  0.00  0.00    -0.526 OA
ATOM      8  H5  UNL d   1      -0.234  -0.483  -1.244  0.00  0.00     0.418 HD
ENDBRANCH   4   7
TORSDOF 1
ENDMDL
