MODEL 1
REMARK minimizedAffinity -4.65139341
REMARK minimizedRMSD -1
REMARK  1 active torsions:
REMARK  status: ('A' for Active; 'I' for Inactive)
REMARK    1  A    between atoms: C3_4  and  O_7 
ROOT
ATOM      1  C   UNL d   1       1.569  -0.385   1.365  0.00  0.00    -0.033 A 
ATOM      2  C1  UNL d   1       0.437   0.113   0.716  0.00  0.00     0.039 A 
ATOM      3  C2  UNL d   1      -0.451   0.946   1.400  0.00  0.00    -0.080 A 
ATOM      4  C3  UNL d   1      -0.196   1.273   2.729  0.00  0.00     0.150 A 
ATOM      5  C4  UNL d   1       0.932   0.783   3.380  0.00  0.00    -0.007 A 
ATOM      6  C5  UNL d   1       1.817  -0.049   2.696  0.00  0.00     0.039 A 
ENDROOT
BRANCH   4   7
ATOM      7  O   UNL d   1      -1.037   2.078   3.439  0.00  0.00    -0.526 OA
ATOM      8  H5  UNL d   1      -1.787   2.317   2.869  0.00  0.00     0.418 HD
ENDBRANCH   4   7
TORSDOF 1
ENDMDL
