MODEL 1
REMARK minimizedAffinity -2.27136397
REMARK minimizedRMSD -1
REMARK  1 active torsions:
REMARK  status: ('A' for Active; 'I' for Inactive)
REMARK    1  A    between atoms: C3_4  and  O_7 
ROOT
ATOM      1  C   UNL d   1       1.162  -0.676  -0.131  0.00  0.00    -0.033 A 
ATOM      2  C1  UNL d   1      -0.056  -0.077  -0.456  0.00  0.00     0.039 A 
ATOM      3  C2  UNL d   1      -0.694   0.756   0.465  0.00  0.00    -0.080 A 
ATOM      4  C3  UNL d   1      -0.103   0.983   1.705  0.00  0.00     0.150 A 
ATOM      5  C4  UNL d   1       1.113   0.393   2.033  0.00  0.00    -0.007 A 
ATOM      6  C5  UNL d   1       1.748  -0.440   1.113  0.00  0.00     0.039 A 
ENDROOT
BRANCH   4   7
ATOM      7  O   UNL d   1      -0.690   1.785   2.638  0.00  0.00    -0.526 OA
ATOM      8  H5  UNL d   1      -1.538   2.100   2.283  0.00  0.00     0.418 HD
ENDBRANCH   4   7
TORSDOF 1
ENDMDL
