MODEL 1
REMARK minimizedAffinity -3.04716706
REMARK minimizedRMSD -1
REMARK  1 active torsions:
REMARK  status: ('A' for Active; 'I' for Inactive)
REMARK    1  A    between atoms: C3_4  and  O_7 
ROOT
ATOM      1  C   UNL d   1      -1.888  -2.513  -1.908  0.00  0.00    -0.033 A 
ATOM      2  C1  UNL d   1      -0.497  -2.409  -1.960  0.00  0.00     0.039 A 
ATOM      3  C2  UNL d   1       0.163  -1.454  -1.184  0.00  0.00    -0.080 A 
ATOM      4  C3  UNL d   1      -0.579  -0.610  -0.362  0.00  0.00     0.150 A 
ATOM      5  C4  UNL d   1      -1.965  -0.711  -0.303  0.00  0.00    -0.007 A 
ATOM      6  C5  UNL d   1      -2.622  -1.665  -1.079  0.00  0.00     0.039 A 
ENDROOT
BRANCH   4   7
ATOM      7  O   UNL d   1       0.020   0.341   0.410  0.00  0.00    -0.526 OA
ATOM      8  H5  UNL d   1       0.978   0.313   0.244  0.00  0.00     0.418 HD
ENDBRANCH   4   7
TORSDOF 1
ENDMDL
