MODEL 1
REMARK minimizedAffinity 0.282093406
REMARK minimizedRMSD -1
REMARK  1 active torsions:
REMARK  status: ('A' for Active; 'I' for Inactive)
REMARK    1  A    between atoms: C3_4  and  O_7 
ROOT
ATOM      1  C   UNL d   1       0.788  -0.981  -0.115  0.00  0.00    -0.033 A 
ATOM      2  C1  UNL d   1       1.707  -0.740   0.908  0.00  0.00     0.039 A 
ATOM      3  C2  UNL d   1       1.456   0.255   1.855  0.00  0.00    -0.080 A 
ATOM      4  C3  UNL d   1       0.284   1.001   1.767  0.00  0.00     0.150 A 
ATOM      5  C4  UNL d   1      -0.638   0.764   0.752  0.00  0.00    -0.007 A 
ATOM      6  C5  UNL d   1      -0.385  -0.229  -0.192  0.00  0.00     0.039 A 
ENDROOT
BRANCH   4   7
ATOM      7  O   UNL d   1      -0.002   1.986   2.665  0.00  0.00    -0.526 OA
ATOM      8  H5  UNL d   1       0.737   2.056   3.291  0.00  0.00     0.418 HD
ENDBRANCH   4   7
TORSDOF 1
ENDMDL
