MODEL 1
REMARK minimizedAffinity -3.15327501
REMARK minimizedRMSD -1
REMARK  1 active torsions:
REMARK  status: ('A' for Active; 'I' for Inactive)
REMARK    1  A    between atoms: C3_4  and  O_7 
ROOT
ATOM      1  C   UNL d   1      -0.952   1.554   2.569  0.00  0.00    -0.033 A 
ATOM      2  C1  UNL d   1      -1.842   0.752   1.853  0.00  0.00     0.039 A 
ATOM      3  C2  UNL d   1      -1.393   0.014   0.757  0.00  0.00    -0.080 A 
ATOM      4  C3  UNL d   1      -0.053   0.085   0.388  0.00  0.00     0.150 A 
ATOM      5  C4  UNL d   1       0.841   0.879   1.099  0.00  0.00    -0.007 A 
ATOM      6  C5  UNL d   1       0.390   1.617   2.193  0.00  0.00     0.039 A 
ENDROOT
BRANCH   4   7
ATOM      7  O   UNL d   1       0.432  -0.613  -0.678  0.00  0.00    -0.526 OA
ATOM      8  H5  UNL d   1      -0.305  -1.095  -1.090  0.00  0.00     0.418 HD
ENDBRANCH   4   7
TORSDOF 1
ENDMDL
