MODEL 1
REMARK minimizedAffinity -5.08372355
REMARK minimizedRMSD -1
REMARK  1 active torsions:
REMARK  status: ('A' for Active; 'I' for Inactive)
REMARK    1  A    between atoms: C3_4  and  O_7 
ROOT
ATOM      1  C   UNL d   1       0.099   1.029   3.087  0.00  0.00    -0.033 A 
ATOM      2  C1  UNL d   1       0.944   0.107   3.707  0.00  0.00     0.039 A 
ATOM      3  C2  UNL d   1       0.448  -1.131   4.119  0.00  0.00    -0.080 A 
ATOM      4  C3  UNL d   1      -0.894  -1.435   3.904  0.00  0.00     0.150 A 
ATOM      5  C4  UNL d   1      -1.741  -0.523   3.284  0.00  0.00    -0.007 A 
ATOM      6  C5  UNL d   1      -1.244   0.714   2.874  0.00  0.00     0.039 A 
ENDROOT
BRANCH   4   7
ATOM      7  O   UNL d   1      -1.425  -2.629   4.293  0.00  0.00    -0.526 OA
ATOM      8  H5  UNL d   1      -0.730  -3.146   4.733  0.00  0.00     0.418 HD
ENDBRANCH   4   7
TORSDOF 1
ENDMDL
