MODEL 1
REMARK minimizedAffinity -0.256259084
REMARK minimizedRMSD -1
REMARK  2 active torsions:
REMARK  status: ('A' for Active; 'I' for Inactive)
REMARK    1  A    between atoms: C2'_3  and  C1'_4 
REMARK    2  A    between atoms: C1'_4  and  C1_5 
ROOT
ATOM      1  C1  I4B d   1      -3.775  -0.828   2.623  0.00  0.00    -0.075 A 
ATOM      2  C2  I4B d   1      -3.520   0.165   3.536  0.00  0.00     0.003 A 
ATOM      3  C3  I4B d   1      -2.239   0.765   3.597  0.00  0.00     0.002 A 
ATOM      4  C4  I4B d   1      -1.235   0.310   2.767  0.00  0.00    -0.004 A 
ATOM      5  C5  I4B d   1      -1.502  -0.681   1.826  0.00  0.00     0.002 A 
ATOM      6  C6  I4B d   1      -2.783  -1.245   1.745  0.00  0.00     0.003 A 
ENDROOT
BRANCH   1   7
ATOM      7  C1' I4B d   1      -5.130  -1.463   2.609  0.00  0.00     0.060 C 
BRANCH   7   8
ATOM      8  C2' I4B d   1      -5.014  -2.824   3.264  0.00  0.00    -0.013 C 
ATOM      9  C4' I4B d   1      -5.586  -2.809   4.657  0.00  0.00     0.013 C 
ATOM     10  C3' I4B d   1      -5.728  -3.817   2.396  0.00  0.00     0.013 C 
ENDBRANCH   7   8
ENDBRANCH   1   7
TORSDOF 2
ENDMDL
