MODEL 1
REMARK minimizedAffinity 7.18493366
REMARK minimizedRMSD -1
REMARK  2 active torsions:
REMARK  status: ('A' for Active; 'I' for Inactive)
REMARK    1  A    between atoms: C2'_3  and  C1'_4 
REMARK    2  A    between atoms: C1'_4  and  C1_5 
ROOT
ATOM      1  C1  I4B d   1       3.090   2.147  -1.527  0.00  0.00    -0.075 A 
ATOM      2  C2  I4B d   1       1.753   1.887  -1.352  0.00  0.00     0.003 A 
ATOM      3  C3  I4B d   1       0.795   2.473  -2.214  0.00  0.00     0.002 A 
ATOM      4  C4  I4B d   1       1.210   3.348  -3.197  0.00  0.00    -0.004 A 
ATOM      5  C5  I4B d   1       2.567   3.592  -3.387  0.00  0.00     0.002 A 
ATOM      6  C6  I4B d   1       3.514   2.979  -2.555  0.00  0.00     0.003 A 
ENDROOT
BRANCH   1   7
ATOM      7  C1' I4B d   1       4.073   1.536  -0.579  0.00  0.00     0.060 C 
BRANCH   7   8
ATOM      8  C2' I4B d   1       3.565   1.765   0.831  0.00  0.00    -0.013 C 
ATOM      9  C4' I4B d   1       3.212   0.464   1.501  0.00  0.00     0.013 C 
ATOM     10  C3' I4B d   1       4.630   2.496   1.593  0.00  0.00     0.013 C 
ENDBRANCH   7   8
ENDBRANCH   1   7
TORSDOF 2
ENDMDL
