MODEL 1
REMARK minimizedAffinity 14.747242
REMARK minimizedRMSD -1
REMARK  2 active torsions:
REMARK  status: ('A' for Active; 'I' for Inactive)
REMARK    1  A    between atoms: C2'_3  and  C1'_4 
REMARK    2  A    between atoms: C1'_4  and  C1_5 
ROOT
ATOM      1  C1  I4B d   1      -1.542  -4.186  -3.055  0.00  0.00    -0.075 A 
ATOM      2  C2  I4B d   1      -1.758  -2.857  -3.321  0.00  0.00     0.003 A 
ATOM      3  C3  I4B d   1      -1.522  -1.882  -2.322  0.00  0.00     0.002 A 
ATOM      4  C4  I4B d   1      -1.122  -2.282  -1.063  0.00  0.00    -0.004 A 
ATOM      5  C5  I4B d   1      -0.881  -3.628  -0.802  0.00  0.00     0.002 A 
ATOM      6  C6  I4B d   1      -1.081  -4.585  -1.807  0.00  0.00     0.003 A 
ENDROOT
BRANCH   1   7
ATOM      7  C1' I4B d   1      -1.833  -5.192  -4.123  0.00  0.00     0.060 C 
BRANCH   7   8
ATOM      8  C2' I4B d   1      -2.937  -4.636  -5.000  0.00  0.00    -0.013 C 
ATOM      9  C4' I4B d   1      -3.407  -5.659  -6.000  0.00  0.00     0.013 C 
ATOM     10  C3' I4B d   1      -4.059  -4.196  -4.107  0.00  0.00     0.013 C 
ENDBRANCH   7   8
ENDBRANCH   1   7
TORSDOF 2
ENDMDL
