MODEL 1
REMARK minimizedAffinity 14.94769
REMARK minimizedRMSD -1
REMARK  2 active torsions:
REMARK  status: ('A' for Active; 'I' for Inactive)
REMARK    1  A    between atoms: C2'_3  and  C1'_4 
REMARK    2  A    between atoms: C1'_4  and  C1_5 
ROOT
ATOM      1  C1  I4B d   1       3.418   3.203  -3.037  0.00  0.00    -0.075 A 
ATOM      2  C2  I4B d   1       4.450   4.009  -2.625  0.00  0.00     0.003 A 
ATOM      3  C3  I4B d   1       5.398   4.488  -3.562  0.00  0.00     0.002 A 
ATOM      4  C4  I4B d   1       5.306   4.096  -4.882  0.00  0.00    -0.004 A 
ATOM      5  C5  I4B d   1       4.246   3.297  -5.301  0.00  0.00     0.002 A 
ATOM      6  C6  I4B d   1       3.289   2.857  -4.376  0.00  0.00     0.003 A 
ENDROOT
BRANCH   1   7
ATOM      7  C1' I4B d   1       2.453   2.689  -2.015  0.00  0.00     0.060 C 
BRANCH   7   8
ATOM      8  C2' I4B d   1       3.251   2.012  -0.919  0.00  0.00    -0.013 C 
ATOM      9  C4' I4B d   1       2.638   2.260   0.434  0.00  0.00     0.013 C 
ATOM     10  C3' I4B d   1       3.308   0.545  -1.227  0.00  0.00     0.013 C 
ENDBRANCH   7   8
ENDBRANCH   1   7
TORSDOF 2
ENDMDL
