MODEL 1
REMARK minimizedAffinity 11.7826757
REMARK minimizedRMSD -1
REMARK  2 active torsions:
REMARK  status: ('A' for Active; 'I' for Inactive)
REMARK    1  A    between atoms: C2'_3  and  C1'_4 
REMARK    2  A    between atoms: C1'_4  and  C1_5 
ROOT
ATOM      1  C1  I4B d   1      -3.292   0.875   3.382  0.00  0.00    -0.075 A 
ATOM      2  C2  I4B d   1      -2.080   0.257   3.205  0.00  0.00     0.003 A 
ATOM      3  C3  I4B d   1      -1.859  -0.571   2.078  0.00  0.00     0.002 A 
ATOM      4  C4  I4B d   1      -2.888  -0.792   1.185  0.00  0.00    -0.004 A 
ATOM      5  C5  I4B d   1      -4.110  -0.147   1.354  0.00  0.00     0.002 A 
ATOM      6  C6  I4B d   1      -4.310   0.702   2.452  0.00  0.00     0.003 A 
ENDROOT
BRANCH   1   7
ATOM      7  C1' I4B d   1      -3.501   1.716   4.601  0.00  0.00     0.060 C 
BRANCH   7   8
ATOM      8  C2' I4B d   1      -4.954   2.146   4.628  0.00  0.00    -0.013 C 
ATOM      9  C4' I4B d   1      -5.785   1.206   5.460  0.00  0.00     0.013 C 
ATOM     10  C3' I4B d   1      -5.014   3.544   5.167  0.00  0.00     0.013 C 
ENDBRANCH   7   8
ENDBRANCH   1   7
TORSDOF 2
ENDMDL
