MODEL 1
REMARK minimizedAffinity 20.652504
REMARK minimizedRMSD -1
REMARK  2 active torsions:
REMARK  status: ('A' for Active; 'I' for Inactive)
REMARK    1  A    between atoms: C2'_3  and  C1'_4 
REMARK    2  A    between atoms: C1'_4  and  C1_5 
ROOT
ATOM      1  C1  I4B d   1       3.656   3.386  -2.903  0.00  0.00    -0.075 A 
ATOM      2  C2  I4B d   1       3.858   3.126  -4.235  0.00  0.00     0.003 A 
ATOM      3  C3  I4B d   1       5.057   3.535  -4.868  0.00  0.00     0.002 A 
ATOM      4  C4  I4B d   1       5.999   4.241  -4.147  0.00  0.00    -0.004 A 
ATOM      5  C5  I4B d   1       5.803   4.483  -2.791  0.00  0.00     0.002 A 
ATOM      6  C6  I4B d   1       4.630   4.042  -2.161  0.00  0.00     0.003 A 
ENDROOT
BRANCH   1   7
ATOM      7  C1' I4B d   1       2.364   2.968  -2.275  0.00  0.00     0.060 C 
BRANCH   7   8
ATOM      8  C2' I4B d   1       2.504   1.525  -1.835  0.00  0.00    -0.013 C 
ATOM      9  C4' I4B d   1       2.603   1.419  -0.336  0.00  0.00     0.013 C 
ATOM     10  C3' I4B d   1       1.319   0.766  -2.355  0.00  0.00     0.013 C 
ENDBRANCH   7   8
ENDBRANCH   1   7
TORSDOF 2
ENDMDL
