MODEL 1
REMARK minimizedAffinity 7.05533361
REMARK minimizedRMSD -1
REMARK  2 active torsions:
REMARK  status: ('A' for Active; 'I' for Inactive)
REMARK    1  A    between atoms: C2'_3  and  C1'_4 
REMARK    2  A    between atoms: C1'_4  and  C1_5 
ROOT
ATOM      1  C1  I4B d   1      -4.751   0.384   2.777  0.00  0.00    -0.075 A 
ATOM      2  C2  I4B d   1      -3.589   0.438   3.505  0.00  0.00     0.003 A 
ATOM      3  C3  I4B d   1      -3.616   0.834   4.864  0.00  0.00     0.002 A 
ATOM      4  C4  I4B d   1      -4.813   1.214   5.437  0.00  0.00    -0.004 A 
ATOM      5  C5  I4B d   1      -5.994   1.136   4.704  0.00  0.00     0.002 A 
ATOM      6  C6  I4B d   1      -5.965   0.707   3.369  0.00  0.00     0.003 A 
ENDROOT
BRANCH   1   7
ATOM      7  C1' I4B d   1      -4.681  -0.008   1.335  0.00  0.00     0.060 C 
BRANCH   7   8
ATOM      8  C2' I4B d   1      -5.609   0.904   0.558  0.00  0.00    -0.013 C 
ATOM      9  C4' I4B d   1      -4.979   2.252   0.325  0.00  0.00     0.013 C 
ATOM     10  C3' I4B d   1      -5.942   0.230  -0.739  0.00  0.00     0.013 C 
ENDBRANCH   7   8
ENDBRANCH   1   7
TORSDOF 2
ENDMDL
