MODEL 1
REMARK minimizedAffinity 14.8497362
REMARK minimizedRMSD -1
REMARK  2 active torsions:
REMARK  status: ('A' for Active; 'I' for Inactive)
REMARK    1  A    between atoms: C2'_3  and  C1'_4 
REMARK    2  A    between atoms: C1'_4  and  C1_5 
ROOT
ATOM      1  C1  I4B d   1       0.347  -2.316   1.782  0.00  0.00    -0.075 A 
ATOM      2  C2  I4B d   1      -0.585  -3.070   1.113  0.00  0.00     0.003 A 
ATOM      3  C3  I4B d   1      -1.891  -2.566   0.902  0.00  0.00     0.002 A 
ATOM      4  C4  I4B d   1      -2.235  -1.333   1.418  0.00  0.00    -0.004 A 
ATOM      5  C5  I4B d   1      -1.283  -0.561   2.077  0.00  0.00     0.002 A 
ATOM      6  C6  I4B d   1       0.020  -1.050   2.250  0.00  0.00     0.003 A 
ENDROOT
BRANCH   1   7
ATOM      7  C1' I4B d   1       1.707  -2.893   2.016  0.00  0.00     0.060 C 
BRANCH   7   8
ATOM      8  C2' I4B d   1       2.392  -2.058   3.078  0.00  0.00    -0.013 C 
ATOM      9  C4' I4B d   1       2.270  -2.696   4.437  0.00  0.00     0.013 C 
ATOM     10  C3' I4B d   1       3.830  -1.896   2.684  0.00  0.00     0.013 C 
ENDBRANCH   7   8
ENDBRANCH   1   7
TORSDOF 2
ENDMDL
