MODEL 1
REMARK minimizedAffinity 14.854701
REMARK minimizedRMSD -1
REMARK  2 active torsions:
REMARK  status: ('A' for Active; 'I' for Inactive)
REMARK    1  A    between atoms: C2'_3  and  C1'_4 
REMARK    2  A    between atoms: C1'_4  and  C1_5 
ROOT
ATOM      1  C1  I4B d   1      -3.603  -0.099   1.471  0.00  0.00    -0.075 A 
ATOM      2  C2  I4B d   1      -2.785  -1.034   0.888  0.00  0.00     0.003 A 
ATOM      3  C3  I4B d   1      -1.467  -1.227   1.368  0.00  0.00     0.002 A 
ATOM      4  C4  I4B d   1      -0.994  -0.433   2.393  0.00  0.00    -0.004 A 
ATOM      5  C5  I4B d   1      -1.833   0.499   2.999  0.00  0.00     0.002 A 
ATOM      6  C6  I4B d   1      -3.149   0.659   2.543  0.00  0.00     0.003 A 
ENDROOT
BRANCH   1   7
ATOM      7  C1' I4B d   1      -4.978   0.101   0.918  0.00  0.00     0.060 C 
BRANCH   7   8
ATOM      8  C2' I4B d   1      -4.846   0.808  -0.416  0.00  0.00    -0.013 C 
ATOM      9  C4' I4B d   1      -5.682   0.137  -1.474  0.00  0.00     0.013 C 
ATOM     10  C3' I4B d   1      -5.259   2.237  -0.225  0.00  0.00     0.013 C 
ENDBRANCH   7   8
ENDBRANCH   1   7
TORSDOF 2
ENDMDL
