MODEL 1
REMARK minimizedAffinity 14.9105291
REMARK minimizedRMSD -1
REMARK  2 active torsions:
REMARK  status: ('A' for Active; 'I' for Inactive)
REMARK    1  A    between atoms: C2'_3  and  C1'_4 
REMARK    2  A    between atoms: C1'_4  and  C1_5 
ROOT
ATOM      1  C1  I4B d   1       3.887   2.229   0.795  0.00  0.00    -0.075 A 
ATOM      2  C2  I4B d   1       4.738   2.906  -0.043  0.00  0.00     0.003 A 
ATOM      3  C3  I4B d   1       5.828   3.637   0.487  0.00  0.00     0.002 A 
ATOM      4  C4  I4B d   1       6.000   3.706   1.855  0.00  0.00    -0.004 A 
ATOM      5  C5  I4B d   1       5.150   3.000   2.702  0.00  0.00     0.002 A 
ATOM      6  C6  I4B d   1       4.094   2.247   2.168  0.00  0.00     0.003 A 
ENDROOT
BRANCH   1   7
ATOM      7  C1' I4B d   1       2.726   1.494   0.204  0.00  0.00     0.060 C 
BRANCH   7   8
ATOM      8  C2' I4B d   1       2.979   1.341  -1.282  0.00  0.00    -0.013 C 
ATOM      9  C4' I4B d   1       3.320  -0.083  -1.634  0.00  0.00     0.013 C 
ATOM     10  C3' I4B d   1       1.750   1.799  -2.010  0.00  0.00     0.013 C 
ENDBRANCH   7   8
ENDBRANCH   1   7
TORSDOF 2
ENDMDL
