MODEL 1
REMARK minimizedAffinity 12.491683
REMARK minimizedRMSD -1
REMARK  2 active torsions:
REMARK  status: ('A' for Active; 'I' for Inactive)
REMARK    1  A    between atoms: C2'_3  and  C1'_4 
REMARK    2  A    between atoms: C1'_4  and  C1_5 
ROOT
ATOM      1  C1  I4B d   1      -1.335  -4.209  -3.413  0.00  0.00    -0.075 A 
ATOM      2  C2  I4B d   1      -2.465  -4.634  -4.067  0.00  0.00     0.003 A 
ATOM      3  C3  I4B d   1      -2.365  -5.563  -5.131  0.00  0.00     0.002 A 
ATOM      4  C4  I4B d   1      -1.121  -6.000  -5.538  0.00  0.00    -0.004 A 
ATOM      5  C5  I4B d   1       0.021  -5.586  -4.858  0.00  0.00     0.002 A 
ATOM      6  C6  I4B d   1      -0.087  -4.694  -3.781  0.00  0.00     0.003 A 
ENDROOT
BRANCH   1   7
ATOM      7  C1' I4B d   1      -1.474  -3.202  -2.316  0.00  0.00     0.060 C 
BRANCH   7   8
ATOM      8  C2' I4B d   1      -1.826  -3.944  -1.042  0.00  0.00    -0.013 C 
ATOM      9  C4' I4B d   1      -0.687  -4.820  -0.590  0.00  0.00     0.013 C 
ATOM     10  C3' I4B d   1      -2.176  -2.929   0.004  0.00  0.00     0.013 C 
ENDBRANCH   7   8
ENDBRANCH   1   7
TORSDOF 2
ENDMDL
