MODEL 1
REMARK minimizedAffinity 12.5221386
REMARK minimizedRMSD -1
REMARK  2 active torsions:
REMARK  status: ('A' for Active; 'I' for Inactive)
REMARK    1  A    between atoms: C2'_3  and  C1'_4 
REMARK    2  A    between atoms: C1'_4  and  C1_5 
ROOT
ATOM      1  C1  I4B d   1      -4.883  -3.378   2.663  0.00  0.00    -0.075 A 
ATOM      2  C2  I4B d   1      -4.500  -3.804   3.910  0.00  0.00     0.003 A 
ATOM      3  C3  I4B d   1      -4.854  -5.098   4.362  0.00  0.00     0.002 A 
ATOM      4  C4  I4B d   1      -5.631  -5.909   3.560  0.00  0.00    -0.004 A 
ATOM      5  C5  I4B d   1      -6.000  -5.485   2.287  0.00  0.00     0.002 A 
ATOM      6  C6  I4B d   1      -5.613  -4.216   1.830  0.00  0.00     0.003 A 
ENDROOT
BRANCH   1   7
ATOM      7  C1' I4B d   1      -4.520  -1.993   2.230  0.00  0.00     0.060 C 
BRANCH   7   8
ATOM      8  C2' I4B d   1      -3.014  -1.855   2.325  0.00  0.00    -0.013 C 
ATOM      9  C4' I4B d   1      -2.341  -2.354   1.074  0.00  0.00     0.013 C 
ATOM     10  C3' I4B d   1      -2.697  -0.410   2.571  0.00  0.00     0.013 C 
ENDBRANCH   7   8
ENDBRANCH   1   7
TORSDOF 2
ENDMDL
