MODEL 1
REMARK minimizedAffinity 23.9973221
REMARK minimizedRMSD -1
REMARK  2 active torsions:
REMARK  status: ('A' for Active; 'I' for Inactive)
REMARK    1  A    between atoms: C2'_3  and  C1'_4 
REMARK    2  A    between atoms: C1'_4  and  C1_5 
ROOT
ATOM      1  C1  I4B d   1       0.367   4.158  -3.104  0.00  0.00    -0.075 A 
ATOM      2  C2  I4B d   1       0.197   2.866  -3.537  0.00  0.00     0.003 A 
ATOM      3  C3  I4B d   1       1.105   1.856  -3.137  0.00  0.00     0.002 A 
ATOM      4  C4  I4B d   1       2.190   2.189  -2.351  0.00  0.00    -0.004 A 
ATOM      5  C5  I4B d   1       2.347   3.494  -1.895  0.00  0.00     0.002 A 
ATOM      6  C6  I4B d   1       1.423   4.483  -2.263  0.00  0.00     0.003 A 
ENDROOT
BRANCH   1   7
ATOM      7  C1' I4B d   1      -0.592   5.206  -3.572  0.00  0.00     0.060 C 
BRANCH   7   8
ATOM      8  C2' I4B d   1      -1.207   4.730  -4.873  0.00  0.00    -0.013 C 
ATOM      9  C4' I4B d   1      -2.687   5.002  -4.908  0.00  0.00     0.013 C 
ATOM     10  C3' I4B d   1      -0.501   5.424  -5.999  0.00  0.00     0.013 C 
ENDBRANCH   7   8
ENDBRANCH   1   7
TORSDOF 2
ENDMDL
