MODEL 1
REMARK minimizedAffinity 2.99851799
REMARK minimizedRMSD -1
REMARK  0 active torsions:
REMARK  status: ('A' for Active; 'I' for Inactive)
ROOT
ATOM      1  C   UNL d   1      -2.100   1.980  -1.673  0.00  0.00     0.023 A 
ATOM      2  C1  UNL d   1      -2.216   2.552  -2.940  0.00  0.00     0.003 A 
ATOM      3  C2  UNL d   1      -3.227   2.131  -3.807  0.00  0.00     0.048 A 
ATOM      4  C3  UNL d   1      -4.118   1.138  -3.401  0.00  0.00     0.023 A 
ATOM      5  C4  UNL d   1      -4.005   0.564  -2.133  0.00  0.00     0.048 A 
ATOM      6  C5  UNL d   1      -2.993   0.987  -1.270  0.00  0.00     0.003 A 
ATOM      7  I   UNL d   1      -5.622   0.510  -4.689  0.00  0.00    -0.146 I 
ENDROOT
TORSDOF 0
ENDMDL
