MODEL 1
REMARK minimizedAffinity 6.1122036
REMARK minimizedRMSD -1
REMARK  0 active torsions:
REMARK  status: ('A' for Active; 'I' for Inactive)
ROOT
ATOM      1  C   UNL d   1       5.905   4.689  -5.941  0.00  0.00     0.023 A 
ATOM      2  C1  UNL d   1       5.149   3.516  -5.907  0.00  0.00     0.003 A 
ATOM      3  C2  UNL d   1       3.754   3.583  -5.911  0.00  0.00     0.048 A 
ATOM      4  C3  UNL d   1       3.121   4.824  -5.950  0.00  0.00     0.023 A 
ATOM      5  C4  UNL d   1       3.873   6.000  -5.986  0.00  0.00     0.048 A 
ATOM      6  C5  UNL d   1       5.267   5.929  -5.981  0.00  0.00     0.003 A 
ATOM      7  I   UNL d   1       1.045   4.925  -5.957  0.00  0.00    -0.146 I 
ENDROOT
TORSDOF 0
ENDMDL
