MODEL 1
REMARK minimizedAffinity 3.34405279
REMARK minimizedRMSD -1
REMARK  0 active torsions:
REMARK  status: ('A' for Active; 'I' for Inactive)
ROOT
ATOM      1  C   UNL d   1       3.783   6.000  -5.994  0.00  0.00     0.023 A 
ATOM      2  C1  UNL d   1       3.042   4.818  -5.999  0.00  0.00     0.003 A 
ATOM      3  C2  UNL d   1       3.671   3.597  -5.745  0.00  0.00     0.048 A 
ATOM      4  C3  UNL d   1       5.041   3.566  -5.486  0.00  0.00     0.023 A 
ATOM      5  C4  UNL d   1       5.786   4.747  -5.480  0.00  0.00     0.048 A 
ATOM      6  C5  UNL d   1       5.153   5.965  -5.736  0.00  0.00     0.003 A 
ATOM      7  I   UNL d   1       5.980   1.751  -5.108  0.00  0.00    -0.146 I 
ENDROOT
TORSDOF 0
ENDMDL
