MODEL 1
REMARK minimizedAffinity 12.600193
REMARK minimizedRMSD -1
REMARK  0 active torsions:
REMARK  status: ('A' for Active; 'I' for Inactive)
ROOT
ATOM      1  C   UNL d   1      -2.686   1.785  -2.242  0.00  0.00     0.023 A 
ATOM      2  C1  UNL d   1      -3.000   2.638  -3.299  0.00  0.00     0.003 A 
ATOM      3  C2  UNL d   1      -1.985   3.146  -4.114  0.00  0.00     0.048 A 
ATOM      4  C3  UNL d   1      -0.659   2.794  -3.866  0.00  0.00     0.023 A 
ATOM      5  C4  UNL d   1      -0.340   1.939  -2.809  0.00  0.00     0.048 A 
ATOM      6  C5  UNL d   1      -1.358   1.436  -1.997  0.00  0.00     0.003 A 
ATOM      7  I   UNL d   1       0.853   3.548  -5.077  0.00  0.00    -0.146 I 
ENDROOT
TORSDOF 0
ENDMDL
