MODEL 1
REMARK minimizedAffinity 2.9971168
REMARK minimizedRMSD -1
REMARK  0 active torsions:
REMARK  status: ('A' for Active; 'I' for Inactive)
ROOT
ATOM      1  C   UNL d   1       0.062  -1.488  -0.310  0.00  0.00     0.023 A 
ATOM      2  C1  UNL d   1       0.715  -2.213  -1.307  0.00  0.00     0.003 A 
ATOM      3  C2  UNL d   1       2.024  -2.655  -1.108  0.00  0.00     0.048 A 
ATOM      4  C3  UNL d   1       2.675  -2.370   0.092  0.00  0.00     0.023 A 
ATOM      5  C4  UNL d   1       2.026  -1.646   1.093  0.00  0.00     0.048 A 
ATOM      6  C5  UNL d   1       0.717  -1.205   0.889  0.00  0.00     0.003 A 
ATOM      7  I   UNL d   1       4.623  -3.027   0.392  0.00  0.00    -0.146 I 
ENDROOT
TORSDOF 0
ENDMDL
