MODEL 1
REMARK minimizedAffinity -0.798254907
REMARK minimizedRMSD -1
REMARK  0 active torsions:
REMARK  status: ('A' for Active; 'I' for Inactive)
ROOT
ATOM      1  C   UNL d   1       2.811  -2.381   0.024  0.00  0.00     0.077 C 
ATOM      2  C1  UNL d   1       1.725  -1.481   0.535  0.00  0.00    -0.074 A 
ATOM      3  C2  UNL d   1       1.150  -1.691   1.792  0.00  0.00    -0.005 A 
ATOM      4  C3  UNL d   1       0.148  -0.840   2.258  0.00  0.00     0.006 A 
ATOM      5  C4  UNL d   1      -0.289   0.227   1.472  0.00  0.00    -0.005 A 
ATOM      6  C5  UNL d   1       0.274   0.453   0.212  0.00  0.00    -0.074 A 
ATOM      7  C6  UNL d   1      -0.177   1.600  -0.641  0.00  0.00     0.077 C 
ATOM      8  C7  UNL d   1       1.286  -0.403  -0.246  0.00  0.00    -0.001 A 
ENDROOT
TORSDOF 0
ENDMDL
