MODEL 1
REMARK minimizedAffinity 0.176534638
REMARK minimizedRMSD -1
REMARK  0 active torsions:
REMARK  status: ('A' for Active; 'I' for Inactive)
ROOT
ATOM      1  C   UNL d   1       2.048  -1.259  -0.750  0.00  0.00     0.077 C 
ATOM      2  C1  UNL d   1       0.798  -0.475  -0.484  0.00  0.00    -0.074 A 
ATOM      3  C2  UNL d   1       0.005  -0.744   0.637  0.00  0.00    -0.005 A 
ATOM      4  C3  UNL d   1      -1.150  -0.000   0.876  0.00  0.00     0.006 A 
ATOM      5  C4  UNL d   1      -1.524   1.019  -0.000  0.00  0.00    -0.005 A 
ATOM      6  C5  UNL d   1      -0.743   1.304  -1.125  0.00  0.00    -0.074 A 
ATOM      7  C6  UNL d   1      -1.125   2.403  -2.072  0.00  0.00     0.077 C 
ATOM      8  C7  UNL d   1       0.420   0.556  -1.355  0.00  0.00    -0.001 A 
ENDROOT
TORSDOF 0
ENDMDL
