MODEL 1
REMARK minimizedAffinity -3.13387418
REMARK minimizedRMSD -1
REMARK  0 active torsions:
REMARK  status: ('A' for Active; 'I' for Inactive)
ROOT
ATOM      1  C   UNL d   1      -0.823   2.830  -1.894  0.00  0.00     0.077 C 
ATOM      2  C1  UNL d   1      -0.485   1.465  -1.374  0.00  0.00    -0.074 A 
ATOM      3  C2  UNL d   1      -0.081   0.445  -2.242  0.00  0.00    -0.005 A 
ATOM      4  C3  UNL d   1       0.239  -0.818  -1.743  0.00  0.00     0.006 A 
ATOM      5  C4  UNL d   1       0.160  -1.073  -0.373  0.00  0.00    -0.005 A 
ATOM      6  C5  UNL d   1      -0.241  -0.065   0.510  0.00  0.00    -0.074 A 
ATOM      7  C6  UNL d   1      -0.323  -0.319   1.986  0.00  0.00     0.077 C 
ATOM      8  C7  UNL d   1      -0.555   1.203   0.001  0.00  0.00    -0.001 A 
ENDROOT
TORSDOF 0
ENDMDL
