MODEL 1
REMARK minimizedAffinity -5.15310526
REMARK minimizedRMSD -1
REMARK  0 active torsions:
REMARK  status: ('A' for Active; 'I' for Inactive)
ROOT
ATOM      1  C   UNL d   1      -0.327   0.343  -1.493  0.00  0.00     0.077 C 
ATOM      2  C1  UNL d   1       0.211  -0.105  -0.167  0.00  0.00    -0.074 A 
ATOM      3  C2  UNL d   1      -0.581  -0.052   0.985  0.00  0.00    -0.005 A 
ATOM      4  C3  UNL d   1      -0.070  -0.481   2.210  0.00  0.00     0.006 A 
ATOM      5  C4  UNL d   1       1.236  -0.967   2.295  0.00  0.00    -0.005 A 
ATOM      6  C5  UNL d   1       2.041  -1.029   1.154  0.00  0.00    -0.074 A 
ATOM      7  C6  UNL d   1       3.443  -1.558   1.226  0.00  0.00     0.077 C 
ATOM      8  C7  UNL d   1       1.518  -0.602  -0.075  0.00  0.00    -0.001 A 
ENDROOT
TORSDOF 0
ENDMDL
