MODEL 1
REMARK minimizedAffinity -5.33694887
REMARK minimizedRMSD -1
REMARK  0 active torsions:
REMARK  status: ('A' for Active; 'I' for Inactive)
ROOT
ATOM      1  C   UNL d   1      -0.637   0.967   1.079  0.00  0.00     0.077 C 
ATOM      2  C1  UNL d   1       0.393  -0.018   1.547  0.00  0.00    -0.074 A 
ATOM      3  C2  UNL d   1       0.229  -0.711   2.751  0.00  0.00    -0.005 A 
ATOM      4  C3  UNL d   1       1.191  -1.631   3.169  0.00  0.00     0.006 A 
ATOM      5  C4  UNL d   1       2.324  -1.866   2.390  0.00  0.00    -0.005 A 
ATOM      6  C5  UNL d   1       2.504  -1.182   1.183  0.00  0.00    -0.074 A 
ATOM      7  C6  UNL d   1       3.712  -1.430   0.329  0.00  0.00     0.077 C 
ATOM      8  C7  UNL d   1       1.530  -0.265   0.766  0.00  0.00    -0.001 A 
ENDROOT
TORSDOF 0
ENDMDL
