MODEL 1
REMARK minimizedAffinity -5.87256289
REMARK minimizedRMSD -1
REMARK  0 active torsions:
REMARK  status: ('A' for Active; 'I' for Inactive)
ROOT
ATOM      1  C   UNL d   1       3.386  -2.167  -0.187  0.00  0.00     0.077 C 
ATOM      2  C1  UNL d   1       2.412  -1.598   0.801  0.00  0.00    -0.074 A 
ATOM      3  C2  UNL d   1       2.635  -1.712   2.177  0.00  0.00    -0.005 A 
ATOM      4  C3  UNL d   1       1.725  -1.169   3.085  0.00  0.00     0.006 A 
ATOM      5  C4  UNL d   1       0.585  -0.507   2.626  0.00  0.00    -0.005 A 
ATOM      6  C5  UNL d   1       0.346  -0.382   1.254  0.00  0.00    -0.074 A 
ATOM      7  C6  UNL d   1      -0.869   0.334   0.744  0.00  0.00     0.077 C 
ATOM      8  C7  UNL d   1       1.269  -0.925   0.348  0.00  0.00    -0.001 A 
ENDROOT
TORSDOF 0
ENDMDL
