MODEL 1
REMARK minimizedAffinity -5.48156309
REMARK minimizedRMSD -1
REMARK  0 active torsions:
REMARK  status: ('A' for Active; 'I' for Inactive)
ROOT
ATOM      1  C   UNL d   1       4.178  -1.492   0.380  0.00  0.00     0.077 C 
ATOM      2  C1  UNL d   1       2.983  -1.313   1.268  0.00  0.00    -0.074 A 
ATOM      3  C2  UNL d   1       3.081  -1.500   2.651  0.00  0.00    -0.005 A 
ATOM      4  C3  UNL d   1       1.963  -1.321   3.465  0.00  0.00     0.006 A 
ATOM      5  C4  UNL d   1       0.738  -0.952   2.906  0.00  0.00    -0.005 A 
ATOM      6  C5  UNL d   1       0.622  -0.760   1.526  0.00  0.00    -0.074 A 
ATOM      7  C6  UNL d   1      -0.684  -0.354   0.910  0.00  0.00     0.077 C 
ATOM      8  C7  UNL d   1       1.751  -0.935   0.715  0.00  0.00    -0.001 A 
ENDROOT
TORSDOF 0
ENDMDL
