MODEL 1
REMARK minimizedAffinity 0.0449588522
REMARK minimizedRMSD -1
REMARK  0 active torsions:
REMARK  status: ('A' for Active; 'I' for Inactive)
ROOT
ATOM      1  C   UNL d   1       2.030  -2.630   2.747  0.00  0.00     0.077 C 
ATOM      2  C1  UNL d   1       0.882  -1.833   2.202  0.00  0.00    -0.074 A 
ATOM      3  C2  UNL d   1      -0.193  -1.471   3.019  0.00  0.00    -0.005 A 
ATOM      4  C3  UNL d   1      -1.249  -0.721   2.500  0.00  0.00     0.006 A 
ATOM      5  C4  UNL d   1      -1.240  -0.327   1.161  0.00  0.00    -0.005 A 
ATOM      6  C5  UNL d   1      -0.172  -0.680   0.330  0.00  0.00    -0.074 A 
ATOM      7  C6  UNL d   1      -0.142  -0.256  -1.109  0.00  0.00     0.077 C 
ATOM      8  C7  UNL d   1       0.888  -1.427   0.860  0.00  0.00    -0.001 A 
ENDROOT
TORSDOF 0
ENDMDL
