MODEL 1
REMARK minimizedAffinity 2.11900544
REMARK minimizedRMSD -1
REMARK  0 active torsions:
REMARK  status: ('A' for Active; 'I' for Inactive)
ROOT
ATOM      1  C   UNL d   1      -3.618   1.168   1.008  0.00  0.00     0.124 A 
ATOM      2  C1  UNL d   1      -2.710   1.118   2.057  0.00  0.00     0.062 A 
ATOM      3  C2  UNL d   1      -1.398   0.714   1.828  0.00  0.00     0.162 A 
ATOM      4  C3  UNL d   1      -0.985   0.357   0.545  0.00  0.00    -0.034 A 
ATOM      5  C4  UNL d   1      -1.904   0.409  -0.505  0.00  0.00     0.162 A 
ATOM      6  C5  UNL d   1      -3.215   0.813  -0.271  0.00  0.00     0.062 A 
ATOM      7  F   UNL d   1      -4.091   0.860  -1.285  0.00  0.00    -0.097 F 
ATOM      8  F1  UNL d   1      -1.541   0.072  -1.751  0.00  0.00    -0.096 F 
ATOM      9  I   UNL d   1       0.976  -0.247   0.198  0.00  0.00    -0.060 I 
ATOM     10  F2  UNL d   1      -0.542   0.676   2.860  0.00  0.00    -0.096 F 
ATOM     11  F3  UNL d   1      -3.098   1.460   3.294  0.00  0.00    -0.097 F 
ATOM     12  F4  UNL d   1      -4.880   1.556   1.232  0.00  0.00    -0.092 F 
ENDROOT
TORSDOF 0
ENDMDL
