MODEL 1
REMARK minimizedAffinity -0.71955049
REMARK minimizedRMSD -1
REMARK  0 active torsions:
REMARK  status: ('A' for Active; 'I' for Inactive)
ROOT
ATOM      1  C   UNL d   1       2.119   0.041   0.918  0.00  0.00     0.124 A 
ATOM      2  C1  UNL d   1       1.315  -1.090   0.889  0.00  0.00     0.062 A 
ATOM      3  C2  UNL d   1      -0.024  -0.989   0.524  0.00  0.00     0.162 A 
ATOM      4  C3  UNL d   1      -0.569   0.249   0.184  0.00  0.00    -0.034 A 
ATOM      5  C4  UNL d   1       0.245   1.383   0.216  0.00  0.00     0.162 A 
ATOM      6  C5  UNL d   1       1.583   1.276   0.582  0.00  0.00     0.062 A 
ATOM      7  F   UNL d   1       2.357   2.371   0.609  0.00  0.00    -0.097 F 
ATOM      8  F1  UNL d   1      -0.247   2.589  -0.105  0.00  0.00    -0.096 F 
ATOM      9  I   UNL d   1      -2.571   0.405  -0.363  0.00  0.00    -0.060 I 
ATOM     10  F2  UNL d   1      -0.776  -2.099   0.505  0.00  0.00    -0.096 F 
ATOM     11  F3  UNL d   1       1.830  -2.285   1.215  0.00  0.00    -0.097 F 
ATOM     12  F4  UNL d   1       3.407  -0.059   1.271  0.00  0.00    -0.092 F 
ENDROOT
TORSDOF 0
ENDMDL
