MODEL 1
REMARK minimizedAffinity -0.607663274
REMARK minimizedRMSD -1
REMARK  0 active torsions:
REMARK  status: ('A' for Active; 'I' for Inactive)
ROOT
ATOM      1  C   UNL d   1       1.323  -2.043  -0.145  0.00  0.00     0.124 A 
ATOM      2  C1  UNL d   1       2.117  -1.256   0.677  0.00  0.00     0.062 A 
ATOM      3  C2  UNL d   1       1.905   0.118   0.748  0.00  0.00     0.162 A 
ATOM      4  C3  UNL d   1       0.892   0.713  -0.005  0.00  0.00    -0.034 A 
ATOM      5  C4  UNL d   1       0.098  -0.085  -0.830  0.00  0.00     0.162 A 
ATOM      6  C5  UNL d   1       0.315  -1.458  -0.897  0.00  0.00     0.062 A 
ATOM      7  F   UNL d   1      -0.454  -2.217  -1.692  0.00  0.00    -0.097 F 
ATOM      8  F1  UNL d   1      -0.884   0.454  -1.566  0.00  0.00    -0.096 F 
ATOM      9  I   UNL d   1       0.571   2.767   0.099  0.00  0.00    -0.060 I 
ATOM     10  F2  UNL d   1       2.687   0.855   1.550  0.00  0.00    -0.096 F 
ATOM     11  F3  UNL d   1       3.093  -1.819   1.404  0.00  0.00    -0.097 F 
ATOM     12  F4  UNL d   1       1.531  -3.365  -0.212  0.00  0.00    -0.092 F 
ENDROOT
TORSDOF 0
ENDMDL
