MODEL 1
REMARK minimizedAffinity 1.81802702
REMARK minimizedRMSD -1
REMARK  0 active torsions:
REMARK  status: ('A' for Active; 'I' for Inactive)
ROOT
ATOM      1  C   UNL d   1      -2.921   1.106   0.704  0.00  0.00     0.124 A 
ATOM      2  C1  UNL d   1      -2.437   0.738  -0.544  0.00  0.00     0.062 A 
ATOM      3  C2  UNL d   1      -1.184   0.144  -0.661  0.00  0.00     0.162 A 
ATOM      4  C3  UNL d   1      -0.406  -0.088   0.474  0.00  0.00    -0.034 A 
ATOM      5  C4  UNL d   1      -0.900   0.285   1.725  0.00  0.00     0.162 A 
ATOM      6  C5  UNL d   1      -2.153   0.879   1.837  0.00  0.00     0.062 A 
ATOM      7  F   UNL d   1      -2.619   1.234   3.043  0.00  0.00    -0.097 F 
ATOM      8  F1  UNL d   1      -0.178   0.077   2.836  0.00  0.00    -0.096 F 
ATOM      9  I   UNL d   1       1.468  -0.977   0.303  0.00  0.00    -0.060 I 
ATOM     10  F2  UNL d   1      -0.741  -0.201  -1.879  0.00  0.00    -0.096 F 
ATOM     11  F3  UNL d   1      -3.177   0.957  -1.640  0.00  0.00    -0.097 F 
ATOM     12  F4  UNL d   1      -4.127   1.679   0.813  0.00  0.00    -0.092 F 
ENDROOT
TORSDOF 0
ENDMDL
