MODEL 1
REMARK minimizedAffinity 1.46083343
REMARK minimizedRMSD -1
REMARK  0 active torsions:
REMARK  status: ('A' for Active; 'I' for Inactive)
ROOT
ATOM      1  C   UNL d   1       2.317  -1.379   0.234  0.00  0.00     0.124 A 
ATOM      2  C1  UNL d   1       2.067  -0.123   0.769  0.00  0.00     0.062 A 
ATOM      3  C2  UNL d   1       0.790   0.426   0.699  0.00  0.00     0.162 A 
ATOM      4  C3  UNL d   1      -0.248  -0.282   0.093  0.00  0.00    -0.034 A 
ATOM      5  C4  UNL d   1       0.012  -1.544  -0.444  0.00  0.00     0.162 A 
ATOM      6  C5  UNL d   1       1.290  -2.088  -0.372  0.00  0.00     0.062 A 
ATOM      7  F   UNL d   1       1.530  -3.302  -0.889  0.00  0.00    -0.097 F 
ATOM      8  F1  UNL d   1      -0.963  -2.252  -1.034  0.00  0.00    -0.096 F 
ATOM      9  I   UNL d   1      -2.160   0.535  -0.013  0.00  0.00    -0.060 I 
ATOM     10  F2  UNL d   1       0.576   1.642   1.224  0.00  0.00    -0.096 F 
ATOM     11  F3  UNL d   1       3.058   0.565   1.354  0.00  0.00    -0.097 F 
ATOM     12  F4  UNL d   1       3.548  -1.904   0.302  0.00  0.00    -0.092 F 
ENDROOT
TORSDOF 0
ENDMDL
