MODEL 1
REMARK minimizedAffinity -3.48043656
REMARK minimizedRMSD -1
REMARK  0 active torsions:
REMARK  status: ('A' for Active; 'I' for Inactive)
ROOT
ATOM      1  C   UNL d   1       2.917  -0.139   0.142  0.00  0.00     0.124 A 
ATOM      2  C1  UNL d   1       2.362   1.106  -0.123  0.00  0.00     0.062 A 
ATOM      3  C2  UNL d   1       0.990   1.232  -0.323  0.00  0.00     0.162 A 
ATOM      4  C3  UNL d   1       0.163   0.110  -0.258  0.00  0.00    -0.034 A 
ATOM      5  C4  UNL d   1       0.729  -1.138   0.008  0.00  0.00     0.162 A 
ATOM      6  C5  UNL d   1       2.101  -1.259   0.207  0.00  0.00     0.062 A 
ATOM      7  F   UNL d   1       2.636  -2.462   0.463  0.00  0.00    -0.097 F 
ATOM      8  F1  UNL d   1      -0.036  -2.237   0.077  0.00  0.00    -0.096 F 
ATOM      9  I   UNL d   1      -1.888   0.294  -0.557  0.00  0.00    -0.060 I 
ATOM     10  F2  UNL d   1       0.480   2.446  -0.578  0.00  0.00    -0.096 F 
ATOM     11  F3  UNL d   1       3.148   2.189  -0.188  0.00  0.00    -0.097 F 
ATOM     12  F4  UNL d   1       4.237  -0.257   0.333  0.00  0.00    -0.092 F 
ENDROOT
TORSDOF 0
ENDMDL
