MODEL 1
REMARK minimizedAffinity -2.46956825
REMARK minimizedRMSD -1
REMARK  0 active torsions:
REMARK  status: ('A' for Active; 'I' for Inactive)
ROOT
ATOM      1  C   UNL d   1       2.503  -0.834   0.694  0.00  0.00     0.124 A 
ATOM      2  C1  UNL d   1       2.136   0.477   0.962  0.00  0.00     0.062 A 
ATOM      3  C2  UNL d   1       0.836   0.906   0.709  0.00  0.00     0.162 A 
ATOM      4  C3  UNL d   1      -0.107   0.022   0.186  0.00  0.00    -0.034 A 
ATOM      5  C4  UNL d   1       0.270  -1.296  -0.082  0.00  0.00     0.162 A 
ATOM      6  C5  UNL d   1       1.570  -1.719   0.172  0.00  0.00     0.062 A 
ATOM      7  F   UNL d   1       1.923  -2.987  -0.087  0.00  0.00    -0.097 F 
ATOM      8  F1  UNL d   1      -0.612  -2.172  -0.585  0.00  0.00    -0.096 F 
ATOM      9  I   UNL d   1      -2.052   0.658  -0.193  0.00  0.00    -0.060 I 
ATOM     10  F2  UNL d   1       0.509   2.179   0.977  0.00  0.00    -0.096 F 
ATOM     11  F3  UNL d   1       3.036   1.335   1.464  0.00  0.00    -0.097 F 
ATOM     12  F4  UNL d   1       3.755  -1.244   0.937  0.00  0.00    -0.092 F 
ENDROOT
TORSDOF 0
ENDMDL
