MODEL 1
REMARK minimizedAffinity -4.39369631
REMARK minimizedRMSD -1
REMARK  0 active torsions:
REMARK  status: ('A' for Active; 'I' for Inactive)
ROOT
ATOM      1  C   UNL d   1       1.619  -1.307   0.923  0.00  0.00     0.124 A 
ATOM      2  C1  UNL d   1       0.486  -1.169   1.712  0.00  0.00     0.062 A 
ATOM      3  C2  UNL d   1      -0.663  -0.580   1.191  0.00  0.00     0.162 A 
ATOM      4  C3  UNL d   1      -0.685  -0.127  -0.128  0.00  0.00    -0.034 A 
ATOM      5  C4  UNL d   1       0.459  -0.269  -0.916  0.00  0.00     0.162 A 
ATOM      6  C5  UNL d   1       1.604  -0.858  -0.390  0.00  0.00     0.062 A 
ATOM      7  F   UNL d   1       2.698  -0.991  -1.155  0.00  0.00    -0.097 F 
ATOM      8  F1  UNL d   1       0.472   0.156  -2.188  0.00  0.00    -0.096 F 
ATOM      9  I   UNL d   1      -2.400   0.754  -0.911  0.00  0.00    -0.060 I 
ATOM     10  F2  UNL d   1      -1.743  -0.459   1.977  0.00  0.00    -0.096 F 
ATOM     11  F3  UNL d   1       0.497  -1.602   2.981  0.00  0.00    -0.097 F 
ATOM     12  F4  UNL d   1       2.723  -1.873   1.427  0.00  0.00    -0.092 F 
ENDROOT
TORSDOF 0
ENDMDL
