MODEL 1
REMARK minimizedAffinity 3.3143816
REMARK minimizedRMSD -1
REMARK  1 active torsions:
REMARK  status: ('A' for Active; 'I' for Inactive)
REMARK    1  A    between atoms: C1_2  and  C2_3 
ROOT
ATOM      1  C2  UNL d   1      -1.236   0.916  -2.498  0.00  0.00    -0.077 A 
ATOM      2  C3  UNL d   1      -1.408   2.219  -2.010  0.00  0.00     0.002 A 
ATOM      3  C4  UNL d   1      -1.247   3.317  -2.858  0.00  0.00     0.002 A 
ATOM      4  C5  UNL d   1      -0.917   3.124  -4.197  0.00  0.00    -0.004 A 
ATOM      5  C6  UNL d   1      -0.742   1.832  -4.691  0.00  0.00     0.002 A 
ATOM      6  C7  UNL d   1      -0.901   0.733  -3.846  0.00  0.00     0.002 A 
ENDROOT
BRANCH   1   7
ATOM      7  C1  UNL d   1      -1.457  -0.271  -1.598  0.00  0.00     0.055 C 
ATOM      8  C   UNL d   1      -0.138  -0.917  -1.198  0.00  0.00     0.019 C 
ENDBRANCH   1   7
TORSDOF 1
ENDMDL
