MODEL 1
REMARK minimizedAffinity 9.02899551
REMARK minimizedRMSD -1
REMARK  1 active torsions:
REMARK  status: ('A' for Active; 'I' for Inactive)
REMARK    1  A    between atoms: C1_2  and  C2_3 
ROOT
ATOM      1  C2  UNL d   1       3.130  -3.579   3.326  0.00  0.00    -0.077 A 
ATOM      2  C3  UNL d   1       2.349  -2.425   3.481  0.00  0.00     0.002 A 
ATOM      3  C4  UNL d   1       1.397  -2.082   2.519  0.00  0.00     0.002 A 
ATOM      4  C5  UNL d   1       1.213  -2.890   1.399  0.00  0.00    -0.004 A 
ATOM      5  C6  UNL d   1       1.986  -4.039   1.235  0.00  0.00     0.002 A 
ATOM      6  C7  UNL d   1       2.939  -4.383   2.195  0.00  0.00     0.002 A 
ENDROOT
BRANCH   1   7
ATOM      7  C1  UNL d   1       4.123  -3.977   4.386  0.00  0.00     0.055 C 
ATOM      8  C   UNL d   1       4.254  -2.901   5.454  0.00  0.00     0.019 C 
ENDBRANCH   1   7
TORSDOF 1
ENDMDL
