MODEL 1
REMARK minimizedAffinity 3.32765126
REMARK minimizedRMSD -1
REMARK  1 active torsions:
REMARK  status: ('A' for Active; 'I' for Inactive)
REMARK    1  A    between atoms: C1_2  and  C2_3 
ROOT
ATOM      1  C2  UNL d   1       1.863  -3.866   1.874  0.00  0.00    -0.077 A 
ATOM      2  C3  UNL d   1       2.424  -2.913   1.012  0.00  0.00     0.002 A 
ATOM      3  C4  UNL d   1       1.815  -1.668   0.844  0.00  0.00     0.002 A 
ATOM      4  C5  UNL d   1       0.646  -1.363   1.537  0.00  0.00    -0.004 A 
ATOM      5  C6  UNL d   1       0.079  -2.304   2.394  0.00  0.00     0.002 A 
ATOM      6  C7  UNL d   1       0.685  -3.550   2.563  0.00  0.00     0.002 A 
ENDROOT
BRANCH   1   7
ATOM      7  C1  UNL d   1       2.544  -5.191   2.094  0.00  0.00     0.055 C 
ATOM      8  C   UNL d   1       3.515  -5.509   0.966  0.00  0.00     0.019 C 
ENDBRANCH   1   7
TORSDOF 1
ENDMDL
