MODEL 1
REMARK minimizedAffinity 5.56837463
REMARK minimizedRMSD -1
REMARK  1 active torsions:
REMARK  status: ('A' for Active; 'I' for Inactive)
REMARK    1  A    between atoms: C1_2  and  C2_3 
ROOT
ATOM      1  C2  UNL d   1      -2.117  -0.941   2.022  0.00  0.00    -0.077 A 
ATOM      2  C3  UNL d   1      -2.066  -1.349   0.682  0.00  0.00     0.002 A 
ATOM      3  C4  UNL d   1      -2.854  -0.713  -0.280  0.00  0.00     0.002 A 
ATOM      4  C5  UNL d   1      -3.695   0.335   0.088  0.00  0.00    -0.004 A 
ATOM      5  C6  UNL d   1      -3.755   0.746   1.419  0.00  0.00     0.002 A 
ATOM      6  C7  UNL d   1      -2.969   0.112   2.382  0.00  0.00     0.002 A 
ENDROOT
BRANCH   1   7
ATOM      7  C1  UNL d   1      -1.232  -1.592   3.053  0.00  0.00     0.055 C 
ATOM      8  C   UNL d   1       0.164  -0.985   3.046  0.00  0.00     0.019 C 
ENDBRANCH   1   7
TORSDOF 1
ENDMDL
