MODEL 1
REMARK minimizedAffinity -0.313158512
REMARK minimizedRMSD -1
REMARK  1 active torsions:
REMARK  status: ('A' for Active; 'I' for Inactive)
REMARK    1  A    between atoms: C1_2  and  C2_3 
ROOT
ATOM      1  C2  UNL d   1       4.645   2.083   1.628  0.00  0.00    -0.077 A 
ATOM      2  C3  UNL d   1       4.441   2.328   2.994  0.00  0.00     0.002 A 
ATOM      3  C4  UNL d   1       3.181   2.703   3.463  0.00  0.00     0.002 A 
ATOM      4  C5  UNL d   1       2.115   2.833   2.576  0.00  0.00    -0.004 A 
ATOM      5  C6  UNL d   1       2.308   2.593   1.216  0.00  0.00     0.002 A 
ATOM      6  C7  UNL d   1       3.567   2.219   0.744  0.00  0.00     0.002 A 
ENDROOT
BRANCH   1   7
ATOM      7  C1  UNL d   1       5.991   1.630   1.127  0.00  0.00     0.055 C 
ATOM      8  C   UNL d   1       5.994   0.140   0.817  0.00  0.00     0.019 C 
ENDBRANCH   1   7
TORSDOF 1
ENDMDL
