MODEL 1
REMARK minimizedAffinity 2.13819742
REMARK minimizedRMSD -1
REMARK  1 active torsions:
REMARK  status: ('A' for Active; 'I' for Inactive)
REMARK    1  A    between atoms: C1_2  and  C2_3 
ROOT
ATOM      1  C2  UNL d   1       1.546  -1.816   0.423  0.00  0.00    -0.077 A 
ATOM      2  C3  UNL d   1       2.159  -3.074   0.520  0.00  0.00     0.002 A 
ATOM      3  C4  UNL d   1       2.019  -3.840   1.679  0.00  0.00     0.002 A 
ATOM      4  C5  UNL d   1       1.263  -3.360   2.747  0.00  0.00    -0.004 A 
ATOM      5  C6  UNL d   1       0.652  -2.109   2.660  0.00  0.00     0.002 A 
ATOM      6  C7  UNL d   1       0.792  -1.342   1.504  0.00  0.00     0.002 A 
ENDROOT
BRANCH   1   7
ATOM      7  C1  UNL d   1       1.656  -1.010  -0.845  0.00  0.00     0.055 C 
ATOM      8  C   UNL d   1       0.325  -0.952  -1.581  0.00  0.00     0.019 C 
ENDBRANCH   1   7
TORSDOF 1
ENDMDL
