MODEL 1
REMARK minimizedAffinity 5.24427938
REMARK minimizedRMSD -1
REMARK  1 active torsions:
REMARK  status: ('A' for Active; 'I' for Inactive)
REMARK    1  A    between atoms: C1_2  and  C2_3 
ROOT
ATOM      1  C2  UNL d   1       5.879  -0.174  -2.096  0.00  0.00    -0.077 A 
ATOM      2  C3  UNL d   1       5.864  -0.715  -0.802  0.00  0.00     0.002 A 
ATOM      3  C4  UNL d   1       5.916   0.123   0.314  0.00  0.00     0.002 A 
ATOM      4  C5  UNL d   1       5.979   1.504   0.148  0.00  0.00    -0.004 A 
ATOM      5  C6  UNL d   1       5.996   2.052  -1.134  0.00  0.00     0.002 A 
ATOM      6  C7  UNL d   1       5.945   1.217  -2.251  0.00  0.00     0.002 A 
ENDROOT
BRANCH   1   7
ATOM      7  C1  UNL d   1       5.773  -1.072  -3.300  0.00  0.00     0.055 C 
ATOM      8  C   UNL d   1       5.884  -0.279  -4.594  0.00  0.00     0.019 C 
ENDBRANCH   1   7
TORSDOF 1
ENDMDL
