MODEL 1
REMARK minimizedAffinity -4.55113983
REMARK minimizedRMSD -1
REMARK  0 active torsions:
REMARK  status: ('A' for Active; 'I' for Inactive)
ROOT
ATOM      1  C   UNL d   1       1.529  -0.632   3.177  0.00  0.00     0.077 C 
ATOM      2  C1  UNL d   1       0.470  -0.316   2.164  0.00  0.00    -0.074 A 
ATOM      3  C2  UNL d   1      -0.781   0.170   2.558  0.00  0.00    -0.005 A 
ATOM      4  C3  UNL d   1      -1.753   0.469   1.603  0.00  0.00     0.006 A 
ATOM      5  C4  UNL d   1      -1.484   0.285   0.246  0.00  0.00    -0.005 A 
ATOM      6  C5  UNL d   1      -0.239  -0.199  -0.167  0.00  0.00    -0.074 A 
ATOM      7  C6  UNL d   1       0.069  -0.393  -1.622  0.00  0.00     0.077 C 
ATOM      8  C7  UNL d   1       0.735  -0.490   0.798  0.00  0.00    -0.001 A 
ENDROOT
TORSDOF 0
ENDMDL
