MODEL 1
REMARK minimizedAffinity -4.0196743
REMARK minimizedRMSD -1
REMARK  0 active torsions:
REMARK  status: ('A' for Active; 'I' for Inactive)
ROOT
ATOM      1  C   UNL d   1      -1.489   1.562   0.068  0.00  0.00     0.077 C 
ATOM      2  C1  UNL d   1      -0.551   0.699  -0.721  0.00  0.00    -0.074 A 
ATOM      3  C2  UNL d   1       0.003  -0.458  -0.163  0.00  0.00    -0.005 A 
ATOM      4  C3  UNL d   1       0.866  -1.257  -0.913  0.00  0.00     0.006 A 
ATOM      5  C4  UNL d   1       1.184  -0.907  -2.226  0.00  0.00    -0.005 A 
ATOM      6  C5  UNL d   1       0.640   0.245  -2.801  0.00  0.00    -0.074 A 
ATOM      7  C6  UNL d   1       0.964   0.630  -4.214  0.00  0.00     0.077 C 
ATOM      8  C7  UNL d   1      -0.233   1.039  -2.044  0.00  0.00    -0.001 A 
ENDROOT
TORSDOF 0
ENDMDL
