MODEL 1
REMARK minimizedAffinity -1.26983845
REMARK minimizedRMSD -1
REMARK  0 active torsions:
REMARK  status: ('A' for Active; 'I' for Inactive)
ROOT
ATOM      1  C   UNL d   1      -0.190  -0.391   3.216  0.00  0.00     0.077 C 
ATOM      2  C1  UNL d   1      -0.712  -0.012   1.863  0.00  0.00    -0.074 A 
ATOM      3  C2  UNL d   1      -1.916   0.687   1.727  0.00  0.00    -0.005 A 
ATOM      4  C3  UNL d   1      -2.385   1.041   0.462  0.00  0.00     0.006 A 
ATOM      5  C4  UNL d   1      -1.656   0.701  -0.678  0.00  0.00    -0.005 A 
ATOM      6  C5  UNL d   1      -0.450   0.003  -0.562  0.00  0.00    -0.074 A 
ATOM      7  C6  UNL d   1       0.351  -0.362  -1.777  0.00  0.00     0.077 C 
ATOM      8  C7  UNL d   1       0.018  -0.344   0.713  0.00  0.00    -0.001 A 
ENDROOT
TORSDOF 0
ENDMDL
