MODEL 1
REMARK minimizedAffinity -3.198771
REMARK minimizedRMSD -1
REMARK  0 active torsions:
REMARK  status: ('A' for Active; 'I' for Inactive)
ROOT
ATOM      1  C   UNL d   1       1.853  -0.587   3.303  0.00  0.00     0.077 C 
ATOM      2  C1  UNL d   1       0.757  -0.315   2.316  0.00  0.00    -0.074 A 
ATOM      3  C2  UNL d   1      -0.500   0.127   2.742  0.00  0.00    -0.005 A 
ATOM      4  C3  UNL d   1      -1.506   0.386   1.811  0.00  0.00     0.006 A 
ATOM      5  C4  UNL d   1      -1.267   0.206   0.448  0.00  0.00    -0.005 A 
ATOM      6  C5  UNL d   1      -0.016  -0.235   0.004  0.00  0.00    -0.074 A 
ATOM      7  C6  UNL d   1       0.261  -0.425  -1.457  0.00  0.00     0.077 C 
ATOM      8  C7  UNL d   1       0.993  -0.486   0.945  0.00  0.00    -0.001 A 
ENDROOT
TORSDOF 0
ENDMDL
