MODEL 1
REMARK minimizedAffinity 0.829494357
REMARK minimizedRMSD -1
REMARK  0 active torsions:
REMARK  status: ('A' for Active; 'I' for Inactive)
ROOT
ATOM      1  C   UNL d   1      -2.128   1.019  -0.009  0.00  0.00     0.077 C 
ATOM      2  C1  UNL d   1      -0.892   0.378  -0.566  0.00  0.00    -0.074 A 
ATOM      3  C2  UNL d   1      -0.022  -0.344   0.257  0.00  0.00    -0.005 A 
ATOM      4  C3  UNL d   1       1.119  -0.942  -0.277  0.00  0.00     0.006 A 
ATOM      5  C4  UNL d   1       1.402  -0.824  -1.638  0.00  0.00    -0.005 A 
ATOM      6  C5  UNL d   1       0.544  -0.106  -2.478  0.00  0.00    -0.074 A 
ATOM      7  C6  UNL d   1       0.828   0.022  -3.945  0.00  0.00     0.077 C 
ATOM      8  C7  UNL d   1      -0.604   0.486  -1.934  0.00  0.00    -0.001 A 
ENDROOT
TORSDOF 0
ENDMDL
