MODEL 1
REMARK minimizedAffinity -0.464558035
REMARK minimizedRMSD -1
REMARK  0 active torsions:
REMARK  status: ('A' for Active; 'I' for Inactive)
ROOT
ATOM      1  C   UNL d   1      -1.298   0.480   1.002  0.00  0.00     0.077 C 
ATOM      2  C1  UNL d   1      -0.421   0.011  -0.121  0.00  0.00    -0.074 A 
ATOM      3  C2  UNL d   1       0.334  -1.160  -0.002  0.00  0.00    -0.005 A 
ATOM      4  C3  UNL d   1       1.138  -1.589  -1.058  0.00  0.00     0.006 A 
ATOM      5  C4  UNL d   1       1.195  -0.852  -2.242  0.00  0.00    -0.005 A 
ATOM      6  C5  UNL d   1       0.446   0.321  -2.379  0.00  0.00    -0.074 A 
ATOM      7  C6  UNL d   1       0.488   1.119  -3.648  0.00  0.00     0.077 C 
ATOM      8  C7  UNL d   1      -0.365   0.742  -1.316  0.00  0.00    -0.001 A 
ENDROOT
TORSDOF 0
ENDMDL
