MODEL 1
REMARK minimizedAffinity -5.20580482
REMARK minimizedRMSD -1
REMARK  0 active torsions:
REMARK  status: ('A' for Active; 'I' for Inactive)
ROOT
ATOM      1  C   UNL d   1       1.730  -0.555   3.783  0.00  0.00     0.077 C 
ATOM      2  C1  UNL d   1       0.631  -0.144   2.849  0.00  0.00    -0.074 A 
ATOM      3  C2  UNL d   1      -0.484   0.560   3.316  0.00  0.00    -0.005 A 
ATOM      4  C3  UNL d   1      -1.494   0.944   2.434  0.00  0.00     0.006 A 
ATOM      5  C4  UNL d   1      -1.399   0.629   1.078  0.00  0.00    -0.005 A 
ATOM      6  C5  UNL d   1      -0.292  -0.074   0.592  0.00  0.00    -0.074 A 
ATOM      7  C6  UNL d   1      -0.170  -0.412  -0.864  0.00  0.00     0.077 C 
ATOM      8  C7  UNL d   1       0.722  -0.450   1.484  0.00  0.00    -0.001 A 
ENDROOT
TORSDOF 0
ENDMDL
