MODEL 1
REMARK minimizedAffinity -2.8168416
REMARK minimizedRMSD -1
REMARK  0 active torsions:
REMARK  status: ('A' for Active; 'I' for Inactive)
ROOT
ATOM      1  C   UNL d   1      -0.504  -2.313   1.179  0.00  0.00     0.124 A 
ATOM      2  C1  UNL d   1       0.372  -1.854   0.205  0.00  0.00     0.062 A 
ATOM      3  C2  UNL d   1       0.413  -0.500  -0.117  0.00  0.00     0.162 A 
ATOM      4  C3  UNL d   1      -0.423   0.405   0.536  0.00  0.00    -0.034 A 
ATOM      5  C4  UNL d   1      -1.302  -0.065   1.515  0.00  0.00     0.162 A 
ATOM      6  C5  UNL d   1      -1.339  -1.418   1.833  0.00  0.00     0.062 A 
ATOM      7  F   UNL d   1      -2.186  -1.860   2.775  0.00  0.00    -0.097 F 
ATOM      8  F1  UNL d   1      -2.120   0.778   2.163  0.00  0.00    -0.096 F 
ATOM      9  I   UNL d   1      -0.364   2.429   0.058  0.00  0.00    -0.060 I 
ATOM     10  F2  UNL d   1       1.269  -0.085  -1.063  0.00  0.00    -0.096 F 
ATOM     11  F3  UNL d   1       1.179  -2.716  -0.429  0.00  0.00    -0.097 F 
ATOM     12  F4  UNL d   1      -0.542  -3.616   1.487  0.00  0.00    -0.092 F 
ENDROOT
TORSDOF 0
ENDMDL
