MODEL 1
REMARK minimizedAffinity -1.28064764
REMARK minimizedRMSD -1
REMARK  0 active torsions:
REMARK  status: ('A' for Active; 'I' for Inactive)
ROOT
ATOM      1  C   UNL d   1      -0.603  -3.240   0.126  0.00  0.00     0.124 A 
ATOM      2  C1  UNL d   1      -1.613  -2.431   0.627  0.00  0.00     0.062 A 
ATOM      3  C2  UNL d   1      -1.455  -1.049   0.654  0.00  0.00     0.162 A 
ATOM      4  C3  UNL d   1      -0.280  -0.466   0.177  0.00  0.00    -0.034 A 
ATOM      5  C4  UNL d   1       0.732  -1.286  -0.324  0.00  0.00     0.162 A 
ATOM      6  C5  UNL d   1       0.568  -2.667  -0.349  0.00  0.00     0.062 A 
ATOM      7  F   UNL d   1       1.546  -3.447  -0.833  0.00  0.00    -0.097 F 
ATOM      8  F1  UNL d   1       1.874  -0.758  -0.790  0.00  0.00    -0.096 F 
ATOM      9  I   UNL d   1      -0.039   1.601   0.216  0.00  0.00    -0.060 I 
ATOM     10  F2  UNL d   1      -2.448  -0.291   1.143  0.00  0.00    -0.096 F 
ATOM     11  F3  UNL d   1      -2.746  -2.982   1.087  0.00  0.00    -0.097 F 
ATOM     12  F4  UNL d   1      -0.758  -4.570   0.102  0.00  0.00    -0.092 F 
ENDROOT
TORSDOF 0
ENDMDL
