MODEL 1
REMARK minimizedAffinity -1.92806709
REMARK minimizedRMSD -1
REMARK  0 active torsions:
REMARK  status: ('A' for Active; 'I' for Inactive)
ROOT
ATOM      1  C   UNL d   1      -0.219  -3.031   0.704  0.00  0.00     0.124 A 
ATOM      2  C1  UNL d   1      -0.979  -2.030   1.293  0.00  0.00     0.062 A 
ATOM      3  C2  UNL d   1      -0.888  -0.719   0.834  0.00  0.00     0.162 A 
ATOM      4  C3  UNL d   1      -0.033  -0.401  -0.221  0.00  0.00    -0.034 A 
ATOM      5  C4  UNL d   1       0.730  -1.413  -0.808  0.00  0.00     0.162 A 
ATOM      6  C5  UNL d   1       0.635  -2.721  -0.346  0.00  0.00     0.062 A 
ATOM      7  F   UNL d   1       1.371  -3.686  -0.916  0.00  0.00    -0.097 F 
ATOM      8  F1  UNL d   1       1.562  -1.141  -1.825  0.00  0.00    -0.096 F 
ATOM      9  I   UNL d   1       0.106   1.558  -0.911  0.00  0.00    -0.060 I 
ATOM     10  F2  UNL d   1      -1.635   0.227   1.422  0.00  0.00    -0.096 F 
ATOM     11  F3  UNL d   1      -1.804  -2.327   2.308  0.00  0.00    -0.097 F 
ATOM     12  F4  UNL d   1      -0.308  -4.291   1.148  0.00  0.00    -0.092 F 
ENDROOT
TORSDOF 0
ENDMDL
