MODEL 1
REMARK minimizedAffinity -2.66786385
REMARK minimizedRMSD -1
REMARK  0 active torsions:
REMARK  status: ('A' for Active; 'I' for Inactive)
ROOT
ATOM      1  C   UNL d   1      -0.350  -2.780   0.280  0.00  0.00     0.124 A 
ATOM      2  C1  UNL d   1      -1.069  -2.094   1.248  0.00  0.00     0.062 A 
ATOM      3  C2  UNL d   1      -0.961  -0.710   1.352  0.00  0.00     0.162 A 
ATOM      4  C3  UNL d   1      -0.130  -0.002   0.484  0.00  0.00    -0.034 A 
ATOM      5  C4  UNL d   1       0.592  -0.699  -0.487  0.00  0.00     0.162 A 
ATOM      6  C5  UNL d   1       0.480  -2.082  -0.587  0.00  0.00     0.062 A 
ATOM      7  F   UNL d   1       1.176  -2.743  -1.523  0.00  0.00    -0.097 F 
ATOM      8  F1  UNL d   1       1.400  -0.050  -1.338  0.00  0.00    -0.096 F 
ATOM      9  I   UNL d   1       0.035   2.067   0.636  0.00  0.00    -0.060 I 
ATOM     10  F2  UNL d   1      -1.668  -0.074   2.297  0.00  0.00    -0.096 F 
ATOM     11  F3  UNL d   1      -1.871  -2.766   2.087  0.00  0.00    -0.097 F 
ATOM     12  F4  UNL d   1      -0.455  -4.111   0.183  0.00  0.00    -0.092 F 
ENDROOT
TORSDOF 0
ENDMDL
