MODEL 1
REMARK minimizedAffinity 2.35802674
REMARK minimizedRMSD -1
REMARK  0 active torsions:
REMARK  status: ('A' for Active; 'I' for Inactive)
ROOT
ATOM      1  C   UNL d   1      -1.053  -2.739  -0.704  0.00  0.00     0.124 A 
ATOM      2  C1  UNL d   1      -0.491  -1.964  -1.708  0.00  0.00     0.062 A 
ATOM      3  C2  UNL d   1      -0.117  -0.648  -1.450  0.00  0.00     0.162 A 
ATOM      4  C3  UNL d   1      -0.303  -0.100  -0.181  0.00  0.00    -0.034 A 
ATOM      5  C4  UNL d   1      -0.870  -0.886   0.824  0.00  0.00     0.162 A 
ATOM      6  C5  UNL d   1      -1.242  -2.200   0.561  0.00  0.00     0.062 A 
ATOM      7  F   UNL d   1      -1.785  -2.948   1.532  0.00  0.00    -0.097 F 
ATOM      8  F1  UNL d   1      -1.062  -0.390   2.055  0.00  0.00    -0.096 F 
ATOM      9  I   UNL d   1       0.256   1.867   0.209  0.00  0.00    -0.060 I 
ATOM     10  F2  UNL d   1       0.424   0.078  -2.439  0.00  0.00    -0.096 F 
ATOM     11  F3  UNL d   1      -0.309  -2.482  -2.931  0.00  0.00    -0.097 F 
ATOM     12  F4  UNL d   1      -1.414  -4.004  -0.956  0.00  0.00    -0.092 F 
ENDROOT
TORSDOF 0
ENDMDL
