MODEL 1
REMARK minimizedAffinity 0.987345755
REMARK minimizedRMSD -1
REMARK  0 active torsions:
REMARK  status: ('A' for Active; 'I' for Inactive)
ROOT
ATOM      1  C   UNL d   1       1.473   3.317   0.534  0.00  0.00     0.124 A 
ATOM      2  C1  UNL d   1       2.502   2.473   0.139  0.00  0.00     0.062 A 
ATOM      3  C2  UNL d   1       2.227   1.349  -0.636  0.00  0.00     0.162 A 
ATOM      4  C3  UNL d   1       0.918   1.063  -1.021  0.00  0.00    -0.034 A 
ATOM      5  C4  UNL d   1      -0.112   1.916  -0.619  0.00  0.00     0.162 A 
ATOM      6  C5  UNL d   1       0.168   3.038   0.155  0.00  0.00     0.062 A 
ATOM      7  F   UNL d   1      -0.827   3.852   0.536  0.00  0.00    -0.097 F 
ATOM      8  F1  UNL d   1      -1.382   1.671  -0.972  0.00  0.00    -0.096 F 
ATOM      9  I   UNL d   1       0.503  -0.616  -2.178  0.00  0.00    -0.060 I 
ATOM     10  F2  UNL d   1       3.241   0.551  -1.003  0.00  0.00    -0.096 F 
ATOM     11  F3  UNL d   1       3.764   2.740   0.504  0.00  0.00    -0.097 F 
ATOM     12  F4  UNL d   1       1.741   4.397   1.279  0.00  0.00    -0.092 F 
ENDROOT
TORSDOF 0
ENDMDL
