MODEL 1
REMARK minimizedAffinity -2.26051712
REMARK minimizedRMSD -1
REMARK  0 active torsions:
REMARK  status: ('A' for Active; 'I' for Inactive)
ROOT
ATOM      1  C   UNL d   1       0.290  -3.108  -1.006  0.00  0.00     0.124 A 
ATOM      2  C1  UNL d   1       0.377  -2.191  -2.043  0.00  0.00     0.062 A 
ATOM      3  C2  UNL d   1       0.293  -0.827  -1.780  0.00  0.00     0.162 A 
ATOM      4  C3  UNL d   1       0.121  -0.371  -0.473  0.00  0.00    -0.034 A 
ATOM      5  C4  UNL d   1       0.033  -1.300   0.565  0.00  0.00     0.162 A 
ATOM      6  C5  UNL d   1       0.118  -2.663   0.297  0.00  0.00     0.062 A 
ATOM      7  F   UNL d   1       0.033  -3.548   1.301  0.00  0.00    -0.097 F 
ATOM      8  F1  UNL d   1      -0.132  -0.897   1.834  0.00  0.00    -0.096 F 
ATOM      9  I   UNL d   1      -0.005   1.668  -0.075  0.00  0.00    -0.060 I 
ATOM     10  F2  UNL d   1       0.381   0.038  -2.802  0.00  0.00    -0.096 F 
ATOM     11  F3  UNL d   1       0.542  -2.619  -3.303  0.00  0.00    -0.097 F 
ATOM     12  F4  UNL d   1       0.370  -4.420  -1.262  0.00  0.00    -0.092 F 
ENDROOT
TORSDOF 0
ENDMDL
