MODEL 1
REMARK minimizedAffinity 1.10829115
REMARK minimizedRMSD -1
REMARK  0 active torsions:
REMARK  status: ('A' for Active; 'I' for Inactive)
ROOT
ATOM      1  C   UNL d   1      -0.810  -2.727   0.049  0.00  0.00     0.124 A 
ATOM      2  C1  UNL d   1      -1.473  -2.062   1.071  0.00  0.00     0.062 A 
ATOM      3  C2  UNL d   1      -1.332  -0.686   1.218  0.00  0.00     0.162 A 
ATOM      4  C3  UNL d   1      -0.524   0.037   0.340  0.00  0.00    -0.034 A 
ATOM      5  C4  UNL d   1       0.141  -0.639  -0.685  0.00  0.00     0.162 A 
ATOM      6  C5  UNL d   1      -0.004  -2.015  -0.828  0.00  0.00     0.062 A 
ATOM      7  F   UNL d   1       0.638  -2.656  -1.815  0.00  0.00    -0.097 F 
ATOM      8  F1  UNL d   1       0.926   0.024  -1.547  0.00  0.00    -0.096 F 
ATOM      9  I   UNL d   1      -0.310   2.095   0.556  0.00  0.00    -0.060 I 
ATOM     10  F2  UNL d   1      -1.985  -0.069   2.215  0.00  0.00    -0.096 F 
ATOM     11  F3  UNL d   1      -2.252  -2.748   1.920  0.00  0.00    -0.097 F 
ATOM     12  F4  UNL d   1      -0.947  -4.052  -0.089  0.00  0.00    -0.092 F 
ENDROOT
TORSDOF 0
ENDMDL
