MODEL 1
REMARK minimizedAffinity -3.59989572
REMARK minimizedRMSD -1
REMARK  0 active torsions:
REMARK  status: ('A' for Active; 'I' for Inactive)
ROOT
ATOM      1  C   UNL d   1       0.762  -1.592  -0.679  0.00  0.00     0.124 A 
ATOM      2  C1  UNL d   1       0.446  -0.241  -0.654  0.00  0.00     0.062 A 
ATOM      3  C2  UNL d   1      -0.490   0.242   0.256  0.00  0.00     0.162 A 
ATOM      4  C3  UNL d   1      -1.117  -0.627   1.149  0.00  0.00    -0.034 A 
ATOM      5  C4  UNL d   1      -0.795  -1.985   1.117  0.00  0.00     0.162 A 
ATOM      6  C5  UNL d   1       0.141  -2.463   0.206  0.00  0.00     0.062 A 
ATOM      7  F   UNL d   1       0.445  -3.769   0.182  0.00  0.00    -0.097 F 
ATOM      8  F1  UNL d   1      -1.379  -2.848   1.961  0.00  0.00    -0.096 F 
ATOM      9  I   UNL d   1      -2.517   0.092   2.511  0.00  0.00    -0.060 I 
ATOM     10  F2  UNL d   1      -0.775   1.553   0.258  0.00  0.00    -0.096 F 
ATOM     11  F3  UNL d   1       1.044   0.602  -1.509  0.00  0.00    -0.097 F 
ATOM     12  F4  UNL d   1       1.662  -2.055  -1.557  0.00  0.00    -0.092 F 
ENDROOT
TORSDOF 0
ENDMDL
