MODEL 1
REMARK minimizedAffinity -1.19752967
REMARK minimizedRMSD -1
REMARK  0 active torsions:
REMARK  status: ('A' for Active; 'I' for Inactive)
ROOT
ATOM      1  C   UNL d   1       0.833   2.235   0.084  0.00  0.00     0.124 A 
ATOM      2  C1  UNL d   1       0.406   1.394  -0.934  0.00  0.00     0.062 A 
ATOM      3  C2  UNL d   1       0.157   0.050  -0.674  0.00  0.00     0.162 A 
ATOM      4  C3  UNL d   1       0.333  -0.462   0.612  0.00  0.00    -0.034 A 
ATOM      5  C4  UNL d   1       0.764   0.389   1.631  0.00  0.00     0.162 A 
ATOM      6  C5  UNL d   1       1.011   1.732   1.365  0.00  0.00     0.062 A 
ATOM      7  F   UNL d   1       1.424   2.543   2.350  0.00  0.00    -0.097 F 
ATOM      8  F1  UNL d   1       0.944  -0.070   2.878  0.00  0.00    -0.096 F 
ATOM      9  I   UNL d   1      -0.038  -2.472   1.006  0.00  0.00    -0.060 I 
ATOM     10  F2  UNL d   1      -0.255  -0.740  -1.677  0.00  0.00    -0.096 F 
ATOM     11  F3  UNL d   1       0.233   1.878  -2.173  0.00  0.00    -0.097 F 
ATOM     12  F4  UNL d   1       1.073   3.528  -0.169  0.00  0.00    -0.092 F 
ENDROOT
TORSDOF 0
ENDMDL
