MODEL 1
REMARK minimizedAffinity -3.6285336
REMARK minimizedRMSD -1
REMARK  0 active torsions:
REMARK  status: ('A' for Active; 'I' for Inactive)
ROOT
ATOM      1  C   UNL d   1      -0.479  -3.164  -0.028  0.00  0.00     0.124 A 
ATOM      2  C1  UNL d   1      -1.118  -2.363   0.909  0.00  0.00     0.062 A 
ATOM      3  C2  UNL d   1      -1.027  -0.977   0.823  0.00  0.00     0.162 A 
ATOM      4  C3  UNL d   1      -0.293  -0.382  -0.204  0.00  0.00    -0.034 A 
ATOM      5  C4  UNL d   1       0.348  -1.194  -1.141  0.00  0.00     0.162 A 
ATOM      6  C5  UNL d   1       0.253  -2.579  -1.051  0.00  0.00     0.062 A 
ATOM      7  F   UNL d   1       0.872  -3.351  -1.957  0.00  0.00    -0.097 F 
ATOM      8  F1  UNL d   1       1.061  -0.655  -2.141  0.00  0.00    -0.096 F 
ATOM      9  I   UNL d   1      -0.154   1.691  -0.335  0.00  0.00    -0.060 I 
ATOM     10  F2  UNL d   1      -1.655  -0.228   1.742  0.00  0.00    -0.096 F 
ATOM     11  F3  UNL d   1      -1.825  -2.926   1.899  0.00  0.00    -0.097 F 
ATOM     12  F4  UNL d   1      -0.568  -4.497   0.057  0.00  0.00    -0.092 F 
ENDROOT
TORSDOF 0
ENDMDL
