MODEL 1
REMARK minimizedAffinity -1.33150506
REMARK minimizedRMSD -1
REMARK  0 active torsions:
REMARK  status: ('A' for Active; 'I' for Inactive)
ROOT
ATOM      1  C   UNL d   1      -0.183  -2.133  -0.197  0.00  0.00     0.124 A 
ATOM      2  C1  UNL d   1       0.208  -1.237  -1.183  0.00  0.00     0.062 A 
ATOM      3  C2  UNL d   1       0.302   0.122  -0.898  0.00  0.00     0.162 A 
ATOM      4  C3  UNL d   1       0.006   0.594   0.381  0.00  0.00    -0.034 A 
ATOM      5  C4  UNL d   1      -0.387  -0.312   1.367  0.00  0.00     0.162 A 
ATOM      6  C5  UNL d   1      -0.480  -1.669   1.077  0.00  0.00     0.062 A 
ATOM      7  F   UNL d   1      -0.857  -2.533   2.031  0.00  0.00    -0.097 F 
ATOM      8  F1  UNL d   1      -0.680   0.109   2.607  0.00  0.00    -0.096 F 
ATOM      9  I   UNL d   1       0.145   2.626   0.812  0.00  0.00    -0.060 I 
ATOM     10  F2  UNL d   1       0.682   0.964  -1.870  0.00  0.00    -0.096 F 
ATOM     11  F3  UNL d   1       0.495  -1.682  -2.415  0.00  0.00    -0.097 F 
ATOM     12  F4  UNL d   1      -0.273  -3.440  -0.474  0.00  0.00    -0.092 F 
ENDROOT
TORSDOF 0
ENDMDL
