MODEL 1
REMARK minimizedAffinity 3.28805208
REMARK minimizedRMSD -1
REMARK  0 active torsions:
REMARK  status: ('A' for Active; 'I' for Inactive)
ROOT
ATOM      1  C   UNL d   1      -1.727  -1.643   0.925  0.00  0.00     0.124 A 
ATOM      2  C1  UNL d   1      -1.836  -0.375   1.478  0.00  0.00     0.062 A 
ATOM      3  C2  UNL d   1      -1.071   0.675   0.979  0.00  0.00     0.162 A 
ATOM      4  C3  UNL d   1      -0.190   0.462  -0.082  0.00  0.00    -0.034 A 
ATOM      5  C4  UNL d   1      -0.085  -0.817  -0.633  0.00  0.00     0.162 A 
ATOM      6  C5  UNL d   1      -0.852  -1.863  -0.130  0.00  0.00     0.062 A 
ATOM      7  F   UNL d   1      -0.745  -3.087  -0.666  0.00  0.00    -0.097 F 
ATOM      8  F1  UNL d   1       0.751  -1.057  -1.653  0.00  0.00    -0.096 F 
ATOM      9  I   UNL d   1       0.955   2.029  -0.832  0.00  0.00    -0.060 I 
ATOM     10  F2  UNL d   1      -1.197   1.890   1.533  0.00  0.00    -0.096 F 
ATOM     11  F3  UNL d   1      -2.680  -0.161   2.498  0.00  0.00    -0.097 F 
ATOM     12  F4  UNL d   1      -2.463  -2.652   1.408  0.00  0.00    -0.092 F 
ENDROOT
TORSDOF 0
ENDMDL
