MODEL 1
REMARK minimizedAffinity 16.0890121
REMARK minimizedRMSD -1
REMARK  0 active torsions:
REMARK  status: ('A' for Active; 'I' for Inactive)
ROOT
ATOM      1  C   UNL d   1       0.695   3.742   1.970  0.00  0.00     0.124 A 
ATOM      2  C1  UNL d   1       1.808   3.015   1.572  0.00  0.00     0.062 A 
ATOM      3  C2  UNL d   1       1.726   2.150   0.485  0.00  0.00     0.162 A 
ATOM      4  C3  UNL d   1       0.527   2.007  -0.213  0.00  0.00    -0.034 A 
ATOM      5  C4  UNL d   1      -0.588   2.741   0.194  0.00  0.00     0.162 A 
ATOM      6  C5  UNL d   1      -0.502   3.605   1.281  0.00  0.00     0.062 A 
ATOM      7  F   UNL d   1      -1.579   4.307   1.664  0.00  0.00    -0.097 F 
ATOM      8  F1  UNL d   1      -1.757   2.628  -0.455  0.00  0.00    -0.096 F 
ATOM      9  I   UNL d   1       0.401   0.714  -1.839  0.00  0.00    -0.060 I 
ATOM     10  F2  UNL d   1       2.818   1.459   0.122  0.00  0.00    -0.096 F 
ATOM     11  F3  UNL d   1       2.965   3.145   2.236  0.00  0.00    -0.097 F 
ATOM     12  F4  UNL d   1       0.776   4.574   3.017  0.00  0.00    -0.092 F 
ENDROOT
TORSDOF 0
ENDMDL
