MODEL 1
REMARK minimizedAffinity -2.75319338
REMARK minimizedRMSD -1
REMARK  0 active torsions:
REMARK  status: ('A' for Active; 'I' for Inactive)
ROOT
ATOM      1  C   UNL d   1       0.762   0.518  -1.102  0.00  0.00     0.124 A 
ATOM      2  C1  UNL d   1       0.699  -0.818  -1.471  0.00  0.00     0.062 A 
ATOM      3  C2  UNL d   1       0.037  -1.737  -0.662  0.00  0.00     0.162 A 
ATOM      4  C3  UNL d   1      -0.570  -1.322   0.523  0.00  0.00    -0.034 A 
ATOM      5  C4  UNL d   1      -0.502   0.023   0.888  0.00  0.00     0.162 A 
ATOM      6  C5  UNL d   1       0.161   0.938   0.077  0.00  0.00     0.062 A 
ATOM      7  F   UNL d   1       0.220   2.229   0.434  0.00  0.00    -0.097 F 
ATOM      8  F1  UNL d   1      -1.075   0.456   2.021  0.00  0.00    -0.096 F 
ATOM      9  I   UNL d   1      -1.562  -2.693   1.735  0.00  0.00    -0.060 I 
ATOM     10  F2  UNL d   1      -0.008  -3.022  -1.043  0.00  0.00    -0.096 F 
ATOM     11  F3  UNL d   1       1.280  -1.226  -2.608  0.00  0.00    -0.097 F 
ATOM     12  F4  UNL d   1       1.401   1.400  -1.881  0.00  0.00    -0.092 F 
ENDROOT
TORSDOF 0
ENDMDL
