MODEL 1
REMARK minimizedAffinity -1.2773658
REMARK minimizedRMSD -1
REMARK  1 active torsions:
REMARK  status: ('A' for Active; 'I' for Inactive)
REMARK    1  A    between atoms: C1_2  and  C2_3 
ROOT
ATOM      1  C2  UNL d   1       5.959  -3.062   4.667  0.00  0.00    -0.077 A 
ATOM      2  C3  UNL d   1       5.988  -3.874   5.809  0.00  0.00     0.002 A 
ATOM      3  C4  UNL d   1       5.999  -5.265   5.687  0.00  0.00     0.002 A 
ATOM      4  C5  UNL d   1       5.985  -5.856   4.425  0.00  0.00    -0.004 A 
ATOM      5  C6  UNL d   1       5.953  -5.057   3.283  0.00  0.00     0.002 A 
ATOM      6  C7  UNL d   1       5.941  -3.666   3.403  0.00  0.00     0.002 A 
ENDROOT
BRANCH   1   7
ATOM      7  C1  UNL d   1       5.997  -1.562   4.795  0.00  0.00     0.055 C 
ATOM      8  C   UNL d   1       5.310  -0.888   3.617  0.00  0.00     0.019 C 
ENDBRANCH   1   7
TORSDOF 1
ENDMDL
