MODEL 1
REMARK minimizedAffinity -1.48817492
REMARK minimizedRMSD -1
REMARK  1 active torsions:
REMARK  status: ('A' for Active; 'I' for Inactive)
REMARK    1  A    between atoms: C1_2  and  C2_3 
ROOT
ATOM      1  C2  UNL d   1       3.723  -5.664   2.642  0.00  0.00    -0.077 A 
ATOM      2  C3  UNL d   1       3.517  -4.971   1.441  0.00  0.00     0.002 A 
ATOM      3  C4  UNL d   1       2.226  -4.621   1.040  0.00  0.00     0.002 A 
ATOM      4  C5  UNL d   1       1.133  -4.957   1.835  0.00  0.00    -0.004 A 
ATOM      5  C6  UNL d   1       1.327  -5.648   3.031  0.00  0.00     0.002 A 
ATOM      6  C7  UNL d   1       2.617  -5.999   3.433  0.00  0.00     0.002 A 
ENDROOT
BRANCH   1   7
ATOM      7  C1  UNL d   1       5.119  -5.998   3.101  0.00  0.00     0.055 C 
ATOM      8  C   UNL d   1       5.352  -5.549   4.536  0.00  0.00     0.019 C 
ENDBRANCH   1   7
TORSDOF 1
ENDMDL
