MODEL 1
REMARK minimizedAffinity 1.83014178
REMARK minimizedRMSD -1
REMARK  1 active torsions:
REMARK  status: ('A' for Active; 'I' for Inactive)
REMARK    1  A    between atoms: C1_2  and  C2_3 
ROOT
ATOM      1  C2  UNL d   1       2.692  -5.986   2.646  0.00  0.00    -0.077 A 
ATOM      2  C3  UNL d   1       3.146  -5.995   3.973  0.00  0.00     0.002 A 
ATOM      3  C4  UNL d   1       4.514  -6.000   4.251  0.00  0.00     0.002 A 
ATOM      4  C5  UNL d   1       5.439  -5.992   3.209  0.00  0.00    -0.004 A 
ATOM      5  C6  UNL d   1       4.997  -5.985   1.886  0.00  0.00     0.002 A 
ATOM      6  C7  UNL d   1       3.630  -5.981   1.606  0.00  0.00     0.002 A 
ENDROOT
BRANCH   1   7
ATOM      7  C1  UNL d   1       1.217  -5.930   2.345  0.00  0.00     0.055 C 
ATOM      8  C   UNL d   1       0.853  -4.658   1.594  0.00  0.00     0.019 C 
ENDBRANCH   1   7
TORSDOF 1
ENDMDL
