MODEL 1
REMARK minimizedAffinity -3.25562263
REMARK minimizedRMSD -1
REMARK  1 active torsions:
REMARK  status: ('A' for Active; 'I' for Inactive)
REMARK    1  A    between atoms: C1_2  and  C2_3 
ROOT
ATOM      1  C2  UNL d   1       5.192  -5.317   3.485  0.00  0.00    -0.077 A 
ATOM      2  C3  UNL d   1       4.031  -6.000   3.097  0.00  0.00     0.002 A 
ATOM      3  C4  UNL d   1       3.313  -5.590   1.972  0.00  0.00     0.002 A 
ATOM      4  C5  UNL d   1       3.749  -4.498   1.224  0.00  0.00    -0.004 A 
ATOM      5  C6  UNL d   1       4.902  -3.811   1.603  0.00  0.00     0.002 A 
ATOM      6  C7  UNL d   1       5.621  -4.219   2.727  0.00  0.00     0.002 A 
ENDROOT
BRANCH   1   7
ATOM      7  C1  UNL d   1       5.996  -5.787   4.669  0.00  0.00     0.055 C 
ATOM      8  C   UNL d   1       5.651  -4.996   5.922  0.00  0.00     0.019 C 
ENDBRANCH   1   7
TORSDOF 1
ENDMDL
