MODEL 1
REMARK minimizedAffinity -3.51835132
REMARK minimizedRMSD -1
REMARK  1 active torsions:
REMARK  status: ('A' for Active; 'I' for Inactive)
REMARK    1  A    between atoms: C1_2  and  C2_3 
ROOT
ATOM      1  C2  UNL d   1       3.588  -5.633   2.202  0.00  0.00    -0.077 A 
ATOM      2  C3  UNL d   1       3.865  -6.000   3.527  0.00  0.00     0.002 A 
ATOM      3  C4  UNL d   1       5.067  -5.622   4.128  0.00  0.00     0.002 A 
ATOM      4  C5  UNL d   1       6.000  -4.874   3.414  0.00  0.00    -0.004 A 
ATOM      5  C6  UNL d   1       5.735  -4.506   2.095  0.00  0.00     0.002 A 
ATOM      6  C7  UNL d   1       4.535  -4.883   1.492  0.00  0.00     0.002 A 
ENDROOT
BRANCH   1   7
ATOM      7  C1  UNL d   1       2.271  -5.997   1.568  0.00  0.00     0.055 C 
ATOM      8  C   UNL d   1       1.110  -5.305   2.267  0.00  0.00     0.019 C 
ENDBRANCH   1   7
TORSDOF 1
ENDMDL
