MODEL 1
REMARK minimizedAffinity 12.9362888
REMARK minimizedRMSD -1
REMARK  1 active torsions:
REMARK  status: ('A' for Active; 'I' for Inactive)
REMARK    1  A    between atoms: C1_2  and  C2_3 
ROOT
ATOM      1  C2  UNL d   1       4.013   1.340  -5.486  0.00  0.00    -0.077 A 
ATOM      2  C3  UNL d   1       4.526   0.140  -5.999  0.00  0.00     0.002 A 
ATOM      3  C4  UNL d   1       4.029  -1.087  -5.556  0.00  0.00     0.002 A 
ATOM      4  C5  UNL d   1       3.015  -1.126  -4.601  0.00  0.00    -0.004 A 
ATOM      5  C6  UNL d   1       2.500   0.062  -4.083  0.00  0.00     0.002 A 
ATOM      6  C7  UNL d   1       2.996   1.289  -4.524  0.00  0.00     0.002 A 
ENDROOT
BRANCH   1   7
ATOM      7  C1  UNL d   1       4.513   2.665  -6.000  0.00  0.00     0.055 C 
ATOM      8  C   UNL d   1       4.564   3.705  -4.890  0.00  0.00     0.019 C 
ENDBRANCH   1   7
TORSDOF 1
ENDMDL
