MODEL 1
REMARK minimizedAffinity -0.829407275
REMARK minimizedRMSD -1
REMARK  1 active torsions:
REMARK  status: ('A' for Active; 'I' for Inactive)
REMARK    1  A    between atoms: C1_2  and  C2_3 
ROOT
ATOM      1  C2  UNL d   1      -5.170   4.567   3.360  0.00  0.00    -0.077 A 
ATOM      2  C3  UNL d   1      -5.654   3.255   3.267  0.00  0.00     0.002 A 
ATOM      3  C4  UNL d   1      -4.884   2.259   2.662  0.00  0.00     0.002 A 
ATOM      4  C5  UNL d   1      -3.625   2.565   2.150  0.00  0.00    -0.004 A 
ATOM      5  C6  UNL d   1      -3.136   3.868   2.235  0.00  0.00     0.002 A 
ATOM      6  C7  UNL d   1      -3.904   4.864   2.839  0.00  0.00     0.002 A 
ENDROOT
BRANCH   1   7
ATOM      7  C1  UNL d   1      -5.978   5.631   4.056  0.00  0.00     0.055 C 
ATOM      8  C   UNL d   1      -5.367   5.999   5.400  0.00  0.00     0.019 C 
ENDBRANCH   1   7
TORSDOF 1
ENDMDL
