MODEL 1
REMARK minimizedAffinity -1.16241431
REMARK minimizedRMSD -1
REMARK  1 active torsions:
REMARK  status: ('A' for Active; 'I' for Inactive)
REMARK    1  A    between atoms: C1_2  and  C2_3 
ROOT
ATOM      1  C2  UNL d   1      -3.015   2.987   2.414  0.00  0.00    -0.077 A 
ATOM      2  C3  UNL d   1      -2.526   1.831   1.790  0.00  0.00     0.002 A 
ATOM      3  C4  UNL d   1      -1.157   1.678   1.560  0.00  0.00     0.002 A 
ATOM      4  C5  UNL d   1      -0.267   2.675   1.954  0.00  0.00    -0.004 A 
ATOM      5  C6  UNL d   1      -0.744   3.829   2.573  0.00  0.00     0.002 A 
ATOM      6  C7  UNL d   1      -2.111   3.985   2.803  0.00  0.00     0.002 A 
ENDROOT
BRANCH   1   7
ATOM      7  C1  UNL d   1      -4.485   3.133   2.708  0.00  0.00     0.055 C 
ATOM      8  C   UNL d   1      -5.105   4.254   1.888  0.00  0.00     0.019 C 
ENDBRANCH   1   7
TORSDOF 1
ENDMDL
