MODEL 1
REMARK minimizedAffinity -2.55794382
REMARK minimizedRMSD -1
REMARK  1 active torsions:
REMARK  status: ('A' for Active; 'I' for Inactive)
REMARK    1  A    between atoms: C1_2  and  C2_3 
ROOT
ATOM      1  C2  UNL d   1       0.619  -5.438   2.234  0.00  0.00    -0.077 A 
ATOM      2  C3  UNL d   1      -0.297  -6.000   3.134  0.00  0.00     0.002 A 
ATOM      3  C4  UNL d   1      -1.663  -5.997   2.844  0.00  0.00     0.002 A 
ATOM      4  C5  UNL d   1      -2.124  -5.438   1.654  0.00  0.00    -0.004 A 
ATOM      5  C6  UNL d   1      -1.221  -4.874   0.754  0.00  0.00     0.002 A 
ATOM      6  C7  UNL d   1       0.145  -4.875   1.042  0.00  0.00     0.002 A 
ENDROOT
BRANCH   1   7
ATOM      7  C1  UNL d   1       2.097  -5.483   2.521  0.00  0.00     0.055 C 
ATOM      8  C   UNL d   1       2.905  -5.648   1.242  0.00  0.00     0.019 C 
ENDBRANCH   1   7
TORSDOF 1
ENDMDL
