MODEL 1
REMARK minimizedAffinity 6.78372622
REMARK minimizedRMSD -1
REMARK  1 active torsions:
REMARK  status: ('A' for Active; 'I' for Inactive)
REMARK    1  A    between atoms: C1_2  and  C2_3 
ROOT
ATOM      1  C2  UNL d   1      -5.887   0.132   3.158  0.00  0.00    -0.077 A 
ATOM      2  C3  UNL d   1      -5.888   1.500   3.467  0.00  0.00     0.002 A 
ATOM      3  C4  UNL d   1      -5.945   1.923   4.796  0.00  0.00     0.002 A 
ATOM      4  C5  UNL d   1      -5.996   0.987   5.826  0.00  0.00    -0.004 A 
ATOM      5  C6  UNL d   1      -5.998  -0.376   5.529  0.00  0.00     0.002 A 
ATOM      6  C7  UNL d   1      -5.943  -0.801   4.201  0.00  0.00     0.002 A 
ENDROOT
BRANCH   1   7
ATOM      7  C1  UNL d   1      -5.777  -0.327   1.728  0.00  0.00     0.055 C 
ATOM      8  C   UNL d   1      -5.992  -1.829   1.611  0.00  0.00     0.019 C 
ENDBRANCH   1   7
TORSDOF 1
ENDMDL
