MODEL 1
REMARK minimizedAffinity 8.71169758
REMARK minimizedRMSD -1
REMARK  1 active torsions:
REMARK  status: ('A' for Active; 'I' for Inactive)
REMARK    1  A    between atoms: C1_2  and  C2_3 
ROOT
ATOM      1  C2  UNL d   1      -0.861   2.220   2.501  0.00  0.00    -0.077 A 
ATOM      2  C3  UNL d   1      -0.292   1.419   1.501  0.00  0.00     0.002 A 
ATOM      3  C4  UNL d   1      -1.103   0.643   0.670  0.00  0.00     0.002 A 
ATOM      4  C5  UNL d   1      -2.487   0.663   0.829  0.00  0.00    -0.004 A 
ATOM      5  C6  UNL d   1      -3.063   1.455   1.822  0.00  0.00     0.002 A 
ATOM      6  C7  UNL d   1      -2.254   2.230   2.653  0.00  0.00     0.002 A 
ENDROOT
BRANCH   1   7
ATOM      7  C1  UNL d   1       0.008   3.095   3.365  0.00  0.00     0.055 C 
ATOM      8  C   UNL d   1       1.425   2.548   3.459  0.00  0.00     0.019 C 
ENDBRANCH   1   7
TORSDOF 1
ENDMDL
