MODEL 1
REMARK minimizedAffinity 5.12480783
REMARK minimizedRMSD -1
REMARK  1 active torsions:
REMARK  status: ('A' for Active; 'I' for Inactive)
REMARK    1  A    between atoms: C1_2  and  C2_3 
ROOT
ATOM      1  C2  UNL d   1       3.828   3.004   0.130  0.00  0.00    -0.077 A 
ATOM      2  C3  UNL d   1       3.542   4.367   0.290  0.00  0.00     0.002 A 
ATOM      3  C4  UNL d   1       4.479   5.334  -0.080  0.00  0.00     0.002 A 
ATOM      4  C5  UNL d   1       5.705   4.948  -0.618  0.00  0.00    -0.004 A 
ATOM      5  C6  UNL d   1       6.000   3.595  -0.780  0.00  0.00     0.002 A 
ATOM      6  C7  UNL d   1       5.066   2.627  -0.409  0.00  0.00     0.002 A 
ENDROOT
BRANCH   1   7
ATOM      7  C1  UNL d   1       2.800   1.961   0.483  0.00  0.00     0.055 C 
ATOM      8  C   UNL d   1       3.359   0.944   1.467  0.00  0.00     0.019 C 
ENDBRANCH   1   7
TORSDOF 1
ENDMDL
