MODEL 1
REMARK minimizedAffinity -2.09469581
REMARK minimizedRMSD -1
REMARK  1 active torsions:
REMARK  status: ('A' for Active; 'I' for Inactive)
REMARK    1  A    between atoms: C3_4  and  O_7 
ROOT
ATOM      1  C   UNL d   1       3.452  -5.995  -5.999  0.00  0.00    -0.033 A 
ATOM      2  C1  UNL d   1       2.646  -5.998  -4.859  0.00  0.00     0.039 A 
ATOM      3  C2  UNL d   1       3.211  -5.778  -3.602  0.00  0.00    -0.080 A 
ATOM      4  C3  UNL d   1       4.581  -5.555  -3.498  0.00  0.00     0.150 A 
ATOM      5  C4  UNL d   1       5.389  -5.546  -4.630  0.00  0.00    -0.007 A 
ATOM      6  C5  UNL d   1       4.823  -5.767  -5.885  0.00  0.00     0.039 A 
ENDROOT
BRANCH   4   7
ATOM      7  O   UNL d   1       5.178  -5.340  -2.292  0.00  0.00    -0.526 OA
ATOM      8  H5  UNL d   1       4.502  -5.403  -1.597  0.00  0.00     0.418 HD
ENDBRANCH   4   7
TORSDOF 1
ENDMDL
