MODEL 1
REMARK minimizedAffinity -0.525038779
REMARK minimizedRMSD -1
REMARK  1 active torsions:
REMARK  status: ('A' for Active; 'I' for Inactive)
REMARK    1  A    between atoms: C3_4  and  O_7 
ROOT
ATOM      1  C   UNL d   1       4.121  -5.978  -5.980  0.00  0.00    -0.033 A 
ATOM      2  C1  UNL d   1       2.949  -5.995  -5.221  0.00  0.00     0.039 A 
ATOM      3  C2  UNL d   1       3.019  -5.999  -3.826  0.00  0.00    -0.080 A 
ATOM      4  C3  UNL d   1       4.264  -5.985  -3.204  0.00  0.00     0.150 A 
ATOM      5  C4  UNL d   1       5.435  -5.964  -3.954  0.00  0.00    -0.007 A 
ATOM      6  C5  UNL d   1       5.364  -5.961  -5.347  0.00  0.00     0.039 A 
ENDROOT
BRANCH   4   7
ATOM      7  O   UNL d   1       4.383  -5.993  -1.846  0.00  0.00    -0.526 OA
ATOM      8  H5  UNL d   1       3.492  -6.036  -1.460  0.00  0.00     0.418 HD
ENDBRANCH   4   7
TORSDOF 1
ENDMDL
