MODEL 1
REMARK minimizedAffinity 0.519219577
REMARK minimizedRMSD -1
REMARK  1 active torsions:
REMARK  status: ('A' for Active; 'I' for Inactive)
REMARK    1  A    between atoms: C3_4  and  O_7 
ROOT
ATOM      1  C   UNL d   1       4.358  -5.992  -1.659  0.00  0.00    -0.033 A 
ATOM      2  C1  UNL d   1       2.975  -5.996  -1.472  0.00  0.00     0.039 A 
ATOM      3  C2  UNL d   1       2.119  -5.999  -2.576  0.00  0.00    -0.080 A 
ATOM      4  C3  UNL d   1       2.660  -5.999  -3.859  0.00  0.00     0.150 A 
ATOM      5  C4  UNL d   1       4.037  -5.999  -4.052  0.00  0.00    -0.007 A 
ATOM      6  C5  UNL d   1       4.889  -5.996  -2.949  0.00  0.00     0.039 A 
ENDROOT
BRANCH   4   7
ATOM      7  O   UNL d   1       1.865  -5.997  -4.967  0.00  0.00    -0.526 OA
ATOM      8  H5  UNL d   1       0.937  -5.968  -4.680  0.00  0.00     0.418 HD
ENDBRANCH   4   7
TORSDOF 1
ENDMDL
