MODEL 1
REMARK minimizedAffinity -1.76840961
REMARK minimizedRMSD -1
REMARK  1 active torsions:
REMARK  status: ('A' for Active; 'I' for Inactive)
REMARK    1  A    between atoms: C3_4  and  O_7 
ROOT
ATOM      1  C   UNL d   1       4.050  -5.986  -2.741  0.00  0.00    -0.033 A 
ATOM      2  C1  UNL d   1       4.584  -5.996  -4.031  0.00  0.00     0.039 A 
ATOM      3  C2  UNL d   1       3.736  -5.999  -5.140  0.00  0.00    -0.080 A 
ATOM      4  C3  UNL d   1       2.358  -5.992  -4.946  0.00  0.00     0.150 A 
ATOM      5  C4  UNL d   1       1.818  -5.979  -3.663  0.00  0.00    -0.007 A 
ATOM      6  C5  UNL d   1       2.667  -5.976  -2.557  0.00  0.00     0.039 A 
ENDROOT
BRANCH   4   7
ATOM      7  O   UNL d   1       1.490  -6.000  -5.997  0.00  0.00    -0.526 OA
ATOM      8  H5  UNL d   1       2.004  -6.038  -6.820  0.00  0.00     0.418 HD
ENDBRANCH   4   7
TORSDOF 1
ENDMDL
