MODEL 1
REMARK minimizedAffinity 1.86611593
REMARK minimizedRMSD -1
REMARK  1 active torsions:
REMARK  status: ('A' for Active; 'I' for Inactive)
REMARK    1  A    between atoms: C3_4  and  O_7 
ROOT
ATOM      1  C   UNL d   1       1.446  -3.326   2.697  0.00  0.00    -0.033 A 
ATOM      2  C1  UNL d   1       1.612  -2.161   3.449  0.00  0.00     0.039 A 
ATOM      3  C2  UNL d   1       2.633  -2.080   4.398  0.00  0.00    -0.080 A 
ATOM      4  C3  UNL d   1       3.481  -3.169   4.585  0.00  0.00     0.150 A 
ATOM      5  C4  UNL d   1       3.324  -4.331   3.836  0.00  0.00    -0.007 A 
ATOM      6  C5  UNL d   1       2.303  -4.410   2.890  0.00  0.00     0.039 A 
ENDROOT
BRANCH   4   7
ATOM      7  O   UNL d   1       4.488  -3.138   5.503  0.00  0.00    -0.526 OA
ATOM      8  H5  UNL d   1       4.458  -2.284   5.965  0.00  0.00     0.418 HD
ENDBRANCH   4   7
TORSDOF 1
ENDMDL
