MODEL 1
REMARK minimizedAffinity 2.67539358
REMARK minimizedRMSD -1
REMARK  1 active torsions:
REMARK  status: ('A' for Active; 'I' for Inactive)
REMARK    1  A    between atoms: C3_4  and  O_7 
ROOT
ATOM      1  C   UNL d   1      -4.863  -2.277  -2.462  0.00  0.00    -0.033 A 
ATOM      2  C1  UNL d   1      -3.726  -2.993  -2.842  0.00  0.00     0.039 A 
ATOM      3  C2  UNL d   1      -3.723  -3.723  -4.031  0.00  0.00    -0.080 A 
ATOM      4  C3  UNL d   1      -4.862  -3.729  -4.832  0.00  0.00     0.150 A 
ATOM      5  C4  UNL d   1      -5.997  -3.016  -4.462  0.00  0.00    -0.007 A 
ATOM      6  C5  UNL d   1      -5.998  -2.287  -3.273  0.00  0.00     0.039 A 
ENDROOT
BRANCH   4   7
ATOM      7  O   UNL d   1      -4.909  -4.432  -5.999  0.00  0.00    -0.526 OA
ATOM      8  H5  UNL d   1      -4.064  -4.899  -6.112  0.00  0.00     0.418 HD
ENDBRANCH   4   7
TORSDOF 1
ENDMDL
