MODEL 1
REMARK minimizedAffinity 0.258420318
REMARK minimizedRMSD -1
REMARK  1 active torsions:
REMARK  status: ('A' for Active; 'I' for Inactive)
REMARK    1  A    between atoms: C3_4  and  O_7 
ROOT
ATOM      1  C   UNL d   1       1.384  -2.968   3.180  0.00  0.00    -0.033 A 
ATOM      2  C1  UNL d   1       2.217  -3.997   3.622  0.00  0.00     0.039 A 
ATOM      3  C2  UNL d   1       3.596  -3.793   3.711  0.00  0.00    -0.080 A 
ATOM      4  C3  UNL d   1       4.127  -2.556   3.357  0.00  0.00     0.150 A 
ATOM      5  C4  UNL d   1       3.303  -1.525   2.919  0.00  0.00    -0.007 A 
ATOM      6  C5  UNL d   1       1.927  -1.731   2.830  0.00  0.00     0.039 A 
ENDROOT
BRANCH   4   7
ATOM      7  O   UNL d   1       5.467  -2.311   3.423  0.00  0.00    -0.526 OA
ATOM      8  H5  UNL d   1       5.914  -3.123   3.714  0.00  0.00     0.418 HD
ENDBRANCH   4   7
TORSDOF 1
ENDMDL
