MODEL 1
REMARK minimizedAffinity 5.65953016
REMARK minimizedRMSD -1
REMARK  1 active torsions:
REMARK  status: ('A' for Active; 'I' for Inactive)
REMARK    1  A    between atoms: C3_4  and  O_7 
ROOT
ATOM      1  C   UNL d   1      -5.659   2.005   0.390  0.00  0.00    -0.033 A 
ATOM      2  C1  UNL d   1      -5.450   2.988   1.359  0.00  0.00     0.039 A 
ATOM      3  C2  UNL d   1      -5.513   4.339   1.011  0.00  0.00    -0.080 A 
ATOM      4  C3  UNL d   1      -5.786   4.693  -0.307  0.00  0.00     0.150 A 
ATOM      5  C4  UNL d   1      -5.999   3.719  -1.277  0.00  0.00    -0.007 A 
ATOM      6  C5  UNL d   1      -5.934   2.370  -0.928  0.00  0.00     0.039 A 
ENDROOT
BRANCH   4   7
ATOM      7  O   UNL d   1      -5.853   5.998  -0.696  0.00  0.00    -0.526 OA
ATOM      8  H5  UNL d   1      -5.657   6.558   0.074  0.00  0.00     0.418 HD
ENDBRANCH   4   7
TORSDOF 1
ENDMDL
