MODEL 1
REMARK minimizedAffinity 6.62006187
REMARK minimizedRMSD -1
REMARK  1 active torsions:
REMARK  status: ('A' for Active; 'I' for Inactive)
REMARK    1  A    between atoms: C3_4  and  O_7 
ROOT
ATOM      1  C   UNL d   1       5.005  -6.000   0.034  0.00  0.00    -0.033 A 
ATOM      2  C1  UNL d   1       3.775  -5.450   0.400  0.00  0.00     0.039 A 
ATOM      3  C2  UNL d   1       2.939  -4.895  -0.572  0.00  0.00    -0.080 A 
ATOM      4  C3  UNL d   1       3.345  -4.897  -1.904  0.00  0.00     0.150 A 
ATOM      5  C4  UNL d   1       4.567  -5.447  -2.276  0.00  0.00    -0.007 A 
ATOM      6  C5  UNL d   1       5.401  -6.000  -1.304  0.00  0.00     0.039 A 
ENDROOT
BRANCH   4   7
ATOM      7  O   UNL d   1       2.566  -4.363  -2.887  0.00  0.00    -0.526 OA
ATOM      8  H5  UNL d   1       1.765  -3.995  -2.478  0.00  0.00     0.418 HD
ENDBRANCH   4   7
TORSDOF 1
ENDMDL
