MODEL 1
REMARK minimizedAffinity 1.70649266
REMARK minimizedRMSD -1
REMARK  1 active torsions:
REMARK  status: ('A' for Active; 'I' for Inactive)
REMARK    1  A    between atoms: C3_4  and  O_7 
ROOT
ATOM      1  C   UNL d   1       1.193  -2.722   2.962  0.00  0.00    -0.033 A 
ATOM      2  C1  UNL d   1       1.767  -3.911   3.416  0.00  0.00     0.039 A 
ATOM      3  C2  UNL d   1       3.142  -3.979   3.651  0.00  0.00    -0.080 A 
ATOM      4  C3  UNL d   1       3.929  -2.852   3.430  0.00  0.00     0.150 A 
ATOM      5  C4  UNL d   1       3.363  -1.664   2.982  0.00  0.00    -0.007 A 
ATOM      6  C5  UNL d   1       1.991  -1.598   2.747  0.00  0.00     0.039 A 
ENDROOT
BRANCH   4   7
ATOM      7  O   UNL d   1       5.276  -2.872   3.642  0.00  0.00    -0.526 OA
ATOM      8  H5  UNL d   1       5.530  -3.767   3.922  0.00  0.00     0.418 HD
ENDBRANCH   4   7
TORSDOF 1
ENDMDL
