MODEL 1
REMARK minimizedAffinity -3.85936904
REMARK minimizedRMSD -1
REMARK  0 active torsions:
REMARK  status: ('A' for Active; 'I' for Inactive)
ROOT
ATOM      1  C   UNL d   1       1.871   3.002   0.957  0.00  0.00     0.077 C 
ATOM      2  C1  UNL d   1       0.724   2.043   0.844  0.00  0.00    -0.074 A 
ATOM      3  C2  UNL d   1      -0.569   2.422   1.217  0.00  0.00    -0.005 A 
ATOM      4  C3  UNL d   1      -1.628   1.522   1.097  0.00  0.00     0.006 A 
ATOM      5  C4  UNL d   1      -1.405   0.236   0.603  0.00  0.00    -0.005 A 
ATOM      6  C5  UNL d   1      -0.118  -0.161   0.223  0.00  0.00    -0.074 A 
ATOM      7  C6  UNL d   1       0.137  -1.536  -0.319  0.00  0.00     0.077 C 
ATOM      8  C7  UNL d   1       0.939   0.752   0.341  0.00  0.00    -0.001 A 
ENDROOT
TORSDOF 0
ENDMDL
