MODEL 1
REMARK minimizedAffinity -2.14231896
REMARK minimizedRMSD -1
REMARK  0 active torsions:
REMARK  status: ('A' for Active; 'I' for Inactive)
ROOT
ATOM      1  C   UNL d   1      -0.791   1.455  -0.080  0.00  0.00     0.077 C 
ATOM      2  C1  UNL d   1      -0.463   0.002  -0.250  0.00  0.00    -0.074 A 
ATOM      3  C2  UNL d   1       0.261  -0.691   0.725  0.00  0.00    -0.005 A 
ATOM      4  C3  UNL d   1       0.550  -2.045   0.558  0.00  0.00     0.006 A 
ATOM      5  C4  UNL d   1       0.119  -2.719  -0.585  0.00  0.00    -0.005 A 
ATOM      6  C5  UNL d   1      -0.607  -2.044  -1.571  0.00  0.00    -0.074 A 
ATOM      7  C6  UNL d   1      -1.087  -2.756  -2.801  0.00  0.00     0.077 C 
ATOM      8  C7  UNL d   1      -0.900  -0.685  -1.392  0.00  0.00    -0.001 A 
ENDROOT
TORSDOF 0
ENDMDL
