MODEL 1
REMARK minimizedAffinity -1.56114888
REMARK minimizedRMSD -1
REMARK  0 active torsions:
REMARK  status: ('A' for Active; 'I' for Inactive)
ROOT
ATOM      1  C   UNL d   1      -1.231  -2.824  -2.549  0.00  0.00     0.077 C 
ATOM      2  C1  UNL d   1      -0.855  -1.714  -1.613  0.00  0.00    -0.074 A 
ATOM      3  C2  UNL d   1      -1.469  -0.461  -1.701  0.00  0.00    -0.005 A 
ATOM      4  C3  UNL d   1      -1.115   0.559  -0.817  0.00  0.00     0.006 A 
ATOM      5  C4  UNL d   1      -0.146   0.336   0.161  0.00  0.00    -0.005 A 
ATOM      6  C5  UNL d   1       0.478  -0.911   0.265  0.00  0.00    -0.074 A 
ATOM      7  C6  UNL d   1       1.515  -1.170   1.317  0.00  0.00     0.077 C 
ATOM      8  C7  UNL d   1       0.113  -1.933  -0.622  0.00  0.00    -0.001 A 
ENDROOT
TORSDOF 0
ENDMDL
