MODEL 1
REMARK minimizedAffinity -4.38056993
REMARK minimizedRMSD -1
REMARK  0 active torsions:
REMARK  status: ('A' for Active; 'I' for Inactive)
ROOT
ATOM      1  C   UNL d   1      -0.741  -1.737  -2.686  0.00  0.00     0.077 C 
ATOM      2  C1  UNL d   1      -0.441  -0.928  -1.459  0.00  0.00    -0.074 A 
ATOM      3  C2  UNL d   1       0.435  -1.406  -0.479  0.00  0.00    -0.005 A 
ATOM      4  C3  UNL d   1       0.711  -0.639   0.652  0.00  0.00     0.006 A 
ATOM      5  C4  UNL d   1       0.115   0.613   0.815  0.00  0.00    -0.005 A 
ATOM      6  C5  UNL d   1      -0.763   1.108  -0.154  0.00  0.00    -0.074 A 
ATOM      7  C6  UNL d   1      -1.404   2.455   0.001  0.00  0.00     0.077 C 
ATOM      8  C7  UNL d   1      -1.030   0.333  -1.292  0.00  0.00    -0.001 A 
ENDROOT
TORSDOF 0
ENDMDL
