MODEL 1
REMARK minimizedAffinity -2.98981309
REMARK minimizedRMSD -1
REMARK  0 active torsions:
REMARK  status: ('A' for Active; 'I' for Inactive)
ROOT
ATOM      1  C   UNL d   1       1.834  -2.807   1.063  0.00  0.00     0.077 C 
ATOM      2  C1  UNL d   1       0.663  -2.451   0.196  0.00  0.00    -0.074 A 
ATOM      3  C2  UNL d   1       0.011  -3.425  -0.567  0.00  0.00    -0.005 A 
ATOM      4  C3  UNL d   1      -1.082  -3.081  -1.362  0.00  0.00     0.006 A 
ATOM      5  C4  UNL d   1      -1.535  -1.762  -1.401  0.00  0.00    -0.005 A 
ATOM      6  C5  UNL d   1      -0.897  -0.774  -0.644  0.00  0.00    -0.074 A 
ATOM      7  C6  UNL d   1      -1.376   0.647  -0.667  0.00  0.00     0.077 C 
ATOM      8  C7  UNL d   1       0.197  -1.129   0.157  0.00  0.00    -0.001 A 
ENDROOT
TORSDOF 0
ENDMDL
