MODEL 1
REMARK minimizedAffinity -3.93136477
REMARK minimizedRMSD -1
REMARK  0 active torsions:
REMARK  status: ('A' for Active; 'I' for Inactive)
ROOT
ATOM      1  C   UNL d   1      -0.045  -1.532  -0.360  0.00  0.00     0.077 C 
ATOM      2  C1  UNL d   1      -0.014  -0.081   0.019  0.00  0.00    -0.074 A 
ATOM      3  C2  UNL d   1      -1.182   0.688   0.014  0.00  0.00    -0.005 A 
ATOM      4  C3  UNL d   1      -1.139   2.034   0.379  0.00  0.00     0.006 A 
ATOM      5  C4  UNL d   1       0.070   2.623   0.752  0.00  0.00    -0.005 A 
ATOM      6  C5  UNL d   1       1.248   1.869   0.764  0.00  0.00    -0.074 A 
ATOM      7  C6  UNL d   1       2.554   2.484   1.172  0.00  0.00     0.077 C 
ATOM      8  C7  UNL d   1       1.195   0.516   0.403  0.00  0.00    -0.001 A 
ENDROOT
TORSDOF 0
ENDMDL
