MODEL 1
REMARK minimizedAffinity -2.49976277
REMARK minimizedRMSD -1
REMARK  0 active torsions:
REMARK  status: ('A' for Active; 'I' for Inactive)
ROOT
ATOM      1  C   UNL d   1      -0.255   2.830   0.963  0.00  0.00     0.077 C 
ATOM      2  C1  UNL d   1      -0.510   1.476   0.369  0.00  0.00    -0.074 A 
ATOM      3  C2  UNL d   1      -1.650   1.233  -0.403  0.00  0.00    -0.005 A 
ATOM      4  C3  UNL d   1      -1.869  -0.029  -0.956  0.00  0.00     0.006 A 
ATOM      5  C4  UNL d   1      -0.951  -1.058  -0.743  0.00  0.00    -0.005 A 
ATOM      6  C5  UNL d   1       0.196  -0.833   0.025  0.00  0.00    -0.074 A 
ATOM      7  C6  UNL d   1       1.198  -1.925   0.255  0.00  0.00     0.077 C 
ATOM      8  C7  UNL d   1       0.412   0.439   0.572  0.00  0.00    -0.001 A 
ENDROOT
TORSDOF 0
ENDMDL
