MODEL 1
REMARK minimizedAffinity -1.42046154
REMARK minimizedRMSD -1
REMARK  0 active torsions:
REMARK  status: ('A' for Active; 'I' for Inactive)
ROOT
ATOM      1  C   UNL d   1      -0.043  -1.879  -0.063  0.00  0.00     0.077 C 
ATOM      2  C1  UNL d   1      -0.372  -0.438   0.192  0.00  0.00    -0.074 A 
ATOM      3  C2  UNL d   1      -1.683   0.033   0.070  0.00  0.00    -0.005 A 
ATOM      4  C3  UNL d   1      -1.975   1.374   0.320  0.00  0.00     0.006 A 
ATOM      5  C4  UNL d   1      -0.960   2.256   0.694  0.00  0.00    -0.005 A 
ATOM      6  C5  UNL d   1       0.356   1.803   0.822  0.00  0.00    -0.074 A 
ATOM      7  C6  UNL d   1       1.457   2.736   1.233  0.00  0.00     0.077 C 
ATOM      8  C7  UNL d   1       0.641   0.453   0.576  0.00  0.00    -0.001 A 
ENDROOT
TORSDOF 0
ENDMDL
