MODEL 1
REMARK minimizedAffinity -3.33501101
REMARK minimizedRMSD -1
REMARK  0 active torsions:
REMARK  status: ('A' for Active; 'I' for Inactive)
ROOT
ATOM      1  C   UNL d   1       2.709   1.968   1.130  0.00  0.00     0.077 C 
ATOM      2  C1  UNL d   1       1.329   1.517   0.755  0.00  0.00    -0.074 A 
ATOM      3  C2  UNL d   1       0.250   2.407   0.781  0.00  0.00    -0.005 A 
ATOM      4  C3  UNL d   1      -1.026   1.976   0.420  0.00  0.00     0.006 A 
ATOM      5  C4  UNL d   1      -1.237   0.652   0.030  0.00  0.00    -0.005 A 
ATOM      6  C5  UNL d   1      -0.170  -0.251  -0.003  0.00  0.00    -0.074 A 
ATOM      7  C6  UNL d   1      -0.377  -1.674  -0.429  0.00  0.00     0.077 C 
ATOM      8  C7  UNL d   1       1.111   0.192   0.354  0.00  0.00    -0.001 A 
ENDROOT
TORSDOF 0
ENDMDL
