MODEL 1
REMARK minimizedAffinity -2.30714226
REMARK minimizedRMSD -1
REMARK  0 active torsions:
REMARK  status: ('A' for Active; 'I' for Inactive)
ROOT
ATOM      1  C   UNL d   1       1.747  -0.151   0.331  0.00  0.00     0.077 C 
ATOM      2  C1  UNL d   1       0.380  -0.438  -0.214  0.00  0.00    -0.074 A 
ATOM      3  C2  UNL d   1      -0.533   0.595  -0.446  0.00  0.00    -0.005 A 
ATOM      4  C3  UNL d   1      -1.798   0.313  -0.962  0.00  0.00     0.006 A 
ATOM      5  C4  UNL d   1      -2.163  -1.003  -1.249  0.00  0.00    -0.005 A 
ATOM      6  C5  UNL d   1      -1.263  -2.049  -1.024  0.00  0.00    -0.074 A 
ATOM      7  C6  UNL d   1      -1.635  -3.468  -1.336  0.00  0.00     0.077 C 
ATOM      8  C7  UNL d   1       0.009  -1.757  -0.512  0.00  0.00    -0.001 A 
ENDROOT
TORSDOF 0
ENDMDL
