MODEL 1
REMARK minimizedAffinity -4.33792639
REMARK minimizedRMSD -1
REMARK  0 active torsions:
REMARK  status: ('A' for Active; 'I' for Inactive)
ROOT
ATOM      1  C   UNL d   1       1.299   2.984   0.834  0.00  0.00     0.077 C 
ATOM      2  C1  UNL d   1       0.193   1.993   0.626  0.00  0.00    -0.074 A 
ATOM      3  C2  UNL d   1      -1.140   2.409   0.547  0.00  0.00    -0.005 A 
ATOM      4  C3  UNL d   1      -2.157   1.476   0.344  0.00  0.00     0.006 A 
ATOM      5  C4  UNL d   1      -1.852   0.121   0.218  0.00  0.00    -0.005 A 
ATOM      6  C5  UNL d   1      -0.525  -0.314   0.293  0.00  0.00    -0.074 A 
ATOM      7  C6  UNL d   1      -0.179  -1.766   0.149  0.00  0.00     0.077 C 
ATOM      8  C7  UNL d   1       0.492   0.630   0.490  0.00  0.00    -0.001 A 
ENDROOT
TORSDOF 0
ENDMDL
