MODEL 1
REMARK minimizedAffinity -1.58109415
REMARK minimizedRMSD -1
REMARK  0 active torsions:
REMARK  status: ('A' for Active; 'I' for Inactive)
ROOT
ATOM      1  C   UNL d   1       2.492   2.668   1.844  0.00  0.00     0.077 C 
ATOM      2  C1  UNL d   1       1.185   2.086   1.393  0.00  0.00    -0.074 A 
ATOM      3  C2  UNL d   1       0.001   2.825   1.478  0.00  0.00    -0.005 A 
ATOM      4  C3  UNL d   1      -1.205   2.273   1.046  0.00  0.00     0.006 A 
ATOM      5  C4  UNL d   1      -1.239   0.979   0.525  0.00  0.00    -0.005 A 
ATOM      6  C5  UNL d   1      -0.065   0.226   0.431  0.00  0.00    -0.074 A 
ATOM      7  C6  UNL d   1      -0.082  -1.163  -0.136  0.00  0.00     0.077 C 
ATOM      8  C7  UNL d   1       1.144   0.789   0.861  0.00  0.00    -0.001 A 
ENDROOT
TORSDOF 0
ENDMDL
