MODEL 1
REMARK minimizedAffinity -3.51020885
REMARK minimizedRMSD -1
REMARK  0 active torsions:
REMARK  status: ('A' for Active; 'I' for Inactive)
ROOT
ATOM      1  C   UNL d   1      -0.748   1.748  -1.053  0.00  0.00     0.077 C 
ATOM      2  C1  UNL d   1      -0.577   0.360  -0.512  0.00  0.00    -0.074 A 
ATOM      3  C2  UNL d   1      -0.406   0.138   0.858  0.00  0.00    -0.005 A 
ATOM      4  C3  UNL d   1      -0.259  -1.160   1.348  0.00  0.00     0.006 A 
ATOM      5  C4  UNL d   1      -0.280  -2.247   0.474  0.00  0.00    -0.005 A 
ATOM      6  C5  UNL d   1      -0.451  -2.045  -0.900  0.00  0.00    -0.074 A 
ATOM      7  C6  UNL d   1      -0.486  -3.203  -1.852  0.00  0.00     0.077 C 
ATOM      8  C7  UNL d   1      -0.606  -0.739  -1.383  0.00  0.00    -0.001 A 
ENDROOT
TORSDOF 0
ENDMDL
