MODEL 1
REMARK minimizedAffinity -1.59309769
REMARK minimizedRMSD -1
REMARK  0 active torsions:
REMARK  status: ('A' for Active; 'I' for Inactive)
ROOT
ATOM      1  C   UNL d   1      -3.287  -4.642  -1.122  0.00  0.00     0.077 C 
ATOM      2  C1  UNL d   1      -1.968  -3.951  -1.301  0.00  0.00    -0.074 A 
ATOM      3  C2  UNL d   1      -1.004  -4.458  -2.178  0.00  0.00    -0.005 A 
ATOM      4  C3  UNL d   1       0.215  -3.800  -2.342  0.00  0.00     0.006 A 
ATOM      5  C4  UNL d   1       0.481  -2.629  -1.630  0.00  0.00    -0.005 A 
ATOM      6  C5  UNL d   1      -0.471  -2.106  -0.750  0.00  0.00    -0.074 A 
ATOM      7  C6  UNL d   1      -0.204  -0.844   0.015  0.00  0.00     0.077 C 
ATOM      8  C7  UNL d   1      -1.696  -2.770  -0.596  0.00  0.00    -0.001 A 
ENDROOT
TORSDOF 0
ENDMDL
