MODEL 1
REMARK minimizedAffinity -1.46614635
REMARK minimizedRMSD -1
REMARK  0 active torsions:
REMARK  status: ('A' for Active; 'I' for Inactive)
ROOT
ATOM      1  C   UNL d   1       1.591  -1.941   1.525  0.00  0.00     0.077 C 
ATOM      2  C1  UNL d   1       0.649  -1.705   0.381  0.00  0.00    -0.074 A 
ATOM      3  C2  UNL d   1       0.103  -0.439   0.149  0.00  0.00    -0.005 A 
ATOM      4  C3  UNL d   1      -0.763  -0.232  -0.924  0.00  0.00     0.006 A 
ATOM      5  C4  UNL d   1      -1.092  -1.288  -1.775  0.00  0.00    -0.005 A 
ATOM      6  C5  UNL d   1      -0.554  -2.561  -1.560  0.00  0.00    -0.074 A 
ATOM      7  C6  UNL d   1      -0.889  -3.705  -2.471  0.00  0.00     0.077 C 
ATOM      8  C7  UNL d   1       0.321  -2.759  -0.483  0.00  0.00    -0.001 A 
ENDROOT
TORSDOF 0
ENDMDL
