MODEL 1
REMARK minimizedAffinity -2.4250505
REMARK minimizedRMSD -1
REMARK  0 active torsions:
REMARK  status: ('A' for Active; 'I' for Inactive)
ROOT
ATOM      1  C   UNL d   1       0.005  -2.682  -1.502  0.00  0.00     0.077 C 
ATOM      2  C1  UNL d   1      -0.269  -1.358  -0.854  0.00  0.00    -0.074 A 
ATOM      3  C2  UNL d   1       0.680  -0.331  -0.886  0.00  0.00    -0.005 A 
ATOM      4  C3  UNL d   1       0.407   0.898  -0.286  0.00  0.00     0.006 A 
ATOM      5  C4  UNL d   1      -0.816   1.113   0.350  0.00  0.00    -0.005 A 
ATOM      6  C5  UNL d   1      -1.778   0.099   0.391  0.00  0.00    -0.074 A 
ATOM      7  C6  UNL d   1      -3.102   0.317   1.062  0.00  0.00     0.077 C 
ATOM      8  C7  UNL d   1      -1.499  -1.131  -0.220  0.00  0.00    -0.001 A 
ENDROOT
TORSDOF 0
ENDMDL
