MODEL 1
REMARK minimizedAffinity -1.47793782
REMARK minimizedRMSD -1
REMARK  0 active torsions:
REMARK  status: ('A' for Active; 'I' for Inactive)
ROOT
ATOM      1  C   UNL d   1      -1.834   2.168   0.014  0.00  0.00     0.077 C 
ATOM      2  C1  UNL d   1      -0.806   1.076   0.003  0.00  0.00    -0.074 A 
ATOM      3  C2  UNL d   1       0.424   1.239   0.647  0.00  0.00    -0.005 A 
ATOM      4  C3  UNL d   1       1.366   0.211   0.636  0.00  0.00     0.006 A 
ATOM      5  C4  UNL d   1       1.088  -0.990  -0.019  0.00  0.00    -0.005 A 
ATOM      6  C5  UNL d   1      -0.137  -1.172  -0.668  0.00  0.00    -0.074 A 
ATOM      7  C6  UNL d   1      -0.456  -2.459  -1.369  0.00  0.00     0.077 C 
ATOM      8  C7  UNL d   1      -1.081  -0.136  -0.646  0.00  0.00    -0.001 A 
ENDROOT
TORSDOF 0
ENDMDL
