MODEL 1
REMARK minimizedAffinity -2.47214556
REMARK minimizedRMSD -1
REMARK  1 active torsions:
REMARK  status: ('A' for Active; 'I' for Inactive)
REMARK    1  A    between atoms: C1_2  and  C2_3 
ROOT
ATOM      1  C2  UNL d   1      -0.523   2.534  -0.281  0.00  0.00    -0.076 A 
ATOM      2  C3  UNL d   1      -0.778   1.793   0.886  0.00  0.00     0.004 A 
ATOM      3  C4  UNL d   1      -1.839   2.122   1.728  0.00  0.00    -0.003 A 
ATOM      4  C5  UNL d   1      -2.663   3.198   1.416  0.00  0.00     0.000 A 
ATOM      5  C6  UNL d   1      -2.436   3.933   0.253  0.00  0.00     0.000 A 
ATOM      6  C7  UNL d   1      -1.380   3.604  -0.615  0.00  0.00    -0.073 A 
ATOM      7  C8  UNL d   1      -1.178   4.435  -1.852  0.00  0.00     0.078 C 
ENDROOT
BRANCH   1   8
ATOM      8  C1  UNL d   1       0.658   2.146  -1.142  0.00  0.00     0.053 C 
ATOM      9  C   UNL d   1       0.938   0.652  -1.109  0.00  0.00     0.018 C 
ENDBRANCH   1   8
TORSDOF 1
ENDMDL
