MODEL 1
REMARK minimizedAffinity 4.55036783
REMARK minimizedRMSD -1
REMARK  1 active torsions:
REMARK  status: ('A' for Active; 'I' for Inactive)
REMARK    1  A    between atoms: C1_2  and  C2_3 
ROOT
ATOM      1  C2  UNL d   1       0.130   1.142  -0.242  0.00  0.00    -0.076 A 
ATOM      2  C3  UNL d   1      -0.364   2.126  -1.116  0.00  0.00     0.004 A 
ATOM      3  C4  UNL d   1      -1.090   3.214  -0.634  0.00  0.00    -0.003 A 
ATOM      4  C5  UNL d   1      -1.334   3.336   0.729  0.00  0.00     0.000 A 
ATOM      5  C6  UNL d   1      -0.836   2.378   1.613  0.00  0.00     0.000 A 
ATOM      6  C7  UNL d   1      -0.088   1.284   1.145  0.00  0.00    -0.073 A 
ATOM      7  C8  UNL d   1       0.419   0.278   2.142  0.00  0.00     0.078 C 
ENDROOT
BRANCH   1   8
ATOM      8  C1  UNL d   1       0.888  -0.030  -0.824  0.00  0.00     0.053 C 
ATOM      9  C   UNL d   1       0.189  -0.632  -2.033  0.00  0.00     0.018 C 
ENDBRANCH   1   8
TORSDOF 1
ENDMDL
