MODEL 1
REMARK minimizedAffinity 7.3437829
REMARK minimizedRMSD -1
REMARK  1 active torsions:
REMARK  status: ('A' for Active; 'I' for Inactive)
REMARK    1  A    between atoms: C1_2  and  C2_3 
ROOT
ATOM      1  C2  UNL d   1       3.241  -4.434  -1.524  0.00  0.00    -0.076 A 
ATOM      2  C3  UNL d   1       3.092  -3.847  -2.793  0.00  0.00     0.004 A 
ATOM      3  C4  UNL d   1       4.204  -3.534  -3.573  0.00  0.00    -0.003 A 
ATOM      4  C5  UNL d   1       5.482  -3.803  -3.097  0.00  0.00     0.000 A 
ATOM      5  C6  UNL d   1       5.648  -4.401  -1.849  0.00  0.00     0.000 A 
ATOM      6  C7  UNL d   1       4.537  -4.738  -1.056  0.00  0.00    -0.073 A 
ATOM      7  C8  UNL d   1       4.774  -5.376   0.285  0.00  0.00     0.078 C 
ENDROOT
BRANCH   1   8
ATOM      8  C1  UNL d   1       2.000  -4.727  -0.711  0.00  0.00     0.053 C 
ATOM      9  C   UNL d   1       1.297  -5.999  -1.158  0.00  0.00     0.018 C 
ENDBRANCH   1   8
TORSDOF 1
ENDMDL
