MODEL 1
REMARK minimizedAffinity 3.30542397
REMARK minimizedRMSD -1
REMARK  1 active torsions:
REMARK  status: ('A' for Active; 'I' for Inactive)
REMARK    1  A    between atoms: C1_2  and  C2_3 
ROOT
ATOM      1  C2  UNL d   1       1.035   0.521  -0.055  0.00  0.00    -0.076 A 
ATOM      2  C3  UNL d   1       1.106   1.219  -1.273  0.00  0.00     0.004 A 
ATOM      3  C4  UNL d   1       0.424   2.421  -1.451  0.00  0.00    -0.003 A 
ATOM      4  C5  UNL d   1      -0.339   2.945  -0.413  0.00  0.00     0.000 A 
ATOM      5  C6  UNL d   1      -0.406   2.275   0.808  0.00  0.00     0.000 A 
ATOM      6  C7  UNL d   1       0.288   1.070   1.009  0.00  0.00    -0.073 A 
ATOM      7  C8  UNL d   1       0.176   0.387   2.344  0.00  0.00     0.078 C 
ENDROOT
BRANCH   1   8
ATOM      8  C1  UNL d   1       1.774  -0.793   0.071  0.00  0.00     0.053 C 
ATOM      9  C   UNL d   1       3.281  -0.607   0.160  0.00  0.00     0.018 C 
ENDBRANCH   1   8
TORSDOF 1
ENDMDL
