MODEL 1
REMARK minimizedAffinity -0.817044437
REMARK minimizedRMSD -1
REMARK  1 active torsions:
REMARK  status: ('A' for Active; 'I' for Inactive)
REMARK    1  A    between atoms: C1_2  and  C2_3 
ROOT
ATOM      1  C2  UNL d   1      -1.086   2.304   0.602  0.00  0.00    -0.076 A 
ATOM      2  C3  UNL d   1      -0.515   1.267  -0.157  0.00  0.00     0.004 A 
ATOM      3  C4  UNL d   1       0.102   1.528  -1.379  0.00  0.00    -0.003 A 
ATOM      4  C5  UNL d   1       0.157   2.831  -1.863  0.00  0.00     0.000 A 
ATOM      5  C6  UNL d   1      -0.389   3.874  -1.116  0.00  0.00     0.000 A 
ATOM      6  C7  UNL d   1      -0.999   3.630   0.126  0.00  0.00    -0.073 A 
ATOM      7  C8  UNL d   1      -1.577   4.791   0.887  0.00  0.00     0.078 C 
ENDROOT
BRANCH   1   8
ATOM      8  C1  UNL d   1      -1.765   1.956   1.907  0.00  0.00     0.053 C 
ATOM      9  C   UNL d   1      -1.065   0.827   2.646  0.00  0.00     0.018 C 
ENDBRANCH   1   8
TORSDOF 1
ENDMDL
