MODEL 1
REMARK minimizedAffinity 5.36918116
REMARK minimizedRMSD -1
REMARK  1 active torsions:
REMARK  status: ('A' for Active; 'I' for Inactive)
REMARK    1  A    between atoms: C1_2  and  C2_3 
ROOT
ATOM      1  C2  UNL d   1      -0.086   2.059  -0.063  0.00  0.00    -0.076 A 
ATOM      2  C3  UNL d   1      -0.536   3.383  -0.213  0.00  0.00     0.004 A 
ATOM      3  C4  UNL d   1      -0.281   4.100  -1.381  0.00  0.00    -0.003 A 
ATOM      4  C5  UNL d   1       0.427   3.504  -2.419  0.00  0.00     0.000 A 
ATOM      5  C6  UNL d   1       0.865   2.185  -2.295  0.00  0.00     0.000 A 
ATOM      6  C7  UNL d   1       0.602   1.444  -1.130  0.00  0.00    -0.073 A 
ATOM      7  C8  UNL d   1       1.103   0.028  -1.048  0.00  0.00     0.078 C 
ENDROOT
BRANCH   1   8
ATOM      8  C1  UNL d   1      -0.369   1.341   1.237  0.00  0.00     0.053 C 
ATOM      9  C   UNL d   1      -1.827   1.447   1.657  0.00  0.00     0.018 C 
ENDBRANCH   1   8
TORSDOF 1
ENDMDL
