MODEL 1
REMARK minimizedAffinity 0.782298803
REMARK minimizedRMSD -1
REMARK  1 active torsions:
REMARK  status: ('A' for Active; 'I' for Inactive)
REMARK    1  A    between atoms: C1_2  and  C2_3 
ROOT
ATOM      1  C2  UNL d   1      -0.433   1.860  -1.090  0.00  0.00    -0.076 A 
ATOM      2  C3  UNL d   1       0.379   2.598  -1.969  0.00  0.00     0.004 A 
ATOM      3  C4  UNL d   1       0.755   3.907  -1.671  0.00  0.00    -0.003 A 
ATOM      4  C5  UNL d   1       0.326   4.499  -0.488  0.00  0.00     0.000 A 
ATOM      5  C6  UNL d   1      -0.465   3.776   0.404  0.00  0.00     0.000 A 
ATOM      6  C7  UNL d   1      -0.840   2.450   0.126  0.00  0.00    -0.073 A 
ATOM      7  C8  UNL d   1      -1.699   1.719   1.121  0.00  0.00     0.078 C 
ENDROOT
BRANCH   1   8
ATOM      8  C1  UNL d   1      -0.831   0.455  -1.479  0.00  0.00     0.053 C 
ATOM      9  C   UNL d   1       0.088  -0.140  -2.534  0.00  0.00     0.018 C 
ENDBRANCH   1   8
TORSDOF 1
ENDMDL
