MODEL 1
REMARK minimizedAffinity 5.13289404
REMARK minimizedRMSD -1
REMARK  1 active torsions:
REMARK  status: ('A' for Active; 'I' for Inactive)
REMARK    1  A    between atoms: C1_2  and  C2_3 
ROOT
ATOM      1  C2  UNL d   1      -0.375   1.975   0.334  0.00  0.00    -0.076 A 
ATOM      2  C3  UNL d   1       0.163   0.687   0.170  0.00  0.00     0.004 A 
ATOM      3  C4  UNL d   1       0.909   0.359  -0.961  0.00  0.00    -0.003 A 
ATOM      4  C5  UNL d   1       1.128   1.315  -1.947  0.00  0.00     0.000 A 
ATOM      5  C6  UNL d   1       0.616   2.603  -1.792  0.00  0.00     0.000 A 
ATOM      6  C7  UNL d   1      -0.124   2.954  -0.650  0.00  0.00    -0.073 A 
ATOM      7  C8  UNL d   1      -0.657   4.356  -0.538  0.00  0.00     0.078 C 
ENDROOT
BRANCH   1   8
ATOM      8  C1  UNL d   1      -1.198   2.264   1.569  0.00  0.00     0.053 C 
ATOM      9  C   UNL d   1      -1.956   1.041   2.064  0.00  0.00     0.018 C 
ENDBRANCH   1   8
TORSDOF 1
ENDMDL
