MODEL 1
REMARK minimizedAffinity 9.66468525
REMARK minimizedRMSD -1
REMARK  1 active torsions:
REMARK  status: ('A' for Active; 'I' for Inactive)
REMARK    1  A    between atoms: C1_2  and  C2_3 
ROOT
ATOM      1  C2  UNL d   1      -0.643   2.034   0.043  0.00  0.00    -0.076 A 
ATOM      2  C3  UNL d   1      -1.517   2.319   1.107  0.00  0.00     0.004 A 
ATOM      3  C4  UNL d   1      -1.549   1.515   2.244  0.00  0.00    -0.003 A 
ATOM      4  C5  UNL d   1      -0.708   0.412   2.337  0.00  0.00     0.000 A 
ATOM      5  C6  UNL d   1       0.178   0.124   1.300  0.00  0.00     0.000 A 
ATOM      6  C7  UNL d   1       0.235   0.934   0.153  0.00  0.00    -0.073 A 
ATOM      7  C8  UNL d   1       1.205   0.573  -0.939  0.00  0.00     0.078 C 
ENDROOT
BRANCH   1   8
ATOM      8  C1  UNL d   1      -0.672   2.926  -1.177  0.00  0.00     0.053 C 
ATOM      9  C   UNL d   1       0.002   4.268  -0.934  0.00  0.00     0.018 C 
ENDBRANCH   1   8
TORSDOF 1
ENDMDL
