MODEL 1
REMARK minimizedAffinity -4.82807016
REMARK minimizedRMSD -1
REMARK  0 active torsions:
REMARK  status: ('A' for Active; 'I' for Inactive)
ROOT
ATOM      1  C   UNL d   1       1.711  -1.304   2.819  0.00  0.00     0.023 A 
ATOM      2  C1  UNL d   1       2.422  -1.285   1.619  0.00  0.00     0.003 A 
ATOM      3  C2  UNL d   1       1.819  -0.800   0.456  0.00  0.00     0.048 A 
ATOM      4  C3  UNL d   1       0.506  -0.334   0.501  0.00  0.00     0.023 A 
ATOM      5  C4  UNL d   1      -0.209  -0.349   1.700  0.00  0.00     0.048 A 
ATOM      6  C5  UNL d   1       0.397  -0.836   2.859  0.00  0.00     0.003 A 
ATOM      7  I   UNL d   1      -0.393   0.390  -1.228  0.00  0.00    -0.146 I 
ENDROOT
TORSDOF 0
ENDMDL
