MODEL 1
REMARK minimizedAffinity -4.56847715
REMARK minimizedRMSD -1
REMARK  0 active torsions:
REMARK  status: ('A' for Active; 'I' for Inactive)
ROOT
ATOM      1  C   UNL d   1       0.970  -1.314   2.808  0.00  0.00     0.023 A 
ATOM      2  C1  UNL d   1       1.919  -0.884   1.881  0.00  0.00     0.003 A 
ATOM      3  C2  UNL d   1       1.511  -0.290   0.685  0.00  0.00     0.048 A 
ATOM      4  C3  UNL d   1       0.151  -0.126   0.424  0.00  0.00     0.023 A 
ATOM      5  C4  UNL d   1      -0.803  -0.553   1.349  0.00  0.00     0.048 A 
ATOM      6  C5  UNL d   1      -0.390  -1.148   2.543  0.00  0.00     0.003 A 
ATOM      7  I   UNL d   1      -0.460   0.759  -1.354  0.00  0.00    -0.146 I 
ENDROOT
TORSDOF 0
ENDMDL
