MODEL 1
REMARK minimizedAffinity -4.20158911
REMARK minimizedRMSD -1
REMARK  0 active torsions:
REMARK  status: ('A' for Active; 'I' for Inactive)
ROOT
ATOM      1  C   UNL d   1       1.922  -1.778   2.532  0.00  0.00     0.023 A 
ATOM      2  C1  UNL d   1       0.719  -1.132   2.818  0.00  0.00     0.003 A 
ATOM      3  C2  UNL d   1      -0.019  -0.542   1.791  0.00  0.00     0.048 A 
ATOM      4  C3  UNL d   1       0.450  -0.602   0.479  0.00  0.00     0.023 A 
ATOM      5  C4  UNL d   1       1.653  -1.248   0.188  0.00  0.00     0.048 A 
ATOM      6  C5  UNL d   1       2.388  -1.836   1.218  0.00  0.00     0.003 A 
ATOM      7  I   UNL d   1      -0.648   0.276  -1.052  0.00  0.00    -0.146 I 
ENDROOT
TORSDOF 0
ENDMDL
