MODEL 1
REMARK minimizedAffinity -4.59544849
REMARK minimizedRMSD -1
REMARK  0 active torsions:
REMARK  status: ('A' for Active; 'I' for Inactive)
ROOT
ATOM      1  C   UNL d   1       1.814  -1.692   2.497  0.00  0.00     0.023 A 
ATOM      2  C1  UNL d   1       2.298  -2.016   1.230  0.00  0.00     0.003 A 
ATOM      3  C2  UNL d   1       1.746  -1.417   0.096  0.00  0.00     0.048 A 
ATOM      4  C3  UNL d   1       0.710  -0.494   0.237  0.00  0.00     0.023 A 
ATOM      5  C4  UNL d   1       0.224  -0.166   1.503  0.00  0.00     0.048 A 
ATOM      6  C5  UNL d   1       0.779  -0.768   2.634  0.00  0.00     0.003 A 
ATOM      7  I   UNL d   1      -0.113   0.399  -1.449  0.00  0.00    -0.146 I 
ENDROOT
TORSDOF 0
ENDMDL
