MODEL 1
REMARK minimizedAffinity -5.82724285
REMARK minimizedRMSD -1
REMARK  0 active torsions:
REMARK  status: ('A' for Active; 'I' for Inactive)
ROOT
ATOM      1  C   UNL d   1       1.644  -1.583   2.870  0.00  0.00     0.023 A 
ATOM      2  C1  UNL d   1       2.227  -1.881   1.638  0.00  0.00     0.003 A 
ATOM      3  C2  UNL d   1       1.713  -1.320   0.467  0.00  0.00     0.048 A 
ATOM      4  C3  UNL d   1       0.617  -0.461   0.535  0.00  0.00     0.023 A 
ATOM      5  C4  UNL d   1       0.031  -0.159   1.765  0.00  0.00     0.048 A 
ATOM      6  C5  UNL d   1       0.547  -0.723   2.933  0.00  0.00     0.003 A 
ATOM      7  I   UNL d   1      -0.149   0.375  -1.207  0.00  0.00    -0.146 I 
ENDROOT
TORSDOF 0
ENDMDL
