MODEL 1
REMARK minimizedAffinity -3.53415823
REMARK minimizedRMSD -1
REMARK  0 active torsions:
REMARK  status: ('A' for Active; 'I' for Inactive)
ROOT
ATOM      1  C   UNL d   1       1.772  -2.771   2.280  0.00  0.00     0.023 A 
ATOM      2  C1  UNL d   1       0.657  -1.995   2.598  0.00  0.00     0.003 A 
ATOM      3  C2  UNL d   1       0.058  -1.197   1.621  0.00  0.00     0.048 A 
ATOM      4  C3  UNL d   1       0.578  -1.182   0.327  0.00  0.00     0.023 A 
ATOM      5  C4  UNL d   1       1.692  -1.957   0.004  0.00  0.00     0.048 A 
ATOM      6  C5  UNL d   1       2.289  -2.752   0.984  0.00  0.00     0.003 A 
ATOM      7  I   UNL d   1      -0.312   0.004  -1.130  0.00  0.00    -0.146 I 
ENDROOT
TORSDOF 0
ENDMDL
