MODEL 1
REMARK minimizedAffinity -3.48164558
REMARK minimizedRMSD -1
REMARK  0 active torsions:
REMARK  status: ('A' for Active; 'I' for Inactive)
ROOT
ATOM      1  C   UNL d   1       0.681  -1.201   2.572  0.00  0.00     0.023 A 
ATOM      2  C1  UNL d   1       1.639  -1.127   1.560  0.00  0.00     0.003 A 
ATOM      3  C2  UNL d   1       1.301  -0.590   0.316  0.00  0.00     0.048 A 
ATOM      4  C3  UNL d   1       0.005  -0.128   0.091  0.00  0.00     0.023 A 
ATOM      5  C4  UNL d   1      -0.956  -0.199   1.101  0.00  0.00     0.048 A 
ATOM      6  C5  UNL d   1      -0.614  -0.738   2.343  0.00  0.00     0.003 A 
ATOM      7  I   UNL d   1      -0.499   0.673  -1.760  0.00  0.00    -0.146 I 
ENDROOT
TORSDOF 0
ENDMDL
