MODEL 1
REMARK minimizedAffinity -4.06182432
REMARK minimizedRMSD -1
REMARK  0 active torsions:
REMARK  status: ('A' for Active; 'I' for Inactive)
ROOT
ATOM      1  C   UNL d   1      -1.281   0.354   1.305  0.00  0.00     0.023 A 
ATOM      2  C1  UNL d   1      -0.791  -0.433   2.347  0.00  0.00     0.003 A 
ATOM      3  C2  UNL d   1       0.365  -1.194   2.165  0.00  0.00     0.048 A 
ATOM      4  C3  UNL d   1       1.027  -1.163   0.938  0.00  0.00     0.023 A 
ATOM      5  C4  UNL d   1       0.541  -0.376  -0.107  0.00  0.00     0.048 A 
ATOM      6  C5  UNL d   1      -0.616   0.383   0.080  0.00  0.00     0.003 A 
ATOM      7  I   UNL d   1       2.749  -2.295   0.664  0.00  0.00    -0.146 I 
ENDROOT
TORSDOF 0
ENDMDL
