MODEL 1
REMARK minimizedAffinity -3.95965457
REMARK minimizedRMSD -1
REMARK  0 active torsions:
REMARK  status: ('A' for Active; 'I' for Inactive)
ROOT
ATOM      1  C   UNL d   1       1.623  -1.766   2.318  0.00  0.00     0.023 A 
ATOM      2  C1  UNL d   1       2.195  -1.903   1.053  0.00  0.00     0.003 A 
ATOM      3  C2  UNL d   1       1.630  -1.252  -0.045  0.00  0.00     0.048 A 
ATOM      4  C3  UNL d   1       0.492  -0.464   0.129  0.00  0.00     0.023 A 
ATOM      5  C4  UNL d   1      -0.084  -0.324   1.393  0.00  0.00     0.048 A 
ATOM      6  C5  UNL d   1       0.485  -0.978   2.487  0.00  0.00     0.003 A 
ATOM      7  I   UNL d   1      -0.351   0.506  -1.504  0.00  0.00    -0.146 I 
ENDROOT
TORSDOF 0
ENDMDL
