MODEL 1
REMARK minimizedAffinity 0.873281598
REMARK minimizedRMSD -1
REMARK  1 active torsions:
REMARK  status: ('A' for Active; 'I' for Inactive)
REMARK    1  A    between atoms: C1_2  and  C2_3 
ROOT
ATOM      1  C2  UNL d   1       1.163  -3.852   4.756  0.00  0.00    -0.081 A 
ATOM      2  C3  UNL d   1       2.092  -4.332   3.825  0.00  0.00     0.006 A 
ATOM      3  C4  UNL d   1       2.635  -3.478   2.862  0.00  0.00     0.002 A 
ATOM      4  C5  UNL d   1       2.265  -2.130   2.818  0.00  0.00    -0.080 A 
ATOM      5  C6  UNL d   1       2.863  -1.196   1.809  0.00  0.00     0.076 C 
ATOM      6  C7  UNL d   1       1.323  -1.654   3.738  0.00  0.00     0.002 A 
ATOM      7  C8  UNL d   1       0.780  -2.507   4.700  0.00  0.00     0.006 A 
ENDROOT
BRANCH   1   8
ATOM      8  C1  UNL d   1       0.624  -4.754   5.836  0.00  0.00     0.054 C 
ATOM      9  C   UNL d   1       1.484  -6.000   5.996  0.00  0.00     0.018 C 
ENDBRANCH   1   8
TORSDOF 1
ENDMDL
