MODEL 1
REMARK minimizedAffinity 7.09611273
REMARK minimizedRMSD -1
REMARK  1 active torsions:
REMARK  status: ('A' for Active; 'I' for Inactive)
REMARK    1  A    between atoms: C1_2  and  C2_3 
ROOT
ATOM      1  C2  UNL d   1      -2.459   1.305  -0.946  0.00  0.00    -0.081 A 
ATOM      2  C3  UNL d   1      -3.261   1.443  -2.085  0.00  0.00     0.006 A 
ATOM      3  C4  UNL d   1      -3.587   0.328  -2.861  0.00  0.00     0.002 A 
ATOM      4  C5  UNL d   1      -3.123  -0.944  -2.506  0.00  0.00    -0.080 A 
ATOM      5  C6  UNL d   1      -3.490  -2.154  -3.313  0.00  0.00     0.076 C 
ATOM      6  C7  UNL d   1      -2.308  -1.079  -1.377  0.00  0.00     0.002 A 
ATOM      7  C8  UNL d   1      -1.981   0.036  -0.601  0.00  0.00     0.006 A 
ENDROOT
BRANCH   1   8
ATOM      8  C1  UNL d   1      -2.160   2.496  -0.071  0.00  0.00     0.054 C 
ATOM      9  C   UNL d   1      -3.319   2.799   0.868  0.00  0.00     0.018 C 
ENDBRANCH   1   8
TORSDOF 1
ENDMDL
