MODEL 1
REMARK minimizedAffinity 2.00291109
REMARK minimizedRMSD -1
REMARK  1 active torsions:
REMARK  status: ('A' for Active; 'I' for Inactive)
REMARK    1  A    between atoms: C1_2  and  C2_3 
ROOT
ATOM      1  C2  UNL d   1       1.776  -4.045   4.219  0.00  0.00    -0.081 A 
ATOM      2  C3  UNL d   1       2.866  -3.863   3.360  0.00  0.00     0.006 A 
ATOM      3  C4  UNL d   1       3.041  -2.654   2.684  0.00  0.00     0.002 A 
ATOM      4  C5  UNL d   1       2.135  -1.603   2.861  0.00  0.00    -0.080 A 
ATOM      5  C6  UNL d   1       2.328  -0.289   2.165  0.00  0.00     0.076 C 
ATOM      6  C7  UNL d   1       1.036  -1.791   3.707  0.00  0.00     0.002 A 
ATOM      7  C8  UNL d   1       0.860  -3.000   4.383  0.00  0.00     0.006 A 
ENDROOT
BRANCH   1   8
ATOM      8  C1  UNL d   1       1.620  -5.325   5.000  0.00  0.00     0.054 C 
ATOM      9  C   UNL d   1       0.452  -5.242   5.972  0.00  0.00     0.018 C 
ENDBRANCH   1   8
TORSDOF 1
ENDMDL
