MODEL 1
REMARK minimizedAffinity 6.19631338
REMARK minimizedRMSD -1
REMARK  1 active torsions:
REMARK  status: ('A' for Active; 'I' for Inactive)
REMARK    1  A    between atoms: C1_2  and  C2_3 
ROOT
ATOM      1  C2  UNL d   1       1.331  -4.398   3.752  0.00  0.00    -0.081 A 
ATOM      2  C3  UNL d   1       2.194  -4.536   2.658  0.00  0.00     0.006 A 
ATOM      3  C4  UNL d   1       2.557  -3.421   1.898  0.00  0.00     0.002 A 
ATOM      4  C5  UNL d   1       2.070  -2.151   2.224  0.00  0.00    -0.080 A 
ATOM      5  C6  UNL d   1       2.476  -0.942   1.435  0.00  0.00     0.076 C 
ATOM      6  C7  UNL d   1       1.194  -2.016   3.306  0.00  0.00     0.002 A 
ATOM      7  C8  UNL d   1       0.830  -3.130   4.066  0.00  0.00     0.006 A 
ENDROOT
BRANCH   1   8
ATOM      8  C1  UNL d   1       0.989  -5.588   4.613  0.00  0.00     0.054 C 
ATOM      9  C   UNL d   1       0.536  -5.155   6.000  0.00  0.00     0.018 C 
ENDBRANCH   1   8
TORSDOF 1
ENDMDL
