MODEL 1
REMARK minimizedAffinity 4.53920603
REMARK minimizedRMSD -1
REMARK  1 active torsions:
REMARK  status: ('A' for Active; 'I' for Inactive)
REMARK    1  A    between atoms: C1_2  and  C2_3 
ROOT
ATOM      1  C2  UNL d   1       2.251  -4.168   4.885  0.00  0.00    -0.081 A 
ATOM      2  C3  UNL d   1       1.483  -4.231   3.716  0.00  0.00     0.006 A 
ATOM      3  C4  UNL d   1       1.462  -3.157   2.823  0.00  0.00     0.002 A 
ATOM      4  C5  UNL d   1       2.214  -2.006   3.080  0.00  0.00    -0.080 A 
ATOM      5  C6  UNL d   1       2.223  -0.858   2.115  0.00  0.00     0.076 C 
ATOM      6  C7  UNL d   1       2.968  -1.935   4.256  0.00  0.00     0.002 A 
ATOM      7  C8  UNL d   1       2.989  -3.008   5.150  0.00  0.00     0.006 A 
ENDROOT
BRANCH   1   8
ATOM      8  C1  UNL d   1       2.328  -5.349   5.818  0.00  0.00     0.054 C 
ATOM      9  C   UNL d   1       0.963  -6.000   5.999  0.00  0.00     0.018 C 
ENDBRANCH   1   8
TORSDOF 1
ENDMDL
