MODEL 1
REMARK minimizedAffinity 7.50503588
REMARK minimizedRMSD -1
REMARK  1 active torsions:
REMARK  status: ('A' for Active; 'I' for Inactive)
REMARK    1  A    between atoms: C1_2  and  C2_3 
ROOT
ATOM      1  C2  UNL d   1       2.205  -2.816   2.529  0.00  0.00    -0.081 A 
ATOM      2  C3  UNL d   1       1.207  -2.308   3.369  0.00  0.00     0.006 A 
ATOM      3  C4  UNL d   1       0.850  -0.959   3.309  0.00  0.00     0.002 A 
ATOM      4  C5  UNL d   1       1.479  -0.098   2.404  0.00  0.00    -0.080 A 
ATOM      5  C6  UNL d   1       1.085   1.346   2.308  0.00  0.00     0.076 C 
ATOM      6  C7  UNL d   1       2.489  -0.602   1.576  0.00  0.00     0.002 A 
ATOM      7  C8  UNL d   1       2.846  -1.950   1.636  0.00  0.00     0.006 A 
ENDROOT
BRANCH   1   8
ATOM      8  C1  UNL d   1       2.547  -4.284   2.546  0.00  0.00     0.054 C 
ATOM      9  C   UNL d   1       2.532  -4.872   1.142  0.00  0.00     0.018 C 
ENDBRANCH   1   8
TORSDOF 1
ENDMDL
