MODEL 1
REMARK minimizedAffinity 23.3543663
REMARK minimizedRMSD -1
REMARK  0 active torsions:
REMARK  status: ('A' for Active; 'I' for Inactive)
ROOT
ATOM      1  O1  BZF d   1       0.638  -2.950  -0.600  0.00  0.00    -0.204 OA
ATOM      2  C2  BZF d   1       1.277  -3.861  -1.418  0.00  0.00     0.174 A 
ATOM      3  C3  BZF d   1       2.605  -3.863  -1.185  0.00  0.00    -0.012 A 
ATOM      4  C3A BZF d   1       2.797  -2.960  -0.092  0.00  0.00    -0.107 A 
ATOM      5  C4  BZF d   1       3.898  -2.551   0.606  0.00  0.00     0.055 A 
ATOM      6  C5  BZF d   1       3.754  -1.603   1.569  0.00  0.00    -0.016 A 
ATOM      7  C6  BZF d   1       2.529  -1.040   1.856  0.00  0.00     0.022 A 
ATOM      8  C7  BZF d   1       1.408  -1.417   1.194  0.00  0.00     0.029 A 
ATOM      9  C7A BZF d   1       1.544  -2.398   0.243  0.00  0.00     0.058 A 
ENDROOT
TORSDOF 0
ENDMDL
