MODEL 1
REMARK minimizedAffinity 12.9642992
REMARK minimizedRMSD -1
REMARK  0 active torsions:
REMARK  status: ('A' for Active; 'I' for Inactive)
ROOT
ATOM      1  O1  BZF d   1       2.295  -3.013  -0.211  0.00  0.00    -0.204 OA
ATOM      2  C2  BZF d   1       1.914  -1.701  -0.006  0.00  0.00     0.174 A 
ATOM      3  C3  BZF d   1       2.877  -1.020   0.648  0.00  0.00    -0.012 A 
ATOM      4  C3A BZF d   1       3.963  -1.942   0.784  0.00  0.00    -0.107 A 
ATOM      5  C4  BZF d   1       5.210  -1.849   1.334  0.00  0.00     0.055 A 
ATOM      6  C5  BZF d   1       6.000  -2.954   1.369  0.00  0.00    -0.016 A 
ATOM      7  C6  BZF d   1       5.574  -4.167   0.870  0.00  0.00     0.022 A 
ATOM      8  C7  BZF d   1       4.347  -4.307   0.311  0.00  0.00     0.029 A 
ATOM      9  C7A BZF d   1       3.559  -3.184   0.244  0.00  0.00     0.058 A 
ENDROOT
TORSDOF 0
ENDMDL
