MODEL 1
REMARK minimizedAffinity 15.4984436
REMARK minimizedRMSD -1
REMARK  0 active torsions:
REMARK  status: ('A' for Active; 'I' for Inactive)
ROOT
ATOM      1  O1  BZF d   1       0.783  -3.224  -1.412  0.00  0.00    -0.204 OA
ATOM      2  C2  BZF d   1       1.283  -4.403  -1.931  0.00  0.00     0.174 A 
ATOM      3  C3  BZF d   1       2.511  -4.661  -1.437  0.00  0.00    -0.012 A 
ATOM      4  C3A BZF d   1       2.759  -3.623  -0.484  0.00  0.00    -0.107 A 
ATOM      5  C4  BZF d   1       3.804  -3.342   0.349  0.00  0.00     0.055 A 
ATOM      6  C5  BZF d   1       3.764  -2.211   1.101  0.00  0.00    -0.016 A 
ATOM      7  C6  BZF d   1       2.698  -1.337   1.042  0.00  0.00     0.022 A 
ATOM      8  C7  BZF d   1       1.636  -1.575   0.235  0.00  0.00     0.029 A 
ATOM      9  C7A BZF d   1       1.659  -2.734  -0.502  0.00  0.00     0.058 A 
ENDROOT
TORSDOF 0
ENDMDL
