MODEL 1
REMARK minimizedAffinity 16.3571053
REMARK minimizedRMSD -1
REMARK  0 active torsions:
REMARK  status: ('A' for Active; 'I' for Inactive)
ROOT
ATOM      1  O1  BZF d   1       0.615  -3.135  -2.272  0.00  0.00    -0.204 OA
ATOM      2  C2  BZF d   1       1.061  -4.443  -2.278  0.00  0.00     0.174 A 
ATOM      3  C3  BZF d   1       1.911  -4.663  -1.255  0.00  0.00    -0.012 A 
ATOM      4  C3A BZF d   1       1.931  -3.441  -0.512  0.00  0.00    -0.107 A 
ATOM      5  C4  BZF d   1       2.577  -3.042   0.623  0.00  0.00     0.055 A 
ATOM      6  C5  BZF d   1       2.438  -1.758   1.046  0.00  0.00    -0.016 A 
ATOM      7  C6  BZF d   1       1.666  -0.846   0.357  0.00  0.00     0.022 A 
ATOM      8  C7  BZF d   1       1.002  -1.196  -0.772  0.00  0.00     0.029 A 
ATOM      9  C7A BZF d   1       1.114  -2.502  -1.183  0.00  0.00     0.058 A 
ENDROOT
TORSDOF 0
ENDMDL
