MODEL 1
REMARK minimizedAffinity 19.530817
REMARK minimizedRMSD -1
REMARK  0 active torsions:
REMARK  status: ('A' for Active; 'I' for Inactive)
ROOT
ATOM      1  O1  BZF d   1       4.277  -5.679  -1.029  0.00  0.00    -0.204 OA
ATOM      2  C2  BZF d   1       5.617  -5.612  -1.360  0.00  0.00     0.174 A 
ATOM      3  C3  BZF d   1       5.791  -4.951  -2.522  0.00  0.00    -0.012 A 
ATOM      4  C3A BZF d   1       4.485  -4.502  -2.898  0.00  0.00    -0.107 A 
ATOM      5  C4  BZF d   1       4.010  -3.775  -3.952  0.00  0.00     0.055 A 
ATOM      6  C5  BZF d   1       2.671  -3.571  -4.063  0.00  0.00    -0.016 A 
ATOM      7  C6  BZF d   1       1.780  -4.082  -3.143  0.00  0.00     0.022 A 
ATOM      8  C7  BZF d   1       2.204  -4.804  -2.078  0.00  0.00     0.029 A 
ATOM      9  C7A BZF d   1       3.559  -4.985  -1.945  0.00  0.00     0.058 A 
ENDROOT
TORSDOF 0
ENDMDL
