MODEL 1
REMARK minimizedAffinity 18.0478535
REMARK minimizedRMSD -1
REMARK  0 active torsions:
REMARK  status: ('A' for Active; 'I' for Inactive)
ROOT
ATOM      1  O1  BZF d   1       0.988  -3.801  -1.879  0.00  0.00    -0.204 OA
ATOM      2  C2  BZF d   1       1.685  -4.879  -2.390  0.00  0.00     0.174 A 
ATOM      3  C3  BZF d   1       2.860  -5.036  -1.748  0.00  0.00    -0.012 A 
ATOM      4  C3A BZF d   1       2.860  -4.047  -0.713  0.00  0.00    -0.107 A 
ATOM      5  C4  BZF d   1       3.749  -3.714   0.268  0.00  0.00     0.055 A 
ATOM      6  C5  BZF d   1       3.480  -2.651   1.070  0.00  0.00    -0.016 A 
ATOM      7  C6  BZF d   1       2.336  -1.895   0.915  0.00  0.00     0.022 A 
ATOM      8  C7  BZF d   1       1.422  -2.190  -0.041  0.00  0.00     0.029 A 
ATOM      9  C7A BZF d   1       1.675  -3.284  -0.832  0.00  0.00     0.058 A 
ENDROOT
TORSDOF 0
ENDMDL
