MODEL 1
REMARK minimizedAffinity 1.24877477
REMARK minimizedRMSD -1
REMARK  0 active torsions:
REMARK  status: ('A' for Active; 'I' for Inactive)
ROOT
ATOM      1  O1  BZF d   1      -5.474   3.189  -4.914  0.00  0.00    -0.204 OA
ATOM      2  C2  BZF d   1      -5.289   1.856  -4.601  0.00  0.00     0.174 A 
ATOM      3  C3  BZF d   1      -4.001   1.614  -4.281  0.00  0.00    -0.012 A 
ATOM      4  C3A BZF d   1      -3.359   2.893  -4.313  0.00  0.00    -0.107 A 
ATOM      5  C4  BZF d   1      -2.081   3.308  -4.070  0.00  0.00     0.055 A 
ATOM      6  C5  BZF d   1      -1.764   4.615  -4.260  0.00  0.00    -0.016 A 
ATOM      7  C6  BZF d   1      -2.697   5.533  -4.697  0.00  0.00     0.022 A 
ATOM      8  C7  BZF d   1      -3.979   5.169  -4.946  0.00  0.00     0.029 A 
ATOM      9  C7A BZF d   1      -4.311   3.855  -4.723  0.00  0.00     0.058 A 
ENDROOT
TORSDOF 0
ENDMDL
