MODEL 1
REMARK minimizedAffinity 21.7301006
REMARK minimizedRMSD -1
REMARK  0 active torsions:
REMARK  status: ('A' for Active; 'I' for Inactive)
ROOT
ATOM      1  O1  BZF d   1       1.573   2.635   3.677  0.00  0.00    -0.204 OA
ATOM      2  C2  BZF d   1       0.931   1.462   4.022  0.00  0.00     0.174 A 
ATOM      3  C3  BZF d   1       0.264   0.953   2.966  0.00  0.00    -0.012 A 
ATOM      4  C3A BZF d   1       0.579   1.817   1.870  0.00  0.00    -0.107 A 
ATOM      5  C4  BZF d   1       0.230   1.825   0.550  0.00  0.00     0.055 A 
ATOM      6  C5  BZF d   1       0.649   2.850  -0.238  0.00  0.00    -0.016 A 
ATOM      7  C6  BZF d   1       1.412   3.885   0.261  0.00  0.00     0.022 A 
ATOM      8  C7  BZF d   1       1.787   3.918   1.563  0.00  0.00     0.029 A 
ATOM      9  C7A BZF d   1       1.394   2.867   2.354  0.00  0.00     0.058 A 
ENDROOT
TORSDOF 0
ENDMDL
