MODEL 1
REMARK minimizedAffinity 13.2116022
REMARK minimizedRMSD -1
REMARK  0 active torsions:
REMARK  status: ('A' for Active; 'I' for Inactive)
ROOT
ATOM      1  O1  BZF d   1       5.927  -3.035   1.495  0.00  0.00    -0.204 OA
ATOM      2  C2  BZF d   1       6.000  -4.409   1.365  0.00  0.00     0.174 A 
ATOM      3  C3  BZF d   1       4.813  -4.915   0.973  0.00  0.00    -0.012 A 
ATOM      4  C3A BZF d   1       3.970  -3.779   0.761  0.00  0.00    -0.107 A 
ATOM      5  C4  BZF d   1       2.676  -3.634   0.349  0.00  0.00     0.055 A 
ATOM      6  C5  BZF d   1       2.129  -2.390   0.317  0.00  0.00    -0.016 A 
ATOM      7  C6  BZF d   1       2.844  -1.272   0.695  0.00  0.00     0.022 A 
ATOM      8  C7  BZF d   1       4.132  -1.366   1.106  0.00  0.00     0.029 A 
ATOM      9  C7A BZF d   1       4.698  -2.617   1.108  0.00  0.00     0.058 A 
ENDROOT
TORSDOF 0
ENDMDL
