MODEL 1
REMARK minimizedAffinity 9.23941803
REMARK minimizedRMSD -1
REMARK  0 active torsions:
REMARK  status: ('A' for Active; 'I' for Inactive)
ROOT
ATOM      1  O1  BZF d   1       4.469  -1.478   1.147  0.00  0.00    -0.204 OA
ATOM      2  C2  BZF d   1       3.111  -1.295   0.969  0.00  0.00     0.174 A 
ATOM      3  C3  BZF d   1       2.537  -2.417   0.487  0.00  0.00    -0.012 A 
ATOM      4  C3A BZF d   1       3.587  -3.388   0.443  0.00  0.00    -0.107 A 
ATOM      5  C4  BZF d   1       3.636  -4.700   0.069  0.00  0.00     0.055 A 
ATOM      6  C5  BZF d   1       4.833  -5.344   0.075  0.00  0.00    -0.016 A 
ATOM      7  C6  BZF d   1       5.999  -4.706   0.444  0.00  0.00     0.022 A 
ATOM      8  C7  BZF d   1       5.999  -3.406   0.828  0.00  0.00     0.029 A 
ATOM      9  C7A BZF d   1       4.786  -2.762   0.854  0.00  0.00     0.058 A 
ENDROOT
TORSDOF 0
ENDMDL
