MODEL 1
REMARK minimizedAffinity 9.88476276
REMARK minimizedRMSD -1
REMARK  0 active torsions:
REMARK  status: ('A' for Active; 'I' for Inactive)
ROOT
ATOM      1  O1  BZF d   1      -5.537  -3.744   5.254  0.00  0.00    -0.204 OA
ATOM      2  C2  BZF d   1      -5.624  -4.911   5.987  0.00  0.00     0.174 A 
ATOM      3  C3  BZF d   1      -5.865  -5.966   5.182  0.00  0.00    -0.012 A 
ATOM      4  C3A BZF d   1      -5.841  -5.438   3.853  0.00  0.00    -0.107 A 
ATOM      5  C4  BZF d   1      -5.998  -5.997   2.617  0.00  0.00     0.055 A 
ATOM      6  C5  BZF d   1      -5.991  -5.192   1.522  0.00  0.00    -0.016 A 
ATOM      7  C6  BZF d   1      -5.834  -3.826   1.626  0.00  0.00     0.022 A 
ATOM      8  C7  BZF d   1      -5.669  -3.226   2.830  0.00  0.00     0.029 A 
ATOM      9  C7A BZF d   1      -5.643  -4.040   3.936  0.00  0.00     0.058 A 
ENDROOT
TORSDOF 0
ENDMDL
