MODEL 1
REMARK minimizedAffinity 16.5256958
REMARK minimizedRMSD -1
REMARK  0 active torsions:
REMARK  status: ('A' for Active; 'I' for Inactive)
ROOT
ATOM      1  O1  BZF d   1      -5.691  -2.394   2.403  0.00  0.00    -0.204 OA
ATOM      2  C2  BZF d   1      -5.835  -2.832   1.101  0.00  0.00     0.174 A 
ATOM      3  C3  BZF d   1      -5.919  -4.177   1.055  0.00  0.00    -0.012 A 
ATOM      4  C3A BZF d   1      -5.914  -4.601   2.422  0.00  0.00    -0.107 A 
ATOM      5  C4  BZF d   1      -5.991  -5.824   3.025  0.00  0.00     0.055 A 
ATOM      6  C5  BZF d   1      -5.886  -5.900   4.378  0.00  0.00    -0.016 A 
ATOM      7  C6  BZF d   1      -5.698  -4.776   5.156  0.00  0.00     0.022 A 
ATOM      8  C7  BZF d   1      -5.621  -3.542   4.603  0.00  0.00     0.029 A 
ATOM      9  C7A BZF d   1      -5.760  -3.458   3.239  0.00  0.00     0.058 A 
ENDROOT
TORSDOF 0
ENDMDL
