MODEL 1
REMARK minimizedAffinity 10.0811033
REMARK minimizedRMSD -1
REMARK  0 active torsions:
REMARK  status: ('A' for Active; 'I' for Inactive)
ROOT
ATOM      1  O1  BZF d   1       4.135  -2.772   1.479  0.00  0.00    -0.204 OA
ATOM      2  C2  BZF d   1       3.221  -2.161   0.642  0.00  0.00     0.174 A 
ATOM      3  C3  BZF d   1       3.098  -2.847  -0.513  0.00  0.00    -0.012 A 
ATOM      4  C3A BZF d   1       3.922  -4.006  -0.353  0.00  0.00    -0.107 A 
ATOM      5  C4  BZF d   1       4.201  -5.077  -1.152  0.00  0.00     0.055 A 
ATOM      6  C5  BZF d   1       5.105  -5.999  -0.728  0.00  0.00    -0.016 A 
ATOM      7  C6  BZF d   1       5.750  -5.880   0.485  0.00  0.00     0.022 A 
ATOM      8  C7  BZF d   1       5.501  -4.837   1.315  0.00  0.00     0.029 A 
ATOM      9  C7A BZF d   1       4.565  -3.921   0.904  0.00  0.00     0.058 A 
ENDROOT
TORSDOF 0
ENDMDL
