MODEL 1
REMARK minimizedAffinity 5.30404568
REMARK minimizedRMSD -1
REMARK  0 active torsions:
REMARK  status: ('A' for Active; 'I' for Inactive)
ROOT
ATOM      1  O1  BZF d   1      -3.470  -3.708   4.293  0.00  0.00    -0.204 OA
ATOM      2  C2  BZF d   1      -3.734  -2.665   5.159  0.00  0.00     0.174 A 
ATOM      3  C3  BZF d   1      -2.696  -2.462   5.995  0.00  0.00    -0.012 A 
ATOM      4  C3A BZF d   1      -1.684  -3.379   5.568  0.00  0.00    -0.107 A 
ATOM      5  C4  BZF d   1      -0.415  -3.643   5.997  0.00  0.00     0.055 A 
ATOM      6  C5  BZF d   1       0.284  -4.651   5.412  0.00  0.00    -0.016 A 
ATOM      7  C6  BZF d   1      -0.257  -5.418   4.401  0.00  0.00     0.022 A 
ATOM      8  C7  BZF d   1      -1.511  -5.191   3.939  0.00  0.00     0.029 A 
ATOM      9  C7A BZF d   1      -2.207  -4.151   4.505  0.00  0.00     0.058 A 
ENDROOT
TORSDOF 0
ENDMDL
