MODEL 1
REMARK minimizedAffinity 17.0522022
REMARK minimizedRMSD -1
REMARK  0 active torsions:
REMARK  status: ('A' for Active; 'I' for Inactive)
ROOT
ATOM      1  O1  BZF d   1      -1.677   1.753  -2.339  0.00  0.00    -0.204 OA
ATOM      2  C2  BZF d   1      -1.602   2.605  -3.423  0.00  0.00     0.174 A 
ATOM      3  C3  BZF d   1      -0.754   3.624  -3.173  0.00  0.00    -0.012 A 
ATOM      4  C3A BZF d   1      -0.198   3.343  -1.885  0.00  0.00    -0.107 A 
ATOM      5  C4  BZF d   1       0.718   3.981  -1.099  0.00  0.00     0.055 A 
ATOM      6  C5  BZF d   1       0.987   3.484   0.137  0.00  0.00    -0.016 A 
ATOM      7  C6  BZF d   1       0.355   2.357   0.620  0.00  0.00     0.022 A 
ATOM      8  C7  BZF d   1      -0.557   1.688  -0.125  0.00  0.00     0.029 A 
ATOM      9  C7A BZF d   1      -0.807   2.168  -1.387  0.00  0.00     0.058 A 
ENDROOT
TORSDOF 0
ENDMDL
