MODEL 1
REMARK minimizedAffinity 6.59364605
REMARK minimizedRMSD -1
REMARK  0 active torsions:
REMARK  status: ('A' for Active; 'I' for Inactive)
ROOT
ATOM      1  O1  BZF d   1      -3.197   5.625  -1.475  0.00  0.00    -0.204 OA
ATOM      2  C2  BZF d   1      -3.625   6.000  -0.216  0.00  0.00     0.174 A 
ATOM      3  C3  BZF d   1      -2.730   5.631   0.723  0.00  0.00    -0.012 A 
ATOM      4  C3A BZF d   1      -1.633   5.067  -0.004  0.00  0.00    -0.107 A 
ATOM      5  C4  BZF d   1      -0.432   4.536   0.372  0.00  0.00     0.055 A 
ATOM      6  C5  BZF d   1       0.381   4.005  -0.579  0.00  0.00    -0.016 A 
ATOM      7  C6  BZF d   1       0.024   3.984  -1.911  0.00  0.00     0.022 A 
ATOM      8  C7  BZF d   1      -1.155   4.504  -2.332  0.00  0.00     0.029 A 
ATOM      9  C7A BZF d   1      -1.965   5.070  -1.378  0.00  0.00     0.058 A 
ENDROOT
TORSDOF 0
ENDMDL
