MODEL 1
REMARK minimizedAffinity 18.0601883
REMARK minimizedRMSD -1
REMARK  0 active torsions:
REMARK  status: ('A' for Active; 'I' for Inactive)
ROOT
ATOM      1  O1  BZF d   1       1.225  -5.084  -5.460  0.00  0.00    -0.204 OA
ATOM      2  C2  BZF d   1       1.721  -3.913  -6.000  0.00  0.00     0.174 A 
ATOM      3  C3  BZF d   1       2.208  -3.109  -5.033  0.00  0.00    -0.012 A 
ATOM      4  C3A BZF d   1       2.088  -3.862  -3.822  0.00  0.00    -0.107 A 
ATOM      5  C4  BZF d   1       2.416  -3.607  -2.521  0.00  0.00     0.055 A 
ATOM      6  C5  BZF d   1       2.101  -4.522  -1.568  0.00  0.00    -0.016 A 
ATOM      7  C6  BZF d   1       1.453  -5.700  -1.879  0.00  0.00     0.022 A 
ATOM      8  C7  BZF d   1       1.111  -6.000  -3.156  0.00  0.00     0.029 A 
ATOM      9  C7A BZF d   1       1.458  -5.091  -4.126  0.00  0.00     0.058 A 
ENDROOT
TORSDOF 0
ENDMDL
