MODEL 1
REMARK minimizedAffinity 26.4361477
REMARK minimizedRMSD -1
REMARK  0 active torsions:
REMARK  status: ('A' for Active; 'I' for Inactive)
ROOT
ATOM      1  O1  BZF d   1      -1.117   1.142   3.173  0.00  0.00    -0.204 OA
ATOM      2  C2  BZF d   1       0.150   1.158   3.723  0.00  0.00     0.174 A 
ATOM      3  C3  BZF d   1       1.011   1.814   2.919  0.00  0.00    -0.012 A 
ATOM      4  C3A BZF d   1       0.214   2.314   1.841  0.00  0.00    -0.107 A 
ATOM      5  C4  BZF d   1       0.495   3.059   0.732  0.00  0.00     0.055 A 
ATOM      6  C5  BZF d   1      -0.496   3.315  -0.162  0.00  0.00    -0.016 A 
ATOM      7  C6  BZF d   1      -1.777   2.836   0.019  0.00  0.00     0.022 A 
ATOM      8  C7  BZF d   1      -2.106   2.097   1.106  0.00  0.00     0.029 A 
ATOM      9  C7A BZF d   1      -1.114   1.865   2.028  0.00  0.00     0.058 A 
ENDROOT
TORSDOF 0
ENDMDL
