MODEL 1
REMARK minimizedAffinity 13.0672884
REMARK minimizedRMSD -1
REMARK  0 active torsions:
REMARK  status: ('A' for Active; 'I' for Inactive)
ROOT
ATOM      1  O1  BZF d   1       0.215   2.692   1.151  0.00  0.00    -0.204 OA
ATOM      2  C2  BZF d   1      -0.219   1.406   0.897  0.00  0.00     0.174 A 
ATOM      3  C3  BZF d   1      -0.763   1.318  -0.334  0.00  0.00    -0.012 A 
ATOM      4  C3A BZF d   1      -0.579   2.611  -0.919  0.00  0.00    -0.107 A 
ATOM      5  C4  BZF d   1      -0.895   3.144  -2.136  0.00  0.00     0.055 A 
ATOM      6  C5  BZF d   1      -0.645   4.460  -2.366  0.00  0.00    -0.016 A 
ATOM      7  C6  BZF d   1      -0.086   5.272  -1.401  0.00  0.00     0.022 A 
ATOM      8  C7  BZF d   1       0.249   4.787  -0.180  0.00  0.00     0.029 A 
ATOM      9  C7A BZF d   1       0.028   3.450   0.043  0.00  0.00     0.058 A 
ENDROOT
TORSDOF 0
ENDMDL
