MODEL 1
REMARK minimizedAffinity -4.43141413
REMARK minimizedRMSD -1
REMARK  0 active torsions:
REMARK  status: ('A' for Active; 'I' for Inactive)
ROOT
ATOM      1  C1  BNZ d   1       0.017  -3.603  -0.072  0.00  0.00     0.000 A 
ATOM      2  C2  BNZ d   1       0.001  -2.890   1.097  0.00  0.00     0.000 A 
ATOM      3  C3  BNZ d   1       0.093  -1.526   1.086  0.00  0.00     0.000 A 
ATOM      4  C4  BNZ d   1       0.242  -0.881  -0.089  0.00  0.00     0.000 A 
ATOM      5  C5  BNZ d   1       0.269  -1.587  -1.275  0.00  0.00     0.000 A 
ATOM      6  C6  BNZ d   1       0.137  -2.957  -1.263  0.00  0.00     0.000 A 
ENDROOT
TORSDOF 0
ENDMDL
