MODEL 1
REMARK minimizedAffinity -1.97832394
REMARK minimizedRMSD -1
REMARK  0 active torsions:
REMARK  status: ('A' for Active; 'I' for Inactive)
ROOT
ATOM      1  C1  BNZ d   1      -0.524  -0.475  -0.062  0.00  0.00     0.000 A 
ATOM      2  C2  BNZ d   1      -0.169  -0.940  -1.300  0.00  0.00     0.000 A 
ATOM      3  C3  BNZ d   1      -0.485  -2.213  -1.687  0.00  0.00     0.000 A 
ATOM      4  C4  BNZ d   1      -1.118  -3.030  -0.821  0.00  0.00     0.000 A 
ATOM      5  C5  BNZ d   1      -1.473  -2.579   0.434  0.00  0.00     0.000 A 
ATOM      6  C6  BNZ d   1      -1.189  -1.285   0.805  0.00  0.00     0.000 A 
ENDROOT
TORSDOF 0
ENDMDL
