MODEL 1
REMARK minimizedAffinity -4.9578476
REMARK minimizedRMSD -1
REMARK  0 active torsions:
REMARK  status: ('A' for Active; 'I' for Inactive)
ROOT
ATOM      1  C1  BNZ d   1       0.474  -1.286  -1.807  0.00  0.00     0.000 A 
ATOM      2  C2  BNZ d   1       0.054  -2.576  -1.992  0.00  0.00     0.000 A 
ATOM      3  C3  BNZ d   1      -0.093  -3.423  -0.929  0.00  0.00     0.000 A 
ATOM      4  C4  BNZ d   1       0.217  -2.992   0.310  0.00  0.00     0.000 A 
ATOM      5  C5  BNZ d   1       0.651  -1.697   0.512  0.00  0.00     0.000 A 
ATOM      6  C6  BNZ d   1       0.760  -0.835  -0.555  0.00  0.00     0.000 A 
ENDROOT
TORSDOF 0
ENDMDL
