MODEL 1
REMARK minimizedAffinity -4.27820683
REMARK minimizedRMSD -1
REMARK  0 active torsions:
REMARK  status: ('A' for Active; 'I' for Inactive)
ROOT
ATOM      1  C1  BNZ d   1      -0.811   0.524   0.717  0.00  0.00     0.000 A 
ATOM      2  C2  BNZ d   1       0.040   0.117  -0.276  0.00  0.00     0.000 A 
ATOM      3  C3  BNZ d   1       0.090  -1.193  -0.661  0.00  0.00     0.000 A 
ATOM      4  C4  BNZ d   1      -0.680  -2.101  -0.026  0.00  0.00     0.000 A 
ATOM      5  C5  BNZ d   1      -1.536  -1.708   0.983  0.00  0.00     0.000 A 
ATOM      6  C6  BNZ d   1      -1.612  -0.381   1.341  0.00  0.00     0.000 A 
ENDROOT
TORSDOF 0
ENDMDL
