MODEL 1
REMARK minimizedAffinity -4.05280256
REMARK minimizedRMSD -1
REMARK  0 active torsions:
REMARK  status: ('A' for Active; 'I' for Inactive)
ROOT
ATOM      1  C1  BNZ d   1      -0.980  -0.000   0.090  0.00  0.00     0.000 A 
ATOM      2  C2  BNZ d   1      -1.638  -0.888   0.899  0.00  0.00     0.000 A 
ATOM      3  C3  BNZ d   1      -1.276  -2.206   0.932  0.00  0.00     0.000 A 
ATOM      4  C4  BNZ d   1      -0.284  -2.641   0.128  0.00  0.00     0.000 A 
ATOM      5  C5  BNZ d   1       0.382  -1.760  -0.700  0.00  0.00     0.000 A 
ATOM      6  C6  BNZ d   1       0.041  -0.427  -0.702  0.00  0.00     0.000 A 
ENDROOT
TORSDOF 0
ENDMDL
