MODEL 1
REMARK minimizedAffinity -2.98871613
REMARK minimizedRMSD -1
REMARK  0 active torsions:
REMARK  status: ('A' for Active; 'I' for Inactive)
ROOT
ATOM      1  C1  BNZ d   1      -1.247  -2.244   0.783  0.00  0.00     0.000 A 
ATOM      2  C2  BNZ d   1      -0.758  -1.914  -0.453  0.00  0.00     0.000 A 
ATOM      3  C3  BNZ d   1      -0.121  -0.722  -0.658  0.00  0.00     0.000 A 
ATOM      4  C4  BNZ d   1      -0.010   0.155   0.360  0.00  0.00     0.000 A 
ATOM      5  C5  BNZ d   1      -0.506  -0.159   1.610  0.00  0.00     0.000 A 
ATOM      6  C6  BNZ d   1      -1.112  -1.376   1.823  0.00  0.00     0.000 A 
ENDROOT
TORSDOF 0
ENDMDL
