MODEL 1
REMARK minimizedAffinity -4.8248167
REMARK minimizedRMSD -1
REMARK  0 active torsions:
REMARK  status: ('A' for Active; 'I' for Inactive)
ROOT
ATOM      1  C1  BNZ d   1       0.443  -2.227  -0.597  0.00  0.00     0.000 A 
ATOM      2  C2  BNZ d   1       0.539  -0.861  -0.639  0.00  0.00     0.000 A 
ATOM      3  C3  BNZ d   1      -0.265  -0.079   0.142  0.00  0.00     0.000 A 
ATOM      4  C4  BNZ d   1      -1.191  -0.660   0.932  0.00  0.00     0.000 A 
ATOM      5  C5  BNZ d   1      -1.307  -2.035   0.978  0.00  0.00     0.000 A 
ATOM      6  C6  BNZ d   1      -0.469  -2.821   0.220  0.00  0.00     0.000 A 
ENDROOT
TORSDOF 0
ENDMDL
