MODEL 1
REMARK minimizedAffinity -3.49626875
REMARK minimizedRMSD -1
REMARK  0 active torsions:
REMARK  status: ('A' for Active; 'I' for Inactive)
ROOT
ATOM      1  C1  BNZ d   1       0.412   1.954   0.076  0.00  0.00     0.000 A 
ATOM      2  C2  BNZ d   1       1.259   3.019   0.229  0.00  0.00     0.000 A 
ATOM      3  C3  BNZ d   1       2.438   2.884   0.906  0.00  0.00     0.000 A 
ATOM      4  C4  BNZ d   1       2.751   1.697   1.464  0.00  0.00     0.000 A 
ATOM      5  C5  BNZ d   1       1.903   0.616   1.327  0.00  0.00     0.000 A 
ATOM      6  C6  BNZ d   1       0.735   0.745   0.611  0.00  0.00     0.000 A 
ENDROOT
TORSDOF 0
ENDMDL
