MODEL 1
REMARK minimizedAffinity -1.6632756
REMARK minimizedRMSD -1
REMARK  0 active torsions:
REMARK  status: ('A' for Active; 'I' for Inactive)
ROOT
ATOM      1  C1  BNZ d   1      -0.823  -0.724   1.474  0.00  0.00     0.000 A 
ATOM      2  C2  BNZ d   1      -1.350  -1.988   1.515  0.00  0.00     0.000 A 
ATOM      3  C3  BNZ d   1      -1.351  -2.782   0.402  0.00  0.00     0.000 A 
ATOM      4  C4  BNZ d   1      -0.861  -2.298  -0.758  0.00  0.00     0.000 A 
ATOM      5  C5  BNZ d   1      -0.334  -1.023  -0.817  0.00  0.00     0.000 A 
ATOM      6  C6  BNZ d   1      -0.300  -0.241   0.315  0.00  0.00     0.000 A 
ENDROOT
TORSDOF 0
ENDMDL
