MODEL 1
REMARK minimizedAffinity -4.34638405
REMARK minimizedRMSD -1
REMARK  0 active torsions:
REMARK  status: ('A' for Active; 'I' for Inactive)
ROOT
ATOM      1  C1  BNZ d   1      -0.088  -0.500   0.472  0.00  0.00     0.000 A 
ATOM      2  C2  BNZ d   1       0.707  -1.230  -0.371  0.00  0.00     0.000 A 
ATOM      3  C3  BNZ d   1       0.469  -2.559  -0.582  0.00  0.00     0.000 A 
ATOM      4  C4  BNZ d   1      -0.538  -3.165   0.079  0.00  0.00     0.000 A 
ATOM      5  C5  BNZ d   1      -1.343  -2.445   0.940  0.00  0.00     0.000 A 
ATOM      6  C6  BNZ d   1      -1.124  -1.099   1.120  0.00  0.00     0.000 A 
ENDROOT
TORSDOF 0
ENDMDL
