MODEL 1
REMARK minimizedAffinity -1.7067529
REMARK minimizedRMSD -1
REMARK  0 active torsions:
REMARK  status: ('A' for Active; 'I' for Inactive)
ROOT
ATOM      1  C1  BNZ d   1       2.852   3.236   1.377  0.00  0.00     0.000 A 
ATOM      2  C2  BNZ d   1       2.754   2.731   0.108  0.00  0.00     0.000 A 
ATOM      3  C3  BNZ d   1       1.534   2.451  -0.441  0.00  0.00     0.000 A 
ATOM      4  C4  BNZ d   1       0.418   2.639   0.292  0.00  0.00     0.000 A 
ATOM      5  C5  BNZ d   1       0.501   3.138   1.577  0.00  0.00     0.000 A 
ATOM      6  C6  BNZ d   1       1.728   3.456   2.112  0.00  0.00     0.000 A 
ENDROOT
TORSDOF 0
ENDMDL
