MODEL 1
REMARK minimizedAffinity -4.97601891
REMARK minimizedRMSD -1
REMARK  0 active torsions:
REMARK  status: ('A' for Active; 'I' for Inactive)
ROOT
ATOM      1  C1  BNZ d   1       0.831  -2.737  -0.743  0.00  0.00     0.000 A 
ATOM      2  C2  BNZ d   1       0.034  -3.070   0.319  0.00  0.00     0.000 A 
ATOM      3  C3  BNZ d   1      -0.814  -2.152   0.873  0.00  0.00     0.000 A 
ATOM      4  C4  BNZ d   1      -0.834  -0.893   0.392  0.00  0.00     0.000 A 
ATOM      5  C5  BNZ d   1      -0.029  -0.538  -0.673  0.00  0.00     0.000 A 
ATOM      6  C6  BNZ d   1       0.794  -1.476  -1.253  0.00  0.00     0.000 A 
ENDROOT
TORSDOF 0
ENDMDL
