MODEL 1
REMARK minimizedAffinity -2.20908475
REMARK minimizedRMSD -1
REMARK  0 active torsions:
REMARK  status: ('A' for Active; 'I' for Inactive)
ROOT
ATOM      1  C1  BNZ d   1       1.191   2.789  -0.388  0.00  0.00     0.000 A 
ATOM      2  C2  BNZ d   1      -0.040   2.790   0.212  0.00  0.00     0.000 A 
ATOM      3  C3  BNZ d   1      -0.230   3.409   1.416  0.00  0.00     0.000 A 
ATOM      4  C4  BNZ d   1       0.817   3.990   2.036  0.00  0.00     0.000 A 
ATOM      5  C5  BNZ d   1       2.066   3.989   1.448  0.00  0.00     0.000 A 
ATOM      6  C6  BNZ d   1       2.246   3.399   0.218  0.00  0.00     0.000 A 
ENDROOT
TORSDOF 0
ENDMDL
