MODEL 1
REMARK minimizedAffinity -1.71759319
REMARK minimizedRMSD -1
REMARK  0 active torsions:
REMARK  status: ('A' for Active; 'I' for Inactive)
ROOT
ATOM      1  C1  BNZ d   1      -1.408  -1.317   2.211  0.00  0.00     0.000 A 
ATOM      2  C2  BNZ d   1      -1.265  -0.069   1.667  0.00  0.00     0.000 A 
ATOM      3  C3  BNZ d   1      -0.912   0.088   0.356  0.00  0.00     0.000 A 
ATOM      4  C4  BNZ d   1      -0.664  -1.002  -0.398  0.00  0.00     0.000 A 
ATOM      5  C5  BNZ d   1      -0.795  -2.268   0.138  0.00  0.00     0.000 A 
ATOM      6  C6  BNZ d   1      -1.188  -2.422   1.447  0.00  0.00     0.000 A 
ENDROOT
TORSDOF 0
ENDMDL
