MODEL 1
REMARK minimizedAffinity 18.4702072
REMARK minimizedRMSD -1
REMARK  1 active torsions:
REMARK  status: ('A' for Active; 'I' for Inactive)
REMARK    1  A    between atoms: C1_2  and  C2_3 
ROOT
ATOM      1  C2  UNL d   1       4.067   0.883  -0.805  0.00  0.00    -0.073 A 
ATOM      2  C3  UNL d   1       4.684  -0.192  -0.155  0.00  0.00    -0.002 A 
ATOM      3  C4  UNL d   1       4.217  -0.630   1.085  0.00  0.00     0.004 A 
ATOM      4  C5  UNL d   1       3.124  -0.003   1.684  0.00  0.00    -0.004 A 
ATOM      5  C6  UNL d   1       2.486   1.065   1.045  0.00  0.00    -0.075 A 
ATOM      6  C7  UNL d   1       1.310   1.751   1.677  0.00  0.00     0.076 C 
ATOM      7  C8  UNL d   1       2.963   1.500  -0.199  0.00  0.00     0.001 A 
ENDROOT
BRANCH   1   8
ATOM      8  C1  UNL d   1       4.564   1.355  -2.146  0.00  0.00     0.053 C 
ATOM      9  C   UNL d   1       3.725   2.497  -2.696  0.00  0.00     0.018 C 
ENDBRANCH   1   8
TORSDOF 1
ENDMDL
