MODEL 1
REMARK minimizedAffinity 18.6654053
REMARK minimizedRMSD -1
REMARK  1 active torsions:
REMARK  status: ('A' for Active; 'I' for Inactive)
REMARK    1  A    between atoms: C1_2  and  C2_3 
ROOT
ATOM      1  C2  UNL d   1       0.525   0.108   2.306  0.00  0.00    -0.073 A 
ATOM      2  C3  UNL d   1       0.472   0.236   3.698  0.00  0.00    -0.002 A 
ATOM      3  C4  UNL d   1      -0.333  -0.617   4.454  0.00  0.00     0.004 A 
ATOM      4  C5  UNL d   1      -1.088  -1.608   3.828  0.00  0.00    -0.004 A 
ATOM      5  C6  UNL d   1      -1.040  -1.759   2.438  0.00  0.00    -0.075 A 
ATOM      6  C7  UNL d   1      -1.848  -2.819   1.749  0.00  0.00     0.076 C 
ATOM      7  C8  UNL d   1      -0.231  -0.897   1.685  0.00  0.00     0.001 A 
ENDROOT
BRANCH   1   8
ATOM      8  C1  UNL d   1       1.398   1.022   1.486  0.00  0.00     0.053 C 
ATOM      9  C   UNL d   1       2.689   0.344   1.057  0.00  0.00     0.018 C 
ENDBRANCH   1   8
TORSDOF 1
ENDMDL
