MODEL 1
REMARK minimizedAffinity 4.89185095
REMARK minimizedRMSD -1
REMARK  1 active torsions:
REMARK  status: ('A' for Active; 'I' for Inactive)
REMARK    1  A    between atoms: C1_2  and  C2_3 
ROOT
ATOM      1  C2  UNL d   1      -0.757  -1.261   2.079  0.00  0.00    -0.073 A 
ATOM      2  C3  UNL d   1      -0.624  -1.498   3.452  0.00  0.00    -0.002 A 
ATOM      3  C4  UNL d   1       0.095  -0.610   4.254  0.00  0.00     0.004 A 
ATOM      4  C5  UNL d   1       0.681   0.525   3.694  0.00  0.00    -0.004 A 
ATOM      5  C6  UNL d   1       0.549   0.785   2.326  0.00  0.00    -0.075 A 
ATOM      6  C7  UNL d   1       1.175   2.001   1.708  0.00  0.00     0.076 C 
ATOM      7  C8  UNL d   1      -0.172  -0.112   1.527  0.00  0.00     0.001 A 
ENDROOT
BRANCH   1   8
ATOM      8  C1  UNL d   1      -1.537  -2.213   1.210  0.00  0.00     0.053 C 
ATOM      9  C   UNL d   1      -1.566  -1.766  -0.242  0.00  0.00     0.018 C 
ENDBRANCH   1   8
TORSDOF 1
ENDMDL
