MODEL 1
REMARK minimizedAffinity 7.99219656
REMARK minimizedRMSD -1
REMARK  1 active torsions:
REMARK  status: ('A' for Active; 'I' for Inactive)
REMARK    1  A    between atoms: C1_2  and  C2_3 
ROOT
ATOM      1  C2  UNL d   1      -2.057  -2.734   0.387  0.00  0.00    -0.073 A 
ATOM      2  C3  UNL d   1      -1.119  -1.772  -0.007  0.00  0.00    -0.002 A 
ATOM      3  C4  UNL d   1      -1.077  -1.328  -1.329  0.00  0.00     0.004 A 
ATOM      4  C5  UNL d   1      -1.975  -1.835  -2.269  0.00  0.00    -0.004 A 
ATOM      5  C6  UNL d   1      -2.927  -2.787  -1.892  0.00  0.00    -0.075 A 
ATOM      6  C7  UNL d   1      -3.899  -3.344  -2.891  0.00  0.00     0.076 C 
ATOM      7  C8  UNL d   1      -2.962  -3.230  -0.563  0.00  0.00     0.001 A 
ENDROOT
BRANCH   1   8
ATOM      8  C1  UNL d   1      -2.110  -3.211   1.815  0.00  0.00     0.053 C 
ATOM      9  C   UNL d   1      -2.099  -4.729   1.909  0.00  0.00     0.018 C 
ENDBRANCH   1   8
TORSDOF 1
ENDMDL
