MODEL 1
REMARK minimizedAffinity 10.2438316
REMARK minimizedRMSD -1
REMARK  1 active torsions:
REMARK  status: ('A' for Active; 'I' for Inactive)
REMARK    1  A    between atoms: C1_2  and  C2_3 
ROOT
ATOM      1  C2  UNL d   1      -4.242  -5.062  -0.912  0.00  0.00    -0.073 A 
ATOM      2  C3  UNL d   1      -5.326  -5.158  -1.791  0.00  0.00    -0.002 A 
ATOM      3  C4  UNL d   1      -5.431  -4.291  -2.879  0.00  0.00     0.004 A 
ATOM      4  C5  UNL d   1      -4.450  -3.325  -3.104  0.00  0.00    -0.004 A 
ATOM      5  C6  UNL d   1      -3.353  -3.221  -2.243  0.00  0.00    -0.075 A 
ATOM      6  C7  UNL d   1      -2.291  -2.185  -2.470  0.00  0.00     0.076 C 
ATOM      7  C8  UNL d   1      -3.256  -4.093  -1.151  0.00  0.00     0.001 A 
ENDROOT
BRANCH   1   8
ATOM      8  C1  UNL d   1      -4.121  -6.000   0.261  0.00  0.00     0.053 C 
ATOM      9  C   UNL d   1      -3.010  -5.584   1.212  0.00  0.00     0.018 C 
ENDBRANCH   1   8
TORSDOF 1
ENDMDL
