MODEL 1
REMARK minimizedAffinity 10.6731949
REMARK minimizedRMSD -1
REMARK  1 active torsions:
REMARK  status: ('A' for Active; 'I' for Inactive)
REMARK    1  A    between atoms: C1_2  and  C2_3 
ROOT
ATOM      1  C2  UNL d   1      -4.462   3.688   2.618  0.00  0.00    -0.073 A 
ATOM      2  C3  UNL d   1      -5.716   4.287   2.452  0.00  0.00    -0.002 A 
ATOM      3  C4  UNL d   1      -5.947   5.155   1.385  0.00  0.00     0.004 A 
ATOM      4  C5  UNL d   1      -4.930   5.428   0.469  0.00  0.00    -0.004 A 
ATOM      5  C6  UNL d   1      -3.674   4.830   0.611  0.00  0.00    -0.075 A 
ATOM      6  C7  UNL d   1      -2.569   5.115  -0.364  0.00  0.00     0.076 C 
ATOM      7  C8  UNL d   1      -3.449   3.961   1.688  0.00  0.00     0.001 A 
ENDROOT
BRANCH   1   8
ATOM      8  C1  UNL d   1      -4.210   2.745   3.766  0.00  0.00     0.053 C 
ATOM      9  C   UNL d   1      -4.577   1.311   3.417  0.00  0.00     0.018 C 
ENDBRANCH   1   8
TORSDOF 1
ENDMDL
