MODEL 1
REMARK minimizedAffinity 15.8236971
REMARK minimizedRMSD -1
REMARK  1 active torsions:
REMARK  status: ('A' for Active; 'I' for Inactive)
REMARK    1  A    between atoms: C1_2  and  C2_3 
ROOT
ATOM      1  C2  UNL d   1       3.293   4.191  -4.291  0.00  0.00    -0.073 A 
ATOM      2  C3  UNL d   1       3.180   3.255  -5.325  0.00  0.00    -0.002 A 
ATOM      3  C4  UNL d   1       3.511   1.918  -5.105  0.00  0.00     0.004 A 
ATOM      4  C5  UNL d   1       3.951   1.501  -3.848  0.00  0.00    -0.004 A 
ATOM      5  C6  UNL d   1       4.060   2.420  -2.799  0.00  0.00    -0.075 A 
ATOM      6  C7  UNL d   1       4.534   1.988  -1.442  0.00  0.00     0.076 C 
ATOM      7  C8  UNL d   1       3.728   3.762  -3.029  0.00  0.00     0.001 A 
ENDROOT
BRANCH   1   8
ATOM      8  C1  UNL d   1       2.931   5.635  -4.523  0.00  0.00     0.053 C 
ATOM      9  C   UNL d   1       2.941   5.996  -6.000  0.00  0.00     0.018 C 
ENDBRANCH   1   8
TORSDOF 1
ENDMDL
