MODEL 1
REMARK minimizedAffinity 14.9010239
REMARK minimizedRMSD -1
REMARK  1 active torsions:
REMARK  status: ('A' for Active; 'I' for Inactive)
REMARK    1  A    between atoms: C1_2  and  C2_3 
ROOT
ATOM      1  C2  UNL d   1       3.441   1.801  -0.808  0.00  0.00    -0.073 A 
ATOM      2  C3  UNL d   1       2.161   2.200  -0.407  0.00  0.00    -0.002 A 
ATOM      3  C4  UNL d   1       1.552   1.606   0.700  0.00  0.00     0.004 A 
ATOM      4  C5  UNL d   1       2.218   0.614   1.419  0.00  0.00    -0.004 A 
ATOM      5  C6  UNL d   1       3.502   0.210   1.041  0.00  0.00    -0.075 A 
ATOM      6  C7  UNL d   1       4.231  -0.857   1.804  0.00  0.00     0.076 C 
ATOM      7  C8  UNL d   1       4.106   0.809  -0.072  0.00  0.00     0.001 A 
ENDROOT
BRANCH   1   8
ATOM      8  C1  UNL d   1       4.105   2.444  -1.998  0.00  0.00     0.053 C 
ATOM      9  C   UNL d   1       3.098   2.860  -3.057  0.00  0.00     0.018 C 
ENDBRANCH   1   8
TORSDOF 1
ENDMDL
