MODEL 1
REMARK minimizedAffinity 9.06491089
REMARK minimizedRMSD -1
REMARK  1 active torsions:
REMARK  status: ('A' for Active; 'I' for Inactive)
REMARK    1  A    between atoms: C1_2  and  C2_3 
ROOT
ATOM      1  C2  UNL d   1       5.250   4.672  -2.400  0.00  0.00    -0.077 A 
ATOM      2  C3  UNL d   1       5.962   4.974  -3.569  0.00  0.00     0.002 A 
ATOM      3  C4  UNL d   1       5.526   4.493  -4.805  0.00  0.00     0.002 A 
ATOM      4  C5  UNL d   1       4.375   3.713  -4.885  0.00  0.00    -0.004 A 
ATOM      5  C6  UNL d   1       3.661   3.405  -3.727  0.00  0.00     0.002 A 
ATOM      6  C7  UNL d   1       4.096   3.884  -2.490  0.00  0.00     0.002 A 
ENDROOT
BRANCH   1   7
ATOM      7  C1  UNL d   1       5.691   5.230  -1.072  0.00  0.00     0.055 C 
ATOM      8  C   UNL d   1       5.987   4.119  -0.075  0.00  0.00     0.019 C 
ENDBRANCH   1   7
TORSDOF 1
ENDMDL
