MODEL 1
REMARK minimizedAffinity 2.4170804
REMARK minimizedRMSD -1
REMARK  1 active torsions:
REMARK  status: ('A' for Active; 'I' for Inactive)
REMARK    1  A    between atoms: C1_2  and  C2_3 
ROOT
ATOM      1  C2  UNL d   1       3.589   2.227   0.599  0.00  0.00    -0.077 A 
ATOM      2  C3  UNL d   1       3.929   2.352  -0.756  0.00  0.00     0.002 A 
ATOM      3  C4  UNL d   1       3.011   2.004  -1.749  0.00  0.00     0.002 A 
ATOM      4  C5  UNL d   1       1.747   1.533  -1.398  0.00  0.00    -0.004 A 
ATOM      5  C6  UNL d   1       1.401   1.404  -0.054  0.00  0.00     0.002 A 
ATOM      6  C7  UNL d   1       2.318   1.750   0.940  0.00  0.00     0.002 A 
ENDROOT
BRANCH   1   7
ATOM      7  C1  UNL d   1       4.560   2.648   1.671  0.00  0.00     0.055 C 
ATOM      8  C   UNL d   1       5.724   3.435   1.086  0.00  0.00     0.019 C 
ENDBRANCH   1   7
TORSDOF 1
ENDMDL
