MODEL 1
REMARK minimizedAffinity 10.4986372
REMARK minimizedRMSD -1
REMARK  1 active torsions:
REMARK  status: ('A' for Active; 'I' for Inactive)
REMARK    1  A    between atoms: C1_2  and  C2_3 
ROOT
ATOM      1  C2  UNL d   1      -3.117  -1.987   2.097  0.00  0.00    -0.077 A 
ATOM      2  C3  UNL d   1      -2.070  -2.435   1.279  0.00  0.00     0.002 A 
ATOM      3  C4  UNL d   1      -0.890  -1.698   1.175  0.00  0.00     0.002 A 
ATOM      4  C5  UNL d   1      -0.743  -0.510   1.889  0.00  0.00    -0.004 A 
ATOM      5  C6  UNL d   1      -1.779  -0.055   2.704  0.00  0.00     0.002 A 
ATOM      6  C7  UNL d   1      -2.960  -0.790   2.808  0.00  0.00     0.002 A 
ENDROOT
BRANCH   1   7
ATOM      7  C1  UNL d   1      -4.372  -2.806   2.248  0.00  0.00     0.055 C 
ATOM      8  C   UNL d   1      -4.074  -4.296   2.166  0.00  0.00     0.019 C 
ENDBRANCH   1   7
TORSDOF 1
ENDMDL
