MODEL 1
REMARK minimizedAffinity 10.7706881
REMARK minimizedRMSD -1
REMARK  1 active torsions:
REMARK  status: ('A' for Active; 'I' for Inactive)
REMARK    1  A    between atoms: C1_2  and  C2_3 
ROOT
ATOM      1  C2  UNL d   1      -3.400  -5.693  -4.916  0.00  0.00    -0.077 A 
ATOM      2  C3  UNL d   1      -2.875  -5.053  -3.785  0.00  0.00     0.002 A 
ATOM      3  C4  UNL d   1      -1.519  -4.728  -3.723  0.00  0.00     0.002 A 
ATOM      4  C5  UNL d   1      -0.678  -5.035  -4.791  0.00  0.00    -0.004 A 
ATOM      5  C6  UNL d   1      -1.190  -5.673  -5.920  0.00  0.00     0.002 A 
ATOM      6  C7  UNL d   1      -2.545  -6.000  -5.983  0.00  0.00     0.002 A 
ENDROOT
BRANCH   1   7
ATOM      7  C1  UNL d   1      -4.872  -6.000  -5.005  0.00  0.00     0.055 C 
ATOM      8  C   UNL d   1      -5.703  -4.725  -5.035  0.00  0.00     0.019 C 
ENDBRANCH   1   7
TORSDOF 1
ENDMDL
