MODEL 1
REMARK minimizedAffinity 9.09225368
REMARK minimizedRMSD -1
REMARK  1 active torsions:
REMARK  status: ('A' for Active; 'I' for Inactive)
REMARK    1  A    between atoms: C1_2  and  C2_3 
ROOT
ATOM      1  C2  UNL d   1      -4.053   0.679   1.834  0.00  0.00    -0.077 A 
ATOM      2  C3  UNL d   1      -3.327  -0.434   1.388  0.00  0.00     0.002 A 
ATOM      3  C4  UNL d   1      -2.162  -0.829   2.048  0.00  0.00     0.002 A 
ATOM      4  C5  UNL d   1      -1.715  -0.118   3.160  0.00  0.00    -0.004 A 
ATOM      5  C6  UNL d   1      -2.428   0.991   3.610  0.00  0.00     0.002 A 
ATOM      6  C7  UNL d   1      -3.593   1.388   2.951  0.00  0.00     0.002 A 
ENDROOT
BRANCH   1   7
ATOM      7  C1  UNL d   1      -5.337   1.076   1.153  0.00  0.00     0.055 C 
ATOM      8  C   UNL d   1      -5.336   0.668  -0.312  0.00  0.00     0.019 C 
ENDBRANCH   1   7
TORSDOF 1
ENDMDL
