MODEL 1
REMARK minimizedAffinity 10.8168945
REMARK minimizedRMSD -1
REMARK  1 active torsions:
REMARK  status: ('A' for Active; 'I' for Inactive)
REMARK    1  A    between atoms: C1_2  and  C2_3 
ROOT
ATOM      1  C2  UNL d   1      -1.644  -4.377  -3.734  0.00  0.00    -0.077 A 
ATOM      2  C3  UNL d   1      -0.617  -4.510  -4.679  0.00  0.00     0.002 A 
ATOM      3  C4  UNL d   1      -0.793  -5.317  -5.805  0.00  0.00     0.002 A 
ATOM      4  C5  UNL d   1      -1.995  -5.992  -5.999  0.00  0.00    -0.004 A 
ATOM      5  C6  UNL d   1      -3.023  -5.868  -5.065  0.00  0.00     0.002 A 
ATOM      6  C7  UNL d   1      -2.848  -5.064  -3.938  0.00  0.00     0.002 A 
ENDROOT
BRANCH   1   7
ATOM      7  C1  UNL d   1      -1.474  -3.470  -2.544  0.00  0.00     0.055 C 
ATOM      8  C   UNL d   1      -1.408  -2.009  -2.967  0.00  0.00     0.019 C 
ENDBRANCH   1   7
TORSDOF 1
ENDMDL
