MODEL 1
REMARK minimizedAffinity 8.19891262
REMARK minimizedRMSD -1
REMARK  1 active torsions:
REMARK  status: ('A' for Active; 'I' for Inactive)
REMARK    1  A    between atoms: C1_2  and  C2_3 
ROOT
ATOM      1  C2  UNL d   1      -0.257  -1.555   2.350  0.00  0.00    -0.077 A 
ATOM      2  C3  UNL d   1      -1.078  -1.600   1.215  0.00  0.00     0.002 A 
ATOM      3  C4  UNL d   1      -2.183  -0.753   1.110  0.00  0.00     0.002 A 
ATOM      4  C5  UNL d   1      -2.474   0.146   2.133  0.00  0.00    -0.004 A 
ATOM      5  C6  UNL d   1      -1.664   0.197   3.267  0.00  0.00     0.002 A 
ATOM      6  C7  UNL d   1      -0.560  -0.650   3.375  0.00  0.00     0.002 A 
ENDROOT
BRANCH   1   7
ATOM      7  C1  UNL d   1       0.964  -2.433   2.444  0.00  0.00     0.055 C 
ATOM      8  C   UNL d   1       1.853  -2.023   3.609  0.00  0.00     0.019 C 
ENDBRANCH   1   7
TORSDOF 1
ENDMDL
