MODEL 1
REMARK minimizedAffinity 8.62110329
REMARK minimizedRMSD -1
REMARK  1 active torsions:
REMARK  status: ('A' for Active; 'I' for Inactive)
REMARK    1  A    between atoms: C1_2  and  C2_3 
ROOT
ATOM      1  C2  UNL d   1      -1.177  -4.438  -3.290  0.00  0.00    -0.077 A 
ATOM      2  C3  UNL d   1      -0.039  -4.464  -4.108  0.00  0.00     0.002 A 
ATOM      3  C4  UNL d   1      -0.022  -5.238  -5.270  0.00  0.00     0.002 A 
ATOM      4  C5  UNL d   1      -1.141  -5.989  -5.625  0.00  0.00    -0.004 A 
ATOM      5  C6  UNL d   1      -2.277  -5.971  -4.816  0.00  0.00     0.002 A 
ATOM      6  C7  UNL d   1      -2.295  -5.199  -3.655  0.00  0.00     0.002 A 
ENDROOT
BRANCH   1   7
ATOM      7  C1  UNL d   1      -1.215  -3.565  -2.063  0.00  0.00     0.055 C 
ATOM      8  C   UNL d   1      -1.218  -4.399  -0.790  0.00  0.00     0.019 C 
ENDBRANCH   1   7
TORSDOF 1
ENDMDL
