MODEL 1
REMARK minimizedAffinity 2.7059741
REMARK minimizedRMSD -1
REMARK  1 active torsions:
REMARK  status: ('A' for Active; 'I' for Inactive)
REMARK    1  A    between atoms: C1_2  and  C2_3 
ROOT
ATOM      1  C2  UNL d   1       3.240  -4.066   0.390  0.00  0.00    -0.077 A 
ATOM      2  C3  UNL d   1       3.418  -5.395   0.799  0.00  0.00     0.002 A 
ATOM      3  C4  UNL d   1       4.674  -6.000   0.710  0.00  0.00     0.002 A 
ATOM      4  C5  UNL d   1       5.761  -5.282   0.216  0.00  0.00    -0.004 A 
ATOM      5  C6  UNL d   1       5.593  -3.960  -0.196  0.00  0.00     0.002 A 
ATOM      6  C7  UNL d   1       4.339  -3.355  -0.108  0.00  0.00     0.002 A 
ENDROOT
BRANCH   1   7
ATOM      7  C1  UNL d   1       1.898  -3.397   0.532  0.00  0.00     0.055 C 
ATOM      8  C   UNL d   1       0.901  -3.937  -0.483  0.00  0.00     0.019 C 
ENDBRANCH   1   7
TORSDOF 1
ENDMDL
