MODEL 1
REMARK minimizedAffinity 0.754748762
REMARK minimizedRMSD -1
REMARK  1 active torsions:
REMARK  status: ('A' for Active; 'I' for Inactive)
REMARK    1  A    between atoms: C1_2  and  C2_3 
ROOT
ATOM      1  C2  UNL d   1       3.221  -3.790   0.414  0.00  0.00    -0.077 A 
ATOM      2  C3  UNL d   1       1.933  -4.345   0.424  0.00  0.00     0.002 A 
ATOM      3  C4  UNL d   1       0.846  -3.598   0.882  0.00  0.00     0.002 A 
ATOM      4  C5  UNL d   1       1.035  -2.291   1.329  0.00  0.00    -0.004 A 
ATOM      5  C6  UNL d   1       2.312  -1.732   1.324  0.00  0.00     0.002 A 
ATOM      6  C7  UNL d   1       3.400  -2.477   0.868  0.00  0.00     0.002 A 
ENDROOT
BRANCH   1   7
ATOM      7  C1  UNL d   1       4.387  -4.577  -0.126  0.00  0.00     0.055 C 
ATOM      8  C   UNL d   1       4.603  -5.859   0.666  0.00  0.00     0.019 C 
ENDBRANCH   1   7
TORSDOF 1
ENDMDL
