MODEL 1
REMARK minimizedAffinity 0.549803495
REMARK minimizedRMSD -1
REMARK  1 active torsions:
REMARK  status: ('A' for Active; 'I' for Inactive)
REMARK    1  A    between atoms: C1_2  and  C2_3 
ROOT
ATOM      1  C2  UNL d   1       3.441  -3.637   0.043  0.00  0.00    -0.077 A 
ATOM      2  C3  UNL d   1       3.612  -2.254   0.202  0.00  0.00     0.002 A 
ATOM      3  C4  UNL d   1       2.535  -1.447   0.575  0.00  0.00     0.002 A 
ATOM      4  C5  UNL d   1       1.282  -2.014   0.798  0.00  0.00    -0.004 A 
ATOM      5  C6  UNL d   1       1.101  -3.388   0.641  0.00  0.00     0.002 A 
ATOM      6  C7  UNL d   1       2.176  -4.196   0.266  0.00  0.00     0.002 A 
ENDROOT
BRANCH   1   7
ATOM      7  C1  UNL d   1       4.612  -4.515  -0.312  0.00  0.00     0.055 C 
ATOM      8  C   UNL d   1       4.829  -5.598   0.736  0.00  0.00     0.019 C 
ENDBRANCH   1   7
TORSDOF 1
ENDMDL
