MODEL 1
REMARK minimizedAffinity -0.299222171
REMARK minimizedRMSD -1
REMARK  1 active torsions:
REMARK  status: ('A' for Active; 'I' for Inactive)
REMARK    1  A    between atoms: C1_2  and  C2_3 
ROOT
ATOM      1  C2  UNL d   1       3.631   3.404  -2.496  0.00  0.00    -0.077 A 
ATOM      2  C3  UNL d   1       2.775   4.138  -3.329  0.00  0.00     0.002 A 
ATOM      3  C4  UNL d   1       1.857   3.484  -4.152  0.00  0.00     0.002 A 
ATOM      4  C5  UNL d   1       1.783   2.092  -4.147  0.00  0.00    -0.004 A 
ATOM      5  C6  UNL d   1       2.631   1.353  -3.324  0.00  0.00     0.002 A 
ATOM      6  C7  UNL d   1       3.550   2.005  -2.501  0.00  0.00     0.002 A 
ENDROOT
BRANCH   1   7
ATOM      7  C1  UNL d   1       4.588   4.110  -1.571  0.00  0.00     0.055 C 
ATOM      8  C   UNL d   1       4.537   5.618  -1.768  0.00  0.00     0.019 C 
ENDBRANCH   1   7
TORSDOF 1
ENDMDL
