MODEL 1
REMARK minimizedAffinity 1.00859523
REMARK minimizedRMSD -1
REMARK  1 active torsions:
REMARK  status: ('A' for Active; 'I' for Inactive)
REMARK    1  A    between atoms: C1_2  and  C2_3 
ROOT
ATOM      1  C2  UNL d   1       3.248  -4.024   0.166  0.00  0.00    -0.077 A 
ATOM      2  C3  UNL d   1       3.124  -2.650   0.417  0.00  0.00     0.002 A 
ATOM      3  C4  UNL d   1       1.867  -2.084   0.642  0.00  0.00     0.002 A 
ATOM      4  C5  UNL d   1       0.727  -2.885   0.622  0.00  0.00    -0.004 A 
ATOM      5  C6  UNL d   1       0.840  -4.252   0.370  0.00  0.00     0.002 A 
ATOM      6  C7  UNL d   1       2.095  -4.819   0.144  0.00  0.00     0.002 A 
ENDROOT
BRANCH   1   7
ATOM      7  C1  UNL d   1       4.607  -4.645  -0.028  0.00  0.00     0.055 C 
ATOM      8  C   UNL d   1       4.704  -5.994   0.669  0.00  0.00     0.019 C 
ENDBRANCH   1   7
TORSDOF 1
ENDMDL
