MODEL 1
REMARK minimizedAffinity 8.49733734
REMARK minimizedRMSD -1
REMARK  0 active torsions:
REMARK  status: ('A' for Active; 'I' for Inactive)
ROOT
ATOM      1  C   UNL d   1      -2.024  -1.157   0.296  0.00  0.00     0.077 C 
ATOM      2  C1  UNL d   1      -0.598  -1.593   0.463  0.00  0.00    -0.074 A 
ATOM      3  C2  UNL d   1      -0.223  -2.922   0.244  0.00  0.00    -0.005 A 
ATOM      4  C3  UNL d   1       1.109  -3.311   0.394  0.00  0.00     0.006 A 
ATOM      5  C4  UNL d   1       2.076  -2.375   0.764  0.00  0.00    -0.005 A 
ATOM      6  C5  UNL d   1       1.720  -1.041   0.985  0.00  0.00    -0.074 A 
ATOM      7  C6  UNL d   1       2.749  -0.022   1.373  0.00  0.00     0.077 C 
ATOM      8  C7  UNL d   1       0.381  -0.657   0.826  0.00  0.00    -0.001 A 
ENDROOT
TORSDOF 0
ENDMDL
