MODEL 1
REMARK minimizedAffinity 0.928490281
REMARK minimizedRMSD -1
REMARK  0 active torsions:
REMARK  status: ('A' for Active; 'I' for Inactive)
ROOT
ATOM      1  C   UNL d   1      -0.573  -2.620   0.921  0.00  0.00     0.077 C 
ATOM      2  C1  UNL d   1       0.889  -2.601   0.589  0.00  0.00    -0.074 A 
ATOM      3  C2  UNL d   1       1.613  -1.404   0.594  0.00  0.00    -0.005 A 
ATOM      4  C3  UNL d   1       2.974  -1.404   0.292  0.00  0.00     0.006 A 
ATOM      5  C4  UNL d   1       3.626  -2.599  -0.017  0.00  0.00    -0.005 A 
ATOM      6  C5  UNL d   1       2.919  -3.806  -0.025  0.00  0.00    -0.074 A 
ATOM      7  C6  UNL d   1       3.606  -5.100  -0.346  0.00  0.00     0.077 C 
ATOM      8  C7  UNL d   1       1.553  -3.799   0.286  0.00  0.00    -0.001 A 
ENDROOT
TORSDOF 0
ENDMDL
