MODEL 1
REMARK minimizedAffinity -4.2092061
REMARK minimizedRMSD -1
REMARK  0 active torsions:
REMARK  status: ('A' for Active; 'I' for Inactive)
ROOT
ATOM      1  C   UNL d   1      -1.592  -2.575   1.084  0.00  0.00     0.077 C 
ATOM      2  C1  UNL d   1      -0.232  -2.035   0.753  0.00  0.00    -0.074 A 
ATOM      3  C2  UNL d   1      -0.013  -0.658   0.642  0.00  0.00    -0.005 A 
ATOM      4  C3  UNL d   1       1.259  -0.170   0.343  0.00  0.00     0.006 A 
ATOM      5  C4  UNL d   1       2.323  -1.053   0.153  0.00  0.00    -0.005 A 
ATOM      6  C5  UNL d   1       2.123  -2.433   0.261  0.00  0.00    -0.074 A 
ATOM      7  C6  UNL d   1       3.258  -3.395   0.069  0.00  0.00     0.077 C 
ATOM      8  C7  UNL d   1       0.843  -2.915   0.569  0.00  0.00    -0.001 A 
ENDROOT
TORSDOF 0
ENDMDL
