MODEL 1
REMARK minimizedAffinity -1.16379893
REMARK minimizedRMSD -1
REMARK  0 active torsions:
REMARK  status: ('A' for Active; 'I' for Inactive)
ROOT
ATOM      1  C   UNL d   1       4.020  -1.980   0.120  0.00  0.00     0.077 C 
ATOM      2  C1  UNL d   1       2.572  -2.353   0.227  0.00  0.00    -0.074 A 
ATOM      3  C2  UNL d   1       2.156  -3.677   0.056  0.00  0.00    -0.005 A 
ATOM      4  C3  UNL d   1       0.806  -4.011   0.167  0.00  0.00     0.006 A 
ATOM      5  C4  UNL d   1      -0.140  -3.025   0.450  0.00  0.00    -0.005 A 
ATOM      6  C5  UNL d   1       0.257  -1.695   0.626  0.00  0.00    -0.074 A 
ATOM      7  C6  UNL d   1      -0.746  -0.625   0.940  0.00  0.00     0.077 C 
ATOM      8  C7  UNL d   1       1.616  -1.369   0.519  0.00  0.00    -0.001 A 
ENDROOT
TORSDOF 0
ENDMDL
