MODEL 1
REMARK minimizedAffinity -0.402131945
REMARK minimizedRMSD -1
REMARK  0 active torsions:
REMARK  status: ('A' for Active; 'I' for Inactive)
ROOT
ATOM      1  C   UNL d   1      -1.878  -0.905   0.508  0.00  0.00     0.077 C 
ATOM      2  C1  UNL d   1      -0.404  -1.165   0.591  0.00  0.00    -0.074 A 
ATOM      3  C2  UNL d   1       0.499  -0.120   0.811  0.00  0.00    -0.005 A 
ATOM      4  C3  UNL d   1       1.867  -0.378   0.895  0.00  0.00     0.006 A 
ATOM      5  C4  UNL d   1       2.346  -1.681   0.759  0.00  0.00    -0.005 A 
ATOM      6  C5  UNL d   1       1.458  -2.739   0.539  0.00  0.00    -0.074 A 
ATOM      7  C6  UNL d   1       1.955  -4.148   0.401  0.00  0.00     0.077 C 
ATOM      8  C7  UNL d   1       0.084  -2.473   0.463  0.00  0.00    -0.001 A 
ENDROOT
TORSDOF 0
ENDMDL
