MODEL 1
REMARK minimizedAffinity -0.859582961
REMARK minimizedRMSD -1
REMARK  0 active torsions:
REMARK  status: ('A' for Active; 'I' for Inactive)
ROOT
ATOM      1  C   UNL d   1       1.324  -4.224   0.328  0.00  0.00     0.077 C 
ATOM      2  C1  UNL d   1       0.833  -2.827   0.564  0.00  0.00    -0.074 A 
ATOM      3  C2  UNL d   1      -0.534  -2.530   0.533  0.00  0.00    -0.005 A 
ATOM      4  C3  UNL d   1      -0.976  -1.228   0.764  0.00  0.00     0.006 A 
ATOM      5  C4  UNL d   1      -0.058  -0.211   1.029  0.00  0.00    -0.005 A 
ATOM      6  C5  UNL d   1       1.312  -0.489   1.066  0.00  0.00    -0.074 A 
ATOM      7  C6  UNL d   1       2.311   0.591   1.359  0.00  0.00     0.077 C 
ATOM      8  C7  UNL d   1       1.748  -1.801   0.839  0.00  0.00    -0.001 A 
ENDROOT
TORSDOF 0
ENDMDL
