MODEL 1
REMARK minimizedAffinity -3.37943125
REMARK minimizedRMSD -1
REMARK  0 active torsions:
REMARK  status: ('A' for Active; 'I' for Inactive)
ROOT
ATOM      1  C   UNL d   1      -1.446  -2.014   1.723  0.00  0.00     0.077 C 
ATOM      2  C1  UNL d   1      -0.093  -1.846   1.098  0.00  0.00    -0.074 A 
ATOM      3  C2  UNL d   1       0.517  -0.589   1.032  0.00  0.00    -0.005 A 
ATOM      4  C3  UNL d   1       1.780  -0.450   0.456  0.00  0.00     0.006 A 
ATOM      5  C4  UNL d   1       2.444  -1.564  -0.058  0.00  0.00    -0.005 A 
ATOM      6  C5  UNL d   1       1.850  -2.829   0.000  0.00  0.00    -0.074 A 
ATOM      7  C6  UNL d   1       2.555  -4.038  -0.539  0.00  0.00     0.077 C 
ATOM      8  C7  UNL d   1       0.584  -2.962   0.586  0.00  0.00    -0.001 A 
ENDROOT
TORSDOF 0
ENDMDL
