MODEL 1
REMARK minimizedAffinity -3.54084611
REMARK minimizedRMSD -1
REMARK  0 active torsions:
REMARK  status: ('A' for Active; 'I' for Inactive)
ROOT
ATOM      1  C   UNL d   1       4.218  -1.950  -0.202  0.00  0.00     0.077 C 
ATOM      2  C1  UNL d   1       2.756  -2.255  -0.073  0.00  0.00    -0.074 A 
ATOM      3  C2  UNL d   1       2.262  -3.536  -0.341  0.00  0.00    -0.005 A 
ATOM      4  C3  UNL d   1       0.901  -3.807  -0.208  0.00  0.00     0.006 A 
ATOM      5  C4  UNL d   1       0.020  -2.802   0.194  0.00  0.00    -0.005 A 
ATOM      6  C5  UNL d   1       0.495  -1.516   0.467  0.00  0.00    -0.074 A 
ATOM      7  C6  UNL d   1      -0.436  -0.427   0.910  0.00  0.00     0.077 C 
ATOM      8  C7  UNL d   1       1.866  -1.253   0.338  0.00  0.00    -0.001 A 
ENDROOT
TORSDOF 0
ENDMDL
