MODEL 1
REMARK minimizedAffinity -4.22798061
REMARK minimizedRMSD -1
REMARK  0 active torsions:
REMARK  status: ('A' for Active; 'I' for Inactive)
ROOT
ATOM      1  C   UNL d   1       3.178  -3.618  -0.407  0.00  0.00     0.077 C 
ATOM      2  C1  UNL d   1       2.164  -2.583  -0.017  0.00  0.00    -0.074 A 
ATOM      3  C2  UNL d   1       2.545  -1.259   0.222  0.00  0.00    -0.005 A 
ATOM      4  C3  UNL d   1       1.589  -0.305   0.574  0.00  0.00     0.006 A 
ATOM      5  C4  UNL d   1       0.247  -0.666   0.690  0.00  0.00    -0.005 A 
ATOM      6  C5  UNL d   1      -0.153  -1.985   0.454  0.00  0.00    -0.074 A 
ATOM      7  C6  UNL d   1      -1.593  -2.387   0.566  0.00  0.00     0.077 C 
ATOM      8  C7  UNL d   1       0.812  -2.936   0.094  0.00  0.00    -0.001 A 
ENDROOT
TORSDOF 0
ENDMDL
