MODEL 1
REMARK minimizedAffinity 1.94002473
REMARK minimizedRMSD -1
REMARK  0 active torsions:
REMARK  status: ('A' for Active; 'I' for Inactive)
ROOT
ATOM      1  C   UNL d   1      -4.113   0.983   0.432  0.00  0.00     0.077 C 
ATOM      2  C1  UNL d   1      -2.839   0.456   1.022  0.00  0.00    -0.074 A 
ATOM      3  C2  UNL d   1      -2.216   1.112   2.089  0.00  0.00    -0.005 A 
ATOM      4  C3  UNL d   1      -1.036   0.604   2.634  0.00  0.00     0.006 A 
ATOM      5  C4  UNL d   1      -0.469  -0.562   2.119  0.00  0.00    -0.005 A 
ATOM      6  C5  UNL d   1      -1.078  -1.232   1.053  0.00  0.00    -0.074 A 
ATOM      7  C6  UNL d   1      -0.487  -2.492   0.495  0.00  0.00     0.077 C 
ATOM      8  C7  UNL d   1      -2.267  -0.720   0.516  0.00  0.00    -0.001 A 
ENDROOT
TORSDOF 0
ENDMDL
