MODEL 1
REMARK minimizedAffinity -3.08592081
REMARK minimizedRMSD -1
REMARK  0 active torsions:
REMARK  status: ('A' for Active; 'I' for Inactive)
ROOT
ATOM      1  C   UNL d   1       4.237  -2.244   0.735  0.00  0.00     0.077 C 
ATOM      2  C1  UNL d   1       2.765  -2.408   0.504  0.00  0.00    -0.074 A 
ATOM      3  C2  UNL d   1       2.245  -3.607   0.004  0.00  0.00    -0.005 A 
ATOM      4  C3  UNL d   1       0.872  -3.748  -0.197  0.00  0.00     0.006 A 
ATOM      5  C4  UNL d   1       0.006  -2.695   0.100  0.00  0.00    -0.005 A 
ATOM      6  C5  UNL d   1       0.507  -1.490   0.602  0.00  0.00    -0.074 A 
ATOM      7  C6  UNL d   1      -0.410  -0.352   0.936  0.00  0.00     0.077 C 
ATOM      8  C7  UNL d   1       1.888  -1.358   0.808  0.00  0.00    -0.001 A 
ENDROOT
TORSDOF 0
ENDMDL
