MODEL 1
REMARK minimizedAffinity 2.46392798
REMARK minimizedRMSD -1
REMARK  0 active torsions:
REMARK  status: ('A' for Active; 'I' for Inactive)
ROOT
ATOM      1  C   UNL d   1      -1.109   0.008   2.277  0.00  0.00     0.077 C 
ATOM      2  C1  UNL d   1      -0.065  -0.661   1.434  0.00  0.00    -0.074 A 
ATOM      3  C2  UNL d   1       1.048   0.048   0.971  0.00  0.00    -0.005 A 
ATOM      4  C3  UNL d   1       2.016  -0.590   0.196  0.00  0.00     0.006 A 
ATOM      5  C4  UNL d   1       1.881  -1.942  -0.124  0.00  0.00    -0.005 A 
ATOM      6  C5  UNL d   1       0.776  -2.668   0.332  0.00  0.00    -0.074 A 
ATOM      7  C6  UNL d   1       0.622  -4.123   0.006  0.00  0.00     0.077 C 
ATOM      8  C7  UNL d   1      -0.189  -2.021   1.116  0.00  0.00    -0.001 A 
ENDROOT
TORSDOF 0
ENDMDL
