MODEL 1
REMARK minimizedAffinity -2.52809668
REMARK minimizedRMSD -1
REMARK  0 active torsions:
REMARK  status: ('A' for Active; 'I' for Inactive)
ROOT
ATOM      1  C   UNL d   1       1.950  -3.686  -0.659  0.00  0.00     0.077 C 
ATOM      2  C1  UNL d   1       1.439  -2.483   0.077  0.00  0.00    -0.074 A 
ATOM      3  C2  UNL d   1       2.321  -1.523   0.584  0.00  0.00    -0.005 A 
ATOM      4  C3  UNL d   1       1.830  -0.405   1.258  0.00  0.00     0.006 A 
ATOM      5  C4  UNL d   1       0.456  -0.235   1.431  0.00  0.00    -0.005 A 
ATOM      6  C5  UNL d   1      -0.440  -1.184   0.929  0.00  0.00    -0.074 A 
ATOM      7  C6  UNL d   1      -1.921  -1.012   1.098  0.00  0.00     0.077 C 
ATOM      8  C7  UNL d   1       0.060  -2.302   0.247  0.00  0.00    -0.001 A 
ENDROOT
TORSDOF 0
ENDMDL
