MODEL 1
REMARK minimizedAffinity 0.197336435
REMARK minimizedRMSD -1
REMARK  0 active torsions:
REMARK  status: ('A' for Active; 'I' for Inactive)
ROOT
ATOM      1  C   UNL d   1      -1.781  -2.650   1.064  0.00  0.00     0.077 C 
ATOM      2  C1  UNL d   1      -0.427  -2.108   0.718  0.00  0.00    -0.074 A 
ATOM      3  C2  UNL d   1       0.219  -2.489  -0.463  0.00  0.00    -0.005 A 
ATOM      4  C3  UNL d   1       1.475  -1.969  -0.777  0.00  0.00     0.006 A 
ATOM      5  C4  UNL d   1       2.096  -1.065   0.085  0.00  0.00    -0.005 A 
ATOM      6  C5  UNL d   1       1.465  -0.672   1.270  0.00  0.00    -0.074 A 
ATOM      7  C6  UNL d   1       2.115   0.307   2.203  0.00  0.00     0.077 C 
ATOM      8  C7  UNL d   1       0.201  -1.193   1.575  0.00  0.00    -0.001 A 
ENDROOT
TORSDOF 0
ENDMDL
