MODEL 1
REMARK minimizedAffinity -1.89142072
REMARK minimizedRMSD -1
REMARK  0 active torsions:
REMARK  status: ('A' for Active; 'I' for Inactive)
ROOT
ATOM      1  C   UNL d   1       3.997  -2.612  -0.522  0.00  0.00     0.077 C 
ATOM      2  C1  UNL d   1       2.563  -2.523  -0.093  0.00  0.00    -0.074 A 
ATOM      3  C2  UNL d   1       1.744  -3.657  -0.084  0.00  0.00    -0.005 A 
ATOM      4  C3  UNL d   1       0.414  -3.560   0.327  0.00  0.00     0.006 A 
ATOM      5  C4  UNL d   1      -0.109  -2.332   0.732  0.00  0.00    -0.005 A 
ATOM      6  C5  UNL d   1       0.695  -1.188   0.730  0.00  0.00    -0.074 A 
ATOM      7  C6  UNL d   1       0.152   0.139   1.172  0.00  0.00     0.077 C 
ATOM      8  C7  UNL d   1       2.032  -1.294   0.323  0.00  0.00    -0.001 A 
ENDROOT
TORSDOF 0
ENDMDL
