MODEL 1
REMARK minimizedAffinity -3.7912178
REMARK minimizedRMSD -1
REMARK  3 active torsions:
REMARK  status: ('A' for Active; 'I' for Inactive)
REMARK    1  A    between atoms: C3'_2  and  C2'_3 
REMARK    2  A    between atoms: C2'_3  and  C1'_4 
REMARK    3  A    between atoms: C1'_4  and  C1_5 
ROOT
ATOM      1  C1  N4B d   1       1.915  -0.248  -0.753  0.00  0.00    -0.075 A 
ATOM      2  C2  N4B d   1       1.124  -0.567   0.372  0.00  0.00     0.002 A 
ATOM      3  C3  N4B d   1       0.539   0.435   1.106  0.00  0.00     0.002 A 
ATOM      4  C4  N4B d   1       0.744   1.759   0.746  0.00  0.00    -0.004 A 
ATOM      5  C5  N4B d   1       1.489   2.057  -0.358  0.00  0.00     0.002 A 
ATOM      6  C6  N4B d   1       2.080   1.059  -1.107  0.00  0.00     0.002 A 
ENDROOT
BRANCH   1   7
ATOM      7  C1' N4B d   1       2.645  -1.306  -1.536  0.00  0.00     0.057 C 
BRANCH   7   8
ATOM      8  C2' N4B d   1       4.139  -0.996  -1.522  0.00  0.00     0.009 C 
BRANCH   8   9
ATOM      9  C3' N4B d   1       4.526  -0.013  -2.613  0.00  0.00     0.004 C 
ATOM     10  C4' N4B d   1       6.000  -0.003  -2.890  0.00  0.00     0.003 C 
ENDBRANCH   8   9
ENDBRANCH   7   8
ENDBRANCH   1   7
TORSDOF 3
ENDMDL
