MODEL 1
REMARK minimizedAffinity 2.43173742
REMARK minimizedRMSD -1
REMARK  3 active torsions:
REMARK  status: ('A' for Active; 'I' for Inactive)
REMARK    1  A    between atoms: C3'_2  and  C2'_3 
REMARK    2  A    between atoms: C2'_3  and  C1'_4 
REMARK    3  A    between atoms: C1'_4  and  C1_5 
ROOT
ATOM      1  C1  N4B d   1       2.073  -0.558  -0.698  0.00  0.00    -0.075 A 
ATOM      2  C2  N4B d   1       2.316   0.820  -0.504  0.00  0.00     0.002 A 
ATOM      3  C3  N4B d   1       1.637   1.505   0.473  0.00  0.00     0.002 A 
ATOM      4  C4  N4B d   1       0.702   0.842   1.253  0.00  0.00    -0.004 A 
ATOM      5  C5  N4B d   1       0.492  -0.494   1.077  0.00  0.00     0.002 A 
ATOM      6  C6  N4B d   1       1.170  -1.197   0.101  0.00  0.00     0.002 A 
ENDROOT
BRANCH   1   7
ATOM      7  C1' N4B d   1       2.728  -1.331  -1.810  0.00  0.00     0.057 C 
BRANCH   7   8
ATOM      8  C2' N4B d   1       4.239  -1.137  -1.733  0.00  0.00     0.009 C 
BRANCH   8   9
ATOM      9  C3' N4B d   1       4.748  -0.200  -2.815  0.00  0.00     0.004 C 
ATOM     10  C4' N4B d   1       5.995  -0.702  -3.479  0.00  0.00     0.003 C 
ENDBRANCH   8   9
ENDBRANCH   7   8
ENDBRANCH   1   7
TORSDOF 3
ENDMDL
