MODEL 1
REMARK minimizedAffinity 3.78420067
REMARK minimizedRMSD -1
REMARK  3 active torsions:
REMARK  status: ('A' for Active; 'I' for Inactive)
REMARK    1  A    between atoms: C3'_2  and  C2'_3 
REMARK    2  A    between atoms: C2'_3  and  C1'_4 
REMARK    3  A    between atoms: C1'_4  and  C1_5 
ROOT
ATOM      1  C1  N4B d   1       1.345   0.254   0.921  0.00  0.00    -0.075 A 
ATOM      2  C2  N4B d   1       2.095   0.359   2.113  0.00  0.00     0.002 A 
ATOM      3  C3  N4B d   1       2.968   1.404   2.286  0.00  0.00     0.002 A 
ATOM      4  C4  N4B d   1       3.123   2.343   1.276  0.00  0.00    -0.004 A 
ATOM      5  C5  N4B d   1       2.377   2.249   0.138  0.00  0.00     0.002 A 
ATOM      6  C6  N4B d   1       1.492   1.206  -0.047  0.00  0.00     0.002 A 
ENDROOT
BRANCH   1   7
ATOM      7  C1' N4B d   1       0.441  -0.917   0.651  0.00  0.00     0.057 C 
BRANCH   7   8
ATOM      8  C2' N4B d   1       1.069  -1.796  -0.427  0.00  0.00     0.009 C 
BRANCH   8   9
ATOM      9  C3' N4B d   1       2.582  -1.851  -0.306  0.00  0.00     0.004 C 
ATOM     10  C4' N4B d   1       3.271  -1.882  -1.638  0.00  0.00     0.003 C 
ENDBRANCH   8   9
ENDBRANCH   7   8
ENDBRANCH   1   7
TORSDOF 3
ENDMDL
