MODEL 1
REMARK minimizedAffinity 1.1885941
REMARK minimizedRMSD -1
REMARK  3 active torsions:
REMARK  status: ('A' for Active; 'I' for Inactive)
REMARK    1  A    between atoms: C3'_2  and  C2'_3 
REMARK    2  A    between atoms: C2'_3  and  C1'_4 
REMARK    3  A    between atoms: C1'_4  and  C1_5 
ROOT
ATOM      1  C1  N4B d   1       3.251  -0.012  -0.402  0.00  0.00    -0.075 A 
ATOM      2  C2  N4B d   1       3.544   1.227  -1.014  0.00  0.00     0.002 A 
ATOM      3  C3  N4B d   1       4.529   1.306  -1.968  0.00  0.00     0.002 A 
ATOM      4  C4  N4B d   1       5.243   0.168  -2.312  0.00  0.00    -0.004 A 
ATOM      5  C5  N4B d   1       4.937  -1.030  -1.735  0.00  0.00     0.002 A 
ATOM      6  C6  N4B d   1       3.947  -1.125  -0.777  0.00  0.00     0.002 A 
ENDROOT
BRANCH   1   7
ATOM      7  C1' N4B d   1       2.243  -0.131   0.708  0.00  0.00     0.057 C 
BRANCH   7   8
ATOM      8  C2' N4B d   1       0.841  -0.184   0.107  0.00  0.00     0.009 C 
BRANCH   8   9
ATOM      9  C3' N4B d   1       0.461  -1.589  -0.326  0.00  0.00     0.004 C 
ATOM     10  C4' N4B d   1       1.193  -2.651   0.440  0.00  0.00     0.003 C 
ENDBRANCH   8   9
ENDBRANCH   7   8
ENDBRANCH   1   7
TORSDOF 3
ENDMDL
