MODEL 1
REMARK minimizedAffinity 8.10713673
REMARK minimizedRMSD -1
REMARK  0 active torsions:
REMARK  status: ('A' for Active; 'I' for Inactive)
ROOT
ATOM      1  C   UNL d   1      -3.071  -0.385   1.895  0.00  0.00     0.124 A 
ATOM      2  C1  UNL d   1      -3.439  -0.279   0.561  0.00  0.00     0.062 A 
ATOM      3  C2  UNL d   1      -3.345   0.945  -0.096  0.00  0.00     0.162 A 
ATOM      4  C3  UNL d   1      -2.882   2.073   0.581  0.00  0.00    -0.034 A 
ATOM      5  C4  UNL d   1      -2.515   1.958   1.923  0.00  0.00     0.162 A 
ATOM      6  C5  UNL d   1      -2.610   0.733   2.575  0.00  0.00     0.062 A 
ATOM      7  F   UNL d   1      -2.254   0.632   3.864  0.00  0.00    -0.097 F 
ATOM      8  F1  UNL d   1      -2.065   3.023   2.604  0.00  0.00    -0.096 F 
ATOM      9  I   UNL d   1      -2.741   3.905  -0.397  0.00  0.00    -0.060 I 
ATOM     10  F2  UNL d   1      -3.707   1.018  -1.385  0.00  0.00    -0.096 F 
ATOM     11  F3  UNL d   1      -3.886  -1.358  -0.098  0.00  0.00    -0.097 F 
ATOM     12  F4  UNL d   1      -3.163  -1.564   2.524  0.00  0.00    -0.092 F 
ENDROOT
TORSDOF 0
ENDMDL
