MODEL 1
REMARK minimizedAffinity 1.6723417
REMARK minimizedRMSD -1
REMARK  0 active torsions:
REMARK  status: ('A' for Active; 'I' for Inactive)
ROOT
ATOM      1  C   UNL d   1      -2.681  -0.932   3.042  0.00  0.00     0.124 A 
ATOM      2  C1  UNL d   1      -2.778   0.444   3.200  0.00  0.00     0.062 A 
ATOM      3  C2  UNL d   1      -2.428   1.295   2.156  0.00  0.00     0.162 A 
ATOM      4  C3  UNL d   1      -1.980   0.773   0.943  0.00  0.00    -0.034 A 
ATOM      5  C4  UNL d   1      -1.884  -0.611   0.791  0.00  0.00     0.162 A 
ATOM      6  C5  UNL d   1      -2.235  -1.458   1.838  0.00  0.00     0.062 A 
ATOM      7  F   UNL d   1      -2.141  -2.787   1.683  0.00  0.00    -0.097 F 
ATOM      8  F1  UNL d   1      -1.457  -1.147  -0.362  0.00  0.00    -0.096 F 
ATOM      9  I   UNL d   1      -1.456   2.042  -0.621  0.00  0.00    -0.060 I 
ATOM     10  F2  UNL d   1      -2.531   2.620   2.337  0.00  0.00    -0.096 F 
ATOM     11  F3  UNL d   1      -3.208   0.955   4.363  0.00  0.00    -0.097 F 
ATOM     12  F4  UNL d   1      -3.018  -1.748   4.048  0.00  0.00    -0.092 F 
ENDROOT
TORSDOF 0
ENDMDL
