MODEL 1
REMARK minimizedAffinity 18.1112232
REMARK minimizedRMSD -1
REMARK  0 active torsions:
REMARK  status: ('A' for Active; 'I' for Inactive)
ROOT
ATOM      1  C   UNL d   1      -0.394  -0.297  -2.695  0.00  0.00     0.124 A 
ATOM      2  C1  UNL d   1      -0.806   0.803  -1.955  0.00  0.00     0.062 A 
ATOM      3  C2  UNL d   1      -1.525   0.624  -0.776  0.00  0.00     0.162 A 
ATOM      4  C3  UNL d   1      -1.836  -0.661  -0.330  0.00  0.00    -0.034 A 
ATOM      5  C4  UNL d   1      -1.419  -1.762  -1.080  0.00  0.00     0.162 A 
ATOM      6  C5  UNL d   1      -0.701  -1.577  -2.257  0.00  0.00     0.062 A 
ATOM      7  F   UNL d   1      -0.304  -2.641  -2.971  0.00  0.00    -0.097 F 
ATOM      8  F1  UNL d   1      -1.700  -3.010  -0.680  0.00  0.00    -0.096 F 
ATOM      9  I   UNL d   1      -2.910  -0.933   1.432  0.00  0.00    -0.060 I 
ATOM     10  F2  UNL d   1      -1.910   1.704  -0.081  0.00  0.00    -0.096 F 
ATOM     11  F3  UNL d   1      -0.512   2.041  -2.376  0.00  0.00    -0.097 F 
ATOM     12  F4  UNL d   1       0.296  -0.121  -3.829  0.00  0.00    -0.092 F 
ENDROOT
TORSDOF 0
ENDMDL
