MODEL 1
REMARK minimizedAffinity 6.90433407
REMARK minimizedRMSD -1
REMARK  0 active torsions:
REMARK  status: ('A' for Active; 'I' for Inactive)
ROOT
ATOM      1  C   UNL d   1      -3.192   2.860   0.087  0.00  0.00     0.124 A 
ATOM      2  C1  UNL d   1      -3.671   1.722  -0.546  0.00  0.00     0.062 A 
ATOM      3  C2  UNL d   1      -3.536   0.475   0.058  0.00  0.00     0.162 A 
ATOM      4  C3  UNL d   1      -2.919   0.360   1.303  0.00  0.00    -0.034 A 
ATOM      5  C4  UNL d   1      -2.438   1.510   1.933  0.00  0.00     0.162 A 
ATOM      6  C5  UNL d   1      -2.576   2.753   1.325  0.00  0.00     0.062 A 
ATOM      7  F   UNL d   1      -2.111   3.852   1.938  0.00  0.00    -0.097 F 
ATOM      8  F1  UNL d   1      -1.840   1.435   3.132  0.00  0.00    -0.096 F 
ATOM      9  I   UNL d   1      -2.715  -1.502   2.210  0.00  0.00    -0.060 I 
ATOM     10  F2  UNL d   1      -4.009  -0.608  -0.577  0.00  0.00    -0.096 F 
ATOM     11  F3  UNL d   1      -4.266   1.823  -1.744  0.00  0.00    -0.097 F 
ATOM     12  F4  UNL d   1      -3.322   4.058  -0.498  0.00  0.00    -0.092 F 
ENDROOT
TORSDOF 0
ENDMDL
