MODEL 1
REMARK minimizedAffinity 19.2015285
REMARK minimizedRMSD -1
REMARK  0 active torsions:
REMARK  status: ('A' for Active; 'I' for Inactive)
ROOT
ATOM      1  C   UNL d   1       4.789  -0.216   2.645  0.00  0.00     0.124 A 
ATOM      2  C1  UNL d   1       4.347   0.806   1.816  0.00  0.00     0.062 A 
ATOM      3  C2  UNL d   1       4.458   2.133   2.221  0.00  0.00     0.162 A 
ATOM      4  C3  UNL d   1       5.015   2.446   3.460  0.00  0.00    -0.034 A 
ATOM      5  C4  UNL d   1       5.458   1.413   4.289  0.00  0.00     0.162 A 
ATOM      6  C5  UNL d   1       5.344   0.088   3.880  0.00  0.00     0.062 A 
ATOM      7  F   UNL d   1       5.772  -0.897   4.682  0.00  0.00    -0.097 F 
ATOM      8  F1  UNL d   1       5.999   1.679   5.487  0.00  0.00    -0.096 F 
ATOM      9  I   UNL d   1       5.184   4.429   4.069  0.00  0.00    -0.060 I 
ATOM     10  F2  UNL d   1       4.022   3.100   1.400  0.00  0.00    -0.096 F 
ATOM     11  F3  UNL d   1       3.809   0.514   0.623  0.00  0.00    -0.097 F 
ATOM     12  F4  UNL d   1       4.680  -1.492   2.254  0.00  0.00    -0.092 F 
ENDROOT
TORSDOF 0
ENDMDL
