MODEL 1
REMARK minimizedAffinity 16.4938202
REMARK minimizedRMSD -1
REMARK  0 active torsions:
REMARK  status: ('A' for Active; 'I' for Inactive)
ROOT
ATOM      1  C   UNL d   1       5.108   3.349   3.645  0.00  0.00     0.124 A 
ATOM      2  C1  UNL d   1       4.654   2.592   2.573  0.00  0.00     0.062 A 
ATOM      3  C2  UNL d   1       4.650   1.202   2.650  0.00  0.00     0.162 A 
ATOM      4  C3  UNL d   1       5.102   0.560   3.803  0.00  0.00    -0.034 A 
ATOM      5  C4  UNL d   1       5.558   1.328   4.875  0.00  0.00     0.162 A 
ATOM      6  C5  UNL d   1       5.560   2.716   4.794  0.00  0.00     0.062 A 
ATOM      7  F   UNL d   1       5.999   3.446   5.830  0.00  0.00    -0.097 F 
ATOM      8  F1  UNL d   1       5.999   0.742   5.999  0.00  0.00    -0.096 F 
ATOM      9  I   UNL d   1       5.098  -1.518   3.921  0.00  0.00    -0.060 I 
ATOM     10  F2  UNL d   1       4.206   0.496   1.600  0.00  0.00    -0.096 F 
ATOM     11  F3  UNL d   1       4.218   3.201   1.461  0.00  0.00    -0.097 F 
ATOM     12  F4  UNL d   1       5.111   4.686   3.568  0.00  0.00    -0.092 F 
ENDROOT
TORSDOF 0
ENDMDL
