MODEL 1
REMARK minimizedAffinity 11.2573242
REMARK minimizedRMSD -1
REMARK  0 active torsions:
REMARK  status: ('A' for Active; 'I' for Inactive)
ROOT
ATOM      1  C   UNL d   1       5.026   0.073   3.790  0.00  0.00     0.124 A 
ATOM      2  C1  UNL d   1       5.515   0.753   4.897  0.00  0.00     0.062 A 
ATOM      3  C2  UNL d   1       5.520   2.145   4.917  0.00  0.00     0.162 A 
ATOM      4  C3  UNL d   1       5.034   2.867   3.827  0.00  0.00    -0.034 A 
ATOM      5  C4  UNL d   1       4.544   2.176   2.717  0.00  0.00     0.162 A 
ATOM      6  C5  UNL d   1       4.541   0.785   2.702  0.00  0.00     0.062 A 
ATOM      7  F   UNL d   1       4.068   0.129   1.631  0.00  0.00    -0.097 F 
ATOM      8  F1  UNL d   1       4.069   2.838   1.652  0.00  0.00    -0.096 F 
ATOM      9  I   UNL d   1       5.040   4.948   3.853  0.00  0.00    -0.060 I 
ATOM     10  F2  UNL d   1       5.998   2.776   6.000  0.00  0.00    -0.096 F 
ATOM     11  F3  UNL d   1       5.984   0.068   5.949  0.00  0.00    -0.097 F 
ATOM     12  F4  UNL d   1       5.023  -1.266   3.773  0.00  0.00    -0.092 F 
ENDROOT
TORSDOF 0
ENDMDL
