MODEL 1
REMARK minimizedAffinity 8.44607353
REMARK minimizedRMSD -1
REMARK  0 active torsions:
REMARK  status: ('A' for Active; 'I' for Inactive)
ROOT
ATOM      1  C   UNL d   1      -3.552   3.410   0.073  0.00  0.00     0.124 A 
ATOM      2  C1  UNL d   1      -3.989   2.245  -0.543  0.00  0.00     0.062 A 
ATOM      3  C2  UNL d   1      -3.745   1.008   0.045  0.00  0.00     0.162 A 
ATOM      4  C3  UNL d   1      -3.061   0.928   1.258  0.00  0.00    -0.034 A 
ATOM      5  C4  UNL d   1      -2.623   2.103   1.871  0.00  0.00     0.162 A 
ATOM      6  C5  UNL d   1      -2.869   3.337   1.279  0.00  0.00     0.062 A 
ATOM      7  F   UNL d   1      -2.446   4.461   1.876  0.00  0.00    -0.097 F 
ATOM      8  F1  UNL d   1      -1.962   2.062   3.038  0.00  0.00    -0.096 F 
ATOM      9  I   UNL d   1      -2.694  -0.921   2.141  0.00  0.00    -0.060 I 
ATOM     10  F2  UNL d   1      -4.179  -0.101  -0.573  0.00  0.00    -0.096 F 
ATOM     11  F3  UNL d   1      -4.648   2.312  -1.709  0.00  0.00    -0.097 F 
ATOM     12  F4  UNL d   1      -3.787   4.599  -0.496  0.00  0.00    -0.092 F 
ENDROOT
TORSDOF 0
ENDMDL
