MODEL 1
REMARK minimizedAffinity 17.2009277
REMARK minimizedRMSD -1
REMARK  0 active torsions:
REMARK  status: ('A' for Active; 'I' for Inactive)
ROOT
ATOM      1  C   UNL d   1      -0.441  -1.037  -1.449  0.00  0.00     0.124 A 
ATOM      2  C1  UNL d   1      -1.725  -1.039  -0.921  0.00  0.00     0.062 A 
ATOM      3  C2  UNL d   1      -2.349   0.161  -0.594  0.00  0.00     0.162 A 
ATOM      4  C3  UNL d   1      -1.690   1.374  -0.793  0.00  0.00    -0.034 A 
ATOM      5  C4  UNL d   1      -0.399   1.368  -1.324  0.00  0.00     0.162 A 
ATOM      6  C5  UNL d   1       0.221   0.166  -1.649  0.00  0.00     0.062 A 
ATOM      7  F   UNL d   1       1.461   0.170  -2.159  0.00  0.00    -0.097 F 
ATOM      8  F1  UNL d   1       0.263   2.517  -1.529  0.00  0.00    -0.096 F 
ATOM      9  I   UNL d   1      -2.620   3.171  -0.305  0.00  0.00    -0.060 I 
ATOM     10  F2  UNL d   1      -3.590   0.129  -0.086  0.00  0.00    -0.096 F 
ATOM     11  F3  UNL d   1      -2.366  -2.200  -0.726  0.00  0.00    -0.097 F 
ATOM     12  F4  UNL d   1       0.157  -2.193  -1.762  0.00  0.00    -0.092 F 
ENDROOT
TORSDOF 0
ENDMDL
