MODEL 1
REMARK minimizedAffinity 1.35333169
REMARK minimizedRMSD -1
REMARK  0 active torsions:
REMARK  status: ('A' for Active; 'I' for Inactive)
ROOT
ATOM      1  C   UNL d   1      -0.663  -4.523   0.328  0.00  0.00     0.124 A 
ATOM      2  C1  UNL d   1       0.158  -4.730   1.428  0.00  0.00     0.062 A 
ATOM      3  C2  UNL d   1       1.191  -3.839   1.707  0.00  0.00     0.162 A 
ATOM      4  C3  UNL d   1       1.409  -2.733   0.886  0.00  0.00    -0.034 A 
ATOM      5  C4  UNL d   1       0.579  -2.533  -0.219  0.00  0.00     0.162 A 
ATOM      6  C5  UNL d   1      -0.452  -3.425  -0.494  0.00  0.00     0.062 A 
ATOM      7  F   UNL d   1      -1.244  -3.224  -1.557  0.00  0.00    -0.097 F 
ATOM      8  F1  UNL d   1       0.760  -1.479  -1.030  0.00  0.00    -0.096 F 
ATOM      9  I   UNL d   1       2.952  -1.400   1.300  0.00  0.00    -0.060 I 
ATOM     10  F2  UNL d   1       1.969  -4.064   2.777  0.00  0.00    -0.096 F 
ATOM     11  F3  UNL d   1      -0.043  -5.790   2.223  0.00  0.00    -0.097 F 
ATOM     12  F4  UNL d   1      -1.655  -5.381   0.061  0.00  0.00    -0.092 F 
ENDROOT
TORSDOF 0
ENDMDL
