MODEL 1
REMARK minimizedAffinity 22.7177887
REMARK minimizedRMSD -1
REMARK  0 active torsions:
REMARK  status: ('A' for Active; 'I' for Inactive)
ROOT
ATOM      1  C   UNL d   1       4.857   0.450   2.870  0.00  0.00     0.124 A 
ATOM      2  C1  UNL d   1       5.434   0.945   4.030  0.00  0.00     0.062 A 
ATOM      3  C2  UNL d   1       5.431   2.314   4.285  0.00  0.00     0.162 A 
ATOM      4  C3  UNL d   1       4.847   3.197   3.377  0.00  0.00    -0.034 A 
ATOM      5  C4  UNL d   1       4.269   2.691   2.211  0.00  0.00     0.162 A 
ATOM      6  C5  UNL d   1       4.275   1.323   1.961  0.00  0.00     0.062 A 
ATOM      7  F   UNL d   1       3.717   0.846   0.839  0.00  0.00    -0.097 F 
ATOM      8  F1  UNL d   1       3.699   3.512   1.316  0.00  0.00    -0.096 F 
ATOM      9  I   UNL d   1       4.840   5.244   3.753  0.00  0.00    -0.060 I 
ATOM     10  F2  UNL d   1       5.996   2.765   5.415  0.00  0.00    -0.096 F 
ATOM     11  F3  UNL d   1       5.998   0.104   4.909  0.00  0.00    -0.097 F 
ATOM     12  F4  UNL d   1       4.862  -0.867   2.627  0.00  0.00    -0.092 F 
ENDROOT
TORSDOF 0
ENDMDL
