MODEL 1
REMARK minimizedAffinity 2.74770164
REMARK minimizedRMSD -1
REMARK  0 active torsions:
REMARK  status: ('A' for Active; 'I' for Inactive)
ROOT
ATOM      1  C   UNL d   1       2.668  -0.086   1.134  0.00  0.00     0.124 A 
ATOM      2  C1  UNL d   1       2.780  -1.228   1.916  0.00  0.00     0.062 A 
ATOM      3  C2  UNL d   1       3.495  -1.191   3.109  0.00  0.00     0.162 A 
ATOM      4  C3  UNL d   1       4.105  -0.009   3.529  0.00  0.00    -0.034 A 
ATOM      5  C4  UNL d   1       3.989   1.135   2.736  0.00  0.00     0.162 A 
ATOM      6  C5  UNL d   1       3.273   1.093   1.545  0.00  0.00     0.062 A 
ATOM      7  F   UNL d   1       3.166   2.197   0.790  0.00  0.00    -0.097 F 
ATOM      8  F1  UNL d   1       4.563   2.288   3.110  0.00  0.00    -0.096 F 
ATOM      9  I   UNL d   1       5.176   0.049   5.312  0.00  0.00    -0.060 I 
ATOM     10  F2  UNL d   1       3.587  -2.309   3.845  0.00  0.00    -0.096 F 
ATOM     11  F3  UNL d   1       2.197  -2.369   1.521  0.00  0.00    -0.097 F 
ATOM     12  F4  UNL d   1       1.980  -0.124  -0.014  0.00  0.00    -0.092 F 
ENDROOT
TORSDOF 0
ENDMDL
