MODEL 1
REMARK minimizedAffinity 11.1912851
REMARK minimizedRMSD -1
REMARK  0 active torsions:
REMARK  status: ('A' for Active; 'I' for Inactive)
ROOT
ATOM      1  C   UNL d   1       5.069   2.352   3.765  0.00  0.00     0.124 A 
ATOM      2  C1  UNL d   1       5.234   1.206   4.530  0.00  0.00     0.062 A 
ATOM      3  C2  UNL d   1       4.606   0.021   4.160  0.00  0.00     0.162 A 
ATOM      4  C3  UNL d   1       3.807  -0.026   3.017  0.00  0.00    -0.034 A 
ATOM      5  C4  UNL d   1       3.645   1.131   2.253  0.00  0.00     0.162 A 
ATOM      6  C5  UNL d   1       4.275   2.314   2.627  0.00  0.00     0.062 A 
ATOM      7  F   UNL d   1       4.114   3.420   1.886  0.00  0.00    -0.097 F 
ATOM      8  F1  UNL d   1       2.884   1.122   1.148  0.00  0.00    -0.096 F 
ATOM      9  I   UNL d   1       2.866  -1.796   2.460  0.00  0.00    -0.060 I 
ATOM     10  F2  UNL d   1       4.783  -1.071   4.918  0.00  0.00    -0.096 F 
ATOM     11  F3  UNL d   1       6.000   1.241   5.630  0.00  0.00    -0.097 F 
ATOM     12  F4  UNL d   1       5.674   3.492   4.124  0.00  0.00    -0.092 F 
ENDROOT
TORSDOF 0
ENDMDL
