MODEL 1
REMARK minimizedAffinity 1.26294029
REMARK minimizedRMSD -1
REMARK  0 active torsions:
REMARK  status: ('A' for Active; 'I' for Inactive)
ROOT
ATOM      1  C   UNL d   1       4.512   0.725   3.711  0.00  0.00     0.124 A 
ATOM      2  C1  UNL d   1       4.330  -0.431   4.458  0.00  0.00     0.062 A 
ATOM      3  C2  UNL d   1       3.619  -1.503   3.926  0.00  0.00     0.162 A 
ATOM      4  C3  UNL d   1       3.085  -1.425   2.640  0.00  0.00    -0.034 A 
ATOM      5  C4  UNL d   1       3.271  -0.259   1.896  0.00  0.00     0.162 A 
ATOM      6  C5  UNL d   1       3.982   0.810   2.431  0.00  0.00     0.062 A 
ATOM      7  F   UNL d   1       4.157   1.926   1.708  0.00  0.00    -0.097 F 
ATOM      8  F1  UNL d   1       2.771  -0.150   0.656  0.00  0.00    -0.096 F 
ATOM      9  I   UNL d   1       2.021  -3.026   1.842  0.00  0.00    -0.060 I 
ATOM     10  F2  UNL d   1       3.459  -2.607   4.670  0.00  0.00    -0.096 F 
ATOM     11  F3  UNL d   1       4.840  -0.515   5.695  0.00  0.00    -0.097 F 
ATOM     12  F4  UNL d   1       5.195   1.756   4.225  0.00  0.00    -0.092 F 
ENDROOT
TORSDOF 0
ENDMDL
