MODEL 1
REMARK minimizedAffinity 5.69496202
REMARK minimizedRMSD -1
REMARK  0 active torsions:
REMARK  status: ('A' for Active; 'I' for Inactive)
ROOT
ATOM      1  C   UNL d   1      -2.958   2.536   0.376  0.00  0.00     0.124 A 
ATOM      2  C1  UNL d   1      -2.844   2.652   1.754  0.00  0.00     0.062 A 
ATOM      3  C2  UNL d   1      -3.050   1.543   2.570  0.00  0.00     0.162 A 
ATOM      4  C3  UNL d   1      -3.371   0.307   2.009  0.00  0.00    -0.034 A 
ATOM      5  C4  UNL d   1      -3.486   0.198   0.622  0.00  0.00     0.162 A 
ATOM      6  C5  UNL d   1      -3.279   1.309  -0.189  0.00  0.00     0.062 A 
ATOM      7  F   UNL d   1      -3.390   1.195  -1.520  0.00  0.00    -0.097 F 
ATOM      8  F1  UNL d   1      -3.793  -0.975   0.050  0.00  0.00    -0.096 F 
ATOM      9  I   UNL d   1      -3.680  -1.354   3.225  0.00  0.00    -0.060 I 
ATOM     10  F2  UNL d   1      -2.933   1.684   3.899  0.00  0.00    -0.096 F 
ATOM     11  F3  UNL d   1      -2.535   3.836   2.303  0.00  0.00    -0.097 F 
ATOM     12  F4  UNL d   1      -2.761   3.605  -0.406  0.00  0.00    -0.092 F 
ENDROOT
TORSDOF 0
ENDMDL
