MODEL 1
REMARK minimizedAffinity 3.35009456
REMARK minimizedRMSD -1
REMARK  0 active torsions:
REMARK  status: ('A' for Active; 'I' for Inactive)
ROOT
ATOM      1  C   UNL d   1      -3.262  -0.421   1.459  0.00  0.00     0.124 A 
ATOM      2  C1  UNL d   1      -3.732  -0.161   0.180  0.00  0.00     0.062 A 
ATOM      3  C2  UNL d   1      -3.796   1.148  -0.290  0.00  0.00     0.162 A 
ATOM      4  C3  UNL d   1      -3.388   2.207   0.521  0.00  0.00    -0.034 A 
ATOM      5  C4  UNL d   1      -2.918   1.938   1.807  0.00  0.00     0.162 A 
ATOM      6  C5  UNL d   1      -2.855   0.628   2.272  0.00  0.00     0.062 A 
ATOM      7  F   UNL d   1      -2.401   0.379   3.509  0.00  0.00    -0.097 F 
ATOM      8  F1  UNL d   1      -2.517   2.933   2.613  0.00  0.00    -0.096 F 
ATOM      9  I   UNL d   1      -3.483   4.166  -0.178  0.00  0.00    -0.060 I 
ATOM     10  F2  UNL d   1      -4.254   1.370  -1.531  0.00  0.00    -0.096 F 
ATOM     11  F3  UNL d   1      -4.126  -1.173  -0.607  0.00  0.00    -0.097 F 
ATOM     12  F4  UNL d   1      -3.202  -1.681   1.909  0.00  0.00    -0.092 F 
ENDROOT
TORSDOF 0
ENDMDL
