MODEL 1
REMARK minimizedAffinity 6.03173733
REMARK minimizedRMSD -1
REMARK  0 active torsions:
REMARK  status: ('A' for Active; 'I' for Inactive)
ROOT
ATOM      1  C   UNL d   1       0.173  -4.014   0.803  0.00  0.00     0.124 A 
ATOM      2  C1  UNL d   1       1.286  -4.067  -0.024  0.00  0.00     0.062 A 
ATOM      3  C2  UNL d   1       1.393  -3.204  -1.111  0.00  0.00     0.162 A 
ATOM      4  C3  UNL d   1       0.382  -2.280  -1.378  0.00  0.00    -0.034 A 
ATOM      5  C4  UNL d   1      -0.735  -2.234  -0.542  0.00  0.00     0.162 A 
ATOM      6  C5  UNL d   1      -0.837  -3.098   0.543  0.00  0.00     0.062 A 
ATOM      7  F   UNL d   1      -1.914  -3.046   1.341  0.00  0.00    -0.097 F 
ATOM      8  F1  UNL d   1      -1.725  -1.358  -0.770  0.00  0.00    -0.096 F 
ATOM      9  I   UNL d   1       0.537  -0.989  -3.003  0.00  0.00    -0.060 I 
ATOM     10  F2  UNL d   1       2.480  -3.277  -1.893  0.00  0.00    -0.096 F 
ATOM     11  F3  UNL d   1       2.263  -4.951   0.225  0.00  0.00    -0.097 F 
ATOM     12  F4  UNL d   1       0.073  -4.846   1.848  0.00  0.00    -0.092 F 
ENDROOT
TORSDOF 0
ENDMDL
