MODEL 1
REMARK minimizedAffinity -2.52662253
REMARK minimizedRMSD -1
REMARK  0 active torsions:
REMARK  status: ('A' for Active; 'I' for Inactive)
ROOT
ATOM      1  C   UNL d   1       0.436   3.853  -3.852  0.00  0.00     0.023 A 
ATOM      2  C1  UNL d   1      -0.527   3.642  -4.839  0.00  0.00     0.003 A 
ATOM      3  C2  UNL d   1      -1.630   2.827  -4.576  0.00  0.00     0.048 A 
ATOM      4  C3  UNL d   1      -1.765   2.227  -3.325  0.00  0.00     0.023 A 
ATOM      5  C4  UNL d   1      -0.804   2.437  -2.334  0.00  0.00     0.048 A 
ATOM      6  C5  UNL d   1       0.298   3.252  -2.601  0.00  0.00     0.003 A 
ATOM      7  I   UNL d   1      -3.406   1.014  -2.931  0.00  0.00    -0.146 I 
ENDROOT
TORSDOF 0
ENDMDL
