MODEL 1
REMARK minimizedAffinity -1.65651309
REMARK minimizedRMSD -1
REMARK  0 active torsions:
REMARK  status: ('A' for Active; 'I' for Inactive)
ROOT
ATOM      1  C   UNL d   1       0.554  -2.199   0.508  0.00  0.00     0.023 A 
ATOM      2  C1  UNL d   1       1.358  -3.162   1.118  0.00  0.00     0.003 A 
ATOM      3  C2  UNL d   1       2.329  -2.778   2.045  0.00  0.00     0.048 A 
ATOM      4  C3  UNL d   1       2.490  -1.429   2.358  0.00  0.00     0.023 A 
ATOM      5  C4  UNL d   1       1.688  -0.461   1.750  0.00  0.00     0.048 A 
ATOM      6  C5  UNL d   1       0.719  -0.850   0.824  0.00  0.00     0.003 A 
ATOM      7  I   UNL d   1       3.935  -0.854   3.737  0.00  0.00    -0.146 I 
ENDROOT
TORSDOF 0
ENDMDL
