MODEL 1
REMARK minimizedAffinity -0.0539781488
REMARK minimizedRMSD -1
REMARK  0 active torsions:
REMARK  status: ('A' for Active; 'I' for Inactive)
ROOT
ATOM      1  C   UNL d   1       2.530  -2.303   2.893  0.00  0.00     0.023 A 
ATOM      2  C1  UNL d   1       1.333  -1.849   3.449  0.00  0.00     0.003 A 
ATOM      3  C2  UNL d   1       0.473  -1.048   2.696  0.00  0.00     0.048 A 
ATOM      4  C3  UNL d   1       0.814  -0.704   1.389  0.00  0.00     0.023 A 
ATOM      5  C4  UNL d   1       2.010  -1.156   0.828  0.00  0.00     0.048 A 
ATOM      6  C5  UNL d   1       2.868  -1.957   1.585  0.00  0.00     0.003 A 
ATOM      7  I   UNL d   1      -0.466   0.489   0.267  0.00  0.00    -0.146 I 
ENDROOT
TORSDOF 0
ENDMDL
