MODEL 1
REMARK minimizedAffinity 4.42375803
REMARK minimizedRMSD -1
REMARK  0 active torsions:
REMARK  status: ('A' for Active; 'I' for Inactive)
ROOT
ATOM      1  C   UNL d   1       1.667  -4.623  -5.054  0.00  0.00     0.023 A 
ATOM      2  C1  UNL d   1       0.783  -4.094  -4.113  0.00  0.00     0.003 A 
ATOM      3  C2  UNL d   1      -0.557  -4.488  -4.114  0.00  0.00     0.048 A 
ATOM      4  C3  UNL d   1      -1.006  -5.411  -5.057  0.00  0.00     0.023 A 
ATOM      5  C4  UNL d   1      -0.125  -5.944  -6.000  0.00  0.00     0.048 A 
ATOM      6  C5  UNL d   1       1.213  -5.547  -5.996  0.00  0.00     0.003 A 
ATOM      7  I   UNL d   1      -3.000  -5.999  -5.060  0.00  0.00    -0.146 I 
ENDROOT
TORSDOF 0
ENDMDL
