MODEL 1
REMARK minimizedAffinity 2.04976797
REMARK minimizedRMSD -1
REMARK  0 active torsions:
REMARK  status: ('A' for Active; 'I' for Inactive)
ROOT
ATOM      1  C   UNL d   1      -2.918  -5.419  -4.486  0.00  0.00     0.023 A 
ATOM      2  C1  UNL d   1      -2.008  -4.897  -3.566  0.00  0.00     0.003 A 
ATOM      3  C2  UNL d   1      -0.641  -4.910  -3.850  0.00  0.00     0.048 A 
ATOM      4  C3  UNL d   1      -0.191  -5.445  -5.056  0.00  0.00     0.023 A 
ATOM      5  C4  UNL d   1      -1.098  -5.968  -5.980  0.00  0.00     0.048 A 
ATOM      6  C5  UNL d   1      -2.463  -5.953  -5.691  0.00  0.00     0.003 A 
ATOM      7  I   UNL d   1       1.844  -5.465  -5.482  0.00  0.00    -0.146 I 
ENDROOT
TORSDOF 0
ENDMDL
