MODEL 1
REMARK minimizedAffinity 8.03660774
REMARK minimizedRMSD -1
REMARK  0 active torsions:
REMARK  status: ('A' for Active; 'I' for Inactive)
ROOT
ATOM      1  C   UNL d   1       0.271   3.983  -3.964  0.00  0.00     0.023 A 
ATOM      2  C1  UNL d   1      -0.918   4.483  -4.497  0.00  0.00     0.003 A 
ATOM      3  C2  UNL d   1      -2.136   3.879  -4.179  0.00  0.00     0.048 A 
ATOM      4  C3  UNL d   1      -2.158   2.775  -3.326  0.00  0.00     0.023 A 
ATOM      5  C4  UNL d   1      -0.971   2.272  -2.790  0.00  0.00     0.048 A 
ATOM      6  C5  UNL d   1       0.244   2.879  -3.112  0.00  0.00     0.003 A 
ATOM      7  I   UNL d   1      -3.970   1.874  -2.851  0.00  0.00    -0.146 I 
ENDROOT
TORSDOF 0
ENDMDL
