MODEL 1
REMARK minimizedAffinity 3.76128244
REMARK minimizedRMSD -1
REMARK  0 active torsions:
REMARK  status: ('A' for Active; 'I' for Inactive)
ROOT
ATOM      1  C   UNL d   1      -0.709  -0.956  -0.543  0.00  0.00     0.023 A 
ATOM      2  C1  UNL d   1      -0.072  -2.172  -0.296  0.00  0.00     0.003 A 
ATOM      3  C2  UNL d   1       1.072  -2.214   0.502  0.00  0.00     0.048 A 
ATOM      4  C3  UNL d   1       1.575  -1.035   1.052  0.00  0.00     0.023 A 
ATOM      5  C4  UNL d   1       0.941   0.185   0.809  0.00  0.00     0.048 A 
ATOM      6  C5  UNL d   1      -0.203   0.221   0.009  0.00  0.00     0.003 A 
ATOM      7  I   UNL d   1       3.278  -1.094   2.241  0.00  0.00    -0.146 I 
ENDROOT
TORSDOF 0
ENDMDL
