MODEL 1
REMARK minimizedAffinity 4.87748146
REMARK minimizedRMSD -1
REMARK  0 active torsions:
REMARK  status: ('A' for Active; 'I' for Inactive)
ROOT
ATOM      1  C   UNL d   1      -5.864  -0.130  -0.926  0.00  0.00     0.023 A 
ATOM      2  C1  UNL d   1      -4.731   0.339  -0.262  0.00  0.00     0.003 A 
ATOM      3  C2  UNL d   1      -3.730   1.005  -0.972  0.00  0.00     0.048 A 
ATOM      4  C3  UNL d   1      -3.869   1.200  -2.346  0.00  0.00     0.023 A 
ATOM      5  C4  UNL d   1      -5.002   0.733  -3.014  0.00  0.00     0.048 A 
ATOM      6  C5  UNL d   1      -6.000   0.066  -2.301  0.00  0.00     0.003 A 
ATOM      7  I   UNL d   1      -2.380   2.191  -3.405  0.00  0.00    -0.146 I 
ENDROOT
TORSDOF 0
ENDMDL
