MODEL 1
REMARK minimizedAffinity 8.62556934
REMARK minimizedRMSD -1
REMARK  0 active torsions:
REMARK  status: ('A' for Active; 'I' for Inactive)
ROOT
ATOM      1  C   UNL d   1      -0.178   3.804  -3.920  0.00  0.00     0.023 A 
ATOM      2  C1  UNL d   1      -0.157   2.609  -3.201  0.00  0.00     0.003 A 
ATOM      3  C2  UNL d   1      -1.333   1.874  -3.031  0.00  0.00     0.048 A 
ATOM      4  C3  UNL d   1      -2.525   2.340  -3.584  0.00  0.00     0.023 A 
ATOM      5  C4  UNL d   1      -2.550   3.535  -4.305  0.00  0.00     0.048 A 
ATOM      6  C5  UNL d   1      -1.373   4.266  -4.471  0.00  0.00     0.003 A 
ATOM      7  I   UNL d   1      -4.276   1.249  -3.332  0.00  0.00    -0.146 I 
ENDROOT
TORSDOF 0
ENDMDL
