MODEL 1
REMARK minimizedAffinity 4.24895525
REMARK minimizedRMSD -1
REMARK  0 active torsions:
REMARK  status: ('A' for Active; 'I' for Inactive)
ROOT
ATOM      1  C   UNL d   1       5.097  -0.726   2.916  0.00  0.00     0.023 A 
ATOM      2  C1  UNL d   1       3.952  -1.162   3.583  0.00  0.00     0.003 A 
ATOM      3  C2  UNL d   1       2.735  -1.246   2.903  0.00  0.00     0.048 A 
ATOM      4  C3  UNL d   1       2.670  -0.891   1.556  0.00  0.00     0.023 A 
ATOM      5  C4  UNL d   1       3.813  -0.455   0.884  0.00  0.00     0.048 A 
ATOM      6  C5  UNL d   1       5.027  -0.373   1.569  0.00  0.00     0.003 A 
ATOM      7  I   UNL d   1       0.860  -1.014   0.542  0.00  0.00    -0.146 I 
ENDROOT
TORSDOF 0
ENDMDL
