MODEL 1
REMARK minimizedAffinity 6.08963728
REMARK minimizedRMSD -1
REMARK  0 active torsions:
REMARK  status: ('A' for Active; 'I' for Inactive)
ROOT
ATOM      1  C   UNL d   1      -5.468  -0.634  -0.553  0.00  0.00     0.023 A 
ATOM      2  C1  UNL d   1      -4.492   0.127   0.090  0.00  0.00     0.003 A 
ATOM      3  C2  UNL d   1      -3.563   0.851  -0.660  0.00  0.00     0.048 A 
ATOM      4  C3  UNL d   1      -3.616   0.810  -2.053  0.00  0.00     0.023 A 
ATOM      5  C4  UNL d   1      -4.591   0.051  -2.701  0.00  0.00     0.048 A 
ATOM      6  C5  UNL d   1      -5.518  -0.672  -1.947  0.00  0.00     0.003 A 
ATOM      7  I   UNL d   1      -2.234   1.887  -3.171  0.00  0.00    -0.146 I 
ENDROOT
TORSDOF 0
ENDMDL
