MODEL 1
REMARK minimizedAffinity 4.52891445
REMARK minimizedRMSD -1
REMARK  0 active torsions:
REMARK  status: ('A' for Active; 'I' for Inactive)
ROOT
ATOM      1  C   UNL d   1      -3.005  -4.889  -2.182  0.00  0.00     0.023 A 
ATOM      2  C1  UNL d   1      -1.624  -4.741  -2.047  0.00  0.00     0.003 A 
ATOM      3  C2  UNL d   1      -0.787  -4.968  -3.141  0.00  0.00     0.048 A 
ATOM      4  C3  UNL d   1      -1.336  -5.342  -4.367  0.00  0.00     0.023 A 
ATOM      5  C4  UNL d   1      -2.717  -5.491  -4.507  0.00  0.00     0.048 A 
ATOM      6  C5  UNL d   1      -3.551  -5.264  -3.410  0.00  0.00     0.003 A 
ATOM      7  I   UNL d   1      -0.091  -5.680  -5.997  0.00  0.00    -0.146 I 
ENDROOT
TORSDOF 0
ENDMDL
