MODEL 1
REMARK minimizedAffinity 0.401293188
REMARK minimizedRMSD -1
REMARK  0 active torsions:
REMARK  status: ('A' for Active; 'I' for Inactive)
ROOT
ATOM      1  C   UNL d   1      -2.375  -4.884  -4.331  0.00  0.00     0.023 A 
ATOM      2  C1  UNL d   1      -2.235  -5.601  -5.520  0.00  0.00     0.003 A 
ATOM      3  C2  UNL d   1      -0.962  -5.918  -5.999  0.00  0.00     0.048 A 
ATOM      4  C3  UNL d   1       0.166  -5.516  -5.285  0.00  0.00     0.023 A 
ATOM      5  C4  UNL d   1       0.030  -4.800  -4.094  0.00  0.00     0.048 A 
ATOM      6  C5  UNL d   1      -1.244  -4.484  -3.619  0.00  0.00     0.003 A 
ATOM      7  I   UNL d   1       2.061  -5.987  -5.997  0.00  0.00    -0.146 I 
ENDROOT
TORSDOF 0
ENDMDL
