MODEL 1
REMARK minimizedAffinity 5.83705521
REMARK minimizedRMSD -1
REMARK  0 active torsions:
REMARK  status: ('A' for Active; 'I' for Inactive)
ROOT
ATOM      1  C   UNL d   1      -5.059  -0.180  -1.995  0.00  0.00     0.023 A 
ATOM      2  C1  UNL d   1      -5.185   0.781  -2.998  0.00  0.00     0.003 A 
ATOM      3  C2  UNL d   1      -4.063   1.489  -3.433  0.00  0.00     0.048 A 
ATOM      4  C3  UNL d   1      -2.818   1.230  -2.862  0.00  0.00     0.023 A 
ATOM      5  C4  UNL d   1      -2.687   0.268  -1.859  0.00  0.00     0.048 A 
ATOM      6  C5  UNL d   1      -3.812  -0.436  -1.427  0.00  0.00     0.003 A 
ATOM      7  I   UNL d   1      -1.146   2.283  -3.509  0.00  0.00    -0.146 I 
ENDROOT
TORSDOF 0
ENDMDL
