MODEL 1
REMARK minimizedAffinity 0.994580925
REMARK minimizedRMSD -1
REMARK  0 active torsions:
REMARK  status: ('A' for Active; 'I' for Inactive)
ROOT
ATOM      1  C   UNL d   1       2.957  -2.574   1.465  0.00  0.00     0.023 A 
ATOM      2  C1  UNL d   1       3.501  -1.342   1.099  0.00  0.00     0.003 A 
ATOM      3  C2  UNL d   1       2.712  -0.398   0.438  0.00  0.00     0.048 A 
ATOM      4  C3  UNL d   1       1.380  -0.692   0.148  0.00  0.00     0.023 A 
ATOM      5  C4  UNL d   1       0.832  -1.922   0.513  0.00  0.00     0.048 A 
ATOM      6  C5  UNL d   1       1.624  -2.863   1.173  0.00  0.00     0.003 A 
ATOM      7  I   UNL d   1       0.204   0.712  -0.836  0.00  0.00    -0.146 I 
ENDROOT
TORSDOF 0
ENDMDL
