MODEL 1
REMARK minimizedAffinity 5.73044062
REMARK minimizedRMSD -1
REMARK  0 active torsions:
REMARK  status: ('A' for Active; 'I' for Inactive)
ROOT
ATOM      1  C   UNL d   1       0.897  -0.025   0.398  0.00  0.00     0.023 A 
ATOM      2  C1  UNL d   1       1.246  -1.327   0.037  0.00  0.00     0.003 A 
ATOM      3  C2  UNL d   1       0.290  -2.344   0.074  0.00  0.00     0.048 A 
ATOM      4  C3  UNL d   1      -1.014  -2.052   0.471  0.00  0.00     0.023 A 
ATOM      5  C4  UNL d   1      -1.369  -0.751   0.833  0.00  0.00     0.048 A 
ATOM      6  C5  UNL d   1      -0.409   0.262   0.795  0.00  0.00     0.003 A 
ATOM      7  I   UNL d   1      -2.440  -3.564   0.526  0.00  0.00    -0.146 I 
ENDROOT
TORSDOF 0
ENDMDL
