MODEL 1
REMARK minimizedAffinity 6.15920877
REMARK minimizedRMSD -1
REMARK  0 active torsions:
REMARK  status: ('A' for Active; 'I' for Inactive)
ROOT
ATOM      1  C   UNL d   1      -5.100  -0.704  -1.512  0.00  0.00     0.023 A 
ATOM      2  C1  UNL d   1      -5.549   0.265  -2.409  0.00  0.00     0.003 A 
ATOM      3  C2  UNL d   1      -4.641   1.145  -3.001  0.00  0.00     0.048 A 
ATOM      4  C3  UNL d   1      -3.284   1.049  -2.693  0.00  0.00     0.023 A 
ATOM      5  C4  UNL d   1      -2.830   0.080  -1.796  0.00  0.00     0.048 A 
ATOM      6  C5  UNL d   1      -3.742  -0.797  -1.206  0.00  0.00     0.003 A 
ATOM      7  I   UNL d   1      -1.930   2.356  -3.574  0.00  0.00    -0.146 I 
ENDROOT
TORSDOF 0
ENDMDL
