MODEL 1
REMARK minimizedAffinity 2.25253201
REMARK minimizedRMSD -1
REMARK  0 active torsions:
REMARK  status: ('A' for Active; 'I' for Inactive)
ROOT
ATOM      1  O1  BZF d   1      -1.975   2.237  -5.341  0.00  0.00    -0.204 OA
ATOM      2  C2  BZF d   1      -0.775   2.422  -5.998  0.00  0.00     0.174 A 
ATOM      3  C3  BZF d   1      -0.421   3.724  -5.991  0.00  0.00    -0.012 A 
ATOM      4  C3A BZF d   1      -1.420   4.381  -5.204  0.00  0.00    -0.107 A 
ATOM      5  C4  BZF d   1      -1.609   5.677  -4.819  0.00  0.00     0.055 A 
ATOM      6  C5  BZF d   1      -2.725   6.000  -4.113  0.00  0.00    -0.016 A 
ATOM      7  C6  BZF d   1      -3.673   5.055  -3.781  0.00  0.00     0.022 A 
ATOM      8  C7  BZF d   1      -3.527   3.755  -4.137  0.00  0.00     0.029 A 
ATOM      9  C7A BZF d   1      -2.384   3.419  -4.821  0.00  0.00     0.058 A 
ENDROOT
TORSDOF 0
ENDMDL
