MODEL 1
REMARK minimizedAffinity 0.788416266
REMARK minimizedRMSD -1
REMARK  0 active torsions:
REMARK  status: ('A' for Active; 'I' for Inactive)
ROOT
ATOM      1  O1  BZF d   1      -3.674   2.147  -5.985  0.00  0.00    -0.204 OA
ATOM      2  C2  BZF d   1      -2.303   2.310  -5.967  0.00  0.00     0.174 A 
ATOM      3  C3  BZF d   1      -1.975   3.618  -5.995  0.00  0.00    -0.012 A 
ATOM      4  C3A BZF d   1      -3.221   4.319  -5.941  0.00  0.00    -0.107 A 
ATOM      5  C4  BZF d   1      -3.553   5.643  -5.923  0.00  0.00     0.055 A 
ATOM      6  C5  BZF d   1      -4.865   5.996  -5.942  0.00  0.00    -0.016 A 
ATOM      7  C6  BZF d   1      -5.870   5.051  -5.984  0.00  0.00     0.022 A 
ATOM      8  C7  BZF d   1      -5.590   3.725  -5.998  0.00  0.00     0.029 A 
ATOM      9  C7A BZF d   1      -4.266   3.366  -5.946  0.00  0.00     0.058 A 
ENDROOT
TORSDOF 0
ENDMDL
