MODEL 1
REMARK minimizedAffinity 6.90075827
REMARK minimizedRMSD -1
REMARK  0 active torsions:
REMARK  status: ('A' for Active; 'I' for Inactive)
ROOT
ATOM      1  O1  BZF d   1      -0.069   3.477  -5.854  0.00  0.00    -0.204 OA
ATOM      2  C2  BZF d   1      -0.391   2.136  -5.936  0.00  0.00     0.174 A 
ATOM      3  C3  BZF d   1      -1.729   1.965  -5.949  0.00  0.00    -0.012 A 
ATOM      4  C3A BZF d   1      -2.277   3.287  -5.963  0.00  0.00    -0.107 A 
ATOM      5  C4  BZF d   1      -3.552   3.774  -5.994  0.00  0.00     0.055 A 
ATOM      6  C5  BZF d   1      -3.748   5.117  -5.926  0.00  0.00    -0.016 A 
ATOM      7  C6  BZF d   1      -2.694   6.000  -5.820  0.00  0.00     0.022 A 
ATOM      8  C7  BZF d   1      -1.411   5.564  -5.791  0.00  0.00     0.029 A 
ATOM      9  C7A BZF d   1      -1.208   4.210  -5.893  0.00  0.00     0.058 A 
ENDROOT
TORSDOF 0
ENDMDL
