MODEL 1
REMARK minimizedAffinity 0.284180671
REMARK minimizedRMSD -1
REMARK  0 active torsions:
REMARK  status: ('A' for Active; 'I' for Inactive)
ROOT
ATOM      1  O1  BZF d   1      -3.928   2.096  -5.878  0.00  0.00    -0.204 OA
ATOM      2  C2  BZF d   1      -2.550   2.197  -5.897  0.00  0.00     0.174 A 
ATOM      3  C3  BZF d   1      -2.166   3.486  -5.990  0.00  0.00    -0.012 A 
ATOM      4  C3A BZF d   1      -3.378   4.245  -5.939  0.00  0.00    -0.107 A 
ATOM      5  C4  BZF d   1      -3.650   5.583  -5.971  0.00  0.00     0.055 A 
ATOM      6  C5  BZF d   1      -4.946   5.993  -5.976  0.00  0.00    -0.016 A 
ATOM      7  C6  BZF d   1      -5.992   5.094  -5.955  0.00  0.00     0.022 A 
ATOM      8  C7  BZF d   1      -5.772   3.758  -5.918  0.00  0.00     0.029 A 
ATOM      9  C7A BZF d   1      -4.463   3.341  -5.879  0.00  0.00     0.058 A 
ENDROOT
TORSDOF 0
ENDMDL
