MODEL 1
REMARK minimizedAffinity 12.2795219
REMARK minimizedRMSD -1
REMARK  0 active torsions:
REMARK  status: ('A' for Active; 'I' for Inactive)
ROOT
ATOM      1  O1  BZF d   1      -2.015   2.848   2.814  0.00  0.00    -0.204 OA
ATOM      2  C2  BZF d   1      -1.951   3.485   4.038  0.00  0.00     0.174 A 
ATOM      3  C3  BZF d   1      -0.670   3.659   4.420  0.00  0.00    -0.012 A 
ATOM      4  C3A BZF d   1       0.118   3.180   3.326  0.00  0.00    -0.107 A 
ATOM      5  C4  BZF d   1       1.462   3.103   3.100  0.00  0.00     0.055 A 
ATOM      6  C5  BZF d   1       1.908   2.514   1.959  0.00  0.00    -0.016 A 
ATOM      7  C6  BZF d   1       1.038   1.988   1.026  0.00  0.00     0.022 A 
ATOM      8  C7  BZF d   1      -0.305   2.046   1.204  0.00  0.00     0.029 A 
ATOM      9  C7A BZF d   1      -0.758   2.670   2.341  0.00  0.00     0.058 A 
ENDROOT
TORSDOF 0
ENDMDL
