MODEL 1
REMARK minimizedAffinity 0.136283323
REMARK minimizedRMSD -1
REMARK  0 active torsions:
REMARK  status: ('A' for Active; 'I' for Inactive)
ROOT
ATOM      1  O1  BZF d   1      -2.785   2.290  -5.428  0.00  0.00    -0.204 OA
ATOM      2  C2  BZF d   1      -1.580   2.591  -4.823  0.00  0.00     0.174 A 
ATOM      3  C3  BZF d   1      -1.510   3.905  -4.524  0.00  0.00    -0.012 A 
ATOM      4  C3A BZF d   1      -2.785   4.442  -4.887  0.00  0.00    -0.107 A 
ATOM      5  C4  BZF d   1      -3.333   5.691  -4.815  0.00  0.00     0.055 A 
ATOM      6  C5  BZF d   1      -4.577   5.896  -5.322  0.00  0.00    -0.016 A 
ATOM      7  C6  BZF d   1      -5.299   4.879  -5.910  0.00  0.00     0.022 A 
ATOM      8  C7  BZF d   1      -4.799   3.622  -6.000  0.00  0.00     0.029 A 
ATOM      9  C7A BZF d   1      -3.556   3.403  -5.459  0.00  0.00     0.058 A 
ENDROOT
TORSDOF 0
ENDMDL
