MODEL 1
REMARK minimizedAffinity -0.73617065
REMARK minimizedRMSD -1
REMARK  0 active torsions:
REMARK  status: ('A' for Active; 'I' for Inactive)
ROOT
ATOM      1  O1  BZF d   1      -1.658   4.482  -5.963  0.00  0.00    -0.204 OA
ATOM      2  C2  BZF d   1      -1.513   3.109  -6.000  0.00  0.00     0.174 A 
ATOM      3  C3  BZF d   1      -2.715   2.499  -5.945  0.00  0.00    -0.012 A 
ATOM      4  C3A BZF d   1      -3.676   3.559  -5.962  0.00  0.00    -0.107 A 
ATOM      5  C4  BZF d   1      -5.041   3.589  -5.942  0.00  0.00     0.055 A 
ATOM      6  C5  BZF d   1      -5.675   4.790  -5.893  0.00  0.00    -0.016 A 
ATOM      7  C6  BZF d   1      -4.976   5.978  -5.858  0.00  0.00     0.022 A 
ATOM      8  C7  BZF d   1      -3.621   6.000  -5.880  0.00  0.00     0.029 A 
ATOM      9  C7A BZF d   1      -2.978   4.789  -5.963  0.00  0.00     0.058 A 
ENDROOT
TORSDOF 0
ENDMDL
