MODEL 1
REMARK minimizedAffinity 2.97392225
REMARK minimizedRMSD -1
REMARK  0 active torsions:
REMARK  status: ('A' for Active; 'I' for Inactive)
ROOT
ATOM      1  O1  BZF d   1       0.189   3.734  -4.190  0.00  0.00    -0.204 OA
ATOM      2  C2  BZF d   1       0.709   2.911  -5.170  0.00  0.00     0.174 A 
ATOM      3  C3  BZF d   1      -0.264   2.483  -6.000  0.00  0.00    -0.012 A 
ATOM      4  C3A BZF d   1      -1.453   3.148  -5.562  0.00  0.00    -0.107 A 
ATOM      5  C4  BZF d   1      -2.746   3.143  -6.000  0.00  0.00     0.055 A 
ATOM      6  C5  BZF d   1      -3.680   3.847  -5.307  0.00  0.00    -0.016 A 
ATOM      7  C6  BZF d   1      -3.357   4.561  -4.172  0.00  0.00     0.022 A 
ATOM      8  C7  BZF d   1      -2.086   4.600  -3.703  0.00  0.00     0.029 A 
ATOM      9  C7A BZF d   1      -1.134   3.917  -4.419  0.00  0.00     0.058 A 
ENDROOT
TORSDOF 0
ENDMDL
