MODEL 1
REMARK minimizedAffinity 4.41598129
REMARK minimizedRMSD -1
REMARK  0 active torsions:
REMARK  status: ('A' for Active; 'I' for Inactive)
ROOT
ATOM      1  O1  BZF d   1      -2.436   2.088  -5.885  0.00  0.00    -0.204 OA
ATOM      2  C2  BZF d   1      -1.059   2.175  -5.953  0.00  0.00     0.174 A 
ATOM      3  C3  BZF d   1      -0.662   3.463  -5.998  0.00  0.00    -0.012 A 
ATOM      4  C3A BZF d   1      -1.862   4.231  -5.861  0.00  0.00    -0.107 A 
ATOM      5  C4  BZF d   1      -2.119   5.572  -5.817  0.00  0.00     0.055 A 
ATOM      6  C5  BZF d   1      -3.408   5.996  -5.751  0.00  0.00    -0.016 A 
ATOM      7  C6  BZF d   1      -4.464   5.108  -5.733  0.00  0.00     0.022 A 
ATOM      8  C7  BZF d   1      -4.259   3.769  -5.770  0.00  0.00     0.029 A 
ATOM      9  C7A BZF d   1      -2.956   3.337  -5.803  0.00  0.00     0.058 A 
ENDROOT
TORSDOF 0
ENDMDL
