MODEL 1
REMARK minimizedAffinity 2.66369319
REMARK minimizedRMSD -1
REMARK  0 active torsions:
REMARK  status: ('A' for Active; 'I' for Inactive)
ROOT
ATOM      1  O1  BZF d   1       0.125   3.684  -5.956  0.00  0.00    -0.204 OA
ATOM      2  C2  BZF d   1      -0.055   2.314  -5.954  0.00  0.00     0.174 A 
ATOM      3  C3  BZF d   1      -1.367   2.004  -5.914  0.00  0.00    -0.012 A 
ATOM      4  C3A BZF d   1      -2.053   3.258  -5.983  0.00  0.00    -0.107 A 
ATOM      5  C4  BZF d   1      -3.373   3.606  -6.000  0.00  0.00     0.055 A 
ATOM      6  C5  BZF d   1      -3.708   4.923  -5.999  0.00  0.00    -0.016 A 
ATOM      7  C6  BZF d   1      -2.751   5.916  -5.976  0.00  0.00     0.022 A 
ATOM      8  C7  BZF d   1      -1.429   5.620  -5.964  0.00  0.00     0.029 A 
ATOM      9  C7A BZF d   1      -1.086   4.290  -5.998  0.00  0.00     0.058 A 
ENDROOT
TORSDOF 0
ENDMDL
