MODEL 1
REMARK minimizedAffinity 7.31580257
REMARK minimizedRMSD -1
REMARK  0 active torsions:
REMARK  status: ('A' for Active; 'I' for Inactive)
ROOT
ATOM      1  O1  BZF d   1       0.704  -0.807   1.034  0.00  0.00    -0.204 OA
ATOM      2  C2  BZF d   1       1.667  -0.038   0.409  0.00  0.00     0.174 A 
ATOM      3  C3  BZF d   1       1.156   1.150   0.026  0.00  0.00    -0.012 A 
ATOM      4  C3A BZF d   1      -0.188   1.158   0.519  0.00  0.00    -0.107 A 
ATOM      5  C4  BZF d   1      -1.200   2.073   0.469  0.00  0.00     0.055 A 
ATOM      6  C5  BZF d   1      -2.414   1.743   0.984  0.00  0.00    -0.016 A 
ATOM      7  C6  BZF d   1      -2.651   0.507   1.549  0.00  0.00     0.022 A 
ATOM      8  C7  BZF d   1      -1.677  -0.431   1.626  0.00  0.00     0.029 A 
ATOM      9  C7A BZF d   1      -0.440  -0.089   1.136  0.00  0.00     0.058 A 
ENDROOT
TORSDOF 0
ENDMDL
