MODEL 1
REMARK minimizedAffinity 17.7784615
REMARK minimizedRMSD -1
REMARK  0 active torsions:
REMARK  status: ('A' for Active; 'I' for Inactive)
ROOT
ATOM      1  O1  BZF d   1      -4.037   2.746  -5.975  0.00  0.00    -0.204 OA
ATOM      2  C2  BZF d   1      -5.147   3.568  -5.983  0.00  0.00     0.174 A 
ATOM      3  C3  BZF d   1      -4.783   4.865  -5.928  0.00  0.00    -0.012 A 
ATOM      4  C3A BZF d   1      -3.353   4.856  -5.975  0.00  0.00    -0.107 A 
ATOM      5  C4  BZF d   1      -2.407   5.841  -5.969  0.00  0.00     0.055 A 
ATOM      6  C5  BZF d   1      -1.093   5.495  -5.950  0.00  0.00    -0.016 A 
ATOM      7  C6  BZF d   1      -0.689   4.176  -5.931  0.00  0.00     0.022 A 
ATOM      8  C7  BZF d   1      -1.591   3.164  -5.941  0.00  0.00     0.029 A 
ATOM      9  C7A BZF d   1      -2.919   3.510  -5.993  0.00  0.00     0.058 A 
ENDROOT
TORSDOF 0
ENDMDL
