MODEL 1
REMARK minimizedAffinity 10.8975744
REMARK minimizedRMSD -1
REMARK  0 active torsions:
REMARK  status: ('A' for Active; 'I' for Inactive)
ROOT
ATOM      1  O1  BZF d   1       1.153  -0.135   0.517  0.00  0.00    -0.204 OA
ATOM      2  C2  BZF d   1       2.337   0.317  -0.032  0.00  0.00     0.174 A 
ATOM      3  C3  BZF d   1       2.166   1.521  -0.614  0.00  0.00    -0.012 A 
ATOM      4  C3A BZF d   1       0.811   1.884  -0.336  0.00  0.00    -0.107 A 
ATOM      5  C4  BZF d   1       0.051   2.978  -0.638  0.00  0.00     0.055 A 
ATOM      6  C5  BZF d   1      -1.261   2.990  -0.283  0.00  0.00    -0.016 A 
ATOM      7  C6  BZF d   1      -1.846   1.925   0.369  0.00  0.00     0.022 A 
ATOM      8  C7  BZF d   1      -1.132   0.820   0.694  0.00  0.00     0.029 A 
ATOM      9  C7A BZF d   1       0.202   0.819   0.366  0.00  0.00     0.058 A 
ENDROOT
TORSDOF 0
ENDMDL
