MODEL 1
REMARK minimizedAffinity 5.06965446
REMARK minimizedRMSD -1
REMARK  0 active torsions:
REMARK  status: ('A' for Active; 'I' for Inactive)
ROOT
ATOM      1  O1  BZF d   1      -0.699  -0.567   1.058  0.00  0.00    -0.204 OA
ATOM      2  C2  BZF d   1      -1.950  -0.001   1.207  0.00  0.00     0.174 A 
ATOM      3  C3  BZF d   1      -1.945   1.286   0.803  0.00  0.00    -0.012 A 
ATOM      4  C3A BZF d   1      -0.629   1.513   0.288  0.00  0.00    -0.107 A 
ATOM      5  C4  BZF d   1      -0.015   2.595  -0.274  0.00  0.00     0.055 A 
ATOM      6  C5  BZF d   1       1.301   2.511  -0.604  0.00  0.00    -0.016 A 
ATOM      7  C6  BZF d   1       2.033   1.363  -0.382  0.00  0.00     0.022 A 
ATOM      8  C7  BZF d   1       1.466   0.262   0.169  0.00  0.00     0.029 A 
ATOM      9  C7A BZF d   1       0.128   0.333   0.473  0.00  0.00     0.058 A 
ENDROOT
TORSDOF 0
ENDMDL
