MODEL 1
REMARK minimizedAffinity 12.9905663
REMARK minimizedRMSD -1
REMARK  0 active torsions:
REMARK  status: ('A' for Active; 'I' for Inactive)
ROOT
ATOM      1  O1  BZF d   1      -0.477  -1.011   0.641  0.00  0.00    -0.204 OA
ATOM      2  C2  BZF d   1      -1.787  -0.640   0.876  0.00  0.00     0.174 A 
ATOM      3  C3  BZF d   1      -1.935   0.695   0.759  0.00  0.00    -0.012 A 
ATOM      4  C3A BZF d   1      -0.655   1.180   0.340  0.00  0.00    -0.107 A 
ATOM      5  C4  BZF d   1      -0.174   2.422   0.041  0.00  0.00     0.055 A 
ATOM      6  C5  BZF d   1       1.143   2.564  -0.265  0.00  0.00    -0.016 A 
ATOM      7  C6  BZF d   1       2.006   1.488  -0.276  0.00  0.00     0.022 A 
ATOM      8  C7  BZF d   1       1.573   0.236   0.009  0.00  0.00     0.029 A 
ATOM      9  C7A BZF d   1       0.237   0.084   0.286  0.00  0.00     0.058 A 
ENDROOT
TORSDOF 0
ENDMDL
