MODEL 1
REMARK minimizedAffinity 2.09374619
REMARK minimizedRMSD -1
REMARK  0 active torsions:
REMARK  status: ('A' for Active; 'I' for Inactive)
ROOT
ATOM      1  O1  BZF d   1      -2.088   2.469  -5.989  0.00  0.00    -0.204 OA
ATOM      2  C2  BZF d   1      -2.918   3.572  -5.933  0.00  0.00     0.174 A 
ATOM      3  C3  BZF d   1      -2.198   4.707  -5.823  0.00  0.00    -0.012 A 
ATOM      4  C3A BZF d   1      -0.831   4.295  -5.902  0.00  0.00    -0.107 A 
ATOM      5  C4  BZF d   1       0.357   4.969  -5.870  0.00  0.00     0.055 A 
ATOM      6  C5  BZF d   1       1.518   4.263  -5.898  0.00  0.00    -0.016 A 
ATOM      7  C6  BZF d   1       1.529   2.885  -5.951  0.00  0.00     0.022 A 
ATOM      8  C7  BZF d   1       0.376   2.173  -5.990  0.00  0.00     0.029 A 
ATOM      9  C7A BZF d   1      -0.799   2.884  -5.996  0.00  0.00     0.058 A 
ENDROOT
TORSDOF 0
ENDMDL
