MODEL 1
REMARK minimizedAffinity -0.327572793
REMARK minimizedRMSD -1
REMARK  0 active torsions:
REMARK  status: ('A' for Active; 'I' for Inactive)
ROOT
ATOM      1  O1  BZF d   1      -0.149   4.616  -5.974  0.00  0.00    -0.204 OA
ATOM      2  C2  BZF d   1       0.276   3.302  -5.993  0.00  0.00     0.174 A 
ATOM      3  C3  BZF d   1      -0.775   2.459  -5.952  0.00  0.00    -0.012 A 
ATOM      4  C3A BZF d   1      -1.933   3.298  -5.996  0.00  0.00    -0.107 A 
ATOM      5  C4  BZF d   1      -3.275   3.047  -6.000  0.00  0.00     0.055 A 
ATOM      6  C5  BZF d   1      -4.143   4.093  -5.975  0.00  0.00    -0.016 A 
ATOM      7  C6  BZF d   1      -3.704   5.400  -5.940  0.00  0.00     0.022 A 
ATOM      8  C7  BZF d   1      -2.382   5.699  -5.940  0.00  0.00     0.029 A 
ATOM      9  C7A BZF d   1      -1.503   4.645  -5.999  0.00  0.00     0.058 A 
ENDROOT
TORSDOF 0
ENDMDL
