MODEL 1
REMARK minimizedAffinity 8.13802528
REMARK minimizedRMSD -1
REMARK  0 active torsions:
REMARK  status: ('A' for Active; 'I' for Inactive)
ROOT
ATOM      1  O1  BZF d   1      -4.215  -3.958   0.043  0.00  0.00    -0.204 OA
ATOM      2  C2  BZF d   1      -4.497  -5.311   0.066  0.00  0.00     0.174 A 
ATOM      3  C3  BZF d   1      -3.592  -6.000  -0.659  0.00  0.00    -0.012 A 
ATOM      4  C3A BZF d   1      -2.636  -5.027  -1.090  0.00  0.00    -0.107 A 
ATOM      5  C4  BZF d   1      -1.491  -5.100  -1.832  0.00  0.00     0.055 A 
ATOM      6  C5  BZF d   1      -0.827  -3.955  -2.136  0.00  0.00    -0.016 A 
ATOM      7  C6  BZF d   1      -1.280  -2.720  -1.719  0.00  0.00     0.022 A 
ATOM      8  C7  BZF d   1      -2.408  -2.598  -0.977  0.00  0.00     0.029 A 
ATOM      9  C7A BZF d   1      -3.063  -3.757  -0.641  0.00  0.00     0.058 A 
ENDROOT
TORSDOF 0
ENDMDL
