MODEL 1
REMARK minimizedAffinity 5.00362682
REMARK minimizedRMSD -1
REMARK  0 active torsions:
REMARK  status: ('A' for Active; 'I' for Inactive)
ROOT
ATOM      1  O1  BZF d   1       0.593   4.467  -5.961  0.00  0.00    -0.204 OA
ATOM      2  C2  BZF d   1       1.426   3.365  -5.961  0.00  0.00     0.174 A 
ATOM      3  C3  BZF d   1       0.709   2.223  -5.920  0.00  0.00    -0.012 A 
ATOM      4  C3A BZF d   1      -0.660   2.636  -5.985  0.00  0.00    -0.107 A 
ATOM      5  C4  BZF d   1      -1.845   1.957  -5.999  0.00  0.00     0.055 A 
ATOM      6  C5  BZF d   1      -3.008   2.660  -5.995  0.00  0.00    -0.016 A 
ATOM      7  C6  BZF d   1      -3.023   4.039  -5.971  0.00  0.00     0.022 A 
ATOM      8  C7  BZF d   1      -1.872   4.756  -5.962  0.00  0.00     0.029 A 
ATOM      9  C7A BZF d   1      -0.695   4.049  -6.000  0.00  0.00     0.058 A 
ENDROOT
TORSDOF 0
ENDMDL
