MODEL 1
REMARK minimizedAffinity 2.93723226
REMARK minimizedRMSD -1
REMARK  0 active torsions:
REMARK  status: ('A' for Active; 'I' for Inactive)
ROOT
ATOM      1  C   UNL d   1       0.386   2.983  -1.114  0.00  0.00     0.172 C 
ATOM      2  N   UNL d   1       0.934   1.669  -0.875  0.00  0.00    -0.070 N 
ATOM      3  C1  UNL d   1       1.063   0.676  -1.810  0.00  0.00    -0.004 A 
ATOM      4  C2  UNL d   1       1.628  -0.417  -1.189  0.00  0.00    -0.047 A 
ATOM      5  C3  UNL d   1       1.845  -0.069   0.166  0.00  0.00    -0.047 A 
ATOM      6  C4  UNL d   1       1.406   1.228   0.332  0.00  0.00    -0.004 A 
ENDROOT
TORSDOF 0
ENDMDL
