MODEL 1
REMARK minimizedAffinity 1.15545869
REMARK minimizedRMSD -1
REMARK  0 active torsions:
REMARK  status: ('A' for Active; 'I' for Inactive)
ROOT
ATOM      1  C   UNL d   1      -3.739   3.320  -0.031  0.00  0.00     0.172 C 
ATOM      2  N   UNL d   1      -3.660   2.833   1.327  0.00  0.00    -0.070 N 
ATOM      3  C1  UNL d   1      -4.432   1.838   1.864  0.00  0.00    -0.004 A 
ATOM      4  C2  UNL d   1      -4.050   1.670   3.178  0.00  0.00    -0.047 A 
ATOM      5  C3  UNL d   1      -3.014   2.597   3.439  0.00  0.00    -0.047 A 
ATOM      6  C4  UNL d   1      -2.792   3.304   2.276  0.00  0.00    -0.004 A 
ENDROOT
TORSDOF 0
ENDMDL
