MODEL 1
REMARK minimizedAffinity -2.21656799
REMARK minimizedRMSD -1
REMARK  0 active torsions:
REMARK  status: ('A' for Active; 'I' for Inactive)
ROOT
ATOM      1  C   UNL d   1       1.457  -1.180  -1.199  0.00  0.00     0.172 C 
ATOM      2  N   UNL d   1       1.300  -0.065  -0.294  0.00  0.00    -0.070 N 
ATOM      3  C1  UNL d   1       1.949   0.089   0.902  0.00  0.00    -0.004 A 
ATOM      4  C2  UNL d   1       1.528   1.277   1.460  0.00  0.00    -0.047 A 
ATOM      5  C3  UNL d   1       0.594   1.856   0.568  0.00  0.00    -0.047 A 
ATOM      6  C4  UNL d   1       0.472   1.004  -0.509  0.00  0.00    -0.004 A 
ENDROOT
TORSDOF 0
ENDMDL
