MODEL 1
REMARK minimizedAffinity -1.12739694
REMARK minimizedRMSD -1
REMARK  0 active torsions:
REMARK  status: ('A' for Active; 'I' for Inactive)
ROOT
ATOM      1  C   UNL d   1       1.419  -2.596  -0.235  0.00  0.00     0.172 C 
ATOM      2  N   UNL d   1       1.167  -1.202  -0.512  0.00  0.00    -0.070 N 
ATOM      3  C1  UNL d   1       0.593  -0.706  -1.652  0.00  0.00    -0.004 A 
ATOM      4  C2  UNL d   1       0.528   0.666  -1.529  0.00  0.00    -0.047 A 
ATOM      5  C3  UNL d   1       1.084   1.005  -0.272  0.00  0.00    -0.047 A 
ATOM      6  C4  UNL d   1       1.471  -0.170   0.336  0.00  0.00    -0.004 A 
ENDROOT
TORSDOF 0
ENDMDL
