MODEL 1
REMARK minimizedAffinity 0.305113584
REMARK minimizedRMSD -1
REMARK  0 active torsions:
REMARK  status: ('A' for Active; 'I' for Inactive)
ROOT
ATOM      1  C   UNL d   1       0.940  -0.622  -1.546  0.00  0.00     0.172 C 
ATOM      2  N   UNL d   1       1.064   0.656  -0.887  0.00  0.00    -0.070 N 
ATOM      3  C1  UNL d   1       1.385   0.847   0.431  0.00  0.00    -0.004 A 
ATOM      4  C2  UNL d   1       1.402   2.205   0.669  0.00  0.00    -0.047 A 
ATOM      5  C3  UNL d   1       1.079   2.852  -0.548  0.00  0.00    -0.047 A 
ATOM      6  C4  UNL d   1       0.875   1.870  -1.494  0.00  0.00    -0.004 A 
ENDROOT
TORSDOF 0
ENDMDL
