MODEL 1
REMARK minimizedAffinity 4.39712429
REMARK minimizedRMSD -1
REMARK  0 active torsions:
REMARK  status: ('A' for Active; 'I' for Inactive)
ROOT
ATOM      1  C   UNL d   1       1.671   2.310   1.226  0.00  0.00     0.172 C 
ATOM      2  N   UNL d   1       1.552   1.812  -0.124  0.00  0.00    -0.070 N 
ATOM      3  C1  UNL d   1       1.122   2.533  -1.206  0.00  0.00    -0.004 A 
ATOM      4  C2  UNL d   1       1.151   1.702  -2.305  0.00  0.00    -0.047 A 
ATOM      5  C3  UNL d   1       1.614   0.438  -1.869  0.00  0.00    -0.047 A 
ATOM      6  C4  UNL d   1       1.854   0.534  -0.514  0.00  0.00    -0.004 A 
ENDROOT
TORSDOF 0
ENDMDL
