MODEL 1
REMARK minimizedAffinity 1.30555367
REMARK minimizedRMSD -1
REMARK  0 active torsions:
REMARK  status: ('A' for Active; 'I' for Inactive)
ROOT
ATOM      1  C   UNL d   1       1.034  -0.472  -0.060  0.00  0.00     0.172 C 
ATOM      2  N   UNL d   1       0.926   0.797  -0.741  0.00  0.00    -0.070 N 
ATOM      3  C1  UNL d   1       1.444   1.089  -1.974  0.00  0.00    -0.004 A 
ATOM      4  C2  UNL d   1       1.126   2.397  -2.267  0.00  0.00    -0.047 A 
ATOM      5  C3  UNL d   1       0.392   2.910  -1.171  0.00  0.00    -0.047 A 
ATOM      6  C4  UNL d   1       0.283   1.899  -0.241  0.00  0.00    -0.004 A 
ENDROOT
TORSDOF 0
ENDMDL
