MODEL 1
REMARK minimizedAffinity -3.07151699
REMARK minimizedRMSD -1
REMARK  0 active torsions:
REMARK  status: ('A' for Active; 'I' for Inactive)
ROOT
ATOM      1  C   UNL d   1       1.216   3.548  -1.683  0.00  0.00     0.172 C 
ATOM      2  N   UNL d   1       1.098   2.265  -1.031  0.00  0.00    -0.070 N 
ATOM      3  C1  UNL d   1       0.782   2.066   0.287  0.00  0.00    -0.004 A 
ATOM      4  C2  UNL d   1       0.769   0.707   0.516  0.00  0.00    -0.047 A 
ATOM      5  C3  UNL d   1       1.090   0.068  -0.705  0.00  0.00    -0.047 A 
ATOM      6  C4  UNL d   1       1.289   1.056  -1.646  0.00  0.00    -0.004 A 
ENDROOT
TORSDOF 0
ENDMDL
