MODEL 1
REMARK minimizedAffinity -1.99053848
REMARK minimizedRMSD -1
REMARK  0 active torsions:
REMARK  status: ('A' for Active; 'I' for Inactive)
ROOT
ATOM      1  C   UNL d   1       1.104   1.220   2.444  0.00  0.00     0.172 C 
ATOM      2  N   UNL d   1       0.949   0.958   1.032  0.00  0.00    -0.070 N 
ATOM      3  C1  UNL d   1       1.181  -0.241   0.412  0.00  0.00    -0.004 A 
ATOM      4  C2  UNL d   1       0.920  -0.079  -0.931  0.00  0.00    -0.047 A 
ATOM      5  C3  UNL d   1       0.518   1.264  -1.126  0.00  0.00    -0.047 A 
ATOM      6  C4  UNL d   1       0.545   1.883   0.106  0.00  0.00    -0.004 A 
ENDROOT
TORSDOF 0
ENDMDL
