MODEL 1
REMARK minimizedAffinity 0.826330543
REMARK minimizedRMSD -1
REMARK  0 active torsions:
REMARK  status: ('A' for Active; 'I' for Inactive)
ROOT
ATOM      1  C   UNL d   1       1.152   2.190   1.389  0.00  0.00     0.172 C 
ATOM      2  N   UNL d   1       1.010   1.100   0.453  0.00  0.00    -0.070 N 
ATOM      3  C1  UNL d   1       1.332  -0.208   0.696  0.00  0.00    -0.004 A 
ATOM      4  C2  UNL d   1       1.050  -0.932  -0.443  0.00  0.00    -0.047 A 
ATOM      5  C3  UNL d   1       0.541  -0.026  -1.404  0.00  0.00    -0.047 A 
ATOM      6  C4  UNL d   1       0.527   1.224  -0.823  0.00  0.00    -0.004 A 
ENDROOT
TORSDOF 0
ENDMDL
