MODEL 1
REMARK minimizedAffinity -0.307368696
REMARK minimizedRMSD -1
REMARK  0 active torsions:
REMARK  status: ('A' for Active; 'I' for Inactive)
ROOT
ATOM      1  C   UNL d   1      -5.836   0.839   2.964  0.00  0.00     0.172 C 
ATOM      2  N   UNL d   1      -4.545   1.483   2.899  0.00  0.00    -0.070 N 
ATOM      3  C1  UNL d   1      -3.994   2.057   1.784  0.00  0.00    -0.004 A 
ATOM      4  C2  UNL d   1      -2.760   2.560   2.134  0.00  0.00    -0.047 A 
ATOM      5  C3  UNL d   1      -2.561   2.277   3.507  0.00  0.00    -0.047 A 
ATOM      6  C4  UNL d   1      -3.681   1.610   3.955  0.00  0.00    -0.004 A 
ENDROOT
TORSDOF 0
ENDMDL
