MODEL 1
REMARK minimizedAffinity -1.654338
REMARK minimizedRMSD -1
REMARK  0 active torsions:
REMARK  status: ('A' for Active; 'I' for Inactive)
ROOT
ATOM      1  C   UNL d   1       0.812   2.697  -1.157  0.00  0.00     0.172 C 
ATOM      2  N   UNL d   1       1.016   1.278  -0.988  0.00  0.00    -0.070 N 
ATOM      3  C1  UNL d   1       1.831   0.694  -0.055  0.00  0.00    -0.004 A 
ATOM      4  C2  UNL d   1       1.750  -0.672  -0.219  0.00  0.00    -0.047 A 
ATOM      5  C3  UNL d   1       0.856  -0.917  -1.289  0.00  0.00    -0.047 A 
ATOM      6  C4  UNL d   1       0.417   0.307  -1.746  0.00  0.00    -0.004 A 
ENDROOT
TORSDOF 0
ENDMDL
