MODEL 1
REMARK minimizedAffinity -3.32946396
REMARK minimizedRMSD -1
REMARK  0 active torsions:
REMARK  status: ('A' for Active; 'I' for Inactive)
ROOT
ATOM      1  C   UNL d   1       1.465   3.531  -1.168  0.00  0.00     0.172 C 
ATOM      2  N   UNL d   1       1.088   2.225  -0.680  0.00  0.00    -0.070 N 
ATOM      3  C1  UNL d   1       0.918   1.882   0.634  0.00  0.00    -0.004 A 
ATOM      4  C2  UNL d   1       0.560   0.553   0.681  0.00  0.00    -0.047 A 
ATOM      5  C3  UNL d   1       0.513   0.079  -0.652  0.00  0.00    -0.047 A 
ATOM      6  C4  UNL d   1       0.844   1.136  -1.474  0.00  0.00    -0.004 A 
ENDROOT
TORSDOF 0
ENDMDL
