MODEL 1
REMARK minimizedAffinity 2.61562848
REMARK minimizedRMSD -1
REMARK  0 active torsions:
REMARK  status: ('A' for Active; 'I' for Inactive)
ROOT
ATOM      1  C   UNL d   1      -5.630   0.446   3.244  0.00  0.00     0.172 C 
ATOM      2  N   UNL d   1      -4.489   1.331   3.221  0.00  0.00    -0.070 N 
ATOM      3  C1  UNL d   1      -3.685   1.625   4.290  0.00  0.00    -0.004 A 
ATOM      4  C2  UNL d   1      -2.714   2.504   3.859  0.00  0.00    -0.047 A 
ATOM      5  C3  UNL d   1      -2.944   2.747   2.484  0.00  0.00    -0.047 A 
ATOM      6  C4  UNL d   1      -4.048   2.009   2.115  0.00  0.00    -0.004 A 
ENDROOT
TORSDOF 0
ENDMDL
