MODEL 1
REMARK minimizedAffinity 0.809034109
REMARK minimizedRMSD -1
REMARK  0 active torsions:
REMARK  status: ('A' for Active; 'I' for Inactive)
ROOT
ATOM      1  C   UNL d   1       2.196   1.225   2.176  0.00  0.00     0.172 C 
ATOM      2  N   UNL d   1       1.628   0.940   0.879  0.00  0.00    -0.070 N 
ATOM      3  C1  UNL d   1       0.997   1.844   0.067  0.00  0.00    -0.004 A 
ATOM      4  C2  UNL d   1       0.602   1.182  -1.075  0.00  0.00    -0.047 A 
ATOM      5  C3  UNL d   1       1.008  -0.167  -0.944  0.00  0.00    -0.047 A 
ATOM      6  C4  UNL d   1       1.641  -0.290   0.275  0.00  0.00    -0.004 A 
ENDROOT
TORSDOF 0
ENDMDL
