MODEL 1
REMARK minimizedAffinity -2.13845062
REMARK minimizedRMSD -1
REMARK  0 active torsions:
REMARK  status: ('A' for Active; 'I' for Inactive)
ROOT
ATOM      1  C1  BNZ d   1       0.151   4.989   3.749  0.00  0.00     0.000 A 
ATOM      2  C2  BNZ d   1       0.535   6.000   4.589  0.00  0.00     0.000 A 
ATOM      3  C3  BNZ d   1       1.777   6.000   5.161  0.00  0.00     0.000 A 
ATOM      4  C4  BNZ d   1       2.616   4.971   4.925  0.00  0.00     0.000 A 
ATOM      5  C5  BNZ d   1       2.239   3.939   4.088  0.00  0.00     0.000 A 
ATOM      6  C6  BNZ d   1       1.003   3.962   3.483  0.00  0.00     0.000 A 
ENDROOT
TORSDOF 0
ENDMDL
