MODEL 1
REMARK minimizedAffinity 0.504817247
REMARK minimizedRMSD -1
REMARK  0 active torsions:
REMARK  status: ('A' for Active; 'I' for Inactive)
ROOT
ATOM      1  C1  BNZ d   1       3.726   5.436   4.408  0.00  0.00     0.000 A 
ATOM      2  C2  BNZ d   1       3.220   5.999   5.549  0.00  0.00     0.000 A 
ATOM      3  C3  BNZ d   1       1.875   6.000   5.792  0.00  0.00     0.000 A 
ATOM      4  C4  BNZ d   1       1.035   5.474   4.877  0.00  0.00     0.000 A 
ATOM      5  C5  BNZ d   1       1.529   4.912   3.717  0.00  0.00     0.000 A 
ATOM      6  C6  BNZ d   1       2.887   4.878   3.494  0.00  0.00     0.000 A 
ENDROOT
TORSDOF 0
ENDMDL
