MODEL 1
REMARK minimizedAffinity 5.80917025
REMARK minimizedRMSD -1
REMARK  0 active torsions:
REMARK  status: ('A' for Active; 'I' for Inactive)
ROOT
ATOM      1  C1  BNZ d   1       3.919   3.755  -5.993  0.00  0.00     0.000 A 
ATOM      2  C2  BNZ d   1       2.858   4.621  -6.000  0.00  0.00     0.000 A 
ATOM      3  C3  BNZ d   1       1.573   4.155  -5.982  0.00  0.00     0.000 A 
ATOM      4  C4  BNZ d   1       1.351   2.825  -5.997  0.00  0.00     0.000 A 
ATOM      5  C5  BNZ d   1       2.409   1.939  -6.000  0.00  0.00     0.000 A 
ATOM      6  C6  BNZ d   1       3.701   2.412  -5.979  0.00  0.00     0.000 A 
ENDROOT
TORSDOF 0
ENDMDL
