MODEL 1
REMARK minimizedAffinity -1.25033867
REMARK minimizedRMSD -1
REMARK  0 active torsions:
REMARK  status: ('A' for Active; 'I' for Inactive)
ROOT
ATOM      1  C1  BNZ d   1       2.976   5.238   4.986  0.00  0.00     0.000 A 
ATOM      2  C2  BNZ d   1       2.034   6.000   5.625  0.00  0.00     0.000 A 
ATOM      3  C3  BNZ d   1       0.733   6.000   5.208  0.00  0.00     0.000 A 
ATOM      4  C4  BNZ d   1       0.382   5.270   4.129  0.00  0.00     0.000 A 
ATOM      5  C5  BNZ d   1       1.322   4.504   3.468  0.00  0.00     0.000 A 
ATOM      6  C6  BNZ d   1       2.623   4.476   3.915  0.00  0.00     0.000 A 
ENDROOT
TORSDOF 0
ENDMDL
