MODEL 1
REMARK minimizedAffinity -1.17980242
REMARK minimizedRMSD -1
REMARK  0 active torsions:
REMARK  status: ('A' for Active; 'I' for Inactive)
ROOT
ATOM      1  C1  BNZ d   1       3.052   4.169   4.504  0.00  0.00     0.000 A 
ATOM      2  C2  BNZ d   1       3.259   5.097   5.489  0.00  0.00     0.000 A 
ATOM      3  C3  BNZ d   1       2.286   6.000   5.816  0.00  0.00     0.000 A 
ATOM      4  C4  BNZ d   1       1.125   6.000   5.131  0.00  0.00     0.000 A 
ATOM      5  C5  BNZ d   1       0.904   5.077   4.128  0.00  0.00     0.000 A 
ATOM      6  C6  BNZ d   1       1.871   4.144   3.828  0.00  0.00     0.000 A 
ENDROOT
TORSDOF 0
ENDMDL
