MODEL 1
REMARK minimizedAffinity -0.941453338
REMARK minimizedRMSD -1
REMARK  0 active torsions:
REMARK  status: ('A' for Active; 'I' for Inactive)
ROOT
ATOM      1  C1  BNZ d   1       3.045   3.518  -5.817  0.00  0.00     0.000 A 
ATOM      2  C2  BNZ d   1       4.407   3.662  -5.827  0.00  0.00     0.000 A 
ATOM      3  C3  BNZ d   1       4.980   4.901  -5.899  0.00  0.00     0.000 A 
ATOM      4  C4  BNZ d   1       4.192   5.990  -6.000  0.00  0.00     0.000 A 
ATOM      5  C5  BNZ d   1       2.817   5.861  -6.000  0.00  0.00     0.000 A 
ATOM      6  C6  BNZ d   1       2.244   4.615  -5.889  0.00  0.00     0.000 A 
ENDROOT
TORSDOF 0
ENDMDL
