MODEL 1
REMARK minimizedAffinity -2.30321312
REMARK minimizedRMSD -1
REMARK  0 active torsions:
REMARK  status: ('A' for Active; 'I' for Inactive)
ROOT
ATOM      1  C1  BNZ d   1       4.511   4.014  -5.995  0.00  0.00     0.000 A 
ATOM      2  C2  BNZ d   1       4.231   5.354  -5.998  0.00  0.00     0.000 A 
ATOM      3  C3  BNZ d   1       2.938   5.798  -5.978  0.00  0.00     0.000 A 
ATOM      4  C4  BNZ d   1       1.929   4.904  -5.994  0.00  0.00     0.000 A 
ATOM      5  C5  BNZ d   1       2.196   3.549  -6.000  0.00  0.00     0.000 A 
ATOM      6  C6  BNZ d   1       3.498   3.105  -5.981  0.00  0.00     0.000 A 
ENDROOT
TORSDOF 0
ENDMDL
