MODEL 1
REMARK minimizedAffinity -1.40989387
REMARK minimizedRMSD -1
REMARK  0 active torsions:
REMARK  status: ('A' for Active; 'I' for Inactive)
ROOT
ATOM      1  C1  BNZ d   1       0.722   4.478   3.721  0.00  0.00     0.000 A 
ATOM      2  C2  BNZ d   1       0.766   5.642   4.442  0.00  0.00     0.000 A 
ATOM      3  C3  BNZ d   1       1.890   5.994   5.134  0.00  0.00     0.000 A 
ATOM      4  C4  BNZ d   1       2.953   5.164   5.138  0.00  0.00     0.000 A 
ATOM      5  C5  BNZ d   1       2.921   3.983   4.424  0.00  0.00     0.000 A 
ATOM      6  C6  BNZ d   1       1.802   3.651   3.696  0.00  0.00     0.000 A 
ENDROOT
TORSDOF 0
ENDMDL
