MODEL 1
REMARK minimizedAffinity -2.3680315
REMARK minimizedRMSD -1
REMARK  0 active torsions:
REMARK  status: ('A' for Active; 'I' for Inactive)
ROOT
ATOM      1  C1  BNZ d   1       4.127   5.989  -5.431  0.00  0.00     0.000 A 
ATOM      2  C2  BNZ d   1       5.400   5.496  -5.534  0.00  0.00     0.000 A 
ATOM      3  C3  BNZ d   1       5.619   4.182  -5.839  0.00  0.00     0.000 A 
ATOM      4  C4  BNZ d   1       4.567   3.354  -6.000  0.00  0.00     0.000 A 
ATOM      5  C5  BNZ d   1       3.277   3.834  -5.890  0.00  0.00     0.000 A 
ATOM      6  C6  BNZ d   1       3.060   5.166  -5.622  0.00  0.00     0.000 A 
ENDROOT
TORSDOF 0
ENDMDL
