MODEL 1
REMARK minimizedAffinity 5.52215195
REMARK minimizedRMSD -1
REMARK  1 active torsions:
REMARK  status: ('A' for Active; 'I' for Inactive)
REMARK    1  A    between atoms: C1_2  and  C2_3 
ROOT
ATOM      1  C2  UNL d   1       0.593   3.118  -0.149  0.00  0.00    -0.081 A 
ATOM      2  C3  UNL d   1      -0.623   3.500   0.431  0.00  0.00     0.006 A 
ATOM      3  C4  UNL d   1      -1.101   2.846   1.569  0.00  0.00     0.002 A 
ATOM      4  C5  UNL d   1      -0.369   1.806   2.150  0.00  0.00    -0.080 A 
ATOM      5  C6  UNL d   1      -0.856   1.116   3.389  0.00  0.00     0.076 C 
ATOM      6  C7  UNL d   1       0.838   1.412   1.560  0.00  0.00     0.002 A 
ATOM      7  C8  UNL d   1       1.316   2.065   0.422  0.00  0.00     0.006 A 
ENDROOT
BRANCH   1   8
ATOM      8  C1  UNL d   1       1.143   3.864  -1.338  0.00  0.00     0.054 C 
ATOM      9  C   UNL d   1       2.331   4.731  -0.946  0.00  0.00     0.018 C 
ENDBRANCH   1   8
TORSDOF 1
ENDMDL
