MODEL 1
REMARK minimizedAffinity 7.03201771
REMARK minimizedRMSD -1
REMARK  1 active torsions:
REMARK  status: ('A' for Active; 'I' for Inactive)
REMARK    1  A    between atoms: C1_2  and  C2_3 
ROOT
ATOM      1  C2  UNL d   1      -0.118   2.316   2.038  0.00  0.00    -0.081 A 
ATOM      2  C3  UNL d   1       0.230   2.342   0.682  0.00  0.00     0.006 A 
ATOM      3  C4  UNL d   1      -0.698   2.747  -0.280  0.00  0.00     0.002 A 
ATOM      4  C5  UNL d   1      -1.986   3.140   0.097  0.00  0.00    -0.080 A 
ATOM      5  C6  UNL d   1      -2.983   3.606  -0.922  0.00  0.00     0.076 C 
ATOM      6  C7  UNL d   1      -2.340   3.098   1.450  0.00  0.00     0.002 A 
ATOM      7  C8  UNL d   1      -1.413   2.693   2.413  0.00  0.00     0.006 A 
ENDROOT
BRANCH   1   8
ATOM      8  C1  UNL d   1       0.900   1.942   3.084  0.00  0.00     0.054 C 
ATOM      9  C   UNL d   1       2.169   2.772   2.943  0.00  0.00     0.018 C 
ENDBRANCH   1   8
TORSDOF 1
ENDMDL
