MODEL 1
REMARK minimizedAffinity 7.71619034
REMARK minimizedRMSD -1
REMARK  1 active torsions:
REMARK  status: ('A' for Active; 'I' for Inactive)
REMARK    1  A    between atoms: C1_2  and  C2_3 
ROOT
ATOM      1  C2  UNL d   1      -3.564   5.606  -1.268  0.00  0.00    -0.081 A 
ATOM      2  C3  UNL d   1      -2.272   5.507  -0.737  0.00  0.00     0.006 A 
ATOM      3  C4  UNL d   1      -2.059   5.646   0.636  0.00  0.00     0.002 A 
ATOM      4  C5  UNL d   1      -3.133   5.879   1.502  0.00  0.00    -0.080 A 
ATOM      5  C6  UNL d   1      -2.921   6.000   2.982  0.00  0.00     0.076 C 
ATOM      6  C7  UNL d   1      -4.421   5.996   0.969  0.00  0.00     0.002 A 
ATOM      7  C8  UNL d   1      -4.635   5.857  -0.404  0.00  0.00     0.006 A 
ENDROOT
BRANCH   1   8
ATOM      8  C1  UNL d   1      -3.806   5.392  -2.741  0.00  0.00     0.054 C 
ATOM      9  C   UNL d   1      -5.236   4.945  -3.007  0.00  0.00     0.018 C 
ENDBRANCH   1   8
TORSDOF 1
ENDMDL
