MODEL 1
REMARK minimizedAffinity 7.43505144
REMARK minimizedRMSD -1
REMARK  1 active torsions:
REMARK  status: ('A' for Active; 'I' for Inactive)
REMARK    1  A    between atoms: C1_2  and  C2_3 
ROOT
ATOM      1  C2  UNL d   1       0.928   1.566  -0.530  0.00  0.00    -0.081 A 
ATOM      2  C3  UNL d   1       1.042   1.834   0.839  0.00  0.00     0.006 A 
ATOM      3  C4  UNL d   1       0.105   2.646   1.483  0.00  0.00     0.002 A 
ATOM      4  C5  UNL d   1      -0.965   3.197   0.771  0.00  0.00    -0.080 A 
ATOM      5  C6  UNL d   1      -1.995   4.045   1.456  0.00  0.00     0.076 C 
ATOM      6  C7  UNL d   1      -1.070   2.943  -0.601  0.00  0.00     0.002 A 
ATOM      7  C8  UNL d   1      -0.133   2.132  -1.245  0.00  0.00     0.006 A 
ENDROOT
BRANCH   1   8
ATOM      8  C1  UNL d   1       1.900   0.639  -1.214  0.00  0.00     0.054 C 
ATOM      9  C   UNL d   1       2.106  -0.637  -0.410  0.00  0.00     0.018 C 
ENDBRANCH   1   8
TORSDOF 1
ENDMDL
