MODEL 1
REMARK minimizedAffinity 0.597282767
REMARK minimizedRMSD -1
REMARK  0 active torsions:
REMARK  status: ('A' for Active; 'I' for Inactive)
ROOT
ATOM      1  C   UNL d   1      -1.141   2.342   2.392  0.00  0.00     0.020 A 
ATOM      2  C1  UNL d   1      -1.780   2.234   1.158  0.00  0.00     0.020 A 
ATOM      3  C2  UNL d   1      -1.622   1.079   0.389  0.00  0.00     0.034 A 
ATOM      4  C3  UNL d   1      -0.824   0.027   0.853  0.00  0.00     0.017 A 
ATOM      5  C4  UNL d   1      -0.183   0.136   2.093  0.00  0.00     0.017 A 
ATOM      6  C5  UNL d   1      -0.344   1.295   2.859  0.00  0.00     0.034 A 
ATOM      7 Cl   UNL d   1       0.818  -1.119   2.732  0.00  0.00    -0.070 Cl
ATOM      8 Cl1  UNL d   1      -0.674  -1.372  -0.150  0.00  0.00    -0.070 Cl
ENDROOT
TORSDOF 0
ENDMDL
