MODEL 1
REMARK minimizedAffinity 6.41108704
REMARK minimizedRMSD -1
REMARK  0 active torsions:
REMARK  status: ('A' for Active; 'I' for Inactive)
ROOT
ATOM      1  C   UNL d   1      -0.097   1.238  -2.042  0.00  0.00     0.020 A 
ATOM      2  C1  UNL d   1       0.624   2.102  -1.218  0.00  0.00     0.020 A 
ATOM      3  C2  UNL d   1       0.046   2.591  -0.044  0.00  0.00     0.034 A 
ATOM      4  C3  UNL d   1      -1.255   2.216   0.309  0.00  0.00     0.017 A 
ATOM      5  C4  UNL d   1      -1.977   1.349  -0.518  0.00  0.00     0.017 A 
ATOM      6  C5  UNL d   1      -1.394   0.862  -1.693  0.00  0.00     0.034 A 
ATOM      7 Cl   UNL d   1      -3.588   0.841  -0.149  0.00  0.00    -0.070 Cl
ATOM      8 Cl1  UNL d   1      -1.906   2.859   1.775  0.00  0.00    -0.070 Cl
ENDROOT
TORSDOF 0
ENDMDL
