MODEL 1
REMARK minimizedAffinity 0.103991374
REMARK minimizedRMSD -1
REMARK  0 active torsions:
REMARK  status: ('A' for Active; 'I' for Inactive)
ROOT
ATOM      1  C   UNL d   1      -1.903   2.607   0.130  0.00  0.00     0.020 A 
ATOM      2  C1  UNL d   1      -1.522   1.460  -0.565  0.00  0.00     0.020 A 
ATOM      3  C2  UNL d   1      -0.781   0.467   0.080  0.00  0.00     0.034 A 
ATOM      4  C3  UNL d   1      -0.420   0.619   1.423  0.00  0.00     0.017 A 
ATOM      5  C4  UNL d   1      -0.804   1.771   2.120  0.00  0.00     0.017 A 
ATOM      6  C5  UNL d   1      -1.545   2.762   1.469  0.00  0.00     0.034 A 
ATOM      7 Cl   UNL d   1      -0.395   2.030   3.779  0.00  0.00    -0.070 Cl
ATOM      8 Cl1  UNL d   1       0.495  -0.649   2.158  0.00  0.00    -0.070 Cl
ENDROOT
TORSDOF 0
ENDMDL
