MODEL 1
REMARK minimizedAffinity -3.84594893
REMARK minimizedRMSD -1
REMARK  0 active torsions:
REMARK  status: ('A' for Active; 'I' for Inactive)
ROOT
ATOM      1  C   UNL d   1       0.567  -0.691  -0.044  0.00  0.00     0.020 A 
ATOM      2  C1  UNL d   1       0.463  -0.713   1.346  0.00  0.00     0.020 A 
ATOM      3  C2  UNL d   1      -0.071   0.385   2.024  0.00  0.00     0.034 A 
ATOM      4  C3  UNL d   1      -0.504   1.509   1.312  0.00  0.00     0.017 A 
ATOM      5  C4  UNL d   1      -0.399   1.530  -0.084  0.00  0.00     0.017 A 
ATOM      6  C5  UNL d   1       0.137   0.428  -0.757  0.00  0.00     0.034 A 
ATOM      7 Cl   UNL d   1      -0.912   2.882  -1.031  0.00  0.00    -0.070 Cl
ATOM      8 Cl1  UNL d   1      -1.155   2.831   2.215  0.00  0.00    -0.070 Cl
ENDROOT
TORSDOF 0
ENDMDL
