MODEL 1
REMARK minimizedAffinity -4.69917536
REMARK minimizedRMSD -1
REMARK  0 active torsions:
REMARK  status: ('A' for Active; 'I' for Inactive)
ROOT
ATOM      1  C   UNL d   1      -1.865   1.703   1.564  0.00  0.00     0.020 A 
ATOM      2  C1  UNL d   1      -1.796   1.695   0.172  0.00  0.00     0.020 A 
ATOM      3  C2  UNL d   1      -1.064   0.704  -0.486  0.00  0.00     0.034 A 
ATOM      4  C3  UNL d   1      -0.398  -0.284   0.250  0.00  0.00     0.017 A 
ATOM      5  C4  UNL d   1      -0.468  -0.275   1.647  0.00  0.00     0.017 A 
ATOM      6  C5  UNL d   1      -1.203   0.720   2.300  0.00  0.00     0.034 A 
ATOM      7 Cl   UNL d   1       0.327  -1.460   2.623  0.00  0.00    -0.070 Cl
ATOM      8 Cl1  UNL d   1       0.489  -1.479  -0.629  0.00  0.00    -0.070 Cl
ENDROOT
TORSDOF 0
ENDMDL
