MODEL 1
REMARK minimizedAffinity -3.12365961
REMARK minimizedRMSD -1
REMARK  0 active torsions:
REMARK  status: ('A' for Active; 'I' for Inactive)
ROOT
ATOM      1  C   UNL d   1      -1.805  -0.097   0.923  0.00  0.00     0.020 A 
ATOM      2  C1  UNL d   1      -1.263   1.182   0.809  0.00  0.00     0.020 A 
ATOM      3  C2  UNL d   1      -0.178   1.409  -0.041  0.00  0.00     0.034 A 
ATOM      4  C3  UNL d   1       0.367   0.354  -0.782  0.00  0.00     0.017 A 
ATOM      5  C4  UNL d   1      -0.177  -0.930  -0.667  0.00  0.00     0.017 A 
ATOM      6  C5  UNL d   1      -1.263  -1.151   0.186  0.00  0.00     0.034 A 
ATOM      7 Cl   UNL d   1       0.442  -2.282  -1.549  0.00  0.00    -0.070 Cl
ATOM      8 Cl1  UNL d   1       1.708   0.706  -1.814  0.00  0.00    -0.070 Cl
ENDROOT
TORSDOF 0
ENDMDL
