MODEL 1
REMARK minimizedAffinity -2.7605114
REMARK minimizedRMSD -1
REMARK  0 active torsions:
REMARK  status: ('A' for Active; 'I' for Inactive)
ROOT
ATOM      1  C   UNL d   1       0.820  -0.767   0.169  0.00  0.00     0.020 A 
ATOM      2  C1  UNL d   1       0.147  -0.769   1.390  0.00  0.00     0.020 A 
ATOM      3  C2  UNL d   1      -0.786   0.230   1.675  0.00  0.00     0.034 A 
ATOM      4  C3  UNL d   1      -1.047   1.237   0.739  0.00  0.00     0.017 A 
ATOM      5  C4  UNL d   1      -0.370   1.239  -0.486  0.00  0.00     0.017 A 
ATOM      6  C5  UNL d   1       0.563   0.236  -0.767  0.00  0.00     0.034 A 
ATOM      7 Cl   UNL d   1      -0.638   2.448  -1.692  0.00  0.00    -0.070 Cl
ATOM      8 Cl1  UNL d   1      -2.212   2.442   1.158  0.00  0.00    -0.070 Cl
ENDROOT
TORSDOF 0
ENDMDL
