MODEL 1
REMARK minimizedAffinity -4.16160917
REMARK minimizedRMSD -1
REMARK  0 active torsions:
REMARK  status: ('A' for Active; 'I' for Inactive)
ROOT
ATOM      1  C   UNL d   1       1.175  -1.034  -0.501  0.00  0.00     0.020 A 
ATOM      2  C1  UNL d   1       0.463  -1.261   0.676  0.00  0.00     0.020 A 
ATOM      3  C2  UNL d   1      -0.443  -0.305   1.140  0.00  0.00     0.034 A 
ATOM      4  C3  UNL d   1      -0.639   0.883   0.427  0.00  0.00     0.017 A 
ATOM      5  C4  UNL d   1       0.076   1.111  -0.754  0.00  0.00     0.017 A 
ATOM      6  C5  UNL d   1       0.982   0.150  -1.214  0.00  0.00     0.034 A 
ATOM      7 Cl   UNL d   1      -0.113   2.552  -1.688  0.00  0.00    -0.070 Cl
ATOM      8 Cl1  UNL d   1      -1.775   2.021   1.059  0.00  0.00    -0.070 Cl
ENDROOT
TORSDOF 0
ENDMDL
