MODEL 1
REMARK minimizedAffinity -3.83196878
REMARK minimizedRMSD -1
REMARK  0 active torsions:
REMARK  status: ('A' for Active; 'I' for Inactive)
ROOT
ATOM      1  C   UNL d   1      -1.323   1.438   2.173  0.00  0.00     0.020 A 
ATOM      2  C1  UNL d   1      -1.528   1.624   0.806  0.00  0.00     0.020 A 
ATOM      3  C2  UNL d   1      -0.970   0.733  -0.112  0.00  0.00     0.034 A 
ATOM      4  C3  UNL d   1      -0.203  -0.350   0.335  0.00  0.00     0.017 A 
ATOM      5  C4  UNL d   1       0.003  -0.536   1.707  0.00  0.00     0.017 A 
ATOM      6  C5  UNL d   1      -0.559   0.360   2.622  0.00  0.00     0.034 A 
ATOM      7 Cl   UNL d   1       0.937  -1.848   2.334  0.00  0.00    -0.070 Cl
ATOM      8 Cl1  UNL d   1       0.457  -1.413  -0.856  0.00  0.00    -0.070 Cl
ENDROOT
TORSDOF 0
ENDMDL
