MODEL 1
REMARK minimizedAffinity -3.2410202
REMARK minimizedRMSD -1
REMARK  0 active torsions:
REMARK  status: ('A' for Active; 'I' for Inactive)
ROOT
ATOM      1  C   UNL d   1       0.460  -0.808   0.206  0.00  0.00     0.020 A 
ATOM      2  C1  UNL d   1      -0.181  -0.823   1.444  0.00  0.00     0.020 A 
ATOM      3  C2  UNL d   1      -0.973   0.259   1.833  0.00  0.00     0.034 A 
ATOM      4  C3  UNL d   1      -1.127   1.361   0.983  0.00  0.00     0.017 A 
ATOM      5  C4  UNL d   1      -0.483   1.375  -0.259  0.00  0.00     0.017 A 
ATOM      6  C5  UNL d   1       0.309   0.289  -0.644  0.00  0.00     0.034 A 
ATOM      7 Cl   UNL d   1      -0.624   2.698  -1.362  0.00  0.00    -0.070 Cl
ATOM      8 Cl1  UNL d   1      -2.121   2.664   1.529  0.00  0.00    -0.070 Cl
ENDROOT
TORSDOF 0
ENDMDL
