MODEL 1
REMARK minimizedAffinity -2.36606479
REMARK minimizedRMSD -1
REMARK  0 active torsions:
REMARK  status: ('A' for Active; 'I' for Inactive)
ROOT
ATOM      1  C   UNL d   1      -1.495   1.906   0.290  0.00  0.00     0.020 A 
ATOM      2  C1  UNL d   1      -1.504   1.891   1.685  0.00  0.00     0.020 A 
ATOM      3  C2  UNL d   1      -0.765   0.929   2.376  0.00  0.00     0.034 A 
ATOM      4  C3  UNL d   1      -0.015  -0.022   1.674  0.00  0.00     0.017 A 
ATOM      5  C4  UNL d   1      -0.008  -0.006   0.275  0.00  0.00     0.017 A 
ATOM      6  C5  UNL d   1      -0.749   0.960  -0.413  0.00  0.00     0.034 A 
ATOM      7 Cl   UNL d   1       0.893  -1.146  -0.660  0.00  0.00    -0.070 Cl
ATOM      8 Cl1  UNL d   1       0.875  -1.182   2.595  0.00  0.00    -0.070 Cl
ENDROOT
TORSDOF 0
ENDMDL
