MODEL 1
REMARK minimizedAffinity -3.28112769
REMARK minimizedRMSD -1
REMARK  0 active torsions:
REMARK  status: ('A' for Active; 'I' for Inactive)
ROOT
ATOM      1  C   UNL d   1      -1.802   1.196   1.926  0.00  0.00     0.020 A 
ATOM      2  C1  UNL d   1      -1.318  -0.066   2.269  0.00  0.00     0.020 A 
ATOM      3  C2  UNL d   1      -0.355  -0.685   1.471  0.00  0.00     0.034 A 
ATOM      4  C3  UNL d   1       0.127  -0.043   0.324  0.00  0.00     0.017 A 
ATOM      5  C4  UNL d   1      -0.359   1.223  -0.020  0.00  0.00     0.017 A 
ATOM      6  C5  UNL d   1      -1.324   1.839   0.784  0.00  0.00     0.034 A 
ATOM      7 Cl   UNL d   1       0.188   2.078  -1.419  0.00  0.00    -0.070 Cl
ATOM      8 Cl1  UNL d   1       1.319  -0.868  -0.617  0.00  0.00    -0.070 Cl
ENDROOT
TORSDOF 0
ENDMDL
