MODEL 1
REMARK minimizedAffinity -5.35588932
REMARK minimizedRMSD -1
REMARK  0 active torsions:
REMARK  status: ('A' for Active; 'I' for Inactive)
ROOT
ATOM      1  C   UNL d   1      -1.965   1.821   0.851  0.00  0.00     0.020 A 
ATOM      2  C1  UNL d   1      -1.389   1.743  -0.416  0.00  0.00     0.020 A 
ATOM      3  C2  UNL d   1      -0.456   0.744  -0.698  0.00  0.00     0.034 A 
ATOM      4  C3  UNL d   1      -0.095  -0.182   0.288  0.00  0.00     0.017 A 
ATOM      5  C4  UNL d   1      -0.674  -0.103   1.560  0.00  0.00     0.017 A 
ATOM      6  C5  UNL d   1      -1.608   0.900   1.837  0.00  0.00     0.034 A 
ATOM      7 Cl   UNL d   1      -0.279  -1.209   2.828  0.00  0.00    -0.070 Cl
ATOM      8 Cl1  UNL d   1       1.065  -1.391  -0.131  0.00  0.00    -0.070 Cl
ENDROOT
TORSDOF 0
ENDMDL
