MODEL 1
REMARK minimizedAffinity -5.52241182
REMARK minimizedRMSD -1
REMARK  0 active torsions:
REMARK  status: ('A' for Active; 'I' for Inactive)
ROOT
ATOM      1  C   UNL d   1      -1.481   2.278   0.264  0.00  0.00     0.020 A 
ATOM      2  C1  UNL d   1      -1.774   2.234   1.627  0.00  0.00     0.020 A 
ATOM      3  C2  UNL d   1      -1.368   1.140   2.394  0.00  0.00     0.034 A 
ATOM      4  C3  UNL d   1      -0.667   0.085   1.799  0.00  0.00     0.017 A 
ATOM      5  C4  UNL d   1      -0.374   0.129   0.431  0.00  0.00     0.017 A 
ATOM      6  C5  UNL d   1      -0.782   1.227  -0.332  0.00  0.00     0.034 A 
ATOM      7 Cl   UNL d   1       0.487  -1.135  -0.373  0.00  0.00    -0.070 Cl
ATOM      8 Cl1  UNL d   1      -0.196  -1.236   2.808  0.00  0.00    -0.070 Cl
ENDROOT
TORSDOF 0
ENDMDL
