MODEL 1
REMARK minimizedAffinity -5.38822365
REMARK minimizedRMSD -1
REMARK  0 active torsions:
REMARK  status: ('A' for Active; 'I' for Inactive)
ROOT
ATOM      1  C   UNL d   1      -1.447   2.280   0.086  0.00  0.00     0.020 A 
ATOM      2  C1  UNL d   1      -1.874   2.051   1.394  0.00  0.00     0.020 A 
ATOM      3  C2  UNL d   1      -1.429   0.922   2.086  0.00  0.00     0.034 A 
ATOM      4  C3  UNL d   1      -0.556   0.018   1.471  0.00  0.00     0.017 A 
ATOM      5  C4  UNL d   1      -0.128   0.249   0.158  0.00  0.00     0.017 A 
ATOM      6  C5  UNL d   1      -0.576   1.380  -0.530  0.00  0.00     0.034 A 
ATOM      7 Cl   UNL d   1       0.949  -0.822  -0.667  0.00  0.00    -0.070 Cl
ATOM      8 Cl1  UNL d   1      -0.047  -1.356   2.386  0.00  0.00    -0.070 Cl
ENDROOT
TORSDOF 0
ENDMDL
