MODEL 1
REMARK minimizedAffinity -4.40789461
REMARK minimizedRMSD -1
REMARK  0 active torsions:
REMARK  status: ('A' for Active; 'I' for Inactive)
ROOT
ATOM      1  C   UNL d   1      -1.670   1.668   1.719  0.00  0.00     0.020 A 
ATOM      2  C1  UNL d   1      -1.441   1.792   0.349  0.00  0.00     0.020 A 
ATOM      3  C2  UNL d   1      -0.618   0.874  -0.307  0.00  0.00     0.034 A 
ATOM      4  C3  UNL d   1      -0.020  -0.171   0.407  0.00  0.00     0.017 A 
ATOM      5  C4  UNL d   1      -0.250  -0.294   1.782  0.00  0.00     0.017 A 
ATOM      6  C5  UNL d   1      -1.075   0.628   2.434  0.00  0.00     0.034 A 
ATOM      7 Cl   UNL d   1       0.453  -1.557   2.730  0.00  0.00    -0.070 Cl
ATOM      8 Cl1  UNL d   1       0.986  -1.269  -0.469  0.00  0.00    -0.070 Cl
ENDROOT
TORSDOF 0
ENDMDL
