MODEL 1
REMARK minimizedAffinity -4.44673204
REMARK minimizedRMSD -1
REMARK  0 active torsions:
REMARK  status: ('A' for Active; 'I' for Inactive)
ROOT
ATOM      1  C   UNL d   1      -1.312   2.289   0.317  0.00  0.00     0.020 A 
ATOM      2  C1  UNL d   1      -1.843   2.218   1.604  0.00  0.00     0.020 A 
ATOM      3  C2  UNL d   1      -1.632   1.078   2.384  0.00  0.00     0.034 A 
ATOM      4  C3  UNL d   1      -0.889   0.006   1.877  0.00  0.00     0.017 A 
ATOM      5  C4  UNL d   1      -0.357   0.079   0.584  0.00  0.00     0.017 A 
ATOM      6  C5  UNL d   1      -0.571   1.222  -0.192  0.00  0.00     0.034 A 
ATOM      7 Cl   UNL d   1       0.571  -1.204  -0.109  0.00  0.00    -0.070 Cl
ATOM      8 Cl1  UNL d   1      -0.668  -1.371   2.896  0.00  0.00    -0.070 Cl
ENDROOT
TORSDOF 0
ENDMDL
