MODEL 1
REMARK minimizedAffinity -3.80259347
REMARK minimizedRMSD -1
REMARK  0 active torsions:
REMARK  status: ('A' for Active; 'I' for Inactive)
ROOT
ATOM      1  C   UNL d   1      -1.366   2.313  -0.027  0.00  0.00     0.020 A 
ATOM      2  C1  UNL d   1      -2.013   2.245   1.206  0.00  0.00     0.020 A 
ATOM      3  C2  UNL d   1      -1.750   1.184   2.075  0.00  0.00     0.034 A 
ATOM      4  C3  UNL d   1      -0.839   0.186   1.711  0.00  0.00     0.017 A 
ATOM      5  C4  UNL d   1      -0.190   0.255   0.473  0.00  0.00     0.017 A 
ATOM      6  C5  UNL d   1      -0.456   1.320  -0.393  0.00  0.00     0.034 A 
ATOM      7 Cl   UNL d   1       0.948  -0.939  -0.045  0.00  0.00    -0.070 Cl
ATOM      8 Cl1  UNL d   1      -0.562  -1.098   2.835  0.00  0.00    -0.070 Cl
ENDROOT
TORSDOF 0
ENDMDL
