MODEL 1
REMARK minimizedAffinity 0.211945966
REMARK minimizedRMSD -1
REMARK  0 active torsions:
REMARK  status: ('A' for Active; 'I' for Inactive)
ROOT
ATOM      1  C   UNL d   1       0.463  -0.649  -0.028  0.00  0.00     0.020 A 
ATOM      2  C1  UNL d   1       1.067  -0.201  -1.202  0.00  0.00     0.020 A 
ATOM      3  C2  UNL d   1       0.916   1.129  -1.602  0.00  0.00     0.034 A 
ATOM      4  C3  UNL d   1       0.158   2.015  -0.827  0.00  0.00     0.017 A 
ATOM      5  C4  UNL d   1      -0.449   1.564   0.351  0.00  0.00     0.017 A 
ATOM      6  C5  UNL d   1      -0.294   0.232   0.746  0.00  0.00     0.034 A 
ATOM      7 Cl   UNL d   1      -1.399   2.598   1.358  0.00  0.00    -0.070 Cl
ATOM      8 Cl1  UNL d   1       0.013   3.645  -1.382  0.00  0.00    -0.070 Cl
ENDROOT
TORSDOF 0
ENDMDL
