MODEL 1
REMARK minimizedAffinity 12.3491726
REMARK minimizedRMSD -1
REMARK  0 active torsions:
REMARK  status: ('A' for Active; 'I' for Inactive)
ROOT
ATOM      1  C   UNL d   1      -1.802  -2.043  -0.308  0.00  0.00     0.020 A 
ATOM      2  C1  UNL d   1      -1.231  -2.990  -1.157  0.00  0.00     0.020 A 
ATOM      3  C2  UNL d   1      -0.769  -4.203  -0.640  0.00  0.00     0.034 A 
ATOM      4  C3  UNL d   1      -0.878  -4.471   0.730  0.00  0.00     0.017 A 
ATOM      5  C4  UNL d   1      -1.451  -3.519   1.581  0.00  0.00     0.017 A 
ATOM      6  C5  UNL d   1      -1.912  -2.307   1.058  0.00  0.00     0.034 A 
ATOM      7 Cl   UNL d   1      -1.620  -3.779   3.281  0.00  0.00    -0.070 Cl
ATOM      8 Cl1  UNL d   1      -0.286  -5.991   1.300  0.00  0.00    -0.070 Cl
ENDROOT
TORSDOF 0
ENDMDL
