MODEL 1
REMARK minimizedAffinity 5.14509678
REMARK minimizedRMSD -1
REMARK  0 active torsions:
REMARK  status: ('A' for Active; 'I' for Inactive)
ROOT
ATOM      1  C   UNL d   1      -0.934  -3.628  -0.301  0.00  0.00     0.020 A 
ATOM      2  C1  UNL d   1      -1.241  -2.293  -0.043  0.00  0.00     0.020 A 
ATOM      3  C2  UNL d   1      -1.628  -1.902   1.241  0.00  0.00     0.034 A 
ATOM      4  C3  UNL d   1      -1.707  -2.846   2.271  0.00  0.00     0.017 A 
ATOM      5  C4  UNL d   1      -1.398  -4.186   2.010  0.00  0.00     0.017 A 
ATOM      6  C5  UNL d   1      -1.012  -4.573   0.723  0.00  0.00     0.034 A 
ATOM      7 Cl   UNL d   1      -1.473  -5.408   3.230  0.00  0.00    -0.070 Cl
ATOM      8 Cl1  UNL d   1      -2.192  -2.291   3.834  0.00  0.00    -0.070 Cl
ENDROOT
TORSDOF 0
ENDMDL
