MODEL 1
REMARK minimizedAffinity 9.94186592
REMARK minimizedRMSD -1
REMARK  0 active torsions:
REMARK  status: ('A' for Active; 'I' for Inactive)
ROOT
ATOM      1  C   UNL d   1      -0.930  -3.724  -1.308  0.00  0.00     0.020 A 
ATOM      2  C1  UNL d   1      -1.336  -2.497  -0.785  0.00  0.00     0.020 A 
ATOM      3  C2  UNL d   1      -1.469  -2.336   0.596  0.00  0.00     0.034 A 
ATOM      4  C3  UNL d   1      -1.196  -3.403   1.458  0.00  0.00     0.017 A 
ATOM      5  C4  UNL d   1      -0.789  -4.635   0.932  0.00  0.00     0.017 A 
ATOM      6  C5  UNL d   1      -0.657  -4.791  -0.451  0.00  0.00     0.034 A 
ATOM      7 Cl   UNL d   1      -0.434  -5.999   1.933  0.00  0.00    -0.070 Cl
ATOM      8 Cl1  UNL d   1      -1.381  -3.133   3.155  0.00  0.00    -0.070 Cl
ENDROOT
TORSDOF 0
ENDMDL
