MODEL 1
REMARK minimizedAffinity 10.2134962
REMARK minimizedRMSD -1
REMARK  0 active torsions:
REMARK  status: ('A' for Active; 'I' for Inactive)
ROOT
ATOM      1  C   UNL d   1       3.692   2.231   0.364  0.00  0.00     0.020 A 
ATOM      2  C1  UNL d   1       2.495   2.113   1.070  0.00  0.00     0.020 A 
ATOM      3  C2  UNL d   1       1.513   1.220   0.634  0.00  0.00     0.034 A 
ATOM      4  C3  UNL d   1       1.726   0.442  -0.509  0.00  0.00     0.017 A 
ATOM      5  C4  UNL d   1       2.927   0.561  -1.217  0.00  0.00     0.017 A 
ATOM      6  C5  UNL d   1       3.907   1.456  -0.777  0.00  0.00     0.034 A 
ATOM      7 Cl   UNL d   1       3.263  -0.365  -2.637  0.00  0.00    -0.070 Cl
ATOM      8 Cl1  UNL d   1       0.468  -0.641  -0.990  0.00  0.00    -0.070 Cl
ENDROOT
TORSDOF 0
ENDMDL
