MODEL 1
REMARK minimizedAffinity 4.32667446
REMARK minimizedRMSD -1
REMARK  0 active torsions:
REMARK  status: ('A' for Active; 'I' for Inactive)
ROOT
ATOM      1  C   UNL d   1      -1.241  -3.534  -2.356  0.00  0.00     0.020 A 
ATOM      2  C1  UNL d   1      -1.930  -2.332  -2.200  0.00  0.00     0.020 A 
ATOM      3  C2  UNL d   1      -2.185  -1.834  -0.921  0.00  0.00     0.034 A 
ATOM      4  C3  UNL d   1      -1.751  -2.538   0.208  0.00  0.00     0.017 A 
ATOM      5  C4  UNL d   1      -1.059  -3.744   0.051  0.00  0.00     0.017 A 
ATOM      6  C5  UNL d   1      -0.806  -4.239  -1.233  0.00  0.00     0.034 A 
ATOM      7 Cl   UNL d   1      -0.491  -4.670   1.396  0.00  0.00    -0.070 Cl
ATOM      8 Cl1  UNL d   1      -2.100  -1.863   1.760  0.00  0.00    -0.070 Cl
ENDROOT
TORSDOF 0
ENDMDL
