MODEL 1
REMARK minimizedAffinity 6.40329218
REMARK minimizedRMSD -1
REMARK  0 active torsions:
REMARK  status: ('A' for Active; 'I' for Inactive)
ROOT
ATOM      1  C   UNL d   1       2.958   2.332   1.374  0.00  0.00     0.020 A 
ATOM      2  C1  UNL d   1       3.980   2.620   0.470  0.00  0.00     0.020 A 
ATOM      3  C2  UNL d   1       4.087   1.892  -0.717  0.00  0.00     0.034 A 
ATOM      4  C3  UNL d   1       3.172   0.873  -1.003  0.00  0.00     0.017 A 
ATOM      5  C4  UNL d   1       2.146   0.585  -0.095  0.00  0.00     0.017 A 
ATOM      6  C5  UNL d   1       2.043   1.317   1.092  0.00  0.00     0.034 A 
ATOM      7 Cl   UNL d   1       0.979  -0.658  -0.379  0.00  0.00    -0.070 Cl
ATOM      8 Cl1  UNL d   1       3.365   0.014  -2.490  0.00  0.00    -0.070 Cl
ENDROOT
TORSDOF 0
ENDMDL
