MODEL 1
REMARK minimizedAffinity 8.19623947
REMARK minimizedRMSD -1
REMARK  0 active torsions:
REMARK  status: ('A' for Active; 'I' for Inactive)
ROOT
ATOM      1  C   UNL d   1       4.836  -0.613  -3.026  0.00  0.00     0.020 A 
ATOM      2  C1  UNL d   1       6.000   0.099  -2.739  0.00  0.00     0.020 A 
ATOM      3  C2  UNL d   1       5.944   1.227  -1.918  0.00  0.00     0.034 A 
ATOM      4  C3  UNL d   1       4.721   1.646  -1.380  0.00  0.00     0.017 A 
ATOM      5  C4  UNL d   1       3.554   0.931  -1.669  0.00  0.00     0.017 A 
ATOM      6  C5  UNL d   1       3.616  -0.198  -2.492  0.00  0.00     0.034 A 
ATOM      7 Cl   UNL d   1       2.009   1.387  -1.042  0.00  0.00    -0.070 Cl
ATOM      8 Cl1  UNL d   1       4.726   3.049  -0.372  0.00  0.00    -0.070 Cl
ENDROOT
TORSDOF 0
ENDMDL
