MODEL 1
REMARK minimizedAffinity 9.89793968
REMARK minimizedRMSD -1
REMARK  0 active torsions:
REMARK  status: ('A' for Active; 'I' for Inactive)
ROOT
ATOM      1  C   UNL d   1      -2.034  -1.653   0.006  0.00  0.00     0.020 A 
ATOM      2  C1  UNL d   1      -1.256  -2.508  -0.774  0.00  0.00     0.020 A 
ATOM      3  C2  UNL d   1      -0.739  -3.681  -0.221  0.00  0.00     0.034 A 
ATOM      4  C3  UNL d   1      -0.999  -4.003   1.116  0.00  0.00     0.017 A 
ATOM      5  C4  UNL d   1      -1.780  -3.144   1.898  0.00  0.00     0.017 A 
ATOM      6  C5  UNL d   1      -2.295  -1.970   1.339  0.00  0.00     0.034 A 
ATOM      7 Cl   UNL d   1      -2.143  -3.473   3.556  0.00  0.00    -0.070 Cl
ATOM      8 Cl1  UNL d   1      -0.328  -5.470   1.735  0.00  0.00    -0.070 Cl
ENDROOT
TORSDOF 0
ENDMDL
