MODEL 1
REMARK minimizedAffinity 13.1756048
REMARK minimizedRMSD -1
REMARK  0 active torsions:
REMARK  status: ('A' for Active; 'I' for Inactive)
ROOT
ATOM      1  C   UNL d   1      -1.354  -1.640  -0.767  0.00  0.00     0.020 A 
ATOM      2  C1  UNL d   1      -2.091  -0.809   0.075  0.00  0.00     0.020 A 
ATOM      3  C2  UNL d   1      -2.247  -1.141   1.422  0.00  0.00     0.034 A 
ATOM      4  C3  UNL d   1      -1.665  -2.307   1.932  0.00  0.00     0.017 A 
ATOM      5  C4  UNL d   1      -0.925  -3.141   1.086  0.00  0.00     0.017 A 
ATOM      6  C5  UNL d   1      -0.771  -2.804  -0.262  0.00  0.00     0.034 A 
ATOM      7 Cl   UNL d   1      -0.176  -4.597   1.642  0.00  0.00    -0.070 Cl
ATOM      8 Cl1  UNL d   1      -1.898  -2.656   3.608  0.00  0.00    -0.070 Cl
ENDROOT
TORSDOF 0
ENDMDL
