MODEL 1
REMARK minimizedAffinity 24.2581348
REMARK minimizedRMSD -1
REMARK  0 active torsions:
REMARK  status: ('A' for Active; 'I' for Inactive)
ROOT
ATOM      1  C   UNL d   1       4.510   5.444   5.262  0.00  0.00     0.020 A 
ATOM      2  C1  UNL d   1       3.329   5.315   5.992  0.00  0.00     0.020 A 
ATOM      3  C2  UNL d   1       2.639   4.101   5.992  0.00  0.00     0.034 A 
ATOM      4  C3  UNL d   1       3.128   3.012   5.262  0.00  0.00     0.017 A 
ATOM      5  C4  UNL d   1       4.313   3.143   4.529  0.00  0.00     0.017 A 
ATOM      6  C5  UNL d   1       5.001   4.361   4.532  0.00  0.00     0.034 A 
ATOM      7 Cl   UNL d   1       4.979   1.844   3.604  0.00  0.00    -0.070 Cl
ATOM      8 Cl1  UNL d   1       2.222   1.542   5.308  0.00  0.00    -0.070 Cl
ENDROOT
TORSDOF 0
ENDMDL
