MODEL 1
REMARK minimizedAffinity 11.0093985
REMARK minimizedRMSD -1
REMARK  0 active torsions:
REMARK  status: ('A' for Active; 'I' for Inactive)
ROOT
ATOM      1  C   UNL d   1      -0.641  -5.897   2.072  0.00  0.00     0.020 A 
ATOM      2  C1  UNL d   1      -0.259  -5.560   0.774  0.00  0.00     0.020 A 
ATOM      3  C2  UNL d   1      -0.654  -4.338   0.226  0.00  0.00     0.034 A 
ATOM      4  C3  UNL d   1      -1.431  -3.448   0.976  0.00  0.00     0.017 A 
ATOM      5  C4  UNL d   1      -1.813  -3.787   2.279  0.00  0.00     0.017 A 
ATOM      6  C5  UNL d   1      -1.416  -5.013   2.823  0.00  0.00     0.034 A 
ATOM      7 Cl   UNL d   1      -2.772  -2.741   3.266  0.00  0.00    -0.070 Cl
ATOM      8 Cl1  UNL d   1      -1.882  -1.953   0.235  0.00  0.00    -0.070 Cl
ENDROOT
TORSDOF 0
ENDMDL
