MODEL 1
REMARK minimizedAffinity 17.978735
REMARK minimizedRMSD -1
REMARK  0 active torsions:
REMARK  status: ('A' for Active; 'I' for Inactive)
ROOT
ATOM      1  C   UNL d   1       4.159   3.268  -0.030  0.00  0.00     0.020 A 
ATOM      2  C1  UNL d   1       3.015   2.545   0.302  0.00  0.00     0.020 A 
ATOM      3  C2  UNL d   1       2.582   1.505  -0.523  0.00  0.00     0.034 A 
ATOM      4  C3  UNL d   1       3.294   1.185  -1.684  0.00  0.00     0.017 A 
ATOM      5  C4  UNL d   1       4.443   1.911  -2.017  0.00  0.00     0.017 A 
ATOM      6  C5  UNL d   1       4.872   2.952  -1.188  0.00  0.00     0.034 A 
ATOM      7 Cl   UNL d   1       5.375   1.575  -3.434  0.00  0.00    -0.070 Cl
ATOM      8 Cl1  UNL d   1       2.702  -0.114  -2.658  0.00  0.00    -0.070 Cl
ENDROOT
TORSDOF 0
ENDMDL
