MODEL 1
REMARK minimizedAffinity 11.860033
REMARK minimizedRMSD -1
REMARK  0 active torsions:
REMARK  status: ('A' for Active; 'I' for Inactive)
ROOT
ATOM      1  C   UNL d   1       1.755   0.741  -1.725  0.00  0.00     0.020 A 
ATOM      2  C1  UNL d   1       2.244   0.207  -2.917  0.00  0.00     0.020 A 
ATOM      3  C2  UNL d   1       1.482  -0.721  -3.630  0.00  0.00     0.034 A 
ATOM      4  C3  UNL d   1       0.229  -1.119  -3.152  0.00  0.00     0.017 A 
ATOM      5  C4  UNL d   1      -0.261  -0.583  -1.955  0.00  0.00     0.017 A 
ATOM      6  C5  UNL d   1       0.506   0.346  -1.245  0.00  0.00     0.034 A 
ATOM      7 Cl   UNL d   1      -1.798  -1.026  -1.302  0.00  0.00    -0.070 Cl
ATOM      8 Cl1  UNL d   1      -0.659  -2.271  -4.086  0.00  0.00    -0.070 Cl
ENDROOT
TORSDOF 0
ENDMDL
