MODEL 1
REMARK minimizedAffinity 16.9907894
REMARK minimizedRMSD -1
REMARK  0 active torsions:
REMARK  status: ('A' for Active; 'I' for Inactive)
ROOT
ATOM      1  C   UNL d   1       2.381   1.008  -1.095  0.00  0.00     0.020 A 
ATOM      2  C1  UNL d   1       2.560  -0.133  -0.314  0.00  0.00     0.020 A 
ATOM      3  C2  UNL d   1       3.318  -0.065   0.857  0.00  0.00     0.034 A 
ATOM      4  C3  UNL d   1       3.899   1.146   1.250  0.00  0.00     0.017 A 
ATOM      5  C4  UNL d   1       3.718   2.291   0.465  0.00  0.00     0.017 A 
ATOM      6  C5  UNL d   1       2.958   2.217  -0.706  0.00  0.00     0.034 A 
ATOM      7 Cl   UNL d   1       4.404   3.821   0.885  0.00  0.00    -0.070 Cl
ATOM      8 Cl1  UNL d   1       4.824   1.158   2.710  0.00  0.00    -0.070 Cl
ENDROOT
TORSDOF 0
ENDMDL
