MODEL 1
REMARK minimizedAffinity 13.3394384
REMARK minimizedRMSD -1
REMARK  0 active torsions:
REMARK  status: ('A' for Active; 'I' for Inactive)
ROOT
ATOM      1  C   UNL d   1       5.455   5.146  -0.045  0.00  0.00     0.020 A 
ATOM      2  C1  UNL d   1       4.177   5.072   0.508  0.00  0.00     0.020 A 
ATOM      3  C2  UNL d   1       3.441   3.889   0.411  0.00  0.00     0.034 A 
ATOM      4  C3  UNL d   1       3.983   2.775  -0.241  0.00  0.00     0.017 A 
ATOM      5  C4  UNL d   1       5.265   2.850  -0.796  0.00  0.00     0.017 A 
ATOM      6  C5  UNL d   1       5.998   4.037  -0.695  0.00  0.00     0.034 A 
ATOM      7 Cl   UNL d   1       6.000   1.517  -1.615  0.00  0.00    -0.070 Cl
ATOM      8 Cl1  UNL d   1       3.017   1.345  -0.323  0.00  0.00    -0.070 Cl
ENDROOT
TORSDOF 0
ENDMDL
