MODEL 1
REMARK minimizedAffinity 15.3624029
REMARK minimizedRMSD -1
REMARK  0 active torsions:
REMARK  status: ('A' for Active; 'I' for Inactive)
ROOT
ATOM      1  C   UNL d   1      -1.468  -1.307  -0.449  0.00  0.00     0.020 A 
ATOM      2  C1  UNL d   1      -0.769  -2.250  -1.201  0.00  0.00     0.020 A 
ATOM      3  C2  UNL d   1      -0.388  -3.463  -0.623  0.00  0.00     0.034 A 
ATOM      4  C3  UNL d   1      -0.707  -3.736   0.713  0.00  0.00     0.017 A 
ATOM      5  C4  UNL d   1      -1.408  -2.789   1.467  0.00  0.00     0.017 A 
ATOM      6  C5  UNL d   1      -1.787  -1.576   0.883  0.00  0.00     0.034 A 
ATOM      7 Cl   UNL d   1      -1.837  -3.054   3.121  0.00  0.00    -0.070 Cl
ATOM      8 Cl1  UNL d   1      -0.205  -5.256   1.363  0.00  0.00    -0.070 Cl
ENDROOT
TORSDOF 0
ENDMDL
