MODEL 1
REMARK minimizedAffinity 10.1590328
REMARK minimizedRMSD -1
REMARK  0 active torsions:
REMARK  status: ('A' for Active; 'I' for Inactive)
ROOT
ATOM      1  C   UNL d   1       2.109   0.150  -0.501  0.00  0.00     0.020 A 
ATOM      2  C1  UNL d   1       2.878   0.645  -1.553  0.00  0.00     0.020 A 
ATOM      3  C2  UNL d   1       3.714   1.745  -1.350  0.00  0.00     0.034 A 
ATOM      4  C3  UNL d   1       3.783   2.354  -0.091  0.00  0.00     0.017 A 
ATOM      5  C4  UNL d   1       3.011   1.856   0.964  0.00  0.00     0.017 A 
ATOM      6  C5  UNL d   1       2.176   0.754   0.755  0.00  0.00     0.034 A 
ATOM      7 Cl   UNL d   1       3.043   2.553   2.545  0.00  0.00    -0.070 Cl
ATOM      8 Cl1  UNL d   1       4.839   3.710   0.088  0.00  0.00    -0.070 Cl
ENDROOT
TORSDOF 0
ENDMDL
