MODEL 1
REMARK minimizedAffinity 9.88310051
REMARK minimizedRMSD -1
REMARK  0 active torsions:
REMARK  status: ('A' for Active; 'I' for Inactive)
ROOT
ATOM      1  C   UNL d   1      -0.387  -1.003  -0.162  0.00  0.00     0.020 A 
ATOM      2  C1  UNL d   1      -1.625  -0.536   0.280  0.00  0.00     0.020 A 
ATOM      3  C2  UNL d   1      -2.666  -1.436   0.516  0.00  0.00     0.034 A 
ATOM      4  C3  UNL d   1      -2.473  -2.807   0.311  0.00  0.00     0.017 A 
ATOM      5  C4  UNL d   1      -1.230  -3.274  -0.132  0.00  0.00     0.017 A 
ATOM      6  C5  UNL d   1      -0.191  -2.369  -0.367  0.00  0.00     0.034 A 
ATOM      7 Cl   UNL d   1      -0.916  -4.951  -0.408  0.00  0.00    -0.070 Cl
ATOM      8 Cl1  UNL d   1      -3.805  -3.862   0.624  0.00  0.00    -0.070 Cl
ENDROOT
TORSDOF 0
ENDMDL
