MODEL 1
REMARK minimizedAffinity 8.53804588
REMARK minimizedRMSD -1
REMARK  0 active torsions:
REMARK  status: ('A' for Active; 'I' for Inactive)
ROOT
ATOM      1  C   UNL d   1       1.718   0.094  -0.836  0.00  0.00     0.020 A 
ATOM      2  C1  UNL d   1       2.519   0.581  -1.868  0.00  0.00     0.020 A 
ATOM      3  C2  UNL d   1       3.299   1.722  -1.667  0.00  0.00     0.034 A 
ATOM      4  C3  UNL d   1       3.279   2.379  -0.432  0.00  0.00     0.017 A 
ATOM      5  C4  UNL d   1       2.475   1.889   0.603  0.00  0.00     0.017 A 
ATOM      6  C5  UNL d   1       1.696   0.746   0.397  0.00  0.00     0.034 A 
ATOM      7 Cl   UNL d   1       2.398   2.646   2.155  0.00  0.00    -0.070 Cl
ATOM      8 Cl1  UNL d   1       4.269   3.784  -0.253  0.00  0.00    -0.070 Cl
ENDROOT
TORSDOF 0
ENDMDL
