MODEL 1
REMARK minimizedAffinity 7.71719313
REMARK minimizedRMSD -1
REMARK  0 active torsions:
REMARK  status: ('A' for Active; 'I' for Inactive)
ROOT
ATOM      1  C   UNL d   1      -0.816  -6.000   2.807  0.00  0.00     0.020 A 
ATOM      2  C1  UNL d   1      -0.372  -5.936   1.487  0.00  0.00     0.020 A 
ATOM      3  C2  UNL d   1      -0.775  -4.881   0.665  0.00  0.00     0.034 A 
ATOM      4  C3  UNL d   1      -1.623  -3.885   1.163  0.00  0.00     0.017 A 
ATOM      5  C4  UNL d   1      -2.068  -3.950   2.489  0.00  0.00     0.017 A 
ATOM      6  C5  UNL d   1      -1.661  -5.009   3.307  0.00  0.00     0.034 A 
ATOM      7 Cl   UNL d   1      -3.115  -2.759   3.174  0.00  0.00    -0.070 Cl
ATOM      8 Cl1  UNL d   1      -2.081  -2.610   0.091  0.00  0.00    -0.070 Cl
ENDROOT
TORSDOF 0
ENDMDL
