MODEL 1
REMARK minimizedAffinity -4.84624863
REMARK minimizedRMSD -1
REMARK  0 active torsions:
REMARK  status: ('A' for Active; 'I' for Inactive)
ROOT
ATOM      1  C1  BNZ d   1       1.100  -0.258  -0.016  0.00  0.00     0.000 A 
ATOM      2  C2  BNZ d   1       0.626  -0.059   1.253  0.00  0.00     0.000 A 
ATOM      3  C3  BNZ d   1       1.096  -0.801   2.301  0.00  0.00     0.000 A 
ATOM      4  C4  BNZ d   1       2.008  -1.768   2.071  0.00  0.00     0.000 A 
ATOM      5  C5  BNZ d   1       2.488  -1.988   0.796  0.00  0.00     0.000 A 
ATOM      6  C6  BNZ d   1       2.042  -1.212  -0.249  0.00  0.00     0.000 A 
ENDROOT
TORSDOF 0
ENDMDL
