MODEL 1
REMARK minimizedAffinity -5.34102011
REMARK minimizedRMSD -1
REMARK  0 active torsions:
REMARK  status: ('A' for Active; 'I' for Inactive)
ROOT
ATOM      1  C1  BNZ d   1       2.974  -2.023   1.094  0.00  0.00     0.000 A 
ATOM      2  C2  BNZ d   1       2.319  -1.567  -0.018  0.00  0.00     0.000 A 
ATOM      3  C3  BNZ d   1       1.218  -0.764   0.097  0.00  0.00     0.000 A 
ATOM      4  C4  BNZ d   1       0.751  -0.451   1.323  0.00  0.00     0.000 A 
ATOM      5  C5  BNZ d   1       1.395  -0.911   2.454  0.00  0.00     0.000 A 
ATOM      6  C6  BNZ d   1       2.525  -1.687   2.335  0.00  0.00     0.000 A 
ENDROOT
TORSDOF 0
ENDMDL
