MODEL 1
REMARK minimizedAffinity -3.3115387
REMARK minimizedRMSD -1
REMARK  0 active torsions:
REMARK  status: ('A' for Active; 'I' for Inactive)
ROOT
ATOM      1  C1  BNZ d   1       1.230  -0.784   1.447  0.00  0.00     0.000 A 
ATOM      2  C2  BNZ d   1       0.695  -1.062   2.676  0.00  0.00     0.000 A 
ATOM      3  C3  BNZ d   1      -0.656  -1.008   2.880  0.00  0.00     0.000 A 
ATOM      4  C4  BNZ d   1      -1.465  -0.637   1.867  0.00  0.00     0.000 A 
ATOM      5  C5  BNZ d   1      -0.939  -0.345   0.624  0.00  0.00     0.000 A 
ATOM      6  C6  BNZ d   1       0.417  -0.439   0.412  0.00  0.00     0.000 A 
ENDROOT
TORSDOF 0
ENDMDL
