MODEL 1
REMARK minimizedAffinity -2.55025721
REMARK minimizedRMSD -1
REMARK  0 active torsions:
REMARK  status: ('A' for Active; 'I' for Inactive)
ROOT
ATOM      1  C1  BNZ d   1       0.281   0.623  -2.258  0.00  0.00     0.000 A 
ATOM      2  C2  BNZ d   1       1.017   1.686  -2.708  0.00  0.00     0.000 A 
ATOM      3  C3  BNZ d   1       0.406   2.846  -3.097  0.00  0.00     0.000 A 
ATOM      4  C4  BNZ d   1      -0.940   2.927  -3.072  0.00  0.00     0.000 A 
ATOM      5  C5  BNZ d   1      -1.696   1.860  -2.630  0.00  0.00     0.000 A 
ATOM      6  C6  BNZ d   1      -1.077   0.708  -2.203  0.00  0.00     0.000 A 
ENDROOT
TORSDOF 0
ENDMDL
