MODEL 1
REMARK minimizedAffinity -4.1356039
REMARK minimizedRMSD -1
REMARK  0 active torsions:
REMARK  status: ('A' for Active; 'I' for Inactive)
ROOT
ATOM      1  C1  BNZ d   1       1.425  -0.205   3.411  0.00  0.00     0.000 A 
ATOM      2  C2  BNZ d   1       2.300  -1.251   3.287  0.00  0.00     0.000 A 
ATOM      3  C3  BNZ d   1       2.509  -1.850   2.076  0.00  0.00     0.000 A 
ATOM      4  C4  BNZ d   1       1.813  -1.429   1.000  0.00  0.00     0.000 A 
ATOM      5  C5  BNZ d   1       0.920  -0.382   1.110  0.00  0.00     0.000 A 
ATOM      6  C6  BNZ d   1       0.741   0.244   2.323  0.00  0.00     0.000 A 
ENDROOT
TORSDOF 0
ENDMDL
