MODEL 1
REMARK minimizedAffinity -3.88766932
REMARK minimizedRMSD -1
REMARK  0 active torsions:
REMARK  status: ('A' for Active; 'I' for Inactive)
ROOT
ATOM      1  C1  BNZ d   1       0.614  -0.017   0.167  0.00  0.00     0.000 A 
ATOM      2  C2  BNZ d   1       1.269  -0.275   1.341  0.00  0.00     0.000 A 
ATOM      3  C3  BNZ d   1       0.574  -0.553   2.485  0.00  0.00     0.000 A 
ATOM      4  C4  BNZ d   1      -0.774  -0.531   2.463  0.00  0.00     0.000 A 
ATOM      5  C5  BNZ d   1      -1.450  -0.263   1.289  0.00  0.00     0.000 A 
ATOM      6  C6  BNZ d   1      -0.747  -0.023   0.131  0.00  0.00     0.000 A 
ENDROOT
TORSDOF 0
ENDMDL
