MODEL 1
REMARK minimizedAffinity -3.87881637
REMARK minimizedRMSD -1
REMARK  0 active torsions:
REMARK  status: ('A' for Active; 'I' for Inactive)
ROOT
ATOM      1  C1  BNZ d   1      -1.628  -0.104   1.744  0.00  0.00     0.000 A 
ATOM      2  C2  BNZ d   1      -0.982   0.376   0.636  0.00  0.00     0.000 A 
ATOM      3  C3  BNZ d   1       0.334   0.081   0.410  0.00  0.00     0.000 A 
ATOM      4  C4  BNZ d   1       1.012  -0.659   1.311  0.00  0.00     0.000 A 
ATOM      5  C5  BNZ d   1       0.377  -1.142   2.438  0.00  0.00     0.000 A 
ATOM      6  C6  BNZ d   1      -0.958  -0.876   2.642  0.00  0.00     0.000 A 
ENDROOT
TORSDOF 0
ENDMDL
