MODEL 1
REMARK minimizedAffinity -4.09187365
REMARK minimizedRMSD -1
REMARK  0 active torsions:
REMARK  status: ('A' for Active; 'I' for Inactive)
ROOT
ATOM      1  C1  BNZ d   1       0.047  -0.090   0.047  0.00  0.00     0.000 A 
ATOM      2  C2  BNZ d   1       1.054  -0.366   0.933  0.00  0.00     0.000 A 
ATOM      3  C3  BNZ d   1       0.799  -0.473   2.272  0.00  0.00     0.000 A 
ATOM      4  C4  BNZ d   1      -0.454  -0.265   2.726  0.00  0.00     0.000 A 
ATOM      5  C5  BNZ d   1      -1.478   0.022   1.846  0.00  0.00     0.000 A 
ATOM      6  C6  BNZ d   1      -1.224   0.091   0.495  0.00  0.00     0.000 A 
ENDROOT
TORSDOF 0
ENDMDL
