MODEL 1
REMARK minimizedAffinity -4.59679174
REMARK minimizedRMSD -1
REMARK  0 active torsions:
REMARK  status: ('A' for Active; 'I' for Inactive)
ROOT
ATOM      1  C1  BNZ d   1      -0.526  -1.100   2.535  0.00  0.00     0.000 A 
ATOM      2  C2  BNZ d   1       0.156  -2.065   3.228  0.00  0.00     0.000 A 
ATOM      3  C3  BNZ d   1       1.469  -2.329   2.952  0.00  0.00     0.000 A 
ATOM      4  C4  BNZ d   1       2.086  -1.657   1.959  0.00  0.00     0.000 A 
ATOM      5  C5  BNZ d   1       1.409  -0.688   1.245  0.00  0.00     0.000 A 
ATOM      6  C6  BNZ d   1       0.099  -0.398   1.551  0.00  0.00     0.000 A 
ENDROOT
TORSDOF 0
ENDMDL
