MODEL 1
REMARK minimizedAffinity -3.52558517
REMARK minimizedRMSD -1
REMARK  0 active torsions:
REMARK  status: ('A' for Active; 'I' for Inactive)
ROOT
ATOM      1  C1  BNZ d   1      -0.446   0.864  -2.490  0.00  0.00     0.000 A 
ATOM      2  C2  BNZ d   1      -1.556   0.664  -1.714  0.00  0.00     0.000 A 
ATOM      3  C3  BNZ d   1      -2.471   1.664  -1.529  0.00  0.00     0.000 A 
ATOM      4  C4  BNZ d   1      -2.253   2.872  -2.087  0.00  0.00     0.000 A 
ATOM      5  C5  BNZ d   1      -1.134   3.092  -2.864  0.00  0.00     0.000 A 
ATOM      6  C6  BNZ d   1      -0.236   2.073  -3.080  0.00  0.00     0.000 A 
ENDROOT
TORSDOF 0
ENDMDL
