MODEL 1
REMARK minimizedAffinity -1.88796055
REMARK minimizedRMSD -1
REMARK  0 active torsions:
REMARK  status: ('A' for Active; 'I' for Inactive)
ROOT
ATOM      1  C1  BNZ d   1      -1.822  -1.094   1.935  0.00  0.00     0.000 A 
ATOM      2  C2  BNZ d   1      -2.203  -0.679   0.686  0.00  0.00     0.000 A 
ATOM      3  C3  BNZ d   1      -1.297  -0.121  -0.172  0.00  0.00     0.000 A 
ATOM      4  C4  BNZ d   1      -0.024   0.059   0.233  0.00  0.00     0.000 A 
ATOM      5  C5  BNZ d   1       0.373  -0.345   1.492  0.00  0.00     0.000 A 
ATOM      6  C6  BNZ d   1      -0.532  -0.942   2.339  0.00  0.00     0.000 A 
ENDROOT
TORSDOF 0
ENDMDL
