MODEL 1
REMARK minimizedAffinity -3.71297002
REMARK minimizedRMSD -1
REMARK  0 active torsions:
REMARK  status: ('A' for Active; 'I' for Inactive)
ROOT
ATOM      1  C1  BNZ d   1      -1.123  -0.060   1.115  0.00  0.00     0.000 A 
ATOM      2  C2  BNZ d   1      -0.448  -0.398   2.258  0.00  0.00     0.000 A 
ATOM      3  C3  BNZ d   1       0.917  -0.455   2.274  0.00  0.00     0.000 A 
ATOM      4  C4  BNZ d   1       1.604  -0.212   1.139  0.00  0.00     0.000 A 
ATOM      5  C5  BNZ d   1       0.938   0.121  -0.024  0.00  0.00     0.000 A 
ATOM      6  C6  BNZ d   1      -0.435   0.215  -0.027  0.00  0.00     0.000 A 
ENDROOT
TORSDOF 0
ENDMDL
