MODEL 1
REMARK minimizedAffinity 1.6007005
REMARK minimizedRMSD -1
REMARK  0 active torsions:
REMARK  status: ('A' for Active; 'I' for Inactive)
ROOT
ATOM      1  C   UNL d   1       1.504   2.228  -1.509  0.00  0.00     0.023 A 
ATOM      2  C1  UNL d   1       1.729   1.310  -2.536  0.00  0.00     0.003 A 
ATOM      3  C2  UNL d   1       1.615  -0.059  -2.287  0.00  0.00     0.048 A 
ATOM      4  C3  UNL d   1       1.274  -0.504  -1.010  0.00  0.00     0.023 A 
ATOM      5  C4  UNL d   1       1.047   0.411   0.020  0.00  0.00     0.048 A 
ATOM      6  C5  UNL d   1       1.163   1.779  -0.233  0.00  0.00     0.003 A 
ATOM      7  I   UNL d   1       1.103  -2.542  -0.637  0.00  0.00    -0.146 I 
ENDROOT
TORSDOF 0
ENDMDL
