MODEL 1
REMARK minimizedAffinity 6.35627747
REMARK minimizedRMSD -1
REMARK  0 active torsions:
REMARK  status: ('A' for Active; 'I' for Inactive)
ROOT
ATOM      1  C   UNL d   1       1.461  -0.095  -2.069  0.00  0.00     0.023 A 
ATOM      2  C1  UNL d   1       0.830   1.100  -2.416  0.00  0.00     0.003 A 
ATOM      3  C2  UNL d   1       0.762   2.148  -1.495  0.00  0.00     0.048 A 
ATOM      4  C3  UNL d   1       1.328   1.994  -0.230  0.00  0.00     0.023 A 
ATOM      5  C4  UNL d   1       1.961   0.800   0.121  0.00  0.00     0.048 A 
ATOM      6  C5  UNL d   1       2.025  -0.245  -0.802  0.00  0.00     0.003 A 
ATOM      7  I   UNL d   1       1.228   3.552   1.142  0.00  0.00    -0.146 I 
ENDROOT
TORSDOF 0
ENDMDL
