MODEL 1
REMARK minimizedAffinity 3.81575608
REMARK minimizedRMSD -1
REMARK  0 active torsions:
REMARK  status: ('A' for Active; 'I' for Inactive)
ROOT
ATOM      1  C   UNL d   1       1.396   4.915   0.260  0.00  0.00     0.023 A 
ATOM      2  C1  UNL d   1       1.471   3.836   1.141  0.00  0.00     0.003 A 
ATOM      3  C2  UNL d   1       1.418   2.529   0.653  0.00  0.00     0.048 A 
ATOM      4  C3  UNL d   1       1.293   2.308  -0.718  0.00  0.00     0.023 A 
ATOM      5  C4  UNL d   1       1.219   3.385  -1.604  0.00  0.00     0.048 A 
ATOM      6  C5  UNL d   1       1.271   4.690  -1.110  0.00  0.00     0.003 A 
ATOM      7  I   UNL d   1       1.215   0.364  -1.448  0.00  0.00    -0.146 I 
ENDROOT
TORSDOF 0
ENDMDL
