MODEL 1
REMARK minimizedAffinity 6.51508808
REMARK minimizedRMSD -1
REMARK  0 active torsions:
REMARK  status: ('A' for Active; 'I' for Inactive)
ROOT
ATOM      1  C   UNL d   1       1.225   4.602  -0.035  0.00  0.00     0.023 A 
ATOM      2  C1  UNL d   1       1.240   4.174  -1.363  0.00  0.00     0.003 A 
ATOM      3  C2  UNL d   1       1.230   2.809  -1.658  0.00  0.00     0.048 A 
ATOM      4  C3  UNL d   1       1.206   1.878  -0.621  0.00  0.00     0.023 A 
ATOM      5  C4  UNL d   1       1.190   2.301   0.709  0.00  0.00     0.048 A 
ATOM      6  C5  UNL d   1       1.201   3.667   1.000  0.00  0.00     0.003 A 
ATOM      7  I   UNL d   1       1.192  -0.154  -1.057  0.00  0.00    -0.146 I 
ENDROOT
TORSDOF 0
ENDMDL
