MODEL 1
REMARK minimizedAffinity 1.10968781
REMARK minimizedRMSD -1
REMARK  0 active torsions:
REMARK  status: ('A' for Active; 'I' for Inactive)
ROOT
ATOM      1  C   UNL d   1       1.054   3.804  -0.359  0.00  0.00     0.023 A 
ATOM      2  C1  UNL d   1       1.305   2.876   0.652  0.00  0.00     0.003 A 
ATOM      3  C2  UNL d   1       1.380   1.515   0.349  0.00  0.00     0.048 A 
ATOM      4  C3  UNL d   1       1.204   1.089  -0.967  0.00  0.00     0.023 A 
ATOM      5  C4  UNL d   1       0.953   2.014  -1.982  0.00  0.00     0.048 A 
ATOM      6  C5  UNL d   1       0.878   3.374  -1.674  0.00  0.00     0.003 A 
ATOM      7  I   UNL d   1       1.315  -0.936  -1.421  0.00  0.00    -0.146 I 
ENDROOT
TORSDOF 0
ENDMDL
