MODEL 1
REMARK minimizedAffinity -1.36914122
REMARK minimizedRMSD -1
REMARK  0 active torsions:
REMARK  status: ('A' for Active; 'I' for Inactive)
ROOT
ATOM      1  C   UNL d   1       1.351   3.989   0.632  0.00  0.00     0.023 A 
ATOM      2  C1  UNL d   1       1.225   3.842  -0.749  0.00  0.00     0.003 A 
ATOM      3  C2  UNL d   1       1.125   2.567  -1.310  0.00  0.00     0.048 A 
ATOM      4  C3  UNL d   1       1.149   1.444  -0.484  0.00  0.00     0.023 A 
ATOM      5  C4  UNL d   1       1.273   1.587   0.899  0.00  0.00     0.048 A 
ATOM      6  C5  UNL d   1       1.374   2.863   1.455  0.00  0.00     0.003 A 
ATOM      7  I   UNL d   1       0.998  -0.454  -1.317  0.00  0.00    -0.146 I 
ENDROOT
TORSDOF 0
ENDMDL
