MODEL 1
REMARK minimizedAffinity 1.32641697
REMARK minimizedRMSD -1
REMARK  0 active torsions:
REMARK  status: ('A' for Active; 'I' for Inactive)
ROOT
ATOM      1  C   UNL d   1       0.944  -0.003  -0.078  0.00  0.00     0.023 A 
ATOM      2  C1  UNL d   1       1.194   0.584  -1.319  0.00  0.00     0.003 A 
ATOM      3  C2  UNL d   1       1.331   1.970  -1.423  0.00  0.00     0.048 A 
ATOM      4  C3  UNL d   1       1.219   2.763  -0.281  0.00  0.00     0.023 A 
ATOM      5  C4  UNL d   1       0.971   2.180   0.963  0.00  0.00     0.048 A 
ATOM      6  C5  UNL d   1       0.833   0.794   1.061  0.00  0.00     0.003 A 
ATOM      7  I   UNL d   1       1.424   4.826  -0.432  0.00  0.00    -0.146 I 
ENDROOT
TORSDOF 0
ENDMDL
