MODEL 1
REMARK minimizedAffinity 8.3306942
REMARK minimizedRMSD -1
REMARK  0 active torsions:
REMARK  status: ('A' for Active; 'I' for Inactive)
ROOT
ATOM      1  C   UNL d   1       0.884   0.072  -1.632  0.00  0.00     0.023 A 
ATOM      2  C1  UNL d   1       0.324   0.959  -2.551  0.00  0.00     0.003 A 
ATOM      3  C2  UNL d   1       0.523   2.334  -2.407  0.00  0.00     0.048 A 
ATOM      4  C3  UNL d   1       1.284   2.815  -1.342  0.00  0.00     0.023 A 
ATOM      5  C4  UNL d   1       1.847   1.931  -0.420  0.00  0.00     0.048 A 
ATOM      6  C5  UNL d   1       1.644   0.557  -0.568  0.00  0.00     0.003 A 
ATOM      7  I   UNL d   1       1.582   4.860  -1.126  0.00  0.00    -0.146 I 
ENDROOT
TORSDOF 0
ENDMDL
