MODEL 1
REMARK minimizedAffinity -1.71150362
REMARK minimizedRMSD -1
REMARK  0 active torsions:
REMARK  status: ('A' for Active; 'I' for Inactive)
ROOT
ATOM      1  C   UNL d   1       0.624   3.281  -1.337  0.00  0.00     0.023 A 
ATOM      2  C1  UNL d   1       0.647   3.011   0.031  0.00  0.00     0.003 A 
ATOM      3  C2  UNL d   1       1.044   1.754   0.490  0.00  0.00     0.048 A 
ATOM      4  C3  UNL d   1       1.417   0.770  -0.426  0.00  0.00     0.023 A 
ATOM      5  C4  UNL d   1       1.395   1.035  -1.796  0.00  0.00     0.048 A 
ATOM      6  C5  UNL d   1       0.997   2.294  -2.250  0.00  0.00     0.003 A 
ATOM      7  I   UNL d   1       2.008  -1.103   0.255  0.00  0.00    -0.146 I 
ENDROOT
TORSDOF 0
ENDMDL
