MODEL 1
REMARK minimizedAffinity 1.44772422
REMARK minimizedRMSD -1
REMARK  0 active torsions:
REMARK  status: ('A' for Active; 'I' for Inactive)
ROOT
ATOM      1  C   UNL d   1       1.238   3.809  -1.434  0.00  0.00     0.023 A 
ATOM      2  C1  UNL d   1       0.996   3.454  -0.107  0.00  0.00     0.003 A 
ATOM      3  C2  UNL d   1       0.874   2.109   0.247  0.00  0.00     0.048 A 
ATOM      4  C3  UNL d   1       0.998   1.123  -0.731  0.00  0.00     0.023 A 
ATOM      5  C4  UNL d   1       1.242   1.473  -2.060  0.00  0.00     0.048 A 
ATOM      6  C5  UNL d   1       1.361   2.820  -2.409  0.00  0.00     0.003 A 
ATOM      7  I   UNL d   1       0.819  -0.880  -0.208  0.00  0.00    -0.146 I 
ENDROOT
TORSDOF 0
ENDMDL
