MODEL 1
REMARK minimizedAffinity 6.73436022
REMARK minimizedRMSD -1
REMARK  0 active torsions:
REMARK  status: ('A' for Active; 'I' for Inactive)
ROOT
ATOM      1  C   UNL d   1       3.419  -1.034   0.317  0.00  0.00     0.023 A 
ATOM      2  C1  UNL d   1       2.198  -1.304  -0.302  0.00  0.00     0.003 A 
ATOM      3  C2  UNL d   1       1.258  -0.285  -0.470  0.00  0.00     0.048 A 
ATOM      4  C3  UNL d   1       1.546   1.002  -0.018  0.00  0.00     0.023 A 
ATOM      5  C4  UNL d   1       2.766   1.277   0.601  0.00  0.00     0.048 A 
ATOM      6  C5  UNL d   1       3.702   0.255   0.768  0.00  0.00     0.003 A 
ATOM      7  I   UNL d   1       0.149   2.520  -0.268  0.00  0.00    -0.146 I 
ENDROOT
TORSDOF 0
ENDMDL
