MODEL 1
REMARK minimizedAffinity -0.00627065031
REMARK minimizedRMSD -1
REMARK  0 active torsions:
REMARK  status: ('A' for Active; 'I' for Inactive)
ROOT
ATOM      1  C   UNL d   1       1.034   2.386  -2.383  0.00  0.00     0.023 A 
ATOM      2  C1  UNL d   1       1.132   3.405  -1.434  0.00  0.00     0.003 A 
ATOM      3  C2  UNL d   1       1.255   3.089  -0.079  0.00  0.00     0.048 A 
ATOM      4  C3  UNL d   1       1.280   1.753   0.320  0.00  0.00     0.023 A 
ATOM      5  C4  UNL d   1       1.184   0.731  -0.626  0.00  0.00     0.048 A 
ATOM      6  C5  UNL d   1       1.060   1.051  -1.979  0.00  0.00     0.003 A 
ATOM      7  I   UNL d   1       1.463   1.281   2.335  0.00  0.00    -0.146 I 
ENDROOT
TORSDOF 0
ENDMDL
