MODEL 1
REMARK minimizedAffinity 2.18005085
REMARK minimizedRMSD -1
REMARK  0 active torsions:
REMARK  status: ('A' for Active; 'I' for Inactive)
ROOT
ATOM      1  C   UNL d   1       0.820   1.677  -1.338  0.00  0.00     0.023 A 
ATOM      2  C1  UNL d   1       1.843   1.264  -2.192  0.00  0.00     0.003 A 
ATOM      3  C2  UNL d   1       2.760   0.299  -1.771  0.00  0.00     0.048 A 
ATOM      4  C3  UNL d   1       2.648  -0.251  -0.494  0.00  0.00     0.023 A 
ATOM      5  C4  UNL d   1       1.626   0.159   0.364  0.00  0.00     0.048 A 
ATOM      6  C5  UNL d   1       0.712   1.125  -0.061  0.00  0.00     0.003 A 
ATOM      7  I   UNL d   1       4.011  -1.688   0.135  0.00  0.00    -0.146 I 
ENDROOT
TORSDOF 0
ENDMDL
