MODEL 1
REMARK minimizedAffinity 3.39054513
REMARK minimizedRMSD -1
REMARK  0 active torsions:
REMARK  status: ('A' for Active; 'I' for Inactive)
ROOT
ATOM      1  C   UNL d   1       1.616  -0.475   0.558  0.00  0.00     0.023 A 
ATOM      2  C1  UNL d   1       1.342  -0.712  -0.789  0.00  0.00     0.003 A 
ATOM      3  C2  UNL d   1       0.988   0.347  -1.628  0.00  0.00     0.048 A 
ATOM      4  C3  UNL d   1       0.911   1.640  -1.113  0.00  0.00     0.023 A 
ATOM      5  C4  UNL d   1       1.185   1.882   0.234  0.00  0.00     0.048 A 
ATOM      6  C5  UNL d   1       1.537   0.820   1.069  0.00  0.00     0.003 A 
ATOM      7  I   UNL d   1       0.385   3.218  -2.359  0.00  0.00    -0.146 I 
ENDROOT
TORSDOF 0
ENDMDL
