MODEL 1
REMARK minimizedAffinity 6.31652117
REMARK minimizedRMSD -1
REMARK  0 active torsions:
REMARK  status: ('A' for Active; 'I' for Inactive)
ROOT
ATOM      1  C   UNL d   1       1.699  -0.321   0.667  0.00  0.00     0.023 A 
ATOM      2  C1  UNL d   1       1.479  -0.647  -0.672  0.00  0.00     0.003 A 
ATOM      3  C2  UNL d   1       1.040   0.330  -1.567  0.00  0.00     0.048 A 
ATOM      4  C3  UNL d   1       0.823   1.632  -1.117  0.00  0.00     0.023 A 
ATOM      5  C4  UNL d   1       1.042   1.963   0.221  0.00  0.00     0.048 A 
ATOM      6  C5  UNL d   1       1.480   0.983   1.112  0.00  0.00     0.003 A 
ATOM      7  I   UNL d   1       0.169   3.088  -2.448  0.00  0.00    -0.146 I 
ENDROOT
TORSDOF 0
ENDMDL
