MODEL 1
REMARK minimizedAffinity 3.1144588
REMARK minimizedRMSD -1
REMARK  0 active torsions:
REMARK  status: ('A' for Active; 'I' for Inactive)
ROOT
ATOM      1  C   UNL d   1       1.506  -0.445   0.283  0.00  0.00     0.023 A 
ATOM      2  C1  UNL d   1       1.526   0.833   0.843  0.00  0.00     0.003 A 
ATOM      3  C2  UNL d   1       1.152   1.938   0.077  0.00  0.00     0.048 A 
ATOM      4  C3  UNL d   1       0.759   1.759  -1.249  0.00  0.00     0.023 A 
ATOM      5  C4  UNL d   1       0.738   0.483  -1.814  0.00  0.00     0.048 A 
ATOM      6  C5  UNL d   1       1.113  -0.620  -1.043  0.00  0.00     0.003 A 
ATOM      7  I   UNL d   1       0.203   3.403  -2.393  0.00  0.00    -0.146 I 
ENDROOT
TORSDOF 0
ENDMDL
