MODEL 1
REMARK minimizedAffinity -2.41120362
REMARK minimizedRMSD -1
REMARK  0 active torsions:
REMARK  status: ('A' for Active; 'I' for Inactive)
ROOT
ATOM      1  C   UNL d   1      -0.056  -1.985   3.742  0.00  0.00    -0.002 A 
ATOM      2  C1  UNL d   1      -1.032  -1.049   3.434  0.00  0.00     0.010 A 
ATOM      3  C2  UNL d   1      -1.026  -0.397   2.199  0.00  0.00     0.041 A 
ATOM      4  C3  UNL d   1      -0.015  -0.707   1.269  0.00  0.00    -0.075 A 
ATOM      5  S   UNL d   1       0.192  -0.036  -0.306  0.00  0.00     0.015 SA
ATOM      6  C4  UNL d   1       1.580  -0.978  -0.607  0.00  0.00     0.022 A 
ATOM      7  C5  UNL d   1       1.893  -1.790   0.457  0.00  0.00     0.026 A 
ATOM      8  C6  UNL d   1       0.979  -1.648   1.556  0.00  0.00    -0.082 A 
ATOM      9  C7  UNL d   1       0.946  -2.291   2.817  0.00  0.00     0.045 A 
ENDROOT
TORSDOF 0
ENDMDL
