MODEL 1
REMARK minimizedAffinity -3.57445145
REMARK minimizedRMSD -1
REMARK  0 active torsions:
REMARK  status: ('A' for Active; 'I' for Inactive)
ROOT
ATOM      1  C   UNL d   1       1.797  -2.297   1.508  0.00  0.00    -0.002 A 
ATOM      2  C1  UNL d   1       0.763  -2.173   2.425  0.00  0.00     0.010 A 
ATOM      3  C2  UNL d   1      -0.251  -1.233   2.229  0.00  0.00     0.041 A 
ATOM      4  C3  UNL d   1      -0.208  -0.413   1.084  0.00  0.00    -0.075 A 
ATOM      5  S   UNL d   1      -1.341   0.807   0.636  0.00  0.00     0.015 SA
ATOM      6  C4  UNL d   1      -0.479   1.191  -0.784  0.00  0.00     0.022 A 
ATOM      7  C5  UNL d   1       0.648   0.418  -0.928  0.00  0.00     0.026 A 
ATOM      8  C6  UNL d   1       0.823  -0.520   0.146  0.00  0.00    -0.082 A 
ATOM      9  C7  UNL d   1       1.836  -1.482   0.374  0.00  0.00     0.045 A 
ENDROOT
TORSDOF 0
ENDMDL
