MODEL 1
REMARK minimizedAffinity -2.12508416
REMARK minimizedRMSD -1
REMARK  0 active torsions:
REMARK  status: ('A' for Active; 'I' for Inactive)
ROOT
ATOM      1  C   UNL d   1      -0.415   0.984   0.871  0.00  0.00    -0.002 A 
ATOM      2  C1  UNL d   1      -0.123  -0.084   0.034  0.00  0.00     0.010 A 
ATOM      3  C2  UNL d   1      -0.601  -0.109  -1.278  0.00  0.00     0.041 A 
ATOM      4  C3  UNL d   1      -1.384   0.967  -1.739  0.00  0.00    -0.075 A 
ATOM      5  S   UNL d   1      -2.077   1.152  -3.307  0.00  0.00     0.015 SA
ATOM      6  C4  UNL d   1      -2.776   2.653  -2.903  0.00  0.00     0.022 A 
ATOM      7  C5  UNL d   1      -2.498   3.020  -1.607  0.00  0.00     0.026 A 
ATOM      8  C6  UNL d   1      -1.691   2.054  -0.915  0.00  0.00    -0.082 A 
ATOM      9  C7  UNL d   1      -1.191   2.050   0.410  0.00  0.00     0.045 A 
ENDROOT
TORSDOF 0
ENDMDL
