MODEL 1
REMARK minimizedAffinity 1.55766666
REMARK minimizedRMSD -1
REMARK  0 active torsions:
REMARK  status: ('A' for Active; 'I' for Inactive)
ROOT
ATOM      1  C   UNL d   1       2.216  -1.814   0.758  0.00  0.00    -0.002 A 
ATOM      2  C1  UNL d   1       2.321  -0.803  -0.186  0.00  0.00     0.010 A 
ATOM      3  C2  UNL d   1       1.324   0.168  -0.299  0.00  0.00     0.041 A 
ATOM      4  C3  UNL d   1       0.210   0.106   0.561  0.00  0.00    -0.075 A 
ATOM      5  S   UNL d   1      -1.132   1.187   0.605  0.00  0.00     0.015 SA
ATOM      6  C4  UNL d   1      -1.875   0.331   1.878  0.00  0.00     0.022 A 
ATOM      7  C5  UNL d   1      -1.131  -0.755   2.272  0.00  0.00     0.026 A 
ATOM      8  C6  UNL d   1       0.083  -0.903   1.520  0.00  0.00    -0.082 A 
ATOM      9  C7  UNL d   1       1.110  -1.873   1.610  0.00  0.00     0.045 A 
ENDROOT
TORSDOF 0
ENDMDL
