MODEL 1
REMARK minimizedAffinity 0.726208091
REMARK minimizedRMSD -1
REMARK  0 active torsions:
REMARK  status: ('A' for Active; 'I' for Inactive)
ROOT
ATOM      1  C   UNL d   1      -1.904   1.741  -3.671  0.00  0.00    -0.002 A 
ATOM      2  C1  UNL d   1      -2.975   1.732  -2.789  0.00  0.00     0.010 A 
ATOM      3  C2  UNL d   1      -2.774   1.484  -1.430  0.00  0.00     0.041 A 
ATOM      4  C3  UNL d   1      -1.465   1.244  -0.967  0.00  0.00    -0.075 A 
ATOM      5  S   UNL d   1      -0.979   0.917   0.654  0.00  0.00     0.015 SA
ATOM      6  C4  UNL d   1       0.662   0.782   0.214  0.00  0.00     0.022 A 
ATOM      7  C5  UNL d   1       0.852   0.978  -1.133  0.00  0.00     0.026 A 
ATOM      8  C6  UNL d   1      -0.370   1.248  -1.836  0.00  0.00    -0.082 A 
ATOM      9  C7  UNL d   1      -0.607   1.502  -3.209  0.00  0.00     0.045 A 
ENDROOT
TORSDOF 0
ENDMDL
