MODEL 1
REMARK minimizedAffinity 0.0302260723
REMARK minimizedRMSD -1
REMARK  0 active torsions:
REMARK  status: ('A' for Active; 'I' for Inactive)
ROOT
ATOM      1  C   UNL d   1      -1.958   1.496  -3.785  0.00  0.00    -0.002 A 
ATOM      2  C1  UNL d   1      -3.012   2.040  -3.065  0.00  0.00     0.010 A 
ATOM      3  C2  UNL d   1      -3.021   1.987  -1.670  0.00  0.00     0.041 A 
ATOM      4  C3  UNL d   1      -1.942   1.374  -1.004  0.00  0.00    -0.075 A 
ATOM      5  S   UNL d   1      -1.738   1.194   0.699  0.00  0.00     0.015 SA
ATOM      6  C4  UNL d   1      -0.246   0.391   0.510  0.00  0.00     0.022 A 
ATOM      7  C5  UNL d   1       0.103   0.255  -0.813  0.00  0.00     0.026 A 
ATOM      8  C6  UNL d   1      -0.868   0.820  -1.707  0.00  0.00    -0.082 A 
ATOM      9  C7  UNL d   1      -0.889   0.889  -3.121  0.00  0.00     0.045 A 
ENDROOT
TORSDOF 0
ENDMDL
