MODEL 1
REMARK minimizedAffinity 2.83080435
REMARK minimizedRMSD -1
REMARK  0 active torsions:
REMARK  status: ('A' for Active; 'I' for Inactive)
ROOT
ATOM      1  C   UNL d   1      -1.331   2.509  -2.695  0.00  0.00    -0.002 A 
ATOM      2  C1  UNL d   1      -2.427   2.017  -2.001  0.00  0.00     0.010 A 
ATOM      3  C2  UNL d   1      -2.255   1.124  -0.942  0.00  0.00     0.041 A 
ATOM      4  C3  UNL d   1      -0.950   0.731  -0.587  0.00  0.00    -0.075 A 
ATOM      5  S   UNL d   1      -0.498  -0.351   0.677  0.00  0.00     0.015 SA
ATOM      6  C4  UNL d   1       1.162  -0.186   0.325  0.00  0.00     0.022 A 
ATOM      7  C5  UNL d   1       1.384   0.670  -0.727  0.00  0.00     0.026 A 
ATOM      8  C6  UNL d   1       0.170   1.213  -1.270  0.00  0.00    -0.082 A 
ATOM      9  C7  UNL d   1      -0.037   2.117  -2.340  0.00  0.00     0.045 A 
ENDROOT
TORSDOF 0
ENDMDL
