MODEL 1
REMARK minimizedAffinity -4.83312654
REMARK minimizedRMSD -1
REMARK  0 active torsions:
REMARK  status: ('A' for Active; 'I' for Inactive)
ROOT
ATOM      1  C   UNL d   1      -0.007  -1.956   2.889  0.00  0.00    -0.002 A 
ATOM      2  C1  UNL d   1       1.297  -2.212   2.491  0.00  0.00     0.010 A 
ATOM      3  C2  UNL d   1       1.851  -1.540   1.399  0.00  0.00     0.041 A 
ATOM      4  C3  UNL d   1       1.065  -0.597   0.709  0.00  0.00    -0.075 A 
ATOM      5  S   UNL d   1       1.532   0.347  -0.657  0.00  0.00     0.015 SA
ATOM      6  C4  UNL d   1       0.012   1.112  -0.742  0.00  0.00     0.022 A 
ATOM      7  C5  UNL d   1      -0.844   0.670   0.239  0.00  0.00     0.026 A 
ATOM      8  C6  UNL d   1      -0.251  -0.321   1.092  0.00  0.00    -0.082 A 
ATOM      9  C7  UNL d   1      -0.784  -1.019   2.202  0.00  0.00     0.045 A 
ENDROOT
TORSDOF 0
ENDMDL
