MODEL 1
REMARK minimizedAffinity 0.561329603
REMARK minimizedRMSD -1
REMARK  0 active torsions:
REMARK  status: ('A' for Active; 'I' for Inactive)
ROOT
ATOM      1  C   UNL d   1       2.512  -1.118  -0.104  0.00  0.00    -0.002 A 
ATOM      2  C1  UNL d   1       1.754  -1.457   1.008  0.00  0.00     0.010 A 
ATOM      3  C2  UNL d   1       0.493  -0.891   1.207  0.00  0.00     0.041 A 
ATOM      4  C3  UNL d   1       0.002   0.029   0.260  0.00  0.00    -0.075 A 
ATOM      5  S   UNL d   1      -1.515   0.848   0.297  0.00  0.00     0.015 SA
ATOM      6  C4  UNL d   1      -1.192   1.667  -1.163  0.00  0.00     0.022 A 
ATOM      7  C5  UNL d   1       0.038   1.336  -1.679  0.00  0.00     0.026 A 
ATOM      8  C6  UNL d   1       0.747   0.386  -0.868  0.00  0.00    -0.082 A 
ATOM      9  C7  UNL d   1       2.021  -0.205  -1.041  0.00  0.00     0.045 A 
ENDROOT
TORSDOF 0
ENDMDL
