MODEL 1
REMARK minimizedAffinity 6.71276522
REMARK minimizedRMSD -1
REMARK  0 active torsions:
REMARK  status: ('A' for Active; 'I' for Inactive)
ROOT
ATOM      1  C   UNL d   1       3.823  -5.965  -3.234  0.00  0.00     0.078 C 
ATOM      2  C1  UNL d   1       2.577  -5.830  -2.411  0.00  0.00    -0.077 A 
ATOM      3  C2  UNL d   1       1.348  -5.523  -3.008  0.00  0.00    -0.001 A 
ATOM      4  C3  UNL d   1       0.198  -5.391  -2.228  0.00  0.00     0.003 A 
ATOM      5  C4  UNL d   1       0.266  -5.561  -0.847  0.00  0.00    -0.005 A 
ATOM      6  C5  UNL d   1       1.485  -5.864  -0.244  0.00  0.00     0.003 A 
ATOM      7  C6  UNL d   1       2.636  -5.997  -1.022  0.00  0.00    -0.001 A 
ENDROOT
TORSDOF 0
ENDMDL
