MODEL 1
REMARK minimizedAffinity 9.88226032
REMARK minimizedRMSD -1
REMARK  0 active torsions:
REMARK  status: ('A' for Active; 'I' for Inactive)
ROOT
ATOM      1  C   UNL d   1       2.991   1.000  -5.903  0.00  0.00     0.078 C 
ATOM      2  C1  UNL d   1       3.985   0.072  -5.271  0.00  0.00    -0.077 A 
ATOM      3  C2  UNL d   1       5.085  -0.408  -5.994  0.00  0.00    -0.001 A 
ATOM      4  C3  UNL d   1       5.996  -1.279  -5.395  0.00  0.00     0.003 A 
ATOM      5  C4  UNL d   1       5.817  -1.680  -4.073  0.00  0.00    -0.005 A 
ATOM      6  C5  UNL d   1       4.724  -1.210  -3.347  0.00  0.00     0.003 A 
ATOM      7  C6  UNL d   1       3.812  -0.338  -3.944  0.00  0.00    -0.001 A 
ENDROOT
TORSDOF 0
ENDMDL
