MODEL 1
REMARK minimizedAffinity 2.04254127
REMARK minimizedRMSD -1
REMARK  0 active torsions:
REMARK  status: ('A' for Active; 'I' for Inactive)
ROOT
ATOM      1  C   UNL d   1      -4.602  -1.092  -5.508  0.00  0.00     0.078 C 
ATOM      2  C1  UNL d   1      -4.677  -2.584  -5.638  0.00  0.00    -0.077 A 
ATOM      3  C2  UNL d   1      -3.525  -3.347  -5.866  0.00  0.00    -0.001 A 
ATOM      4  C3  UNL d   1      -3.611  -4.734  -5.994  0.00  0.00     0.003 A 
ATOM      5  C4  UNL d   1      -4.847  -5.371  -5.898  0.00  0.00    -0.005 A 
ATOM      6  C5  UNL d   1      -5.999  -4.620  -5.674  0.00  0.00     0.003 A 
ATOM      7  C6  UNL d   1      -5.915  -3.233  -5.545  0.00  0.00    -0.001 A 
ENDROOT
TORSDOF 0
ENDMDL
