MODEL 1
REMARK minimizedAffinity 6.37434292
REMARK minimizedRMSD -1
REMARK  0 active torsions:
REMARK  status: ('A' for Active; 'I' for Inactive)
ROOT
ATOM      1  C   UNL d   1       5.863   1.693  -6.000  0.00  0.00     0.078 C 
ATOM      2  C1  UNL d   1       5.324   0.391  -5.486  0.00  0.00    -0.077 A 
ATOM      3  C2  UNL d   1       5.778  -0.830  -5.999  0.00  0.00    -0.001 A 
ATOM      4  C3  UNL d   1       5.261  -2.034  -5.518  0.00  0.00     0.003 A 
ATOM      5  C4  UNL d   1       4.287  -2.028  -4.522  0.00  0.00    -0.005 A 
ATOM      6  C5  UNL d   1       3.828  -0.818  -4.006  0.00  0.00     0.003 A 
ATOM      7  C6  UNL d   1       4.344   0.387  -4.486  0.00  0.00    -0.001 A 
ENDROOT
TORSDOF 0
ENDMDL
