MODEL 1
REMARK minimizedAffinity 6.77394867
REMARK minimizedRMSD -1
REMARK  0 active torsions:
REMARK  status: ('A' for Active; 'I' for Inactive)
ROOT
ATOM      1  C   UNL d   1      -5.625   4.872  -0.192  0.00  0.00     0.078 C 
ATOM      2  C1  UNL d   1      -5.145   3.693  -0.984  0.00  0.00    -0.077 A 
ATOM      3  C2  UNL d   1      -6.000   3.020  -1.866  0.00  0.00    -0.001 A 
ATOM      4  C3  UNL d   1      -5.542   1.918  -2.590  0.00  0.00     0.003 A 
ATOM      5  C4  UNL d   1      -4.228   1.479  -2.439  0.00  0.00    -0.005 A 
ATOM      6  C5  UNL d   1      -3.371   2.141  -1.563  0.00  0.00     0.003 A 
ATOM      7  C6  UNL d   1      -3.827   3.243  -0.838  0.00  0.00    -0.001 A 
ENDROOT
TORSDOF 0
ENDMDL
