MODEL 1
REMARK minimizedAffinity 0.311698854
REMARK minimizedRMSD -1
REMARK  0 active torsions:
REMARK  status: ('A' for Active; 'I' for Inactive)
ROOT
ATOM      1  C   UNL d   1       5.975  -3.103  -5.477  0.00  0.00     0.078 C 
ATOM      2  C1  UNL d   1       5.283  -2.049  -4.665  0.00  0.00    -0.077 A 
ATOM      3  C2  UNL d   1       6.000  -0.987  -4.101  0.00  0.00    -0.001 A 
ATOM      4  C3  UNL d   1       5.344  -0.019  -3.339  0.00  0.00     0.003 A 
ATOM      5  C4  UNL d   1       3.968  -0.103  -3.135  0.00  0.00    -0.005 A 
ATOM      6  C5  UNL d   1       3.247  -1.157  -3.691  0.00  0.00     0.003 A 
ATOM      7  C6  UNL d   1       3.901  -2.127  -4.452  0.00  0.00    -0.001 A 
ENDROOT
TORSDOF 0
ENDMDL
