MODEL 1
REMARK minimizedAffinity 7.34379721
REMARK minimizedRMSD -1
REMARK  0 active torsions:
REMARK  status: ('A' for Active; 'I' for Inactive)
ROOT
ATOM      1  C   UNL d   1       4.168  -2.081  -4.845  0.00  0.00     0.078 C 
ATOM      2  C1  UNL d   1       4.789  -3.446  -4.834  0.00  0.00    -0.077 A 
ATOM      3  C2  UNL d   1       5.417  -3.942  -3.685  0.00  0.00    -0.001 A 
ATOM      4  C3  UNL d   1       6.000  -5.211  -3.692  0.00  0.00     0.003 A 
ATOM      5  C4  UNL d   1       5.961  -5.993  -4.844  0.00  0.00    -0.005 A 
ATOM      6  C5  UNL d   1       5.340  -5.506  -5.993  0.00  0.00     0.003 A 
ATOM      7  C6  UNL d   1       4.757  -4.238  -5.988  0.00  0.00    -0.001 A 
ENDROOT
TORSDOF 0
ENDMDL
