MODEL 1
REMARK minimizedAffinity 4.54820347
REMARK minimizedRMSD -1
REMARK  0 active torsions:
REMARK  status: ('A' for Active; 'I' for Inactive)
ROOT
ATOM      1  C   UNL d   1      -4.422  -1.838  -4.967  0.00  0.00     0.078 C 
ATOM      2  C1  UNL d   1      -4.804  -3.288  -4.970  0.00  0.00    -0.077 A 
ATOM      3  C2  UNL d   1      -4.322  -4.162  -3.988  0.00  0.00    -0.001 A 
ATOM      4  C3  UNL d   1      -4.678  -5.512  -4.008  0.00  0.00     0.003 A 
ATOM      5  C4  UNL d   1      -5.517  -5.999  -5.009  0.00  0.00    -0.005 A 
ATOM      6  C5  UNL d   1      -6.000  -5.137  -5.991  0.00  0.00     0.003 A 
ATOM      7  C6  UNL d   1      -5.645  -3.787  -5.972  0.00  0.00    -0.001 A 
ENDROOT
TORSDOF 0
ENDMDL
