MODEL 1
REMARK minimizedAffinity 2.15052915
REMARK minimizedRMSD -1
REMARK  0 active torsions:
REMARK  status: ('A' for Active; 'I' for Inactive)
ROOT
ATOM      1  C   UNL d   1       3.587  -0.371  -4.128  0.00  0.00     0.078 C 
ATOM      2  C1  UNL d   1       4.397  -1.573  -4.514  0.00  0.00    -0.077 A 
ATOM      3  C2  UNL d   1       4.343  -2.751  -3.760  0.00  0.00    -0.001 A 
ATOM      4  C3  UNL d   1       5.110  -3.859  -4.125  0.00  0.00     0.003 A 
ATOM      5  C4  UNL d   1       5.938  -3.798  -5.245  0.00  0.00    -0.005 A 
ATOM      6  C5  UNL d   1       6.000  -2.629  -6.000  0.00  0.00     0.003 A 
ATOM      7  C6  UNL d   1       5.234  -1.520  -5.636  0.00  0.00    -0.001 A 
ENDROOT
TORSDOF 0
ENDMDL
