MODEL 1
REMARK minimizedAffinity 15.0075855
REMARK minimizedRMSD -1
REMARK  0 active torsions:
REMARK  status: ('A' for Active; 'I' for Inactive)
ROOT
ATOM      1  C2' OXE d   1       6.000   5.057  -4.629  0.00  0.00     0.078 C 
ATOM      2  C1' OXE d   1       5.630   5.277  -1.855  0.00  0.00     0.078 C 
ATOM      3  C1  OXE d   1       4.716   4.348  -2.615  0.00  0.00    -0.078 A 
ATOM      4  C2  OXE d   1       4.874   4.282  -3.978  0.00  0.00    -0.078 A 
ATOM      5  C3  OXE d   1       4.094   3.400  -4.721  0.00  0.00     0.003 A 
ATOM      6  C4  OXE d   1       3.048   2.695  -4.113  0.00  0.00    -0.002 A 
ATOM      7  C5  OXE d   1       2.844   2.778  -2.732  0.00  0.00    -0.002 A 
ATOM      8  C6  OXE d   1       3.695   3.565  -1.964  0.00  0.00     0.003 A 
ENDROOT
TORSDOF 0
ENDMDL
