MODEL 1
REMARK minimizedAffinity 21.3868141
REMARK minimizedRMSD -1
REMARK  0 active torsions:
REMARK  status: ('A' for Active; 'I' for Inactive)
ROOT
ATOM      1  C2' OXE d   1      -1.219  -0.848   1.072  0.00  0.00     0.078 C 
ATOM      2  C1' OXE d   1      -3.785  -0.351   0.048  0.00  0.00     0.078 C 
ATOM      3  C1  OXE d   1      -3.522  -1.704   0.660  0.00  0.00    -0.078 A 
ATOM      4  C2  OXE d   1      -2.251  -1.955   1.117  0.00  0.00    -0.078 A 
ATOM      5  C3  OXE d   1      -1.969  -3.168   1.740  0.00  0.00     0.003 A 
ATOM      6  C4  OXE d   1      -2.925  -4.189   1.768  0.00  0.00    -0.002 A 
ATOM      7  C5  OXE d   1      -4.215  -3.968   1.273  0.00  0.00    -0.002 A 
ATOM      8  C6  OXE d   1      -4.542  -2.720   0.755  0.00  0.00     0.003 A 
ENDROOT
TORSDOF 0
ENDMDL
