MODEL 1
REMARK minimizedAffinity 13.7200403
REMARK minimizedRMSD -1
REMARK  0 active torsions:
REMARK  status: ('A' for Active; 'I' for Inactive)
ROOT
ATOM      1  C2' OXE d   1      -0.825  -2.949   1.488  0.00  0.00     0.078 C 
ATOM      2  C1' OXE d   1      -3.424  -3.703   2.236  0.00  0.00     0.078 C 
ATOM      3  C1  OXE d   1      -3.086  -2.233   2.251  0.00  0.00    -0.078 A 
ATOM      4  C2  OXE d   1      -1.798  -1.877   1.929  0.00  0.00    -0.078 A 
ATOM      5  C3  OXE d   1      -1.448  -0.531   1.874  0.00  0.00     0.003 A 
ATOM      6  C4  OXE d   1      -2.351   0.454   2.293  0.00  0.00    -0.002 A 
ATOM      7  C5  OXE d   1      -3.655   0.110   2.663  0.00  0.00    -0.002 A 
ATOM      8  C6  OXE d   1      -4.051  -1.222   2.607  0.00  0.00     0.003 A 
ENDROOT
TORSDOF 0
ENDMDL
