MODEL 1
REMARK minimizedAffinity 20.5844727
REMARK minimizedRMSD -1
REMARK  0 active torsions:
REMARK  status: ('A' for Active; 'I' for Inactive)
ROOT
ATOM      1  C2' OXE d   1       3.040   2.807  -2.622  0.00  0.00     0.078 C 
ATOM      2  C1' OXE d   1       4.663   2.258  -4.846  0.00  0.00     0.078 C 
ATOM      3  C1  OXE d   1       4.877   3.565  -4.124  0.00  0.00    -0.078 A 
ATOM      4  C2  OXE d   1       4.047   3.846  -3.065  0.00  0.00    -0.078 A 
ATOM      5  C3  OXE d   1       4.237   5.013  -2.331  0.00  0.00     0.003 A 
ATOM      6  C4  OXE d   1       5.164   5.973  -2.753  0.00  0.00    -0.002 A 
ATOM      7  C5  OXE d   1       5.993   5.725  -3.853  0.00  0.00    -0.002 A 
ATOM      8  C6  OXE d   1       5.891   4.510  -4.522  0.00  0.00     0.003 A 
ENDROOT
TORSDOF 0
ENDMDL
