MODEL 1
REMARK minimizedAffinity 14.4485588
REMARK minimizedRMSD -1
REMARK  0 active torsions:
REMARK  status: ('A' for Active; 'I' for Inactive)
ROOT
ATOM      1  C2' OXE d   1       5.945  -5.988   1.576  0.00  0.00     0.078 C 
ATOM      2  C1' OXE d   1       3.141  -5.974   1.450  0.00  0.00     0.078 C 
ATOM      3  C1  OXE d   1       3.888  -4.968   0.611  0.00  0.00    -0.078 A 
ATOM      4  C2  OXE d   1       5.258  -4.950   0.714  0.00  0.00    -0.078 A 
ATOM      5  C3  OXE d   1       5.998  -4.078  -0.079  0.00  0.00     0.003 A 
ATOM      6  C4  OXE d   1       5.354  -3.116  -0.865  0.00  0.00    -0.002 A 
ATOM      7  C5  OXE d   1       3.958  -3.090  -0.954  0.00  0.00    -0.002 A 
ATOM      8  C6  OXE d   1       3.213  -4.034  -0.257  0.00  0.00     0.003 A 
ENDROOT
TORSDOF 0
ENDMDL
