MODEL 1
REMARK minimizedAffinity 3.83898973
REMARK minimizedRMSD -1
REMARK  0 active torsions:
REMARK  status: ('A' for Active; 'I' for Inactive)
ROOT
ATOM      1  C2' OXE d   1      -1.825  -3.012  -3.908  0.00  0.00     0.078 C 
ATOM      2  C1' OXE d   1      -2.135  -4.873  -5.986  0.00  0.00     0.078 C 
ATOM      3  C1  OXE d   1      -0.898  -4.975  -5.129  0.00  0.00    -0.078 A 
ATOM      4  C2  OXE d   1      -0.732  -4.032  -4.144  0.00  0.00    -0.078 A 
ATOM      5  C3  OXE d   1       0.364  -4.113  -3.290  0.00  0.00     0.003 A 
ATOM      6  C4  OXE d   1       1.375  -5.053  -3.522  0.00  0.00    -0.002 A 
ATOM      7  C5  OXE d   1       1.245  -5.999  -4.545  0.00  0.00    -0.002 A 
ATOM      8  C6  OXE d   1       0.097  -6.000  -5.329  0.00  0.00     0.003 A 
ENDROOT
TORSDOF 0
ENDMDL
