MODEL 1
REMARK minimizedAffinity 5.43743849
REMARK minimizedRMSD -1
REMARK  0 active torsions:
REMARK  status: ('A' for Active; 'I' for Inactive)
ROOT
ATOM      1  C2' OXE d   1      -1.038   4.501  -4.265  0.00  0.00     0.078 C 
ATOM      2  C1' OXE d   1       0.085   6.000  -2.174  0.00  0.00     0.078 C 
ATOM      3  C1  OXE d   1       0.749   4.696  -2.541  0.00  0.00    -0.078 A 
ATOM      4  C2  OXE d   1       0.166   3.947  -3.534  0.00  0.00    -0.078 A 
ATOM      5  C3  OXE d   1       0.769   2.763  -3.948  0.00  0.00     0.003 A 
ATOM      6  C4  OXE d   1       1.876   2.252  -3.260  0.00  0.00    -0.002 A 
ATOM      7  C5  OXE d   1       2.463   2.981  -2.220  0.00  0.00    -0.002 A 
ATOM      8  C6  OXE d   1       1.938   4.222  -1.877  0.00  0.00     0.003 A 
ENDROOT
TORSDOF 0
ENDMDL
