MODEL 1
REMARK minimizedAffinity 13.6347952
REMARK minimizedRMSD -1
REMARK  0 active torsions:
REMARK  status: ('A' for Active; 'I' for Inactive)
ROOT
ATOM      1  C2' OXE d   1       3.375   2.990  -5.795  0.00  0.00     0.078 C 
ATOM      2  C1' OXE d   1       1.886   2.960  -3.416  0.00  0.00     0.078 C 
ATOM      3  C1  OXE d   1       3.323   3.412  -3.341  0.00  0.00    -0.078 A 
ATOM      4  C2  OXE d   1       4.057   3.379  -4.501  0.00  0.00    -0.078 A 
ATOM      5  C3  OXE d   1       5.372   3.837  -4.498  0.00  0.00     0.003 A 
ATOM      6  C4  OXE d   1       5.998   4.186  -3.295  0.00  0.00    -0.002 A 
ATOM      7  C5  OXE d   1       5.279   4.189  -2.095  0.00  0.00    -0.002 A 
ATOM      8  C6  OXE d   1       3.932   3.846  -2.108  0.00  0.00     0.003 A 
ENDROOT
TORSDOF 0
ENDMDL
