MODEL 1
REMARK minimizedAffinity 20.5863304
REMARK minimizedRMSD -1
REMARK  0 active torsions:
REMARK  status: ('A' for Active; 'I' for Inactive)
ROOT
ATOM      1  C2' OXE d   1      -3.498  -4.558   1.314  0.00  0.00     0.078 C 
ATOM      2  C1' OXE d   1      -1.451  -4.486  -0.606  0.00  0.00     0.078 C 
ATOM      3  C1  OXE d   1      -2.335  -3.271  -0.474  0.00  0.00    -0.078 A 
ATOM      4  C2  OXE d   1      -3.363  -3.333   0.436  0.00  0.00    -0.078 A 
ATOM      5  C3  OXE d   1      -4.175  -2.220   0.636  0.00  0.00     0.003 A 
ATOM      6  C4  OXE d   1      -4.050  -1.094  -0.188  0.00  0.00    -0.002 A 
ATOM      7  C5  OXE d   1      -3.035  -1.026  -1.148  0.00  0.00    -0.002 A 
ATOM      8  C6  OXE d   1      -2.144  -2.086  -1.274  0.00  0.00     0.003 A 
ENDROOT
TORSDOF 0
ENDMDL
