MODEL 1
REMARK minimizedAffinity 19.9680824
REMARK minimizedRMSD -1
REMARK  0 active torsions:
REMARK  status: ('A' for Active; 'I' for Inactive)
ROOT
ATOM      1  C2' OXE d   1      -4.486   0.975   1.418  0.00  0.00     0.078 C 
ATOM      2  C1' OXE d   1      -4.725  -1.640   0.425  0.00  0.00     0.078 C 
ATOM      3  C1  OXE d   1      -4.981  -0.499  -0.528  0.00  0.00    -0.078 A 
ATOM      4  C2  OXE d   1      -4.907   0.776  -0.022  0.00  0.00    -0.078 A 
ATOM      5  C3  OXE d   1      -5.081   1.866  -0.871  0.00  0.00     0.003 A 
ATOM      6  C4  OXE d   1      -5.481   1.673  -2.199  0.00  0.00    -0.002 A 
ATOM      7  C5  OXE d   1      -5.600   0.382  -2.724  0.00  0.00    -0.002 A 
ATOM      8  C6  OXE d   1      -5.313  -0.712  -1.915  0.00  0.00     0.003 A 
ENDROOT
TORSDOF 0
ENDMDL
