MODEL 1
REMARK minimizedAffinity 13.4030085
REMARK minimizedRMSD -1
REMARK  0 active torsions:
REMARK  status: ('A' for Active; 'I' for Inactive)
ROOT
ATOM      1  C2' OXE d   1       6.000   4.500  -4.876  0.00  0.00     0.078 C 
ATOM      2  C1' OXE d   1       5.537   4.569  -2.108  0.00  0.00     0.078 C 
ATOM      3  C1  OXE d   1       4.414   4.098  -2.998  0.00  0.00    -0.078 A 
ATOM      4  C2  OXE d   1       4.633   4.112  -4.354  0.00  0.00    -0.078 A 
ATOM      5  C3  OXE d   1       3.650   3.636  -5.216  0.00  0.00     0.003 A 
ATOM      6  C4  OXE d   1       2.385   3.288  -4.726  0.00  0.00    -0.002 A 
ATOM      7  C5  OXE d   1       2.127   3.304  -3.351  0.00  0.00    -0.002 A 
ATOM      8  C6  OXE d   1       3.142   3.665  -2.472  0.00  0.00     0.003 A 
ENDROOT
TORSDOF 0
ENDMDL
