MODEL 1
REMARK minimizedAffinity 11.9878311
REMARK minimizedRMSD -1
REMARK  0 active torsions:
REMARK  status: ('A' for Active; 'I' for Inactive)
ROOT
ATOM      1  C2' OXE d   1      -1.835   0.787   2.682  0.00  0.00     0.078 C 
ATOM      2  C1' OXE d   1      -1.684  -1.294   0.804  0.00  0.00     0.078 C 
ATOM      3  C1  OXE d   1      -0.836  -1.404   2.047  0.00  0.00    -0.078 A 
ATOM      4  C2  OXE d   1      -0.881  -0.359   2.938  0.00  0.00    -0.078 A 
ATOM      5  C3  OXE d   1      -0.160  -0.435   4.126  0.00  0.00     0.003 A 
ATOM      6  C4  OXE d   1       0.727  -1.494   4.351  0.00  0.00    -0.002 A 
ATOM      7  C5  OXE d   1       0.819  -2.550   3.437  0.00  0.00    -0.002 A 
ATOM      8  C6  OXE d   1       0.014  -2.541   2.303  0.00  0.00     0.003 A 
ENDROOT
TORSDOF 0
ENDMDL
