MODEL 1
REMARK minimizedAffinity 17.2235088
REMARK minimizedRMSD -1
REMARK  0 active torsions:
REMARK  status: ('A' for Active; 'I' for Inactive)
ROOT
ATOM      1  C2' OXE d   1       5.754   4.482  -4.731  0.00  0.00     0.078 C 
ATOM      2  C1' OXE d   1       3.795   2.922  -6.000  0.00  0.00     0.078 C 
ATOM      3  C1  OXE d   1       3.580   3.280  -4.550  0.00  0.00    -0.078 A 
ATOM      4  C2  OXE d   1       4.566   4.004  -3.925  0.00  0.00    -0.078 A 
ATOM      5  C3  OXE d   1       4.393   4.407  -2.604  0.00  0.00     0.003 A 
ATOM      6  C4  OXE d   1       3.296   3.952  -1.862  0.00  0.00    -0.002 A 
ATOM      7  C5  OXE d   1       2.299   3.180  -2.469  0.00  0.00    -0.002 A 
ATOM      8  C6  OXE d   1       2.405   2.872  -3.821  0.00  0.00     0.003 A 
ENDROOT
TORSDOF 0
ENDMDL
