MODEL 1
REMARK minimizedAffinity 18.611866
REMARK minimizedRMSD -1
REMARK  0 active torsions:
REMARK  status: ('A' for Active; 'I' for Inactive)
ROOT
ATOM      1  C2' OXE d   1       5.004   5.988  -2.068  0.00  0.00     0.078 C 
ATOM      2  C1' OXE d   1       5.999   5.137  -4.551  0.00  0.00     0.078 C 
ATOM      3  C1  OXE d   1       4.716   4.517  -4.057  0.00  0.00    -0.078 A 
ATOM      4  C2  OXE d   1       4.261   4.905  -2.820  0.00  0.00    -0.078 A 
ATOM      5  C3  OXE d   1       3.054   4.405  -2.342  0.00  0.00     0.003 A 
ATOM      6  C4  OXE d   1       2.378   3.396  -3.039  0.00  0.00    -0.002 A 
ATOM      7  C5  OXE d   1       2.846   2.957  -4.282  0.00  0.00    -0.002 A 
ATOM      8  C6  OXE d   1       3.988   3.537  -4.824  0.00  0.00     0.003 A 
ENDROOT
TORSDOF 0
ENDMDL
