MODEL 1
REMARK minimizedAffinity 13.29877
REMARK minimizedRMSD -1
REMARK  0 active torsions:
REMARK  status: ('A' for Active; 'I' for Inactive)
ROOT
ATOM      1  C2' OXE d   1       3.524   3.258  -5.955  0.00  0.00     0.078 C 
ATOM      2  C1' OXE d   1       2.048   3.134  -3.571  0.00  0.00     0.078 C 
ATOM      3  C1  OXE d   1       3.399   3.804  -3.528  0.00  0.00    -0.078 A 
ATOM      4  C2  OXE d   1       4.134   3.819  -4.689  0.00  0.00    -0.078 A 
ATOM      5  C3  OXE d   1       5.363   4.472  -4.719  0.00  0.00     0.003 A 
ATOM      6  C4  OXE d   1       5.924   4.980  -3.541  0.00  0.00    -0.002 A 
ATOM      7  C5  OXE d   1       5.209   4.940  -2.339  0.00  0.00    -0.002 A 
ATOM      8  C6  OXE d   1       3.930   4.395  -2.325  0.00  0.00     0.003 A 
ENDROOT
TORSDOF 0
ENDMDL
