MODEL 1
REMARK minimizedAffinity 10.2405796
REMARK minimizedRMSD -1
REMARK  0 active torsions:
REMARK  status: ('A' for Active; 'I' for Inactive)
ROOT
ATOM      1  C2' OXE d   1       5.998   4.502  -4.482  0.00  0.00     0.078 C 
ATOM      2  C1' OXE d   1       5.374   5.824  -2.086  0.00  0.00     0.078 C 
ATOM      3  C1  OXE d   1       4.369   4.838  -2.628  0.00  0.00    -0.078 A 
ATOM      4  C2  OXE d   1       4.662   4.231  -3.825  0.00  0.00    -0.078 A 
ATOM      5  C3  OXE d   1       3.794   3.273  -4.342  0.00  0.00     0.003 A 
ATOM      6  C4  OXE d   1       2.556   3.036  -3.733  0.00  0.00    -0.002 A 
ATOM      7  C5  OXE d   1       2.221   3.673  -2.534  0.00  0.00    -0.002 A 
ATOM      8  C6  OXE d   1       3.133   4.544  -1.947  0.00  0.00     0.003 A 
ENDROOT
TORSDOF 0
ENDMDL
