MODEL 1
REMARK minimizedAffinity 14.6840038
REMARK minimizedRMSD -1
REMARK  0 active torsions:
REMARK  status: ('A' for Active; 'I' for Inactive)
ROOT
ATOM      1  C2' OXE d   1      -1.528  -3.834  -2.287  0.00  0.00     0.078 C 
ATOM      2  C1' OXE d   1       0.677  -4.589  -3.851  0.00  0.00     0.078 C 
ATOM      3  C1  OXE d   1      -0.698  -4.951  -4.353  0.00  0.00    -0.078 A 
ATOM      4  C2  OXE d   1      -1.769  -4.618  -3.559  0.00  0.00    -0.078 A 
ATOM      5  C3  OXE d   1      -3.063  -4.880  -4.001  0.00  0.00     0.003 A 
ATOM      6  C4  OXE d   1      -3.276  -5.615  -5.173  0.00  0.00    -0.002 A 
ATOM      7  C5  OXE d   1      -2.197  -5.998  -5.977  0.00  0.00    -0.002 A 
ATOM      8  C6  OXE d   1      -0.907  -5.637  -5.604  0.00  0.00     0.003 A 
ENDROOT
TORSDOF 0
ENDMDL
