MODEL 1
REMARK minimizedAffinity 13.7440662
REMARK minimizedRMSD -1
REMARK  0 active torsions:
REMARK  status: ('A' for Active; 'I' for Inactive)
ROOT
ATOM      1  C2' OXE d   1      -0.895  -0.932   1.890  0.00  0.00     0.078 C 
ATOM      2  C1' OXE d   1       0.184  -3.521   1.763  0.00  0.00     0.078 C 
ATOM      3  C1  OXE d   1      -1.313  -3.376   1.647  0.00  0.00    -0.078 A 
ATOM      4  C2  OXE d   1      -1.836  -2.110   1.756  0.00  0.00    -0.078 A 
ATOM      5  C3  OXE d   1      -3.205  -1.913   1.601  0.00  0.00     0.003 A 
ATOM      6  C4  OXE d   1      -4.070  -3.009   1.488  0.00  0.00    -0.002 A 
ATOM      7  C5  OXE d   1      -3.562  -4.310   1.414  0.00  0.00    -0.002 A 
ATOM      8  C6  OXE d   1      -2.185  -4.507   1.449  0.00  0.00     0.003 A 
ENDROOT
TORSDOF 0
ENDMDL
