MODEL 1
REMARK minimizedAffinity 3.8090899
REMARK minimizedRMSD -1
REMARK  0 active torsions:
REMARK  status: ('A' for Active; 'I' for Inactive)
ROOT
ATOM      1  C2' OXE d   1      -1.612   0.718   3.392  0.00  0.00     0.078 C 
ATOM      2  C1' OXE d   1      -3.104  -0.232   1.213  0.00  0.00     0.078 C 
ATOM      3  C1  OXE d   1      -1.690  -0.734   1.370  0.00  0.00    -0.078 A 
ATOM      4  C2  OXE d   1      -0.952  -0.228   2.413  0.00  0.00    -0.078 A 
ATOM      5  C3  OXE d   1       0.339  -0.698   2.635  0.00  0.00     0.003 A 
ATOM      6  C4  OXE d   1       0.945  -1.565   1.719  0.00  0.00    -0.002 A 
ATOM      7  C5  OXE d   1       0.225  -2.062   0.628  0.00  0.00    -0.002 A 
ATOM      8  C6  OXE d   1      -1.105  -1.690   0.463  0.00  0.00     0.003 A 
ENDROOT
TORSDOF 0
ENDMDL
