MODEL 1
REMARK minimizedAffinity -5.72561216
REMARK minimizedRMSD -1
REMARK  1 active torsions:
REMARK  status: ('A' for Active; 'I' for Inactive)
REMARK    1  A    between atoms: C1_2  and  C2_3 
ROOT
ATOM      1  C2  UNL d   1       0.804  -1.748   1.064  0.00  0.00    -0.076 A 
ATOM      2  C3  UNL d   1       1.669  -1.126   0.147  0.00  0.00     0.004 A 
ATOM      3  C4  UNL d   1       1.323   0.081  -0.460  0.00  0.00    -0.003 A 
ATOM      4  C5  UNL d   1       0.107   0.685  -0.159  0.00  0.00     0.000 A 
ATOM      5  C6  UNL d   1      -0.755   0.090   0.761  0.00  0.00     0.000 A 
ATOM      6  C7  UNL d   1      -0.415  -1.117   1.395  0.00  0.00    -0.073 A 
ATOM      7  C8  UNL d   1      -1.386  -1.717   2.375  0.00  0.00     0.078 C 
ENDROOT
BRANCH   1   8
ATOM      8  C1  UNL d   1       1.220  -3.069   1.671  0.00  0.00     0.053 C 
ATOM      9  C   UNL d   1       2.599  -3.008   2.309  0.00  0.00     0.018 C 
ENDBRANCH   1   8
TORSDOF 1
ENDMDL
