MODEL 1
REMARK minimizedAffinity -6.46623945
REMARK minimizedRMSD -1
REMARK  1 active torsions:
REMARK  status: ('A' for Active; 'I' for Inactive)
REMARK    1  A    between atoms: C1_2  and  C2_3 
ROOT
ATOM      1  C2  UNL d   1      -0.007  -0.892   0.937  0.00  0.00    -0.076 A 
ATOM      2  C3  UNL d   1      -1.056  -0.671   1.847  0.00  0.00     0.004 A 
ATOM      3  C4  UNL d   1      -1.161  -1.422   3.016  0.00  0.00    -0.003 A 
ATOM      4  C5  UNL d   1      -0.220  -2.406   3.296  0.00  0.00     0.000 A 
ATOM      5  C6  UNL d   1       0.837  -2.627   2.413  0.00  0.00     0.000 A 
ATOM      6  C7  UNL d   1       0.968  -1.868   1.238  0.00  0.00    -0.073 A 
ATOM      7  C8  UNL d   1       2.124  -2.153   0.319  0.00  0.00     0.078 C 
ENDROOT
BRANCH   1   8
ATOM      8  C1  UNL d   1       0.041  -0.065  -0.328  0.00  0.00     0.053 C 
ATOM      9  C   UNL d   1       0.516   1.357  -0.076  0.00  0.00     0.018 C 
ENDBRANCH   1   8
TORSDOF 1
ENDMDL
