MODEL 1
REMARK minimizedAffinity -5.38949108
REMARK minimizedRMSD -1
REMARK  1 active torsions:
REMARK  status: ('A' for Active; 'I' for Inactive)
REMARK    1  A    between atoms: C1_2  and  C2_3 
ROOT
ATOM      1  C2  UNL d   1       1.466  -2.065   1.901  0.00  0.00    -0.076 A 
ATOM      2  C3  UNL d   1       1.413  -3.066   2.887  0.00  0.00     0.004 A 
ATOM      3  C4  UNL d   1       0.210  -3.397   3.509  0.00  0.00    -0.003 A 
ATOM      4  C5  UNL d   1      -0.959  -2.733   3.155  0.00  0.00     0.000 A 
ATOM      5  C6  UNL d   1      -0.928  -1.750   2.167  0.00  0.00     0.000 A 
ATOM      6  C7  UNL d   1       0.273  -1.416   1.518  0.00  0.00    -0.073 A 
ATOM      7  C8  UNL d   1       0.249  -0.344   0.463  0.00  0.00     0.078 C 
ENDROOT
BRANCH   1   8
ATOM      8  C1  UNL d   1       2.803  -1.731   1.279  0.00  0.00     0.053 C 
ATOM      9  C   UNL d   1       3.773  -1.121   2.279  0.00  0.00     0.018 C 
ENDBRANCH   1   8
TORSDOF 1
ENDMDL
