MODEL 1
REMARK minimizedAffinity -6.21415854
REMARK minimizedRMSD -1
REMARK  1 active torsions:
REMARK  status: ('A' for Active; 'I' for Inactive)
REMARK    1  A    between atoms: C1_2  and  C2_3 
ROOT
ATOM      1  C2  UNL d   1      -0.264  -1.297   1.307  0.00  0.00    -0.076 A 
ATOM      2  C3  UNL d   1      -0.446  -0.114   0.570  0.00  0.00     0.004 A 
ATOM      3  C4  UNL d   1       0.567   0.386  -0.246  0.00  0.00    -0.003 A 
ATOM      4  C5  UNL d   1       1.779  -0.290  -0.340  0.00  0.00     0.000 A 
ATOM      5  C6  UNL d   1       1.970  -1.475   0.371  0.00  0.00     0.000 A 
ATOM      6  C7  UNL d   1       0.953  -2.001   1.185  0.00  0.00    -0.073 A 
ATOM      7  C8  UNL d   1       1.216  -3.279   1.933  0.00  0.00     0.078 C 
ENDROOT
BRANCH   1   8
ATOM      8  C1  UNL d   1      -1.389  -1.777   2.196  0.00  0.00     0.053 C 
ATOM      9  C   UNL d   1      -2.132  -0.631   2.864  0.00  0.00     0.018 C 
ENDBRANCH   1   8
TORSDOF 1
ENDMDL
