MODEL 1
REMARK minimizedAffinity -2.51593757
REMARK minimizedRMSD -1
REMARK  1 active torsions:
REMARK  status: ('A' for Active; 'I' for Inactive)
REMARK    1  A    between atoms: C1_2  and  C2_3 
ROOT
ATOM      1  C2  UNL d   1      -1.210   2.606  -1.809  0.00  0.00    -0.076 A 
ATOM      2  C3  UNL d   1      -0.286   3.545  -2.302  0.00  0.00     0.004 A 
ATOM      3  C4  UNL d   1      -0.358   3.999  -3.617  0.00  0.00    -0.003 A 
ATOM      4  C5  UNL d   1      -1.356   3.523  -4.461  0.00  0.00     0.000 A 
ATOM      5  C6  UNL d   1      -2.291   2.606  -3.984  0.00  0.00     0.000 A 
ATOM      6  C7  UNL d   1      -2.242   2.150  -2.655  0.00  0.00    -0.073 A 
ATOM      7  C8  UNL d   1      -3.273   1.155  -2.195  0.00  0.00     0.078 C 
ENDROOT
BRANCH   1   8
ATOM      8  C1  UNL d   1      -1.066   2.130  -0.381  0.00  0.00     0.053 C 
ATOM      9  C   UNL d   1      -0.082   0.977  -0.248  0.00  0.00     0.018 C 
ENDBRANCH   1   8
TORSDOF 1
ENDMDL
