MODEL 1
REMARK minimizedAffinity -2.14034557
REMARK minimizedRMSD -1
REMARK  1 active torsions:
REMARK  status: ('A' for Active; 'I' for Inactive)
REMARK    1  A    between atoms: C1_2  and  C2_3 
ROOT
ATOM      1  C2  UNL d   1      -0.048   0.352  -0.602  0.00  0.00    -0.076 A 
ATOM      2  C3  UNL d   1       1.276   0.776  -0.392  0.00  0.00     0.004 A 
ATOM      3  C4  UNL d   1       2.302  -0.147  -0.200  0.00  0.00    -0.003 A 
ATOM      4  C5  UNL d   1       2.022  -1.509  -0.215  0.00  0.00     0.000 A 
ATOM      5  C6  UNL d   1       0.717  -1.947  -0.439  0.00  0.00     0.000 A 
ATOM      6  C7  UNL d   1      -0.327  -1.030  -0.651  0.00  0.00    -0.073 A 
ATOM      7  C8  UNL d   1      -1.716  -1.559  -0.882  0.00  0.00     0.078 C 
ENDROOT
BRANCH   1   8
ATOM      8  C1  UNL d   1      -1.125   1.400  -0.777  0.00  0.00     0.053 C 
ATOM      9  C   UNL d   1      -1.414   1.699  -2.240  0.00  0.00     0.018 C 
ENDBRANCH   1   8
TORSDOF 1
ENDMDL
