MODEL 1
REMARK minimizedAffinity -2.67437148
REMARK minimizedRMSD -1
REMARK  1 active torsions:
REMARK  status: ('A' for Active; 'I' for Inactive)
REMARK    1  A    between atoms: C1_2  and  C2_3 
ROOT
ATOM      1  C2  UNL d   1       0.697  -0.712  -0.511  0.00  0.00    -0.076 A 
ATOM      2  C3  UNL d   1       1.108  -0.739  -1.855  0.00  0.00     0.004 A 
ATOM      3  C4  UNL d   1       0.227  -0.402  -2.881  0.00  0.00    -0.003 A 
ATOM      4  C5  UNL d   1      -1.079  -0.031  -2.580  0.00  0.00     0.000 A 
ATOM      5  C6  UNL d   1      -1.498   0.019  -1.251  0.00  0.00     0.000 A 
ATOM      6  C7  UNL d   1      -0.619  -0.303  -0.204  0.00  0.00    -0.073 A 
ATOM      7  C8  UNL d   1      -1.126  -0.239   1.211  0.00  0.00     0.078 C 
ENDROOT
BRANCH   1   8
ATOM      8  C1  UNL d   1       1.688  -1.115   0.558  0.00  0.00     0.053 C 
ATOM      9  C   UNL d   1       1.516  -2.561   0.996  0.00  0.00     0.018 C 
ENDBRANCH   1   8
TORSDOF 1
ENDMDL
