MODEL 1
REMARK minimizedAffinity -2.42685485
REMARK minimizedRMSD -1
REMARK  1 active torsions:
REMARK  status: ('A' for Active; 'I' for Inactive)
REMARK    1  A    between atoms: C1_2  and  C2_3 
ROOT
ATOM      1  C2  UNL d   1      -0.853   0.195  -1.223  0.00  0.00    -0.076 A 
ATOM      2  C3  UNL d   1      -1.484  -0.449  -2.301  0.00  0.00     0.004 A 
ATOM      3  C4  UNL d   1      -2.357   0.244  -3.139  0.00  0.00    -0.003 A 
ATOM      4  C5  UNL d   1      -2.611   1.592  -2.912  0.00  0.00     0.000 A 
ATOM      5  C6  UNL d   1      -1.980   2.251  -1.858  0.00  0.00     0.000 A 
ATOM      6  C7  UNL d   1      -1.085   1.571  -1.014  0.00  0.00    -0.073 A 
ATOM      7  C8  UNL d   1      -0.437   2.330   0.112  0.00  0.00     0.078 C 
ENDROOT
BRANCH   1   8
ATOM      8  C1  UNL d   1       0.063  -0.614  -0.332  0.00  0.00     0.053 C 
ATOM      9  C   UNL d   1       1.533  -0.399  -0.658  0.00  0.00     0.018 C 
ENDBRANCH   1   8
TORSDOF 1
ENDMDL
