MODEL 1
REMARK minimizedAffinity 0.467656702
REMARK minimizedRMSD -1
REMARK  1 active torsions:
REMARK  status: ('A' for Active; 'I' for Inactive)
REMARK    1  A    between atoms: C1_2  and  C2_3 
ROOT
ATOM      1  C2  UNL d   1       0.150  -0.612   0.836  0.00  0.00    -0.076 A 
ATOM      2  C3  UNL d   1       1.308  -0.799   0.062  0.00  0.00     0.004 A 
ATOM      3  C4  UNL d   1       2.316  -1.669   0.476  0.00  0.00    -0.003 A 
ATOM      4  C5  UNL d   1       2.181  -2.366   1.672  0.00  0.00     0.000 A 
ATOM      5  C6  UNL d   1       1.030  -2.206   2.444  0.00  0.00     0.000 A 
ATOM      6  C7  UNL d   1      -0.002  -1.346   2.032  0.00  0.00    -0.073 A 
ATOM      7  C8  UNL d   1      -1.218  -1.207   2.906  0.00  0.00     0.078 C 
ENDROOT
BRANCH   1   8
ATOM      8  C1  UNL d   1      -0.897   0.364   0.349  0.00  0.00     0.053 C 
ATOM      9  C   UNL d   1      -0.674   0.785  -1.096  0.00  0.00     0.018 C 
ENDBRANCH   1   8
TORSDOF 1
ENDMDL
