MODEL 1
REMARK minimizedAffinity -2.60771632
REMARK minimizedRMSD -1
REMARK  1 active torsions:
REMARK  status: ('A' for Active; 'I' for Inactive)
REMARK    1  A    between atoms: C1_2  and  C2_3 
ROOT
ATOM      1  C2  UNL d   1       0.257  -1.303   0.681  0.00  0.00    -0.076 A 
ATOM      2  C3  UNL d   1      -0.910  -1.383   1.460  0.00  0.00     0.004 A 
ATOM      3  C4  UNL d   1      -0.891  -1.973   2.723  0.00  0.00    -0.003 A 
ATOM      4  C5  UNL d   1       0.296  -2.492   3.228  0.00  0.00     0.000 A 
ATOM      5  C6  UNL d   1       1.467  -2.405   2.476  0.00  0.00     0.000 A 
ATOM      6  C7  UNL d   1       1.469  -1.799   1.208  0.00  0.00    -0.073 A 
ATOM      7  C8  UNL d   1       2.760  -1.738   0.439  0.00  0.00     0.078 C 
ENDROOT
BRANCH   1   8
ATOM      8  C1  UNL d   1       0.170  -0.676  -0.692  0.00  0.00     0.053 C 
ATOM      9  C   UNL d   1      -0.626   0.620  -0.692  0.00  0.00     0.018 C 
ENDBRANCH   1   8
TORSDOF 1
ENDMDL
