MODEL 1
REMARK minimizedAffinity -5.13194323
REMARK minimizedRMSD -1
REMARK  0 active torsions:
REMARK  status: ('A' for Active; 'I' for Inactive)
ROOT
ATOM      1  N1  IND d   1      -1.115  -0.489  -0.048  0.00  0.00    -0.196 N 
ATOM      2  C2  IND d   1      -1.248   0.706  -0.700  0.00  0.00     0.054 A 
ATOM      3  C3  IND d   1      -0.040   1.290  -0.864  0.00  0.00    -0.031 A 
ATOM      4  C4  IND d   1       2.298   0.417  -0.232  0.00  0.00     0.051 A 
ATOM      5  C5  IND d   1       2.925  -0.610   0.416  0.00  0.00    -0.031 A 
ATOM      6  C6  IND d   1       2.225  -1.671   0.950  0.00  0.00     0.015 A 
ATOM      7  C7  IND d   1       0.865  -1.752   0.847  0.00  0.00    -0.016 A 
ATOM      8  C8  IND d   1       0.223  -0.708   0.196  0.00  0.00    -0.047 A 
ATOM      9  C9  IND d   1       0.925   0.394  -0.311  0.00  0.00    -0.096 A 
ATOM     10  HN1 IND d   1      -1.758  -1.015   0.172  0.00  0.00     0.298 HD
ENDROOT
TORSDOF 0
ENDMDL
