MODEL 1
REMARK minimizedAffinity 0.370415926
REMARK minimizedRMSD -1
REMARK  0 active torsions:
REMARK  status: ('A' for Active; 'I' for Inactive)
ROOT
ATOM      1  N1  IND d   1      -5.972  -5.724   0.707  0.00  0.00    -0.196 N 
ATOM      2  C2  IND d   1      -5.998  -5.996  -0.632  0.00  0.00     0.054 A 
ATOM      3  C3  IND d   1      -4.780  -5.783  -1.179  0.00  0.00    -0.031 A 
ATOM      4  C4  IND d   1      -2.577  -5.084  -0.045  0.00  0.00     0.051 A 
ATOM      5  C5  IND d   1      -2.064  -4.687   1.157  0.00  0.00    -0.031 A 
ATOM      6  C6  IND d   1      -2.841  -4.617   2.295  0.00  0.00     0.015 A 
ATOM      7  C7  IND d   1      -4.165  -4.953   2.275  0.00  0.00    -0.016 A 
ATOM      8  C8  IND d   1      -4.692  -5.350   1.054  0.00  0.00    -0.047 A 
ATOM      9  C9  IND d   1      -3.918  -5.383  -0.113  0.00  0.00    -0.096 A 
ATOM     10  HN1 IND d   1      -6.642  -5.778   1.243  0.00  0.00     0.298 HD
ENDROOT
TORSDOF 0
ENDMDL
