MODEL 1
REMARK minimizedAffinity -4.53930187
REMARK minimizedRMSD -1
REMARK  0 active torsions:
REMARK  status: ('A' for Active; 'I' for Inactive)
ROOT
ATOM      1  N1  IND d   1      -1.077   0.507   0.586  0.00  0.00    -0.196 N 
ATOM      2  C2  IND d   1      -0.369   1.167  -0.380  0.00  0.00     0.054 A 
ATOM      3  C3  IND d   1       0.832   0.576  -0.569  0.00  0.00    -0.031 A 
ATOM      4  C4  IND d   1       1.803  -1.543   0.524  0.00  0.00     0.051 A 
ATOM      5  C5  IND d   1       1.543  -2.471   1.492  0.00  0.00    -0.031 A 
ATOM      6  C6  IND d   1       0.371  -2.456   2.221  0.00  0.00     0.015 A 
ATOM      7  C7  IND d   1      -0.593  -1.514   1.999  0.00  0.00    -0.016 A 
ATOM      8  C8  IND d   1      -0.329  -0.565   1.022  0.00  0.00    -0.047 A 
ATOM      9  C9  IND d   1       0.877  -0.550   0.308  0.00  0.00    -0.096 A 
ATOM     10  HN1 IND d   1      -1.857   0.725   0.873  0.00  0.00     0.298 HD
ENDROOT
TORSDOF 0
ENDMDL
