MODEL 1
REMARK minimizedAffinity -2.23770881
REMARK minimizedRMSD -1
REMARK  0 active torsions:
REMARK  status: ('A' for Active; 'I' for Inactive)
ROOT
ATOM      1  N1  IND d   1       2.317  -1.567   0.692  0.00  0.00    -0.196 N 
ATOM      2  C2  IND d   1       1.716  -2.685   1.201  0.00  0.00     0.054 A 
ATOM      3  C3  IND d   1       0.372  -2.544   1.185  0.00  0.00    -0.031 A 
ATOM      4  C4  IND d   1      -1.060  -0.608   0.277  0.00  0.00     0.051 A 
ATOM      5  C5  IND d   1      -0.962   0.649  -0.251  0.00  0.00    -0.031 A 
ATOM      6  C6  IND d   1       0.259   1.242  -0.499  0.00  0.00     0.015 A 
ATOM      7  C7  IND d   1       1.432   0.593  -0.238  0.00  0.00    -0.016 A 
ATOM      8  C8  IND d   1       1.336  -0.680   0.305  0.00  0.00    -0.047 A 
ATOM      9  C9  IND d   1       0.100  -1.271   0.598  0.00  0.00    -0.096 A 
ATOM     10  HN1 IND d   1       3.165  -1.439   0.626  0.00  0.00     0.298 HD
ENDROOT
TORSDOF 0
ENDMDL
