MODEL 1
REMARK minimizedAffinity -4.26890802
REMARK minimizedRMSD -1
REMARK  0 active torsions:
REMARK  status: ('A' for Active; 'I' for Inactive)
ROOT
ATOM      1  N1  IND d   1       0.085  -2.578   1.577  0.00  0.00    -0.196 N 
ATOM      2  C2  IND d   1       1.387  -2.911   1.326  0.00  0.00     0.054 A 
ATOM      3  C3  IND d   1       1.978  -1.961   0.567  0.00  0.00    -0.031 A 
ATOM      4  C4  IND d   1       1.028   0.273  -0.289  0.00  0.00     0.051 A 
ATOM      5  C5  IND d   1      -0.127   1.002  -0.346  0.00  0.00    -0.031 A 
ATOM      6  C6  IND d   1      -1.293   0.567   0.250  0.00  0.00     0.015 A 
ATOM      7  C7  IND d   1      -1.345  -0.613   0.937  0.00  0.00    -0.016 A 
ATOM      8  C8  IND d   1      -0.176  -1.358   0.991  0.00  0.00    -0.047 A 
ATOM      9  C9  IND d   1       0.999  -0.943   0.352  0.00  0.00    -0.096 A 
ATOM     10  HN1 IND d   1      -0.476  -3.050   2.025  0.00  0.00     0.298 HD
ENDROOT
TORSDOF 0
ENDMDL
