MODEL 1
REMARK minimizedAffinity 1.04681337
REMARK minimizedRMSD -1
REMARK  0 active torsions:
REMARK  status: ('A' for Active; 'I' for Inactive)
ROOT
ATOM      1  N1  IND d   1      -1.000   0.622   0.299  0.00  0.00    -0.196 N 
ATOM      2  C2  IND d   1      -0.489   1.159  -0.850  0.00  0.00     0.054 A 
ATOM      3  C3  IND d   1       0.751   0.672  -1.085  0.00  0.00    -0.031 A 
ATOM      4  C4  IND d   1       2.092  -1.090   0.227  0.00  0.00     0.051 A 
ATOM      5  C5  IND d   1       2.056  -1.841   1.368  0.00  0.00    -0.031 A 
ATOM      6  C6  IND d   1       0.976  -1.812   2.227  0.00  0.00     0.015 A 
ATOM      7  C7  IND d   1      -0.117  -1.034   1.970  0.00  0.00    -0.016 A 
ATOM      8  C8  IND d   1      -0.081  -0.264   0.816  0.00  0.00    -0.047 A 
ATOM      9  C9  IND d   1       1.030  -0.258  -0.038  0.00  0.00    -0.096 A 
ATOM     10  HN1 IND d   1      -1.767   0.807   0.641  0.00  0.00     0.298 HD
ENDROOT
TORSDOF 0
ENDMDL
