MODEL 1
REMARK minimizedAffinity -4.78505421
REMARK minimizedRMSD -1
REMARK  0 active torsions:
REMARK  status: ('A' for Active; 'I' for Inactive)
ROOT
ATOM      1  N1  IND d   1       1.780  -1.500   0.472  0.00  0.00    -0.196 N 
ATOM      2  C2  IND d   1       0.820  -2.331   0.976  0.00  0.00     0.054 A 
ATOM      3  C3  IND d   1      -0.404  -1.771   0.845  0.00  0.00    -0.031 A 
ATOM      4  C4  IND d   1      -1.072   0.457  -0.259  0.00  0.00     0.051 A 
ATOM      5  C5  IND d   1      -0.539   1.579  -0.829  0.00  0.00    -0.031 A 
ATOM      6  C6  IND d   1       0.821   1.734  -1.001  0.00  0.00     0.015 A 
ATOM      7  C7  IND d   1       1.703   0.763  -0.618  0.00  0.00    -0.016 A 
ATOM      8  C8  IND d   1       1.166  -0.374  -0.032  0.00  0.00    -0.047 A 
ATOM      9  C9  IND d   1      -0.211  -0.519   0.184  0.00  0.00    -0.096 A 
ATOM     10  HN1 IND d   1       2.626  -1.654   0.469  0.00  0.00     0.298 HD
ENDROOT
TORSDOF 0
ENDMDL
