MODEL 1
REMARK minimizedAffinity -4.91658878
REMARK minimizedRMSD -1
REMARK  0 active torsions:
REMARK  status: ('A' for Active; 'I' for Inactive)
ROOT
ATOM      1  N1  IND d   1       1.035   1.033  -0.203  0.00  0.00    -0.196 N 
ATOM      2  C2  IND d   1      -0.218   1.572  -0.116  0.00  0.00     0.054 A 
ATOM      3  C3  IND d   1      -1.112   0.627   0.253  0.00  0.00    -0.031 A 
ATOM      4  C4  IND d   1      -0.722  -1.843   0.865  0.00  0.00     0.051 A 
ATOM      5  C5  IND d   1       0.249  -2.804   0.900  0.00  0.00    -0.031 A 
ATOM      6  C6  IND d   1       1.559  -2.528   0.565  0.00  0.00     0.015 A 
ATOM      7  C7  IND d   1       1.951  -1.274   0.191  0.00  0.00    -0.016 A 
ATOM      8  C8  IND d   1       0.966  -0.297   0.148  0.00  0.00    -0.047 A 
ATOM      9  C9  IND d   1      -0.374  -0.580   0.446  0.00  0.00    -0.096 A 
ATOM     10  HN1 IND d   1       1.747   1.454  -0.438  0.00  0.00     0.298 HD
ENDROOT
TORSDOF 0
ENDMDL
