MODEL 1
REMARK minimizedAffinity -3.98650122
REMARK minimizedRMSD -1
REMARK  0 active torsions:
REMARK  status: ('A' for Active; 'I' for Inactive)
ROOT
ATOM      1  N1  IND d   1      -1.100   0.423   0.161  0.00  0.00    -0.196 N 
ATOM      2  C2  IND d   1      -0.219   0.905  -0.767  0.00  0.00     0.054 A 
ATOM      3  C3  IND d   1       0.929   0.191  -0.741  0.00  0.00    -0.031 A 
ATOM      4  C4  IND d   1       1.540  -1.873   0.671  0.00  0.00     0.051 A 
ATOM      5  C5  IND d   1       1.073  -2.661   1.685  0.00  0.00    -0.031 A 
ATOM      6  C6  IND d   1      -0.169  -2.459   2.252  0.00  0.00     0.015 A 
ATOM      7  C7  IND d   1      -0.998  -1.464   1.817  0.00  0.00    -0.016 A 
ATOM      8  C8  IND d   1      -0.524  -0.658   0.792  0.00  0.00    -0.047 A 
ATOM      9  C9  IND d   1       0.753  -0.831   0.242  0.00  0.00    -0.096 A 
ATOM     10  HN1 IND d   1      -1.882   0.740   0.322  0.00  0.00     0.298 HD
ENDROOT
TORSDOF 0
ENDMDL
