MODEL 1
REMARK minimizedAffinity -4.96808052
REMARK minimizedRMSD -1
REMARK  0 active torsions:
REMARK  status: ('A' for Active; 'I' for Inactive)
ROOT
ATOM      1  N1  IND d   1      -0.034  -2.671   1.815  0.00  0.00    -0.196 N 
ATOM      2  C2  IND d   1       1.218  -3.181   1.614  0.00  0.00     0.054 A 
ATOM      3  C3  IND d   1       1.920  -2.388   0.774  0.00  0.00    -0.031 A 
ATOM      4  C4  IND d   1       1.247  -0.151  -0.308  0.00  0.00     0.051 A 
ATOM      5  C5  IND d   1       0.188   0.702  -0.450  0.00  0.00    -0.031 A 
ATOM      6  C6  IND d   1      -1.022   0.470   0.170  0.00  0.00     0.015 A 
ATOM      7  C7  IND d   1      -1.217  -0.622   0.968  0.00  0.00    -0.016 A 
ATOM      8  C8  IND d   1      -0.146  -1.493   1.109  0.00  0.00    -0.047 A 
ATOM      9  C9  IND d   1       1.072  -1.286   0.448  0.00  0.00    -0.096 A 
ATOM     10  HN1 IND d   1      -0.649  -3.026   2.300  0.00  0.00     0.298 HD
ENDROOT
TORSDOF 0
ENDMDL
