MODEL 1
REMARK minimizedAffinity -4.29216051
REMARK minimizedRMSD -1
REMARK  0 active torsions:
REMARK  status: ('A' for Active; 'I' for Inactive)
ROOT
ATOM      1  N1  IND d   1      -1.139   0.321   0.356  0.00  0.00    -0.196 N 
ATOM      2  C2  IND d   1      -0.299   0.975  -0.501  0.00  0.00     0.054 A 
ATOM      3  C3  IND d   1       0.919   0.388  -0.505  0.00  0.00    -0.031 A 
ATOM      4  C4  IND d   1       1.725  -1.717   0.738  0.00  0.00     0.051 A 
ATOM      5  C5  IND d   1       1.327  -2.638   1.666  0.00  0.00    -0.031 A 
ATOM      6  C6  IND d   1       0.061  -2.621   2.214  0.00  0.00     0.015 A 
ATOM      7  C7  IND d   1      -0.863  -1.685   1.844  0.00  0.00    -0.016 A 
ATOM      8  C8  IND d   1      -0.461  -0.744   0.907  0.00  0.00    -0.047 A 
ATOM      9  C9  IND d   1       0.837  -0.730   0.379  0.00  0.00    -0.096 A 
ATOM     10  HN1 IND d   1      -1.954   0.538   0.523  0.00  0.00     0.298 HD
ENDROOT
TORSDOF 0
ENDMDL
