MODEL 1
REMARK minimizedAffinity -5.28135395
REMARK minimizedRMSD -1
REMARK  0 active torsions:
REMARK  status: ('A' for Active; 'I' for Inactive)
ROOT
ATOM      1  N1  IND d   1      -0.464   0.401   0.116  0.00  0.00    -0.196 N 
ATOM      2  C2  IND d   1       0.528   0.822  -0.725  0.00  0.00     0.054 A 
ATOM      3  C3  IND d   1       1.578  -0.028  -0.676  0.00  0.00    -0.031 A 
ATOM      4  C4  IND d   1       1.841  -2.228   0.635  0.00  0.00     0.051 A 
ATOM      5  C5  IND d   1       1.216  -3.008   1.567  0.00  0.00    -0.031 A 
ATOM      6  C6  IND d   1      -0.027  -2.686   2.071  0.00  0.00     0.015 A 
ATOM      7  C7  IND d   1      -0.700  -1.573   1.652  0.00  0.00    -0.016 A 
ATOM      8  C8  IND d   1      -0.065  -0.775   0.711  0.00  0.00    -0.047 A 
ATOM      9  C9  IND d   1       1.215  -1.074   0.227  0.00  0.00    -0.096 A 
ATOM     10  HN1 IND d   1      -1.212   0.804   0.251  0.00  0.00     0.298 HD
ENDROOT
TORSDOF 0
ENDMDL
