MODEL 1
REMARK minimizedAffinity -5.03730774
REMARK minimizedRMSD -1
REMARK  0 active torsions:
REMARK  status: ('A' for Active; 'I' for Inactive)
ROOT
ATOM      1  N1  IND d   1      -0.883   0.221   0.558  0.00  0.00    -0.196 N 
ATOM      2  C2  IND d   1      -0.022   0.896  -0.262  0.00  0.00     0.054 A 
ATOM      3  C3  IND d   1       1.188   0.294  -0.271  0.00  0.00    -0.031 A 
ATOM      4  C4  IND d   1       1.950  -1.867   0.903  0.00  0.00     0.051 A 
ATOM      5  C5  IND d   1       1.527  -2.817   1.789  0.00  0.00    -0.031 A 
ATOM      6  C6  IND d   1       0.253  -2.805   2.320  0.00  0.00     0.015 A 
ATOM      7  C7  IND d   1      -0.653  -1.844   1.972  0.00  0.00    -0.016 A 
ATOM      8  C8  IND d   1      -0.226  -0.873   1.077  0.00  0.00    -0.047 A 
ATOM      9  C9  IND d   1       1.080  -0.856   0.569  0.00  0.00    -0.096 A 
ATOM     10  HN1 IND d   1      -1.697   0.442   0.721  0.00  0.00     0.298 HD
ENDROOT
TORSDOF 0
ENDMDL
