MODEL 1
REMARK minimizedAffinity -3.94366813
REMARK minimizedRMSD -1
REMARK  0 active torsions:
REMARK  status: ('A' for Active; 'I' for Inactive)
ROOT
ATOM      1  N1  IND d   1      -0.751   0.365   0.287  0.00  0.00    -0.196 N 
ATOM      2  C2  IND d   1       0.163   0.806  -0.628  0.00  0.00     0.054 A 
ATOM      3  C3  IND d   1       1.254   0.007  -0.627  0.00  0.00    -0.031 A 
ATOM      4  C4  IND d   1       1.708  -2.138   0.722  0.00  0.00     0.051 A 
ATOM      5  C5  IND d   1       1.183  -2.918   1.714  0.00  0.00    -0.031 A 
ATOM      6  C6  IND d   1      -0.039  -2.640   2.291  0.00  0.00     0.015 A 
ATOM      7  C7  IND d   1      -0.791  -1.572   1.887  0.00  0.00    -0.016 A 
ATOM      8  C8  IND d   1      -0.257  -0.774   0.885  0.00  0.00    -0.047 A 
ATOM      9  C9  IND d   1       1.002  -1.027   0.326  0.00  0.00    -0.096 A 
ATOM     10  HN1 IND d   1      -1.507   0.736   0.461  0.00  0.00     0.298 HD
ENDROOT
TORSDOF 0
ENDMDL
