MODEL 1
REMARK minimizedAffinity -4.39241314
REMARK minimizedRMSD -1
REMARK  0 active torsions:
REMARK  status: ('A' for Active; 'I' for Inactive)
ROOT
ATOM      1  C1  BNZ d   1      -1.887  -0.521   0.823  0.00  0.00     0.000 A 
ATOM      2  C2  BNZ d   1      -0.869  -0.256  -0.054  0.00  0.00     0.000 A 
ATOM      3  C3  BNZ d   1       0.433  -0.271   0.361  0.00  0.00     0.000 A 
ATOM      4  C4  BNZ d   1       0.714  -0.511   1.658  0.00  0.00     0.000 A 
ATOM      5  C5  BNZ d   1      -0.302  -0.771   2.556  0.00  0.00     0.000 A 
ATOM      6  C6  BNZ d   1      -1.610  -0.794   2.127  0.00  0.00     0.000 A 
ENDROOT
TORSDOF 0
ENDMDL
