MODEL 1
REMARK minimizedAffinity -3.11176491
REMARK minimizedRMSD -1
REMARK  0 active torsions:
REMARK  status: ('A' for Active; 'I' for Inactive)
ROOT
ATOM      1  C1  BNZ d   1       1.000  -1.566  -1.550  0.00  0.00     0.000 A 
ATOM      2  C2  BNZ d   1       1.462  -2.292  -2.615  0.00  0.00     0.000 A 
ATOM      3  C3  BNZ d   1       1.404  -1.787  -3.884  0.00  0.00     0.000 A 
ATOM      4  C4  BNZ d   1       0.850  -0.576  -4.091  0.00  0.00     0.000 A 
ATOM      5  C5  BNZ d   1       0.371   0.165  -3.029  0.00  0.00     0.000 A 
ATOM      6  C6  BNZ d   1       0.465  -0.330  -1.748  0.00  0.00     0.000 A 
ENDROOT
TORSDOF 0
ENDMDL
