MODEL 1
REMARK minimizedAffinity -1.76142454
REMARK minimizedRMSD -1
REMARK  0 active torsions:
REMARK  status: ('A' for Active; 'I' for Inactive)
ROOT
ATOM      1  C1  BNZ d   1      -1.501   0.557   0.234  0.00  0.00     0.000 A 
ATOM      2  C2  BNZ d   1      -0.546   0.356   1.194  0.00  0.00     0.000 A 
ATOM      3  C3  BNZ d   1       0.729   0.003   0.851  0.00  0.00     0.000 A 
ATOM      4  C4  BNZ d   1       1.037  -0.188  -0.448  0.00  0.00     0.000 A 
ATOM      5  C5  BNZ d   1       0.083   0.001  -1.428  0.00  0.00     0.000 A 
ATOM      6  C6  BNZ d   1      -1.189   0.394  -1.081  0.00  0.00     0.000 A 
ENDROOT
TORSDOF 0
ENDMDL
