MODEL 1
REMARK minimizedAffinity -4.02562571
REMARK minimizedRMSD -1
REMARK  0 active torsions:
REMARK  status: ('A' for Active; 'I' for Inactive)
ROOT
ATOM      1  C1  BNZ d   1      -2.952  -0.335   3.471  0.00  0.00     0.000 A 
ATOM      2  C2  BNZ d   1      -1.835  -1.058   3.796  0.00  0.00     0.000 A 
ATOM      3  C3  BNZ d   1      -0.752  -1.085   2.962  0.00  0.00     0.000 A 
ATOM      4  C4  BNZ d   1      -0.802  -0.423   1.788  0.00  0.00     0.000 A 
ATOM      5  C5  BNZ d   1      -1.925   0.303   1.442  0.00  0.00     0.000 A 
ATOM      6  C6  BNZ d   1      -2.998   0.359   2.301  0.00  0.00     0.000 A 
ENDROOT
TORSDOF 0
ENDMDL
