MODEL 1
REMARK minimizedAffinity -3.02808666
REMARK minimizedRMSD -1
REMARK  0 active torsions:
REMARK  status: ('A' for Active; 'I' for Inactive)
ROOT
ATOM      1  C1  BNZ d   1       1.467   0.251  -2.374  0.00  0.00     0.000 A 
ATOM      2  C2  BNZ d   1       1.865  -0.438  -3.489  0.00  0.00     0.000 A 
ATOM      3  C3  BNZ d   1       1.138  -1.499  -3.952  0.00  0.00     0.000 A 
ATOM      4  C4  BNZ d   1       0.039  -1.895  -3.278  0.00  0.00     0.000 A 
ATOM      5  C5  BNZ d   1      -0.370  -1.217  -2.147  0.00  0.00     0.000 A 
ATOM      6  C6  BNZ d   1       0.343  -0.125  -1.706  0.00  0.00     0.000 A 
ENDROOT
TORSDOF 0
ENDMDL
