MODEL 1
REMARK minimizedAffinity -4.64312267
REMARK minimizedRMSD -1
REMARK  0 active torsions:
REMARK  status: ('A' for Active; 'I' for Inactive)
ROOT
ATOM      1  C1  BNZ d   1      -2.902   0.499   2.001  0.00  0.00     0.000 A 
ATOM      2  C2  BNZ d   1      -2.320   0.341   0.771  0.00  0.00     0.000 A 
ATOM      3  C3  BNZ d   1      -0.990   0.043   0.659  0.00  0.00     0.000 A 
ATOM      4  C4  BNZ d   1      -0.237  -0.057   1.774  0.00  0.00     0.000 A 
ATOM      5  C5  BNZ d   1      -0.808   0.108   3.020  0.00  0.00     0.000 A 
ATOM      6  C6  BNZ d   1      -2.154   0.370   3.130  0.00  0.00     0.000 A 
ENDROOT
TORSDOF 0
ENDMDL
