MODEL 1
REMARK minimizedAffinity 0.581696391
REMARK minimizedRMSD -1
REMARK  0 active torsions:
REMARK  status: ('A' for Active; 'I' for Inactive)
ROOT
ATOM      1  C1  BNZ d   1       0.054   0.439  -1.100  0.00  0.00     0.000 A 
ATOM      2  C2  BNZ d   1       1.235   0.481  -0.407  0.00  0.00     0.000 A 
ATOM      3  C3  BNZ d   1       1.243   0.568   0.957  0.00  0.00     0.000 A 
ATOM      4  C4  BNZ d   1       0.074   0.654   1.623  0.00  0.00     0.000 A 
ATOM      5  C5  BNZ d   1      -1.125   0.622   0.938  0.00  0.00     0.000 A 
ATOM      6  C6  BNZ d   1      -1.130   0.494  -0.432  0.00  0.00     0.000 A 
ENDROOT
TORSDOF 0
ENDMDL
