MODEL 1
REMARK minimizedAffinity -5.1981802
REMARK minimizedRMSD -1
REMARK  0 active torsions:
REMARK  status: ('A' for Active; 'I' for Inactive)
ROOT
ATOM      1  C1  BNZ d   1       0.125   0.054   2.427  0.00  0.00     0.000 A 
ATOM      2  C2  BNZ d   1       0.536   0.100   1.121  0.00  0.00     0.000 A 
ATOM      3  C3  BNZ d   1      -0.366  -0.007   0.099  0.00  0.00     0.000 A 
ATOM      4  C4  BNZ d   1      -1.670  -0.200   0.383  0.00  0.00     0.000 A 
ATOM      5  C5  BNZ d   1      -2.099  -0.257   1.694  0.00  0.00     0.000 A 
ATOM      6  C6  BNZ d   1      -1.194  -0.110   2.720  0.00  0.00     0.000 A 
ENDROOT
TORSDOF 0
ENDMDL
