MODEL 1
REMARK minimizedAffinity -0.624059737
REMARK minimizedRMSD -1
REMARK  0 active torsions:
REMARK  status: ('A' for Active; 'I' for Inactive)
ROOT
ATOM      1  C1  BNZ d   1       1.902  -2.187  -3.151  0.00  0.00     0.000 A 
ATOM      2  C2  BNZ d   1       2.070  -0.969  -2.547  0.00  0.00     0.000 A 
ATOM      3  C3  BNZ d   1       1.050  -0.060  -2.511  0.00  0.00     0.000 A 
ATOM      4  C4  BNZ d   1      -0.122  -0.353  -3.111  0.00  0.00     0.000 A 
ATOM      5  C5  BNZ d   1      -0.303  -1.572  -3.732  0.00  0.00     0.000 A 
ATOM      6  C6  BNZ d   1       0.712  -2.501  -3.733  0.00  0.00     0.000 A 
ENDROOT
TORSDOF 0
ENDMDL
