MODEL 1
REMARK minimizedAffinity -2.95064521
REMARK minimizedRMSD -1
REMARK  0 active torsions:
REMARK  status: ('A' for Active; 'I' for Inactive)
ROOT
ATOM      1  C1  BNZ d   1      -0.991  -1.141  -1.432  0.00  0.00     0.000 A 
ATOM      2  C2  BNZ d   1      -0.682  -1.962  -2.483  0.00  0.00     0.000 A 
ATOM      3  C3  BNZ d   1       0.464  -1.772  -3.205  0.00  0.00     0.000 A 
ATOM      4  C4  BNZ d   1       1.277  -0.740  -2.900  0.00  0.00     0.000 A 
ATOM      5  C5  BNZ d   1       0.973   0.102  -1.849  0.00  0.00     0.000 A 
ATOM      6  C6  BNZ d   1      -0.161  -0.115  -1.100  0.00  0.00     0.000 A 
ENDROOT
TORSDOF 0
ENDMDL
