MODEL 1
REMARK minimizedAffinity -0.768446505
REMARK minimizedRMSD -1
REMARK  0 active torsions:
REMARK  status: ('A' for Active; 'I' for Inactive)
ROOT
ATOM      1  C1  BNZ d   1      -1.440   0.126  -0.382  0.00  0.00     0.000 A 
ATOM      2  C2  BNZ d   1      -0.667   0.172   0.747  0.00  0.00     0.000 A 
ATOM      3  C3  BNZ d   1       0.689   0.321   0.662  0.00  0.00     0.000 A 
ATOM      4  C4  BNZ d   1       1.274   0.384  -0.552  0.00  0.00     0.000 A 
ATOM      5  C5  BNZ d   1       0.509   0.330  -1.700  0.00  0.00     0.000 A 
ATOM      6  C6  BNZ d   1      -0.860   0.219  -1.610  0.00  0.00     0.000 A 
ENDROOT
TORSDOF 0
ENDMDL
