MODEL 1
REMARK minimizedAffinity -2.23195744
REMARK minimizedRMSD -1
REMARK  0 active torsions:
REMARK  status: ('A' for Active; 'I' for Inactive)
ROOT
ATOM      1  C1  BNZ d   1       1.595   0.533   1.496  0.00  0.00     0.000 A 
ATOM      2  C2  BNZ d   1       1.738   0.839   0.169  0.00  0.00     0.000 A 
ATOM      3  C3  BNZ d   1       0.696   0.683  -0.702  0.00  0.00     0.000 A 
ATOM      4  C4  BNZ d   1      -0.474   0.183  -0.253  0.00  0.00     0.000 A 
ATOM      5  C5  BNZ d   1      -0.630  -0.138   1.080  0.00  0.00     0.000 A 
ATOM      6  C6  BNZ d   1       0.408   0.057   1.961  0.00  0.00     0.000 A 
ENDROOT
TORSDOF 0
ENDMDL
