MODEL 1
REMARK minimizedAffinity -3.67924047
REMARK minimizedRMSD -1
REMARK  0 active torsions:
REMARK  status: ('A' for Active; 'I' for Inactive)
ROOT
ATOM      1  C1  BNZ d   1      -1.149   0.727   0.074  0.00  0.00     0.000 A 
ATOM      2  C2  BNZ d   1      -1.504   0.791   1.395  0.00  0.00     0.000 A 
ATOM      3  C3  BNZ d   1      -0.632   0.403   2.374  0.00  0.00     0.000 A 
ATOM      4  C4  BNZ d   1       0.577  -0.085   2.029  0.00  0.00     0.000 A 
ATOM      5  C5  BNZ d   1       0.946  -0.164   0.701  0.00  0.00     0.000 A 
ATOM      6  C6  BNZ d   1       0.081   0.264  -0.279  0.00  0.00     0.000 A 
ENDROOT
TORSDOF 0
ENDMDL
