MODEL 1
REMARK minimizedAffinity -4.32631397
REMARK minimizedRMSD -1
REMARK  0 active torsions:
REMARK  status: ('A' for Active; 'I' for Inactive)
ROOT
ATOM      1  C1  BNZ d   1      -0.309   0.649  -0.249  0.00  0.00     0.000 A 
ATOM      2  C2  BNZ d   1       1.035   0.397  -0.171  0.00  0.00     0.000 A 
ATOM      3  C3  BNZ d   1       1.631   0.146   1.033  0.00  0.00     0.000 A 
ATOM      4  C4  BNZ d   1       0.891   0.186   2.160  0.00  0.00     0.000 A 
ATOM      5  C5  BNZ d   1      -0.463   0.448   2.099  0.00  0.00     0.000 A 
ATOM      6  C6  BNZ d   1      -1.067   0.662   0.881  0.00  0.00     0.000 A 
ENDROOT
TORSDOF 0
ENDMDL
