MODEL 1
REMARK minimizedAffinity -5.62974882
REMARK minimizedRMSD -1
REMARK  3 active torsions:
REMARK  status: ('A' for Active; 'I' for Inactive)
REMARK    1  A    between atoms: C3'_2  and  C2'_3 
REMARK    2  A    between atoms: C2'_3  and  C1'_4 
REMARK    3  A    between atoms: C1'_4  and  C1_5 
ROOT
ATOM      1  C1  N4B d   1      -0.925  -0.290   0.443  0.00  0.00    -0.075 A 
ATOM      2  C2  N4B d   1      -0.098  -1.386   0.774  0.00  0.00     0.002 A 
ATOM      3  C3  N4B d   1       1.260  -1.213   0.886  0.00  0.00     0.002 A 
ATOM      4  C4  N4B d   1       1.813   0.037   0.654  0.00  0.00    -0.004 A 
ATOM      5  C5  N4B d   1       1.005   1.096   0.360  0.00  0.00     0.002 A 
ATOM      6  C6  N4B d   1      -0.362   0.938   0.248  0.00  0.00     0.002 A 
ENDROOT
BRANCH   1   7
ATOM      7  C1' N4B d   1      -2.405  -0.449   0.225  0.00  0.00     0.057 C 
BRANCH   7   8
ATOM      8  C2' N4B d   1      -2.817   0.346  -1.010  0.00  0.00     0.009 C 
BRANCH   8   9
ATOM      9  C3' N4B d   1      -2.705  -0.480  -2.281  0.00  0.00     0.004 C 
ATOM     10  C4' N4B d   1      -2.525   0.364  -3.507  0.00  0.00     0.003 C 
ENDBRANCH   8   9
ENDBRANCH   7   8
ENDBRANCH   1   7
TORSDOF 3
ENDMDL
