MODEL 1
REMARK minimizedAffinity -3.31856394
REMARK minimizedRMSD -1
REMARK  3 active torsions:
REMARK  status: ('A' for Active; 'I' for Inactive)
REMARK    1  A    between atoms: C3'_2  and  C2'_3 
REMARK    2  A    between atoms: C2'_3  and  C1'_4 
REMARK    3  A    between atoms: C1'_4  and  C1_5 
ROOT
ATOM      1  C1  N4B d   1      -2.297   0.159  -1.111  0.00  0.00    -0.075 A 
ATOM      2  C2  N4B d   1      -2.773   1.406  -1.573  0.00  0.00     0.002 A 
ATOM      3  C3  N4B d   1      -3.308   1.512  -2.834  0.00  0.00     0.002 A 
ATOM      4  C4  N4B d   1      -3.359   0.395  -3.654  0.00  0.00    -0.004 A 
ATOM      5  C5  N4B d   1      -2.921  -0.811  -3.191  0.00  0.00     0.002 A 
ATOM      6  C6  N4B d   1      -2.385  -0.934  -1.925  0.00  0.00     0.002 A 
ENDROOT
BRANCH   1   7
ATOM      7  C1' N4B d   1      -1.626   0.011   0.227  0.00  0.00     0.057 C 
BRANCH   7   8
ATOM      8  C2' N4B d   1      -0.121  -0.122   0.020  0.00  0.00     0.009 C 
BRANCH   8   9
ATOM      9  C3' N4B d   1       0.601   1.197   0.235  0.00  0.00     0.004 C 
ATOM     10  C4' N4B d   1       1.952   1.024   0.863  0.00  0.00     0.003 C 
ENDBRANCH   8   9
ENDBRANCH   7   8
ENDBRANCH   1   7
TORSDOF 3
ENDMDL
