MODEL 1
REMARK minimizedAffinity -5.53745461
REMARK minimizedRMSD -1
REMARK  3 active torsions:
REMARK  status: ('A' for Active; 'I' for Inactive)
REMARK    1  A    between atoms: C3'_2  and  C2'_3 
REMARK    2  A    between atoms: C2'_3  and  C1'_4 
REMARK    3  A    between atoms: C1'_4  and  C1_5 
ROOT
ATOM      1  C1  N4B d   1       1.178   0.496   0.580  0.00  0.00    -0.075 A 
ATOM      2  C2  N4B d   1       0.146  -0.466   0.647  0.00  0.00     0.002 A 
ATOM      3  C3  N4B d   1       0.227  -1.497   1.551  0.00  0.00     0.002 A 
ATOM      4  C4  N4B d   1       1.335  -1.597   2.380  0.00  0.00    -0.004 A 
ATOM      5  C5  N4B d   1       2.315  -0.650   2.326  0.00  0.00     0.002 A 
ATOM      6  C6  N4B d   1       2.244   0.394   1.426  0.00  0.00     0.002 A 
ENDROOT
BRANCH   1   7
ATOM      7  C1' N4B d   1       1.175   1.592  -0.450  0.00  0.00     0.057 C 
BRANCH   7   8
ATOM      8  C2' N4B d   1       0.984   2.935   0.248  0.00  0.00     0.009 C 
BRANCH   8   9
ATOM      9  C3' N4B d   1      -0.355   3.019   0.961  0.00  0.00     0.004 C 
ATOM     10  C4' N4B d   1      -0.687   4.410   1.413  0.00  0.00     0.003 C 
ENDBRANCH   8   9
ENDBRANCH   7   8
ENDBRANCH   1   7
TORSDOF 3
ENDMDL
