MODEL 1
REMARK minimizedAffinity -6.87531424
REMARK minimizedRMSD -1
REMARK  3 active torsions:
REMARK  status: ('A' for Active; 'I' for Inactive)
REMARK    1  A    between atoms: C3'_2  and  C2'_3 
REMARK    2  A    between atoms: C2'_3  and  C1'_4 
REMARK    3  A    between atoms: C1'_4  and  C1_5 
ROOT
ATOM      1  C1  N4B d   1       0.149   0.157   0.136  0.00  0.00    -0.075 A 
ATOM      2  C2  N4B d   1       0.995   1.283   0.034  0.00  0.00     0.002 A 
ATOM      3  C3  N4B d   1       2.323   1.177   0.368  0.00  0.00     0.002 A 
ATOM      4  C4  N4B d   1       2.821  -0.035   0.822  0.00  0.00    -0.004 A 
ATOM      5  C5  N4B d   1       2.004  -1.124   0.893  0.00  0.00     0.002 A 
ATOM      6  C6  N4B d   1       0.668  -1.033   0.558  0.00  0.00     0.002 A 
ENDROOT
BRANCH   1   7
ATOM      7  C1' N4B d   1      -1.328   0.245  -0.135  0.00  0.00     0.057 C 
BRANCH   7   8
ATOM      8  C2' N4B d   1      -1.629  -0.404  -1.483  0.00  0.00     0.009 C 
BRANCH   8   9
ATOM      9  C3' N4B d   1      -2.947   0.078  -2.063  0.00  0.00     0.004 C 
ATOM     10  C4' N4B d   1      -2.905   0.225  -3.555  0.00  0.00     0.003 C 
ENDBRANCH   8   9
ENDBRANCH   7   8
ENDBRANCH   1   7
TORSDOF 3
ENDMDL
