MODEL 1
REMARK minimizedAffinity -4.56961823
REMARK minimizedRMSD -1
REMARK  3 active torsions:
REMARK  status: ('A' for Active; 'I' for Inactive)
REMARK    1  A    between atoms: C3'_2  and  C2'_3 
REMARK    2  A    between atoms: C2'_3  and  C1'_4 
REMARK    3  A    between atoms: C1'_4  and  C1_5 
ROOT
ATOM      1  C1  N4B d   1       0.044  -0.339   0.355  0.00  0.00    -0.075 A 
ATOM      2  C2  N4B d   1       0.504  -1.674   0.338  0.00  0.00     0.002 A 
ATOM      3  C3  N4B d   1       1.838  -1.944   0.518  0.00  0.00     0.002 A 
ATOM      4  C4  N4B d   1       2.731  -0.897   0.697  0.00  0.00    -0.004 A 
ATOM      5  C5  N4B d   1       2.276   0.388   0.737  0.00  0.00     0.002 A 
ATOM      6  C6  N4B d   1       0.937   0.673   0.562  0.00  0.00     0.002 A 
ENDROOT
BRANCH   1   7
ATOM      7  C1' N4B d   1      -1.392   0.011   0.077  0.00  0.00     0.057 C 
BRANCH   7   8
ATOM      8  C2' N4B d   1      -1.477   0.764  -1.247  0.00  0.00     0.009 C 
BRANCH   8   9
ATOM      9  C3' N4B d   1      -2.798   0.519  -1.956  0.00  0.00     0.004 C 
ATOM     10  C4' N4B d   1      -2.621   0.024  -3.360  0.00  0.00     0.003 C 
ENDBRANCH   8   9
ENDBRANCH   7   8
ENDBRANCH   1   7
TORSDOF 3
ENDMDL
