MODEL 1
REMARK minimizedAffinity -5.94786787
REMARK minimizedRMSD -1
REMARK  3 active torsions:
REMARK  status: ('A' for Active; 'I' for Inactive)
REMARK    1  A    between atoms: C3'_2  and  C2'_3 
REMARK    2  A    between atoms: C2'_3  and  C1'_4 
REMARK    3  A    between atoms: C1'_4  and  C1_5 
ROOT
ATOM      1  C1  N4B d   1       0.147   0.125   0.114  0.00  0.00    -0.075 A 
ATOM      2  C2  N4B d   1       0.597  -1.178   0.419  0.00  0.00     0.002 A 
ATOM      3  C3  N4B d   1       1.906  -1.386   0.778  0.00  0.00     0.002 A 
ATOM      4  C4  N4B d   1       2.784  -0.314   0.822  0.00  0.00    -0.004 A 
ATOM      5  C5  N4B d   1       2.336   0.946   0.550  0.00  0.00     0.002 A 
ATOM      6  C6  N4B d   1       1.022   1.170   0.191  0.00  0.00     0.002 A 
ENDROOT
BRANCH   1   7
ATOM      7  C1' N4B d   1      -1.253   0.390  -0.367  0.00  0.00     0.057 C 
BRANCH   7   8
ATOM      8  C2' N4B d   1      -1.525  -0.457  -1.607  0.00  0.00     0.009 C 
BRANCH   8   9
ATOM      9  C3' N4B d   1      -2.638   0.126  -2.461  0.00  0.00     0.004 C 
ATOM     10  C4' N4B d   1      -2.341   0.059  -3.929  0.00  0.00     0.003 C 
ENDBRANCH   8   9
ENDBRANCH   7   8
ENDBRANCH   1   7
TORSDOF 3
ENDMDL
