MODEL 1
REMARK minimizedAffinity 1.57936299
REMARK minimizedRMSD -1
REMARK  0 active torsions:
REMARK  status: ('A' for Active; 'I' for Inactive)
ROOT
ATOM      1  C4' PXY d   1      -4.631  -0.047   1.123  0.00  0.00     0.077 C 
ATOM      2  C1' PXY d   1       0.721   1.625  -0.283  0.00  0.00     0.077 C 
ATOM      3  C1  PXY d   1      -0.680   1.188   0.098  0.00  0.00    -0.082 A 
ATOM      4  C2  PXY d   1      -1.375   0.424  -0.729  0.00  0.00     0.003 A 
ATOM      5  C3  PXY d   1      -2.655   0.046  -0.414  0.00  0.00     0.003 A 
ATOM      6  C4  PXY d   1      -3.210   0.410   0.783  0.00  0.00    -0.082 A 
ATOM      7  C5  PXY d   1      -2.503   1.181   1.637  0.00  0.00     0.003 A 
ATOM      8  C6  PXY d   1      -1.221   1.588   1.281  0.00  0.00     0.003 A 
ENDROOT
TORSDOF 0
ENDMDL
