MODEL 1
REMARK minimizedAffinity -0.11102809
REMARK minimizedRMSD -1
REMARK  0 active torsions:
REMARK  status: ('A' for Active; 'I' for Inactive)
ROOT
ATOM      1  C4' PXY d   1       5.996   5.411   5.268  0.00  0.00     0.077 C 
ATOM      2  C1' PXY d   1       1.609   2.107   3.465  0.00  0.00     0.077 C 
ATOM      3  C1  PXY d   1       2.768   2.965   3.933  0.00  0.00    -0.082 A 
ATOM      4  C2  PXY d   1       2.611   3.764   4.976  0.00  0.00     0.003 A 
ATOM      5  C3  PXY d   1       3.639   4.571   5.392  0.00  0.00     0.003 A 
ATOM      6  C4  PXY d   1       4.857   4.520   4.767  0.00  0.00    -0.082 A 
ATOM      7  C5  PXY d   1       5.027   3.699   3.709  0.00  0.00     0.003 A 
ATOM      8  C6  PXY d   1       3.959   2.919   3.277  0.00  0.00     0.003 A 
ENDROOT
TORSDOF 0
ENDMDL
