MODEL 1
REMARK minimizedAffinity 4.89882326
REMARK minimizedRMSD -1
REMARK  0 active torsions:
REMARK  status: ('A' for Active; 'I' for Inactive)
ROOT
ATOM      1  C4' PXY d   1       2.150   0.324  -0.587  0.00  0.00     0.077 C 
ATOM      2  C1' PXY d   1      -1.429   3.606   2.549  0.00  0.00     0.077 C 
ATOM      3  C1  PXY d   1      -0.489   2.755   1.718  0.00  0.00    -0.082 A 
ATOM      4  C2  PXY d   1      -0.578   1.436   1.774  0.00  0.00     0.003 A 
ATOM      5  C3  PXY d   1       0.285   0.651   1.054  0.00  0.00     0.003 A 
ATOM      6  C4  PXY d   1       1.215   1.222   0.227  0.00  0.00    -0.082 A 
ATOM      7  C5  PXY d   1       1.306   2.567   0.157  0.00  0.00     0.003 A 
ATOM      8  C6  PXY d   1       0.447   3.346   0.927  0.00  0.00     0.003 A 
ENDROOT
TORSDOF 0
ENDMDL
