MODEL 1
REMARK minimizedAffinity 5.62563276
REMARK minimizedRMSD -1
REMARK  0 active torsions:
REMARK  status: ('A' for Active; 'I' for Inactive)
ROOT
ATOM      1  C4' PXY d   1       2.646  -1.927  -0.120  0.00  0.00     0.077 C 
ATOM      2  C1' PXY d   1       0.225   3.315   0.153  0.00  0.00     0.077 C 
ATOM      3  C1  PXY d   1       0.848   1.935   0.079  0.00  0.00    -0.082 A 
ATOM      4  C2  PXY d   1       2.010   1.710   0.670  0.00  0.00     0.003 A 
ATOM      5  C3  PXY d   1       2.603   0.476   0.587  0.00  0.00     0.003 A 
ATOM      6  C4  PXY d   1       1.975  -0.552  -0.064  0.00  0.00    -0.082 A 
ATOM      7  C5  PXY d   1       0.784  -0.333  -0.660  0.00  0.00     0.003 A 
ATOM      8  C6  PXY d   1       0.219   0.937  -0.599  0.00  0.00     0.003 A 
ENDROOT
TORSDOF 0
ENDMDL
