MODEL 1
REMARK minimizedAffinity 6.30883598
REMARK minimizedRMSD -1
REMARK  0 active torsions:
REMARK  status: ('A' for Active; 'I' for Inactive)
ROOT
ATOM      1  C4' PXY d   1       2.527  -3.346  -0.765  0.00  0.00     0.077 C 
ATOM      2  C1' PXY d   1       2.500   1.970   1.506  0.00  0.00     0.077 C 
ATOM      3  C1  PXY d   1       2.518   0.573   0.917  0.00  0.00    -0.082 A 
ATOM      4  C2  PXY d   1       1.916   0.342  -0.238  0.00  0.00     0.003 A 
ATOM      5  C3  PXY d   1       1.895  -0.922  -0.769  0.00  0.00     0.003 A 
ATOM      6  C4  PXY d   1       2.542  -1.949  -0.137  0.00  0.00    -0.082 A 
ATOM      7  C5  PXY d   1       3.168  -1.720   1.037  0.00  0.00     0.003 A 
ATOM      8  C6  PXY d   1       3.143  -0.439   1.579  0.00  0.00     0.003 A 
ENDROOT
TORSDOF 0
ENDMDL
