MODEL 1
REMARK minimizedAffinity 2.03290844
REMARK minimizedRMSD -1
REMARK  0 active torsions:
REMARK  status: ('A' for Active; 'I' for Inactive)
ROOT
ATOM      1  C4' PXY d   1       5.993   4.469  -1.085  0.00  0.00     0.077 C 
ATOM      2  C1' PXY d   1       3.359  -0.675  -0.934  0.00  0.00     0.077 C 
ATOM      3  C1  PXY d   1       4.062   0.668  -0.972  0.00  0.00    -0.082 A 
ATOM      4  C2  PXY d   1       3.412   1.757  -0.595  0.00  0.00     0.003 A 
ATOM      5  C3  PXY d   1       4.021   2.984  -0.654  0.00  0.00     0.003 A 
ATOM      6  C4  PXY d   1       5.327   3.090  -1.053  0.00  0.00    -0.082 A 
ATOM      7  C5  PXY d   1       6.000   1.983  -1.430  0.00  0.00     0.003 A 
ATOM      8  C6  PXY d   1       5.350   0.752  -1.402  0.00  0.00     0.003 A 
ENDROOT
TORSDOF 0
ENDMDL
