MODEL 1
REMARK minimizedAffinity -0.218342111
REMARK minimizedRMSD -1
REMARK  0 active torsions:
REMARK  status: ('A' for Active; 'I' for Inactive)
ROOT
ATOM      1  C4' PXY d   1      -2.277   3.001   2.085  0.00  0.00     0.077 C 
ATOM      2  C1' PXY d   1       3.164   4.844   2.721  0.00  0.00     0.077 C 
ATOM      3  C1  PXY d   1       1.742   4.349   2.550  0.00  0.00    -0.082 A 
ATOM      4  C2  PXY d   1       0.764   5.220   2.361  0.00  0.00     0.003 A 
ATOM      5  C3  PXY d   1      -0.532   4.792   2.236  0.00  0.00     0.003 A 
ATOM      6  C4  PXY d   1      -0.825   3.454   2.253  0.00  0.00    -0.082 A 
ATOM      7  C5  PXY d   1       0.168   2.559   2.435  0.00  0.00     0.003 A 
ATOM      8  C6  PXY d   1       1.473   3.016   2.600  0.00  0.00     0.003 A 
ENDROOT
TORSDOF 0
ENDMDL
