MODEL 1
REMARK minimizedAffinity -2.93278098
REMARK minimizedRMSD -1
REMARK  0 active torsions:
REMARK  status: ('A' for Active; 'I' for Inactive)
ROOT
ATOM      1  C4' PXY d   1       2.579  -2.946  -3.114  0.00  0.00     0.077 C 
ATOM      2  C1' PXY d   1       4.157   1.748  -0.133  0.00  0.00     0.077 C 
ATOM      3  C1  PXY d   1       3.739   0.512  -0.903  0.00  0.00    -0.082 A 
ATOM      4  C2  PXY d   1       4.286   0.259  -2.081  0.00  0.00     0.003 A 
ATOM      5  C3  PXY d   1       3.897  -0.837  -2.806  0.00  0.00     0.003 A 
ATOM      6  C4  PXY d   1       2.977  -1.714  -2.297  0.00  0.00    -0.082 A 
ATOM      7  C5  PXY d   1       2.422  -1.469  -1.091  0.00  0.00     0.003 A 
ATOM      8  C6  PXY d   1       2.801  -0.329  -0.389  0.00  0.00     0.003 A 
ENDROOT
TORSDOF 0
ENDMDL
