MODEL 1
REMARK minimizedAffinity 10.502965
REMARK minimizedRMSD -1
REMARK  0 active torsions:
REMARK  status: ('A' for Active; 'I' for Inactive)
ROOT
ATOM      1  C4' PXY d   1      -2.281   2.543   2.658  0.00  0.00     0.077 C 
ATOM      2  C1' PXY d   1      -5.751  -0.278  -1.005  0.00  0.00     0.077 C 
ATOM      3  C1  PXY d   1      -4.848   0.473  -0.047  0.00  0.00    -0.082 A 
ATOM      4  C2  PXY d   1      -3.640   0.001   0.219  0.00  0.00     0.003 A 
ATOM      5  C3  PXY d   1      -2.822   0.651   1.107  0.00  0.00     0.003 A 
ATOM      6  C4  PXY d   1      -3.224   1.823   1.690  0.00  0.00    -0.082 A 
ATOM      7  C5  PXY d   1      -4.450   2.316   1.416  0.00  0.00     0.003 A 
ATOM      8  C6  PXY d   1      -5.281   1.620   0.543  0.00  0.00     0.003 A 
ENDROOT
TORSDOF 0
ENDMDL
