MODEL 1
REMARK minimizedAffinity -4.27422523
REMARK minimizedRMSD -1
REMARK  0 active torsions:
REMARK  status: ('A' for Active; 'I' for Inactive)
ROOT
ATOM      1  C   UNL d   1       1.119  -1.907   2.321  0.00  0.00     0.023 A 
ATOM      2  C1  UNL d   1       2.222  -1.059   2.424  0.00  0.00     0.003 A 
ATOM      3  C2  UNL d   1       2.250   0.142   1.713  0.00  0.00     0.048 A 
ATOM      4  C3  UNL d   1       1.171   0.491   0.902  0.00  0.00     0.023 A 
ATOM      5  C4  UNL d   1       0.065  -0.353   0.796  0.00  0.00     0.048 A 
ATOM      6  C5  UNL d   1       0.041  -1.554   1.508  0.00  0.00     0.003 A 
ATOM      7  I   UNL d   1       1.211   2.279  -0.157  0.00  0.00    -0.146 I 
ENDROOT
TORSDOF 0
ENDMDL
