MODEL 1
REMARK minimizedAffinity -2.52766871
REMARK minimizedRMSD -1
REMARK  0 active torsions:
REMARK  status: ('A' for Active; 'I' for Inactive)
ROOT
ATOM      1  C   UNL d   1      -1.672  -0.474   0.332  0.00  0.00     0.023 A 
ATOM      2  C1  UNL d   1      -1.039  -1.586   0.889  0.00  0.00     0.003 A 
ATOM      3  C2  UNL d   1       0.350  -1.604   1.027  0.00  0.00     0.048 A 
ATOM      4  C3  UNL d   1       1.101  -0.507   0.607  0.00  0.00     0.023 A 
ATOM      5  C4  UNL d   1       0.472   0.608   0.050  0.00  0.00     0.048 A 
ATOM      6  C5  UNL d   1      -0.917   0.621  -0.087  0.00  0.00     0.003 A 
ATOM      7  I   UNL d   1       3.169  -0.531   0.812  0.00  0.00    -0.146 I 
ENDROOT
TORSDOF 0
ENDMDL
