MODEL 1
REMARK minimizedAffinity -4.25879955
REMARK minimizedRMSD -1
REMARK  0 active torsions:
REMARK  status: ('A' for Active; 'I' for Inactive)
ROOT
ATOM      1  C   UNL d   1      -1.675   0.967   0.089  0.00  0.00     0.023 A 
ATOM      2  C1  UNL d   1      -0.715   1.978   0.140  0.00  0.00     0.003 A 
ATOM      3  C2  UNL d   1       0.637   1.654   0.272  0.00  0.00     0.048 A 
ATOM      4  C3  UNL d   1       1.022   0.316   0.351  0.00  0.00     0.023 A 
ATOM      5  C4  UNL d   1       0.065  -0.699   0.300  0.00  0.00     0.048 A 
ATOM      6  C5  UNL d   1      -1.285  -0.370   0.169  0.00  0.00     0.003 A 
ATOM      7  I   UNL d   1       3.033  -0.170   0.548  0.00  0.00    -0.146 I 
ENDROOT
TORSDOF 0
ENDMDL
