MODEL 1
REMARK minimizedAffinity -4.35134029
REMARK minimizedRMSD -1
REMARK  0 active torsions:
REMARK  status: ('A' for Active; 'I' for Inactive)
ROOT
ATOM      1  C   UNL d   1      -3.498  -0.592  -3.933  0.00  0.00     0.023 A 
ATOM      2  C1  UNL d   1      -2.554  -1.531  -3.517  0.00  0.00     0.003 A 
ATOM      3  C2  UNL d   1      -1.782  -1.290  -2.379  0.00  0.00     0.048 A 
ATOM      4  C3  UNL d   1      -1.959  -0.108  -1.661  0.00  0.00     0.023 A 
ATOM      5  C4  UNL d   1      -2.903   0.834  -2.072  0.00  0.00     0.048 A 
ATOM      6  C5  UNL d   1      -3.672   0.589  -3.211  0.00  0.00     0.003 A 
ATOM      7  I   UNL d   1      -0.811   0.252   0.034  0.00  0.00    -0.146 I 
ENDROOT
TORSDOF 0
ENDMDL
