MODEL 1
REMARK minimizedAffinity -4.90861797
REMARK minimizedRMSD -1
REMARK  0 active torsions:
REMARK  status: ('A' for Active; 'I' for Inactive)
ROOT
ATOM      1  O1  BZF d   1      -2.468   0.547   0.778  0.00  0.00    -0.204 OA
ATOM      2  C2  BZF d   1      -3.221   0.841   1.898  0.00  0.00     0.174 A 
ATOM      3  C3  BZF d   1      -2.610   0.398   3.016  0.00  0.00    -0.012 A 
ATOM      4  C3A BZF d   1      -1.355  -0.129   2.575  0.00  0.00    -0.107 A 
ATOM      5  C4  BZF d   1      -0.297  -0.700   3.223  0.00  0.00     0.055 A 
ATOM      6  C5  BZF d   1       0.746  -1.175   2.492  0.00  0.00    -0.016 A 
ATOM      7  C6  BZF d   1       0.761  -1.102   1.115  0.00  0.00     0.022 A 
ATOM      8  C7  BZF d   1      -0.264  -0.540   0.428  0.00  0.00     0.029 A 
ATOM      9  C7A BZF d   1      -1.304  -0.029   1.165  0.00  0.00     0.058 A 
ENDROOT
TORSDOF 0
ENDMDL
