MODEL 1
REMARK minimizedAffinity -3.00435114
REMARK minimizedRMSD -1
REMARK  0 active torsions:
REMARK  status: ('A' for Active; 'I' for Inactive)
ROOT
ATOM      1  O1  BZF d   1      -2.157   0.285   0.371  0.00  0.00    -0.204 OA
ATOM      2  C2  BZF d   1      -3.178   0.413   1.292  0.00  0.00     0.174 A 
ATOM      3  C3  BZF d   1      -2.696   0.367   2.551  0.00  0.00    -0.012 A 
ATOM      4  C3A BZF d   1      -1.274   0.293   2.407  0.00  0.00    -0.107 A 
ATOM      5  C4  BZF d   1      -0.242   0.238   3.298  0.00  0.00     0.055 A 
ATOM      6  C5  BZF d   1       1.027   0.098   2.832  0.00  0.00    -0.016 A 
ATOM      7  C6  BZF d   1       1.298   0.004   1.483  0.00  0.00     0.022 A 
ATOM      8  C7  BZF d   1       0.308   0.058   0.560  0.00  0.00     0.029 A 
ATOM      9  C7A BZF d   1      -0.972   0.233   1.026  0.00  0.00     0.058 A 
ENDROOT
TORSDOF 0
ENDMDL
