MODEL 1
REMARK minimizedAffinity -6.24987698
REMARK minimizedRMSD -1
REMARK  0 active torsions:
REMARK  status: ('A' for Active; 'I' for Inactive)
ROOT
ATOM      1  O1  BZF d   1       0.583  -0.464   0.580  0.00  0.00    -0.204 OA
ATOM      2  C2  BZF d   1       1.113  -0.619   1.847  0.00  0.00     0.174 A 
ATOM      3  C3  BZF d   1       0.192  -0.327   2.789  0.00  0.00    -0.012 A 
ATOM      4  C3A BZF d   1      -1.013  -0.058   2.067  0.00  0.00    -0.107 A 
ATOM      5  C4  BZF d   1      -2.281   0.276   2.448  0.00  0.00     0.055 A 
ATOM      6  C5  BZF d   1      -3.209   0.543   1.492  0.00  0.00    -0.016 A 
ATOM      7  C6  BZF d   1      -2.903   0.491   0.148  0.00  0.00     0.022 A 
ATOM      8  C7  BZF d   1      -1.660   0.160  -0.279  0.00  0.00     0.029 A 
ATOM      9  C7A BZF d   1      -0.729  -0.143   0.684  0.00  0.00     0.058 A 
ENDROOT
TORSDOF 0
ENDMDL
