MODEL 1
REMARK minimizedAffinity -5.8948946
REMARK minimizedRMSD -1
REMARK  0 active torsions:
REMARK  status: ('A' for Active; 'I' for Inactive)
ROOT
ATOM      1  O1  BZF d   1      -2.022   0.409   0.548  0.00  0.00    -0.204 OA
ATOM      2  C2  BZF d   1      -2.697   0.291   1.748  0.00  0.00     0.174 A 
ATOM      3  C3  BZF d   1      -1.835   0.092   2.765  0.00  0.00    -0.012 A 
ATOM      4  C3A BZF d   1      -0.533   0.176   2.177  0.00  0.00    -0.107 A 
ATOM      5  C4  BZF d   1       0.733   0.078   2.680  0.00  0.00     0.055 A 
ATOM      6  C5  BZF d   1       1.789   0.134   1.826  0.00  0.00    -0.016 A 
ATOM      7  C6  BZF d   1       1.616   0.282   0.466  0.00  0.00     0.022 A 
ATOM      8  C7  BZF d   1       0.379   0.388  -0.080  0.00  0.00     0.029 A 
ATOM      9  C7A BZF d   1      -0.689   0.365   0.784  0.00  0.00     0.058 A 
ENDROOT
TORSDOF 0
ENDMDL
