MODEL 1
REMARK minimizedAffinity -3.3194468
REMARK minimizedRMSD -1
REMARK  0 active torsions:
REMARK  status: ('A' for Active; 'I' for Inactive)
ROOT
ATOM      1  O1  BZF d   1      -0.993  -0.024  -3.191  0.00  0.00    -0.204 OA
ATOM      2  C2  BZF d   1      -0.926   0.999  -2.265  0.00  0.00     0.174 A 
ATOM      3  C3  BZF d   1       0.329   1.135  -1.792  0.00  0.00    -0.012 A 
ATOM      4  C3A BZF d   1       1.115   0.196  -2.533  0.00  0.00    -0.107 A 
ATOM      5  C4  BZF d   1       2.441  -0.129  -2.529  0.00  0.00     0.055 A 
ATOM      6  C5  BZF d   1       2.875  -1.142  -3.324  0.00  0.00    -0.016 A 
ATOM      7  C6  BZF d   1       2.012  -1.854  -4.130  0.00  0.00     0.022 A 
ATOM      8  C7  BZF d   1       0.688  -1.565  -4.171  0.00  0.00     0.029 A 
ATOM      9  C7A BZF d   1       0.251  -0.520  -3.394  0.00  0.00     0.058 A 
ENDROOT
TORSDOF 0
ENDMDL
