MODEL 1
REMARK minimizedAffinity -4.97550392
REMARK minimizedRMSD -1
REMARK  0 active torsions:
REMARK  status: ('A' for Active; 'I' for Inactive)
ROOT
ATOM      1  O1  BZF d   1       1.523   1.546   0.631  0.00  0.00    -0.204 OA
ATOM      2  C2  BZF d   1       2.622   1.401   1.456  0.00  0.00     0.174 A 
ATOM      3  C3  BZF d   1       2.406   0.438   2.375  0.00  0.00    -0.012 A 
ATOM      4  C3A BZF d   1       1.126  -0.112   2.050  0.00  0.00    -0.107 A 
ATOM      5  C4  BZF d   1       0.370  -1.113   2.591  0.00  0.00     0.055 A 
ATOM      6  C5  BZF d   1      -0.868  -1.353   2.083  0.00  0.00    -0.016 A 
ATOM      7  C6  BZF d   1      -1.382  -0.610   1.041  0.00  0.00     0.022 A 
ATOM      8  C7  BZF d   1      -0.667   0.389   0.469  0.00  0.00     0.029 A 
ATOM      9  C7A BZF d   1       0.597   0.613   0.958  0.00  0.00     0.058 A 
ENDROOT
TORSDOF 0
ENDMDL
