MODEL 1
REMARK minimizedAffinity -5.90270042
REMARK minimizedRMSD -1
REMARK  0 active torsions:
REMARK  status: ('A' for Active; 'I' for Inactive)
ROOT
ATOM      1  O1  BZF d   1      -0.795   0.038  -0.505  0.00  0.00    -0.204 OA
ATOM      2  C2  BZF d   1       0.586   0.083  -0.508  0.00  0.00     0.174 A 
ATOM      3  C3  BZF d   1       1.071  -0.024   0.746  0.00  0.00    -0.012 A 
ATOM      4  C3A BZF d   1      -0.075  -0.236   1.576  0.00  0.00    -0.107 A 
ATOM      5  C4  BZF d   1      -0.239  -0.431   2.918  0.00  0.00     0.055 A 
ATOM      6  C5  BZF d   1      -1.498  -0.533   3.421  0.00  0.00    -0.016 A 
ATOM      7  C6  BZF d   1      -2.612  -0.440   2.614  0.00  0.00     0.022 A 
ATOM      8  C7  BZF d   1      -2.499  -0.252   1.276  0.00  0.00     0.029 A 
ATOM      9  C7A BZF d   1      -1.229  -0.181   0.760  0.00  0.00     0.058 A 
ENDROOT
TORSDOF 0
ENDMDL
