MODEL 1
REMARK minimizedAffinity -4.55507374
REMARK minimizedRMSD -1
REMARK  0 active torsions:
REMARK  status: ('A' for Active; 'I' for Inactive)
ROOT
ATOM      1  O1  BZF d   1      -1.082   0.492  -0.351  0.00  0.00    -0.204 OA
ATOM      2  C2  BZF d   1      -0.171   0.774  -1.350  0.00  0.00     0.174 A 
ATOM      3  C3  BZF d   1       1.087   0.779  -0.864  0.00  0.00    -0.012 A 
ATOM      4  C3A BZF d   1       0.962   0.391   0.507  0.00  0.00    -0.107 A 
ATOM      5  C4  BZF d   1       1.864   0.199   1.515  0.00  0.00     0.055 A 
ATOM      6  C5  BZF d   1       1.409  -0.108   2.758  0.00  0.00    -0.016 A 
ATOM      7  C6  BZF d   1       0.062  -0.226   3.030  0.00  0.00     0.022 A 
ATOM      8  C7  BZF d   1      -0.870  -0.049   2.062  0.00  0.00     0.029 A 
ATOM      9  C7A BZF d   1      -0.413   0.228   0.797  0.00  0.00     0.058 A 
ENDROOT
TORSDOF 0
ENDMDL
