MODEL 1
REMARK minimizedAffinity -4.10058689
REMARK minimizedRMSD -1
REMARK  0 active torsions:
REMARK  status: ('A' for Active; 'I' for Inactive)
ROOT
ATOM      1  O1  BZF d   1      -2.307   0.976  -0.062  0.00  0.00    -0.204 OA
ATOM      2  C2  BZF d   1      -3.024   1.182   1.100  0.00  0.00     0.174 A 
ATOM      3  C3  BZF d   1      -2.221   1.096   2.180  0.00  0.00    -0.012 A 
ATOM      4  C3A BZF d   1      -0.903   0.912   1.655  0.00  0.00    -0.107 A 
ATOM      5  C4  BZF d   1       0.327   0.776   2.232  0.00  0.00     0.055 A 
ATOM      6  C5  BZF d   1       1.406   0.538   1.440  0.00  0.00    -0.016 A 
ATOM      7  C6  BZF d   1       1.290   0.425   0.070  0.00  0.00     0.022 A 
ATOM      8  C7  BZF d   1       0.091   0.558  -0.549  0.00  0.00     0.029 A 
ATOM      9  C7A BZF d   1      -0.995   0.831   0.246  0.00  0.00     0.058 A 
ENDROOT
TORSDOF 0
ENDMDL
