MODEL 1
REMARK minimizedAffinity -0.391862631
REMARK minimizedRMSD -1
REMARK  0 active torsions:
REMARK  status: ('A' for Active; 'I' for Inactive)
ROOT
ATOM      1  O1  BZF d   1       1.760   0.085  -1.112  0.00  0.00    -0.204 OA
ATOM      2  C2  BZF d   1       0.702  -0.281  -1.922  0.00  0.00     0.174 A 
ATOM      3  C3  BZF d   1      -0.423  -0.442  -1.196  0.00  0.00    -0.012 A 
ATOM      4  C3A BZF d   1      -0.066  -0.069   0.139  0.00  0.00    -0.107 A 
ATOM      5  C4  BZF d   1      -0.761  -0.004   1.313  0.00  0.00     0.055 A 
ATOM      6  C5  BZF d   1      -0.100   0.328   2.453  0.00  0.00    -0.016 A 
ATOM      7  C6  BZF d   1       1.253   0.596   2.456  0.00  0.00     0.022 A 
ATOM      8  C7  BZF d   1       1.983   0.549   1.316  0.00  0.00     0.029 A 
ATOM      9  C7A BZF d   1       1.312   0.246   0.156  0.00  0.00     0.058 A 
ENDROOT
TORSDOF 0
ENDMDL
