MODEL 1
REMARK minimizedAffinity -2.71196008
REMARK minimizedRMSD -1
REMARK  0 active torsions:
REMARK  status: ('A' for Active; 'I' for Inactive)
ROOT
ATOM      1  O1  BZF d   1      -1.018   0.410  -0.674  0.00  0.00    -0.204 OA
ATOM      2  C2  BZF d   1       0.312   0.453  -1.045  0.00  0.00     0.174 A 
ATOM      3  C3  BZF d   1       1.108   0.538   0.040  0.00  0.00    -0.012 A 
ATOM      4  C3A BZF d   1       0.225   0.456   1.163  0.00  0.00    -0.107 A 
ATOM      5  C4  BZF d   1       0.421   0.468   2.514  0.00  0.00     0.055 A 
ATOM      6  C5  BZF d   1      -0.659   0.444   3.338  0.00  0.00    -0.016 A 
ATOM      7  C6  BZF d   1      -1.947   0.415   2.846  0.00  0.00     0.022 A 
ATOM      8  C7  BZF d   1      -2.192   0.397   1.513  0.00  0.00     0.029 A 
ATOM      9  C7A BZF d   1      -1.101   0.387   0.678  0.00  0.00     0.058 A 
ENDROOT
TORSDOF 0
ENDMDL
