MODEL 1
REMARK minimizedAffinity 3.657686
REMARK minimizedRMSD -1
REMARK  0 active torsions:
REMARK  status: ('A' for Active; 'I' for Inactive)
ROOT
ATOM      1  O1  BZF d   1       1.588   0.415   2.999  0.00  0.00    -0.204 OA
ATOM      2  C2  BZF d   1       0.779   1.510   3.232  0.00  0.00     0.174 A 
ATOM      3  C3  BZF d   1       0.270   1.983   2.076  0.00  0.00    -0.012 A 
ATOM      4  C3A BZF d   1       0.720   1.074   1.067  0.00  0.00    -0.107 A 
ATOM      5  C4  BZF d   1       0.531   1.002  -0.284  0.00  0.00     0.055 A 
ATOM      6  C5  BZF d   1       1.169   0.031  -0.989  0.00  0.00    -0.016 A 
ATOM      7  C6  BZF d   1       2.006  -0.879  -0.378  0.00  0.00     0.022 A 
ATOM      8  C7  BZF d   1       2.221  -0.850   0.960  0.00  0.00     0.029 A 
ATOM      9  C7A BZF d   1       1.552   0.109   1.680  0.00  0.00     0.058 A 
ENDROOT
TORSDOF 0
ENDMDL
