MODEL 1
REMARK minimizedAffinity -4.50248909
REMARK minimizedRMSD -1
REMARK  0 active torsions:
REMARK  status: ('A' for Active; 'I' for Inactive)
ROOT
ATOM      1  O1  BZF d   1       1.228   1.044   1.066  0.00  0.00    -0.204 OA
ATOM      2  C2  BZF d   1       0.943   0.953  -0.283  0.00  0.00     0.174 A 
ATOM      3  C3  BZF d   1      -0.110   0.137  -0.495  0.00  0.00    -0.012 A 
ATOM      4  C3A BZF d   1      -0.564  -0.237   0.809  0.00  0.00    -0.107 A 
ATOM      5  C4  BZF d   1      -1.588  -1.023   1.257  0.00  0.00     0.055 A 
ATOM      6  C5  BZF d   1      -1.716  -1.243   2.592  0.00  0.00    -0.016 A 
ATOM      7  C6  BZF d   1      -0.836  -0.700   3.505  0.00  0.00     0.022 A 
ATOM      8  C7  BZF d   1       0.192   0.090   3.109  0.00  0.00     0.029 A 
ATOM      9  C7A BZF d   1       0.304   0.342   1.763  0.00  0.00     0.058 A 
ENDROOT
TORSDOF 0
ENDMDL
