MODEL 1
REMARK minimizedAffinity 1.83893156
REMARK minimizedRMSD -1
REMARK  0 active torsions:
REMARK  status: ('A' for Active; 'I' for Inactive)
ROOT
ATOM      1  O1  BZF d   1       1.138   1.608   0.401  0.00  0.00    -0.204 OA
ATOM      2  C2  BZF d   1       1.851   0.654   1.102  0.00  0.00     0.174 A 
ATOM      3  C3  BZF d   1       1.250  -0.550   1.016  0.00  0.00    -0.012 A 
ATOM      4  C3A BZF d   1       0.140  -0.355   0.136  0.00  0.00    -0.107 A 
ATOM      5  C4  BZF d   1      -0.828  -1.186  -0.353  0.00  0.00     0.055 A 
ATOM      6  C5  BZF d   1      -1.811  -0.666  -1.134  0.00  0.00    -0.016 A 
ATOM      7  C6  BZF d   1      -1.860   0.677  -1.443  0.00  0.00     0.022 A 
ATOM      8  C7  BZF d   1      -0.919   1.539  -0.986  0.00  0.00     0.029 A 
ATOM      9  C7A BZF d   1       0.094   1.012  -0.223  0.00  0.00     0.058 A 
ENDROOT
TORSDOF 0
ENDMDL
