MODEL 1
REMARK minimizedAffinity 8.41514397
REMARK minimizedRMSD -1
REMARK  0 active torsions:
REMARK  status: ('A' for Active; 'I' for Inactive)
ROOT
ATOM      1  O1  BZF d   1      -1.109   0.581   0.048  0.00  0.00    -0.204 OA
ATOM      2  C2  BZF d   1      -0.441   0.195  -1.098  0.00  0.00     0.174 A 
ATOM      3  C3  BZF d   1       0.890   0.362  -0.956  0.00  0.00    -0.012 A 
ATOM      4  C3A BZF d   1       1.072   0.798   0.395  0.00  0.00    -0.107 A 
ATOM      5  C4  BZF d   1       2.173   1.115   1.138  0.00  0.00     0.055 A 
ATOM      6  C5  BZF d   1       2.004   1.576   2.405  0.00  0.00    -0.016 A 
ATOM      7  C6  BZF d   1       0.750   1.738   2.957  0.00  0.00     0.022 A 
ATOM      8  C7  BZF d   1      -0.372   1.432   2.260  0.00  0.00     0.029 A 
ATOM      9  C7A BZF d   1      -0.202   0.934   0.991  0.00  0.00     0.058 A 
ENDROOT
TORSDOF 0
ENDMDL
