MODEL 1
REMARK minimizedAffinity -3.82581282
REMARK minimizedRMSD -1
REMARK  0 active torsions:
REMARK  status: ('A' for Active; 'I' for Inactive)
ROOT
ATOM      1  O1  BZF d   1      -0.834  -0.952  -0.333  0.00  0.00    -0.204 OA
ATOM      2  C2  BZF d   1       0.020  -0.560  -1.346  0.00  0.00     0.174 A 
ATOM      3  C3  BZF d   1       0.903   0.357  -0.901  0.00  0.00    -0.012 A 
ATOM      4  C3A BZF d   1       0.640   0.482   0.500  0.00  0.00    -0.107 A 
ATOM      5  C4  BZF d   1       1.199   1.229   1.497  0.00  0.00     0.055 A 
ATOM      6  C5  BZF d   1       0.662   1.175   2.744  0.00  0.00    -0.016 A 
ATOM      7  C6  BZF d   1      -0.437   0.390   3.028  0.00  0.00     0.022 A 
ATOM      8  C7  BZF d   1      -1.023  -0.372   2.073  0.00  0.00     0.029 A 
ATOM      9  C7A BZF d   1      -0.462  -0.345   0.819  0.00  0.00     0.058 A 
ENDROOT
TORSDOF 0
ENDMDL
