MODEL 1
REMARK minimizedAffinity 6.34509897
REMARK minimizedRMSD -1
REMARK  0 active torsions:
REMARK  status: ('A' for Active; 'I' for Inactive)
ROOT
ATOM      1  O1  BZF d   1      -0.263   0.512   0.282  0.00  0.00    -0.204 OA
ATOM      2  C2  BZF d   1       0.368   0.330  -0.934  0.00  0.00     0.174 A 
ATOM      3  C3  BZF d   1       1.663   0.702  -0.861  0.00  0.00    -0.012 A 
ATOM      4  C3A BZF d   1       1.876   1.056   0.509  0.00  0.00    -0.107 A 
ATOM      5  C4  BZF d   1       2.966   1.491   1.207  0.00  0.00     0.055 A 
ATOM      6  C5  BZF d   1       2.823   1.818   2.518  0.00  0.00    -0.016 A 
ATOM      7  C6  BZF d   1       1.605   1.729   3.160  0.00  0.00     0.022 A 
ATOM      8  C7  BZF d   1       0.496   1.298   2.510  0.00  0.00     0.029 A 
ATOM      9  C7A BZF d   1       0.645   0.935   1.194  0.00  0.00     0.058 A 
ENDROOT
TORSDOF 0
ENDMDL
