MODEL 1
REMARK minimizedAffinity -5.43141556
REMARK minimizedRMSD -1
REMARK  0 active torsions:
REMARK  status: ('A' for Active; 'I' for Inactive)
ROOT
ATOM      1  O1  BZF d   1      -0.311   0.541  -0.563  0.00  0.00    -0.204 OA
ATOM      2  C2  BZF d   1       0.883   1.201  -0.783  0.00  0.00     0.174 A 
ATOM      3  C3  BZF d   1       1.567   1.349   0.369  0.00  0.00    -0.012 A 
ATOM      4  C3A BZF d   1       0.794   0.663   1.357  0.00  0.00    -0.107 A 
ATOM      5  C4  BZF d   1       0.961   0.443   2.695  0.00  0.00     0.055 A 
ATOM      6  C5  BZF d   1      -0.015  -0.203   3.385  0.00  0.00    -0.016 A 
ATOM      7  C6  BZF d   1      -1.172  -0.636   2.773  0.00  0.00     0.022 A 
ATOM      8  C7  BZF d   1      -1.382  -0.445   1.448  0.00  0.00     0.029 A 
ATOM      9  C7A BZF d   1      -0.382   0.177   0.740  0.00  0.00     0.058 A 
ENDROOT
TORSDOF 0
ENDMDL
