MODEL 1
REMARK minimizedAffinity -5.19845915
REMARK minimizedRMSD -1
REMARK  0 active torsions:
REMARK  status: ('A' for Active; 'I' for Inactive)
ROOT
ATOM      1  O1  BZF d   1      -0.026  -0.159   3.291  0.00  0.00    -0.204 OA
ATOM      2  C2  BZF d   1      -1.228  -0.839   3.331  0.00  0.00     0.174 A 
ATOM      3  C3  BZF d   1      -1.736  -0.986   2.091  0.00  0.00    -0.012 A 
ATOM      4  C3A BZF d   1      -0.747  -0.440   1.212  0.00  0.00    -0.107 A 
ATOM      5  C4  BZF d   1      -0.666  -0.311  -0.145  0.00  0.00     0.055 A 
ATOM      6  C5  BZF d   1       0.401   0.334  -0.684  0.00  0.00    -0.016 A 
ATOM      7  C6  BZF d   1       1.402   0.866   0.103  0.00  0.00     0.022 A 
ATOM      8  C7  BZF d   1       1.367   0.758   1.453  0.00  0.00     0.029 A 
ATOM      9  C7A BZF d   1       0.306   0.078   1.999  0.00  0.00     0.058 A 
ENDROOT
TORSDOF 0
ENDMDL
