MODEL 1
REMARK minimizedAffinity 1.83853757
REMARK minimizedRMSD -1
REMARK  0 active torsions:
REMARK  status: ('A' for Active; 'I' for Inactive)
ROOT
ATOM      1  C1  DEN d   1       4.728   1.907   2.247  0.00  0.00     0.130 A 
ATOM      2  C2  DEN d   1       3.920   1.424   3.363  0.00  0.00    -0.031 A 
ATOM      3  C3  DEN d   1       3.500   2.593   4.162  0.00  0.00     0.027 A 
ATOM      4  C4  DEN d   1       4.018   5.090   3.780  0.00  0.00     0.027 A 
ATOM      5  C5  DEN d   1       4.676   5.989   2.969  0.00  0.00    -0.003 A 
ATOM      6  C6  DEN d   1       5.420   5.591   1.890  0.00  0.00     0.001 A 
ATOM      7  C7  DEN d   1       5.486   4.262   1.565  0.00  0.00     0.017 A 
ATOM      8  C8  DEN d   1       4.831   3.349   2.382  0.00  0.00    -0.094 A 
ATOM      9  C9  DEN d   1       4.075   3.773   3.461  0.00  0.00    -0.072 A 
ENDROOT
TORSDOF 0
ENDMDL
