MODEL 1
REMARK minimizedAffinity 15.1826057
REMARK minimizedRMSD -1
REMARK  0 active torsions:
REMARK  status: ('A' for Active; 'I' for Inactive)
ROOT
ATOM      1  C1  DEN d   1       5.918   5.993   3.665  0.00  0.00     0.130 A 
ATOM      2  C2  DEN d   1       5.072   6.000   4.855  0.00  0.00    -0.031 A 
ATOM      3  C3  DEN d   1       4.151   4.848   4.766  0.00  0.00     0.027 A 
ATOM      4  C4  DEN d   1       3.959   3.063   2.914  0.00  0.00     0.027 A 
ATOM      5  C5  DEN d   1       4.457   2.648   1.699  0.00  0.00    -0.003 A 
ATOM      6  C6  DEN d   1       5.446   3.332   1.043  0.00  0.00     0.001 A 
ATOM      7  C7  DEN d   1       6.000   4.444   1.621  0.00  0.00     0.017 A 
ATOM      8  C8  DEN d   1       5.497   4.873   2.842  0.00  0.00    -0.094 A 
ATOM      9  C9  DEN d   1       4.506   4.161   3.495  0.00  0.00    -0.072 A 
ENDROOT
TORSDOF 0
ENDMDL
