MODEL 1
REMARK minimizedAffinity 13.1709814
REMARK minimizedRMSD -1
REMARK  0 active torsions:
REMARK  status: ('A' for Active; 'I' for Inactive)
ROOT
ATOM      1  C1  DEN d   1      -2.243   6.000  -0.891  0.00  0.00     0.130 A 
ATOM      2  C2  DEN d   1      -1.562   5.047  -0.018  0.00  0.00    -0.031 A 
ATOM      3  C3  DEN d   1      -2.472   3.906   0.209  0.00  0.00     0.027 A 
ATOM      4  C4  DEN d   1      -4.853   3.522  -0.704  0.00  0.00     0.027 A 
ATOM      5  C5  DEN d   1      -5.859   4.059  -1.477  0.00  0.00    -0.003 A 
ATOM      6  C6  DEN d   1      -5.745   5.285  -2.075  0.00  0.00     0.001 A 
ATOM      7  C7  DEN d   1      -4.581   5.996  -1.948  0.00  0.00     0.017 A 
ATOM      8  C8  DEN d   1      -3.565   5.465  -1.165  0.00  0.00    -0.094 A 
ATOM      9  C9  DEN d   1      -3.695   4.218  -0.578  0.00  0.00    -0.072 A 
ENDROOT
TORSDOF 0
ENDMDL
