MODEL 1
REMARK minimizedAffinity 14.9721069
REMARK minimizedRMSD -1
REMARK  0 active torsions:
REMARK  status: ('A' for Active; 'I' for Inactive)
ROOT
ATOM      1  C1  DEN d   1       5.999   2.441   1.392  0.00  0.00     0.130 A 
ATOM      2  C2  DEN d   1       5.754   1.022   1.147  0.00  0.00    -0.031 A 
ATOM      3  C3  DEN d   1       5.372   0.397   2.429  0.00  0.00     0.027 A 
ATOM      4  C4  DEN d   1       5.131   1.483   4.756  0.00  0.00     0.027 A 
ATOM      5  C5  DEN d   1       5.246   2.660   5.463  0.00  0.00    -0.003 A 
ATOM      6  C6  DEN d   1       5.649   3.829   4.874  0.00  0.00     0.001 A 
ATOM      7  C7  DEN d   1       5.909   3.858   3.530  0.00  0.00     0.017 A 
ATOM      8  C8  DEN d   1       5.803   2.674   2.812  0.00  0.00    -0.094 A 
ATOM      9  C9  DEN d   1       5.382   1.505   3.423  0.00  0.00    -0.072 A 
ENDROOT
TORSDOF 0
ENDMDL
