MODEL 1
REMARK minimizedAffinity 0.640612781
REMARK minimizedRMSD -1
REMARK  0 active torsions:
REMARK  status: ('A' for Active; 'I' for Inactive)
ROOT
ATOM      1  C1  DEN d   1       3.913   4.148   0.488  0.00  0.00     0.130 A 
ATOM      2  C2  DEN d   1       4.316   5.516   0.174  0.00  0.00    -0.031 A 
ATOM      3  C3  DEN d   1       5.195   5.995   1.260  0.00  0.00     0.027 A 
ATOM      4  C4  DEN d   1       5.971   4.755   3.384  0.00  0.00     0.027 A 
ATOM      5  C5  DEN d   1       5.881   3.577   4.092  0.00  0.00    -0.003 A 
ATOM      6  C6  DEN d   1       5.107   2.528   3.670  0.00  0.00     0.001 A 
ATOM      7  C7  DEN d   1       4.429   2.620   2.483  0.00  0.00     0.017 A 
ATOM      8  C8  DEN d   1       4.509   3.807   1.767  0.00  0.00    -0.094 A 
ATOM      9  C9  DEN d   1       5.306   4.851   2.205  0.00  0.00    -0.072 A 
ENDROOT
TORSDOF 0
ENDMDL
