MODEL 1
REMARK minimizedAffinity 12.4721308
REMARK minimizedRMSD -1
REMARK  0 active torsions:
REMARK  status: ('A' for Active; 'I' for Inactive)
ROOT
ATOM      1  C1  DEN d   1       0.074  -1.762   3.832  0.00  0.00     0.130 A 
ATOM      2  C2  DEN d   1       1.311  -0.991   3.923  0.00  0.00    -0.031 A 
ATOM      3  C3  DEN d   1       1.035   0.374   3.433  0.00  0.00     0.027 A 
ATOM      4  C4  DEN d   1      -1.176   1.366   2.550  0.00  0.00     0.027 A 
ATOM      5  C5  DEN d   1      -2.497   1.092   2.273  0.00  0.00    -0.003 A 
ATOM      6  C6  DEN d   1      -3.041  -0.151   2.461  0.00  0.00     0.001 A 
ATOM      7  C7  DEN d   1      -2.271  -1.156   2.984  0.00  0.00     0.017 A 
ATOM      8  C8  DEN d   1      -0.936  -0.890   3.260  0.00  0.00    -0.094 A 
ATOM      9  C9  DEN d   1      -0.409   0.377   3.074  0.00  0.00    -0.072 A 
ENDROOT
TORSDOF 0
ENDMDL
