MODEL 1
REMARK minimizedAffinity 5.95547104
REMARK minimizedRMSD -1
REMARK  0 active torsions:
REMARK  status: ('A' for Active; 'I' for Inactive)
ROOT
ATOM      1  C1  DEN d   1       0.895   0.740   3.583  0.00  0.00     0.130 A 
ATOM      2  C2  DEN d   1      -0.109  -0.136   2.985  0.00  0.00    -0.031 A 
ATOM      3  C3  DEN d   1       0.094  -1.496   3.524  0.00  0.00     0.027 A 
ATOM      4  C4  DEN d   1       1.851  -2.324   5.220  0.00  0.00     0.027 A 
ATOM      5  C5  DEN d   1       2.925  -1.950   5.998  0.00  0.00    -0.003 A 
ATOM      6  C6  DEN d   1       3.414  -0.670   6.000  0.00  0.00     0.001 A 
ATOM      7  C7  DEN d   1       2.800   0.292   5.242  0.00  0.00     0.017 A 
ATOM      8  C8  DEN d   1       1.722  -0.080   4.449  0.00  0.00    -0.094 A 
ATOM      9  C9  DEN d   1       1.235  -1.376   4.471  0.00  0.00    -0.072 A 
ENDROOT
TORSDOF 0
ENDMDL
