MODEL 1
REMARK minimizedAffinity 22.0020676
REMARK minimizedRMSD -1
REMARK  0 active torsions:
REMARK  status: ('A' for Active; 'I' for Inactive)
ROOT
ATOM      1  C1  DEN d   1       1.139  -0.483  -3.711  0.00  0.00     0.130 A 
ATOM      2  C2  DEN d   1       0.886  -0.293  -5.136  0.00  0.00    -0.031 A 
ATOM      3  C3  DEN d   1      -0.325  -1.060  -5.492  0.00  0.00     0.027 A 
ATOM      4  C4  DEN d   1      -1.829  -2.510  -3.979  0.00  0.00     0.027 A 
ATOM      5  C5  DEN d   1      -2.010  -2.983  -2.698  0.00  0.00    -0.003 A 
ATOM      6  C6  DEN d   1      -1.142  -2.686  -1.681  0.00  0.00     0.001 A 
ATOM      7  C7  DEN d   1      -0.078  -1.856  -1.917  0.00  0.00     0.017 A 
ATOM      8  C8  DEN d   1       0.115  -1.382  -3.208  0.00  0.00    -0.094 A 
ATOM      9  C9  DEN d   1      -0.780  -1.684  -4.220  0.00  0.00    -0.072 A 
ENDROOT
TORSDOF 0
ENDMDL
