MODEL 1
REMARK minimizedAffinity 18.7781582
REMARK minimizedRMSD -1
REMARK  0 active torsions:
REMARK  status: ('A' for Active; 'I' for Inactive)
ROOT
ATOM      1  C1  DEN d   1       1.524  -1.847   2.851  0.00  0.00     0.130 A 
ATOM      2  C2  DEN d   1       1.804  -2.818   3.906  0.00  0.00    -0.031 A 
ATOM      3  C3  DEN d   1       0.570  -3.591   4.153  0.00  0.00     0.027 A 
ATOM      4  C4  DEN d   1      -1.732  -3.384   3.009  0.00  0.00     0.027 A 
ATOM      5  C5  DEN d   1      -2.456  -2.695   2.061  0.00  0.00    -0.003 A 
ATOM      6  C6  DEN d   1      -1.920  -1.662   1.341  0.00  0.00     0.001 A 
ATOM      7  C7  DEN d   1      -0.607  -1.316   1.524  0.00  0.00     0.017 A 
ATOM      8  C8  DEN d   1       0.128  -2.001   2.482  0.00  0.00    -0.094 A 
ATOM      9  C9  DEN d   1      -0.429  -3.052   3.192  0.00  0.00    -0.072 A 
ENDROOT
TORSDOF 0
ENDMDL
