MODEL 1
REMARK minimizedAffinity 16.1998425
REMARK minimizedRMSD -1
REMARK  0 active torsions:
REMARK  status: ('A' for Active; 'I' for Inactive)
ROOT
ATOM      1  C1  DEN d   1       5.170  -1.508   5.228  0.00  0.00     0.130 A 
ATOM      2  C2  DEN d   1       5.529  -2.696   5.999  0.00  0.00    -0.031 A 
ATOM      3  C3  DEN d   1       4.434  -3.677   5.862  0.00  0.00     0.027 A 
ATOM      4  C4  DEN d   1       2.233  -3.477   4.533  0.00  0.00     0.027 A 
ATOM      5  C5  DEN d   1       1.478  -2.652   3.729  0.00  0.00    -0.003 A 
ATOM      6  C6  DEN d   1       1.882  -1.385   3.399  0.00  0.00     0.001 A 
ATOM      7  C7  DEN d   1       3.094  -0.923   3.838  0.00  0.00     0.017 A 
ATOM      8  C8  DEN d   1       3.858  -1.747   4.655  0.00  0.00    -0.094 A 
ATOM      9  C9  DEN d   1       3.437  -3.029   4.968  0.00  0.00    -0.072 A 
ENDROOT
TORSDOF 0
ENDMDL
