MODEL 1
REMARK minimizedAffinity -2.7924819
REMARK minimizedRMSD -1
REMARK  1 active torsions:
REMARK  status: ('A' for Active; 'I' for Inactive)
REMARK    1  A    between atoms: C1_2  and  C2_3 
ROOT
ATOM      1  C2  UNL d   1      -4.083  -3.705  -5.020  0.00  0.00    -0.073 A 
ATOM      2  C3  UNL d   1      -5.175  -3.716  -4.146  0.00  0.00    -0.002 A 
ATOM      3  C4  UNL d   1      -5.867  -2.537  -3.867  0.00  0.00     0.004 A 
ATOM      4  C5  UNL d   1      -5.479  -1.337  -4.463  0.00  0.00    -0.004 A 
ATOM      5  C6  UNL d   1      -4.397  -1.308  -5.349  0.00  0.00    -0.075 A 
ATOM      6  C7  UNL d   1      -3.965  -0.025  -5.998  0.00  0.00     0.076 C 
ATOM      7  C8  UNL d   1      -3.706  -2.496  -5.622  0.00  0.00     0.001 A 
ENDROOT
BRANCH   1   8
ATOM      8  C1  UNL d   1      -3.337  -4.977  -5.330  0.00  0.00     0.053 C 
ATOM      9  C   UNL d   1      -1.896  -4.925  -4.847  0.00  0.00     0.018 C 
ENDBRANCH   1   8
TORSDOF 1
ENDMDL
