MODEL 1
REMARK minimizedAffinity -2.14940095
REMARK minimizedRMSD -1
REMARK  1 active torsions:
REMARK  status: ('A' for Active; 'I' for Inactive)
REMARK    1  A    between atoms: C1_2  and  C2_3 
ROOT
ATOM      1  C2  UNL d   1      -3.212  -5.095  -4.833  0.00  0.00    -0.073 A 
ATOM      2  C3  UNL d   1      -3.937  -5.731  -5.847  0.00  0.00    -0.002 A 
ATOM      3  C4  UNL d   1      -5.302  -5.485  -6.000  0.00  0.00     0.004 A 
ATOM      4  C5  UNL d   1      -5.954  -4.596  -5.146  0.00  0.00    -0.004 A 
ATOM      5  C6  UNL d   1      -5.245  -3.941  -4.134  0.00  0.00    -0.075 A 
ATOM      6  C7  UNL d   1      -5.933  -2.983  -3.205  0.00  0.00     0.076 C 
ATOM      7  C8  UNL d   1      -3.875  -4.195  -3.986  0.00  0.00     0.001 A 
ENDROOT
BRANCH   1   8
ATOM      8  C1  UNL d   1      -1.737  -5.352  -4.669  0.00  0.00     0.053 C 
ATOM      9  C   UNL d   1      -1.128  -5.990  -5.908  0.00  0.00     0.018 C 
ENDBRANCH   1   8
TORSDOF 1
ENDMDL
