MODEL 1
REMARK minimizedAffinity -2.49020576
REMARK minimizedRMSD -1
REMARK  1 active torsions:
REMARK  status: ('A' for Active; 'I' for Inactive)
REMARK    1  A    between atoms: C1_2  and  C2_3 
ROOT
ATOM      1  C2  UNL d   1      -3.325  -4.611  -4.934  0.00  0.00    -0.073 A 
ATOM      2  C3  UNL d   1      -4.062  -5.547  -5.668  0.00  0.00    -0.002 A 
ATOM      3  C4  UNL d   1      -5.394  -5.294  -5.999  0.00  0.00     0.004 A 
ATOM      4  C5  UNL d   1      -6.000  -4.101  -5.606  0.00  0.00    -0.004 A 
ATOM      5  C6  UNL d   1      -5.277  -3.147  -4.882  0.00  0.00    -0.075 A 
ATOM      6  C7  UNL d   1      -5.915  -1.860  -4.450  0.00  0.00     0.076 C 
ATOM      7  C8  UNL d   1      -3.941  -3.410  -4.551  0.00  0.00     0.001 A 
ENDROOT
BRANCH   1   8
ATOM      8  C1  UNL d   1      -1.885  -4.878  -4.579  0.00  0.00     0.053 C 
ATOM      9  C   UNL d   1      -1.235  -5.861  -5.540  0.00  0.00     0.018 C 
ENDBRANCH   1   8
TORSDOF 1
ENDMDL
