MODEL 1
REMARK minimizedAffinity 2.69859838
REMARK minimizedRMSD -1
REMARK  1 active torsions:
REMARK  status: ('A' for Active; 'I' for Inactive)
REMARK    1  A    between atoms: C1_2  and  C2_3 
ROOT
ATOM      1  C2  UNL d   1      -1.090  -0.858   0.499  0.00  0.00    -0.073 A 
ATOM      2  C3  UNL d   1      -1.172  -2.215   0.828  0.00  0.00    -0.002 A 
ATOM      3  C4  UNL d   1      -2.353  -2.925   0.604  0.00  0.00     0.004 A 
ATOM      4  C5  UNL d   1      -3.459  -2.287   0.043  0.00  0.00    -0.004 A 
ATOM      5  C6  UNL d   1      -3.393  -0.934  -0.304  0.00  0.00    -0.075 A 
ATOM      6  C7  UNL d   1      -4.575  -0.233  -0.907  0.00  0.00     0.076 C 
ATOM      7  C8  UNL d   1      -2.204  -0.228  -0.074  0.00  0.00     0.001 A 
ENDROOT
BRANCH   1   8
ATOM      8  C1  UNL d   1       0.185  -0.089   0.733  0.00  0.00     0.053 C 
ATOM      9  C   UNL d   1       1.417  -0.913   0.395  0.00  0.00     0.018 C 
ENDBRANCH   1   8
TORSDOF 1
ENDMDL
