MODEL 1
REMARK minimizedAffinity -3.25172734
REMARK minimizedRMSD -1
REMARK  1 active torsions:
REMARK  status: ('A' for Active; 'I' for Inactive)
REMARK    1  A    between atoms: C1_2  and  C2_3 
ROOT
ATOM      1  C2  UNL d   1      -4.905  -3.647  -4.891  0.00  0.00    -0.073 A 
ATOM      2  C3  UNL d   1      -5.582  -4.634  -5.616  0.00  0.00    -0.002 A 
ATOM      3  C4  UNL d   1      -4.924  -5.803  -6.000  0.00  0.00     0.004 A 
ATOM      4  C5  UNL d   1      -3.586  -6.000  -5.657  0.00  0.00    -0.004 A 
ATOM      5  C6  UNL d   1      -2.896  -5.031  -4.922  0.00  0.00    -0.075 A 
ATOM      6  C7  UNL d   1      -1.456  -5.226  -4.548  0.00  0.00     0.076 C 
ATOM      7  C8  UNL d   1      -3.563  -3.858  -4.543  0.00  0.00     0.001 A 
ENDROOT
BRANCH   1   8
ATOM      8  C1  UNL d   1      -5.614  -2.386  -4.468  0.00  0.00     0.053 C 
ATOM      9  C   UNL d   1      -6.000  -2.414  -2.998  0.00  0.00     0.018 C 
ENDBRANCH   1   8
TORSDOF 1
ENDMDL
