MODEL 1
REMARK minimizedAffinity 1.04192436
REMARK minimizedRMSD -1
REMARK  1 active torsions:
REMARK  status: ('A' for Active; 'I' for Inactive)
REMARK    1  A    between atoms: C1_2  and  C2_3 
ROOT
ATOM      1  C2  UNL d   1      -4.981  -2.766  -4.666  0.00  0.00    -0.073 A 
ATOM      2  C3  UNL d   1      -5.944  -3.372  -5.481  0.00  0.00    -0.002 A 
ATOM      3  C4  UNL d   1      -5.731  -4.654  -5.989  0.00  0.00     0.004 A 
ATOM      4  C5  UNL d   1      -4.560  -5.346  -5.682  0.00  0.00    -0.004 A 
ATOM      5  C6  UNL d   1      -3.591  -4.762  -4.859  0.00  0.00    -0.075 A 
ATOM      6  C7  UNL d   1      -2.325  -5.492  -4.521  0.00  0.00     0.076 C 
ATOM      7  C8  UNL d   1      -3.811  -3.473  -4.355  0.00  0.00     0.001 A 
ENDROOT
BRANCH   1   8
ATOM      8  C1  UNL d   1      -5.208  -1.384  -4.109  0.00  0.00     0.053 C 
ATOM      9  C   UNL d   1      -5.979  -0.500  -5.077  0.00  0.00     0.018 C 
ENDBRANCH   1   8
TORSDOF 1
ENDMDL
