MODEL 1
REMARK minimizedAffinity 0.253021747
REMARK minimizedRMSD -1
REMARK  1 active torsions:
REMARK  status: ('A' for Active; 'I' for Inactive)
REMARK    1  A    between atoms: C1_2  and  C2_3 
ROOT
ATOM      1  C2  UNL d   1      -3.779  -3.771  -5.321  0.00  0.00    -0.073 A 
ATOM      2  C3  UNL d   1      -4.325  -4.278  -4.137  0.00  0.00    -0.002 A 
ATOM      3  C4  UNL d   1      -5.402  -3.636  -3.525  0.00  0.00     0.004 A 
ATOM      4  C5  UNL d   1      -5.948  -2.485  -4.093  0.00  0.00    -0.004 A 
ATOM      5  C6  UNL d   1      -5.424  -1.969  -5.283  0.00  0.00    -0.075 A 
ATOM      6  C7  UNL d   1      -5.999  -0.731  -5.906  0.00  0.00     0.076 C 
ATOM      7  C8  UNL d   1      -4.341  -2.618  -5.890  0.00  0.00     0.001 A 
ENDROOT
BRANCH   1   8
ATOM      8  C1  UNL d   1      -2.621  -4.465  -5.989  0.00  0.00     0.053 C 
ATOM      9  C   UNL d   1      -2.643  -5.967  -5.753  0.00  0.00     0.018 C 
ENDBRANCH   1   8
TORSDOF 1
ENDMDL
