MODEL 1
REMARK minimizedAffinity -2.86038852
REMARK minimizedRMSD -1
REMARK  1 active torsions:
REMARK  status: ('A' for Active; 'I' for Inactive)
REMARK    1  A    between atoms: C1_2  and  C2_3 
ROOT
ATOM      1  C2  UNL d   1      -4.546  -4.167  -5.244  0.00  0.00    -0.073 A 
ATOM      2  C3  UNL d   1      -4.486  -4.052  -3.850  0.00  0.00    -0.002 A 
ATOM      3  C4  UNL d   1      -3.353  -4.478  -3.156  0.00  0.00     0.004 A 
ATOM      4  C5  UNL d   1      -2.267  -5.014  -3.848  0.00  0.00    -0.004 A 
ATOM      5  C6  UNL d   1      -2.303  -5.126  -5.241  0.00  0.00    -0.075 A 
ATOM      6  C7  UNL d   1      -1.144  -5.703  -6.000  0.00  0.00     0.076 C 
ATOM      7  C8  UNL d   1      -3.446  -4.699  -5.931  0.00  0.00     0.001 A 
ENDROOT
BRANCH   1   8
ATOM      8  C1  UNL d   1      -5.766  -3.703  -5.998  0.00  0.00     0.053 C 
ATOM      9  C   UNL d   1      -5.979  -2.203  -5.870  0.00  0.00     0.018 C 
ENDBRANCH   1   8
TORSDOF 1
ENDMDL
