MODEL 1
REMARK minimizedAffinity -3.40183854
REMARK minimizedRMSD -1
REMARK  1 active torsions:
REMARK  status: ('A' for Active; 'I' for Inactive)
REMARK    1  A    between atoms: C1_2  and  C2_3 
ROOT
ATOM      1  C2  UNL d   1      -5.268  -3.787  -4.874  0.00  0.00    -0.073 A 
ATOM      2  C3  UNL d   1      -5.976  -4.869  -5.408  0.00  0.00    -0.002 A 
ATOM      3  C4  UNL d   1      -5.294  -5.949  -5.971  0.00  0.00     0.004 A 
ATOM      4  C5  UNL d   1      -3.899  -5.960  -6.000  0.00  0.00    -0.004 A 
ATOM      5  C6  UNL d   1      -3.174  -4.893  -5.461  0.00  0.00    -0.075 A 
ATOM      6  C7  UNL d   1      -1.673  -4.889  -5.486  0.00  0.00     0.076 C 
ATOM      7  C8  UNL d   1      -3.866  -3.811  -4.899  0.00  0.00     0.001 A 
ENDROOT
BRANCH   1   8
ATOM      8  C1  UNL d   1      -6.000  -2.622  -4.260  0.00  0.00     0.053 C 
ATOM      9  C   UNL d   1      -5.976  -1.395  -5.158  0.00  0.00     0.018 C 
ENDBRANCH   1   8
TORSDOF 1
ENDMDL
