MODEL 1
REMARK minimizedAffinity -0.840184927
REMARK minimizedRMSD -1
REMARK  1 active torsions:
REMARK  status: ('A' for Active; 'I' for Inactive)
REMARK    1  A    between atoms: C1_2  and  C2_3 
ROOT
ATOM      1  C2  UNL d   1      -3.277  -5.007  -4.969  0.00  0.00    -0.073 A 
ATOM      2  C3  UNL d   1      -4.034  -5.855  -5.785  0.00  0.00    -0.002 A 
ATOM      3  C4  UNL d   1      -5.390  -5.601  -6.000  0.00  0.00     0.004 A 
ATOM      4  C5  UNL d   1      -6.000  -4.496  -5.407  0.00  0.00    -0.004 A 
ATOM      5  C6  UNL d   1      -5.257  -3.630  -4.597  0.00  0.00    -0.075 A 
ATOM      6  C7  UNL d   1      -5.898  -2.438  -3.950  0.00  0.00     0.076 C 
ATOM      7  C8  UNL d   1      -3.897  -3.893  -4.385  0.00  0.00     0.001 A 
ENDROOT
BRANCH   1   8
ATOM      8  C1  UNL d   1      -1.812  -5.273  -4.740  0.00  0.00     0.053 C 
ATOM      9  C   UNL d   1      -1.373  -4.878  -3.339  0.00  0.00     0.018 C 
ENDBRANCH   1   8
TORSDOF 1
ENDMDL
