MODEL 1
REMARK minimizedAffinity 9.04552269
REMARK minimizedRMSD -1
REMARK  1 active torsions:
REMARK  status: ('A' for Active; 'I' for Inactive)
REMARK    1  A    between atoms: C1_2  and  C2_3 
ROOT
ATOM      1  C2  UNL d   1      -4.607  -3.716  -4.738  0.00  0.00    -0.073 A 
ATOM      2  C3  UNL d   1      -3.504  -3.662  -5.597  0.00  0.00    -0.002 A 
ATOM      3  C4  UNL d   1      -2.236  -3.360  -5.098  0.00  0.00     0.004 A 
ATOM      4  C5  UNL d   1      -2.057  -3.117  -3.736  0.00  0.00    -0.004 A 
ATOM      5  C6  UNL d   1      -3.145  -3.179  -2.860  0.00  0.00    -0.075 A 
ATOM      6  C7  UNL d   1      -2.970  -2.918  -1.393  0.00  0.00     0.076 C 
ATOM      7  C8  UNL d   1      -4.416  -3.480  -3.369  0.00  0.00     0.001 A 
ENDROOT
BRANCH   1   8
ATOM      8  C1  UNL d   1      -5.977  -4.048  -5.271  0.00  0.00     0.053 C 
ATOM      9  C   UNL d   1      -5.998  -5.383  -5.998  0.00  0.00     0.018 C 
ENDBRANCH   1   8
TORSDOF 1
ENDMDL
