MODEL 1
REMARK minimizedAffinity -2.42886662
REMARK minimizedRMSD -1
REMARK  1 active torsions:
REMARK  status: ('A' for Active; 'I' for Inactive)
REMARK    1  A    between atoms: C1_2  and  C2_3 
ROOT
ATOM      1  C2  UNL d   1      -3.165  -4.719  -4.969  0.00  0.00    -0.073 A 
ATOM      2  C3  UNL d   1      -3.926  -5.525  -5.823  0.00  0.00    -0.002 A 
ATOM      3  C4  UNL d   1      -5.294  -5.294  -5.978  0.00  0.00     0.004 A 
ATOM      4  C5  UNL d   1      -5.912  -4.252  -5.286  0.00  0.00    -0.004 A 
ATOM      5  C6  UNL d   1      -5.166  -3.429  -4.437  0.00  0.00    -0.075 A 
ATOM      6  C7  UNL d   1      -5.817  -2.305  -3.685  0.00  0.00     0.076 C 
ATOM      7  C8  UNL d   1      -3.794  -3.669  -4.285  0.00  0.00     0.001 A 
ENDROOT
BRANCH   1   8
ATOM      8  C1  UNL d   1      -1.687  -4.961  -4.804  0.00  0.00     0.053 C 
ATOM      9  C   UNL d   1      -1.165  -5.995  -5.789  0.00  0.00     0.018 C 
ENDBRANCH   1   8
TORSDOF 1
ENDMDL
