MODEL 1
REMARK minimizedAffinity -2.46166134
REMARK minimizedRMSD -1
REMARK  1 active torsions:
REMARK  status: ('A' for Active; 'I' for Inactive)
REMARK    1  A    between atoms: C1_2  and  C2_3 
ROOT
ATOM      1  C2  UNL d   1      -3.198  -4.964  -5.165  0.00  0.00    -0.073 A 
ATOM      2  C3  UNL d   1      -3.904  -5.993  -5.798  0.00  0.00    -0.002 A 
ATOM      3  C4  UNL d   1      -5.283  -5.890  -5.985  0.00  0.00     0.004 A 
ATOM      4  C5  UNL d   1      -5.968  -4.755  -5.548  0.00  0.00    -0.004 A 
ATOM      5  C6  UNL d   1      -5.278  -3.711  -4.924  0.00  0.00    -0.075 A 
ATOM      6  C7  UNL d   1      -6.000  -2.486  -4.447  0.00  0.00     0.076 C 
ATOM      7  C8  UNL d   1      -3.893  -3.824  -4.738  0.00  0.00     0.001 A 
ENDROOT
BRANCH   1   8
ATOM      8  C1  UNL d   1      -1.707  -5.068  -4.966  0.00  0.00     0.053 C 
ATOM      9  C   UNL d   1      -1.057  -5.978  -5.997  0.00  0.00     0.018 C 
ENDBRANCH   1   8
TORSDOF 1
ENDMDL
