MODEL 1
REMARK minimizedAffinity -1.70954323
REMARK minimizedRMSD -1
REMARK  0 active torsions:
REMARK  status: ('A' for Active; 'I' for Inactive)
ROOT
ATOM      1  C   UNL d   1       2.369  -3.483   0.584  0.00  0.00     0.172 C 
ATOM      2  N   UNL d   1       1.213  -3.385   1.443  0.00  0.00    -0.070 N 
ATOM      3  C1  UNL d   1       0.784  -4.348   2.317  0.00  0.00    -0.004 A 
ATOM      4  C2  UNL d   1      -0.346  -3.873   2.947  0.00  0.00    -0.047 A 
ATOM      5  C3  UNL d   1      -0.606  -2.580   2.433  0.00  0.00    -0.047 A 
ATOM      6  C4  UNL d   1       0.375  -2.303   1.504  0.00  0.00    -0.004 A 
ENDROOT
TORSDOF 0
ENDMDL
