MODEL 1
REMARK minimizedAffinity -0.483761042
REMARK minimizedRMSD -1
REMARK  0 active torsions:
REMARK  status: ('A' for Active; 'I' for Inactive)
ROOT
ATOM      1  C   UNL d   1       2.027  -4.325   0.770  0.00  0.00     0.172 C 
ATOM      2  N   UNL d   1       1.438  -3.011   0.877  0.00  0.00    -0.070 N 
ATOM      3  C1  UNL d   1       0.651  -2.570   1.908  0.00  0.00    -0.004 A 
ATOM      4  C2  UNL d   1       0.291  -1.268   1.638  0.00  0.00    -0.047 A 
ATOM      5  C3  UNL d   1       0.882  -0.913   0.401  0.00  0.00    -0.047 A 
ATOM      6  C4  UNL d   1       1.586  -2.011  -0.047  0.00  0.00    -0.004 A 
ENDROOT
TORSDOF 0
ENDMDL
