MODEL 1
REMARK minimizedAffinity -0.978745341
REMARK minimizedRMSD -1
REMARK  0 active torsions:
REMARK  status: ('A' for Active; 'I' for Inactive)
ROOT
ATOM      1  C   UNL d   1      -1.255   3.539  -5.076  0.00  0.00     0.172 C 
ATOM      2  N   UNL d   1      -2.336   3.420  -4.126  0.00  0.00    -0.070 N 
ATOM      3  C1  UNL d   1      -3.333   2.482  -4.164  0.00  0.00    -0.004 A 
ATOM      4  C2  UNL d   1      -4.162   2.704  -3.086  0.00  0.00    -0.047 A 
ATOM      5  C3  UNL d   1      -3.647   3.814  -2.376  0.00  0.00    -0.047 A 
ATOM      6  C4  UNL d   1      -2.516   4.238  -3.042  0.00  0.00    -0.004 A 
ENDROOT
TORSDOF 0
ENDMDL
