MODEL 1
REMARK minimizedAffinity -2.68408704
REMARK minimizedRMSD -1
REMARK  0 active torsions:
REMARK  status: ('A' for Active; 'I' for Inactive)
ROOT
ATOM      1  C   UNL d   1       3.125  -3.940  -0.035  0.00  0.00     0.172 C 
ATOM      2  N   UNL d   1       2.185  -2.903   0.322  0.00  0.00    -0.070 N 
ATOM      3  C1  UNL d   1       1.952  -1.757  -0.390  0.00  0.00    -0.004 A 
ATOM      4  C2  UNL d   1       0.990  -1.032   0.279  0.00  0.00    -0.047 A 
ATOM      5  C3  UNL d   1       0.632  -1.768   1.434  0.00  0.00    -0.047 A 
ATOM      6  C4  UNL d   1       1.387  -2.922   1.436  0.00  0.00    -0.004 A 
ENDROOT
TORSDOF 0
ENDMDL
