MODEL 1
REMARK minimizedAffinity -0.792915165
REMARK minimizedRMSD -1
REMARK  0 active torsions:
REMARK  status: ('A' for Active; 'I' for Inactive)
ROOT
ATOM      1  C   UNL d   1      -2.404  -2.236  -5.953  0.00  0.00     0.172 C 
ATOM      2  N   UNL d   1      -3.845  -2.149  -5.971  0.00  0.00    -0.070 N 
ATOM      3  C1  UNL d   1      -4.575  -0.990  -5.977  0.00  0.00    -0.004 A 
ATOM      4  C2  UNL d   1      -5.910  -1.332  -5.996  0.00  0.00    -0.047 A 
ATOM      5  C3  UNL d   1      -5.985  -2.745  -5.999  0.00  0.00    -0.047 A 
ATOM      6  C4  UNL d   1      -4.693  -3.225  -5.983  0.00  0.00    -0.004 A 
ENDROOT
TORSDOF 0
ENDMDL
