MODEL 1
REMARK minimizedAffinity 2.88686299
REMARK minimizedRMSD -1
REMARK  0 active torsions:
REMARK  status: ('A' for Active; 'I' for Inactive)
ROOT
ATOM      1  C   UNL d   1       2.616  -3.536   1.373  0.00  0.00     0.172 C 
ATOM      2  N   UNL d   1       1.998  -2.235   1.265  0.00  0.00    -0.070 N 
ATOM      3  C1  UNL d   1       0.742  -1.909   1.703  0.00  0.00    -0.004 A 
ATOM      4  C2  UNL d   1       0.527  -0.579   1.417  0.00  0.00    -0.047 A 
ATOM      5  C3  UNL d   1       1.694  -0.088   0.784  0.00  0.00    -0.047 A 
ATOM      6  C4  UNL d   1       2.588  -1.134   0.703  0.00  0.00    -0.004 A 
ENDROOT
TORSDOF 0
ENDMDL
