MODEL 1
REMARK minimizedAffinity 1.29962552
REMARK minimizedRMSD -1
REMARK  0 active torsions:
REMARK  status: ('A' for Active; 'I' for Inactive)
ROOT
ATOM      1  C   UNL d   1       1.566  -3.788   1.143  0.00  0.00     0.172 C 
ATOM      2  N   UNL d   1       2.834  -4.448   0.941  0.00  0.00    -0.070 N 
ATOM      3  C1  UNL d   1       3.132  -5.734   1.307  0.00  0.00    -0.004 A 
ATOM      4  C2  UNL d   1       4.438  -5.985   0.942  0.00  0.00    -0.047 A 
ATOM      5  C3  UNL d   1       4.942  -4.809   0.337  0.00  0.00    -0.047 A 
ATOM      6  C4  UNL d   1       3.928  -3.874   0.350  0.00  0.00    -0.004 A 
ENDROOT
TORSDOF 0
ENDMDL
