MODEL 1
REMARK minimizedAffinity -5.01828289
REMARK minimizedRMSD -1
REMARK  0 active torsions:
REMARK  status: ('A' for Active; 'I' for Inactive)
ROOT
ATOM      1  C   UNL d   1       4.876   5.881  -2.144  0.00  0.00     0.078 C 
ATOM      2  C1  UNL d   1       4.638   4.910  -3.262  0.00  0.00    -0.077 A 
ATOM      3  C2  UNL d   1       3.339   4.538  -3.631  0.00  0.00    -0.001 A 
ATOM      4  C3  UNL d   1       3.133   3.626  -4.667  0.00  0.00     0.003 A 
ATOM      5  C4  UNL d   1       4.222   3.077  -5.342  0.00  0.00    -0.005 A 
ATOM      6  C5  UNL d   1       5.518   3.439  -4.981  0.00  0.00     0.003 A 
ATOM      7  C6  UNL d   1       5.726   4.351  -3.945  0.00  0.00    -0.001 A 
ENDROOT
TORSDOF 0
ENDMDL
