MODEL 1
REMARK minimizedAffinity -4.35309315
REMARK minimizedRMSD -1
REMARK  0 active torsions:
REMARK  status: ('A' for Active; 'I' for Inactive)
ROOT
ATOM      1  C   UNL d   1       5.092   3.278  -5.835  0.00  0.00     0.078 C 
ATOM      2  C1  UNL d   1       4.962   4.228  -4.683  0.00  0.00    -0.077 A 
ATOM      3  C2  UNL d   1       6.000   4.384  -3.756  0.00  0.00    -0.001 A 
ATOM      4  C3  UNL d   1       5.861   5.264  -2.682  0.00  0.00     0.003 A 
ATOM      5  C4  UNL d   1       4.685   5.995  -2.524  0.00  0.00    -0.005 A 
ATOM      6  C5  UNL d   1       3.646   5.845  -3.440  0.00  0.00     0.003 A 
ATOM      7  C6  UNL d   1       3.783   4.965  -4.515  0.00  0.00    -0.001 A 
ENDROOT
TORSDOF 0
ENDMDL
