MODEL 1
REMARK minimizedAffinity 6.1587944
REMARK minimizedRMSD -1
REMARK  0 active torsions:
REMARK  status: ('A' for Active; 'I' for Inactive)
ROOT
ATOM      1  C   UNL d   1       2.033  -4.121  -4.469  0.00  0.00     0.078 C 
ATOM      2  C1  UNL d   1       0.919  -3.435  -3.736  0.00  0.00    -0.077 A 
ATOM      3  C2  UNL d   1      -0.382  -3.418  -4.253  0.00  0.00    -0.001 A 
ATOM      4  C3  UNL d   1      -1.407  -2.767  -3.564  0.00  0.00     0.003 A 
ATOM      5  C4  UNL d   1      -1.141  -2.127  -2.355  0.00  0.00    -0.005 A 
ATOM      6  C5  UNL d   1       0.151  -2.137  -1.834  0.00  0.00     0.003 A 
ATOM      7  C6  UNL d   1       1.177  -2.787  -2.521  0.00  0.00    -0.001 A 
ENDROOT
TORSDOF 0
ENDMDL
