MODEL 1
REMARK minimizedAffinity 0.452824384
REMARK minimizedRMSD -1
REMARK  0 active torsions:
REMARK  status: ('A' for Active; 'I' for Inactive)
ROOT
ATOM      1  C   UNL d   1       0.767  -0.439  -1.629  0.00  0.00     0.078 C 
ATOM      2  C1  UNL d   1       0.184  -1.810  -1.801  0.00  0.00    -0.077 A 
ATOM      3  C2  UNL d   1      -0.079  -2.326  -3.076  0.00  0.00    -0.001 A 
ATOM      4  C3  UNL d   1      -0.631  -3.600  -3.222  0.00  0.00     0.003 A 
ATOM      5  C4  UNL d   1      -0.925  -4.368  -2.097  0.00  0.00    -0.005 A 
ATOM      6  C5  UNL d   1      -0.669  -3.862  -0.824  0.00  0.00     0.003 A 
ATOM      7  C6  UNL d   1      -0.117  -2.588  -0.677  0.00  0.00    -0.001 A 
ENDROOT
TORSDOF 0
ENDMDL
