MODEL 1
REMARK minimizedAffinity 2.39941454
REMARK minimizedRMSD -1
REMARK  0 active torsions:
REMARK  status: ('A' for Active; 'I' for Inactive)
ROOT
ATOM      1  C   UNL d   1       5.997  -2.998  -1.184  0.00  0.00     0.078 C 
ATOM      2  C1  UNL d   1       5.281  -2.781  -2.483  0.00  0.00    -0.077 A 
ATOM      3  C2  UNL d   1       3.894  -2.590  -2.519  0.00  0.00    -0.001 A 
ATOM      4  C3  UNL d   1       3.239  -2.399  -3.736  0.00  0.00     0.003 A 
ATOM      5  C4  UNL d   1       3.962  -2.398  -4.928  0.00  0.00    -0.005 A 
ATOM      6  C5  UNL d   1       5.341  -2.589  -4.902  0.00  0.00     0.003 A 
ATOM      7  C6  UNL d   1       5.999  -2.781  -3.686  0.00  0.00    -0.001 A 
ENDROOT
TORSDOF 0
ENDMDL
