MODEL 1
REMARK minimizedAffinity -3.38416195
REMARK minimizedRMSD -1
REMARK  0 active torsions:
REMARK  status: ('A' for Active; 'I' for Inactive)
ROOT
ATOM      1  C   UNL d   1       5.999   6.000  -1.764  0.00  0.00     0.078 C 
ATOM      2  C1  UNL d   1       5.290   5.254  -2.854  0.00  0.00    -0.077 A 
ATOM      3  C2  UNL d   1       3.931   4.937  -2.746  0.00  0.00    -0.001 A 
ATOM      4  C3  UNL d   1       3.286   4.233  -3.764  0.00  0.00     0.003 A 
ATOM      5  C4  UNL d   1       3.994   3.839  -4.898  0.00  0.00    -0.005 A 
ATOM      6  C5  UNL d   1       5.347   4.148  -5.014  0.00  0.00     0.003 A 
ATOM      7  C6  UNL d   1       5.993   4.852  -3.997  0.00  0.00    -0.001 A 
ENDROOT
TORSDOF 0
ENDMDL
