MODEL 1
REMARK minimizedAffinity -0.136902422
REMARK minimizedRMSD -1
REMARK  0 active torsions:
REMARK  status: ('A' for Active; 'I' for Inactive)
ROOT
ATOM      1  C   UNL d   1       6.000  -3.000  -0.345  0.00  0.00     0.078 C 
ATOM      2  C1  UNL d   1       5.376  -3.087  -1.706  0.00  0.00    -0.077 A 
ATOM      3  C2  UNL d   1       4.315  -2.248  -2.068  0.00  0.00    -0.001 A 
ATOM      4  C3  UNL d   1       3.737  -2.347  -3.334  0.00  0.00     0.003 A 
ATOM      5  C4  UNL d   1       4.213  -3.285  -4.249  0.00  0.00    -0.005 A 
ATOM      6  C5  UNL d   1       5.267  -4.125  -3.897  0.00  0.00     0.003 A 
ATOM      7  C6  UNL d   1       5.846  -4.028  -2.631  0.00  0.00    -0.001 A 
ENDROOT
TORSDOF 0
ENDMDL
