MODEL 1
REMARK minimizedAffinity 6.46969414
REMARK minimizedRMSD -1
REMARK  0 active torsions:
REMARK  status: ('A' for Active; 'I' for Inactive)
ROOT
ATOM      1  C   UNL d   1      -0.020  -2.533  -2.350  0.00  0.00     0.078 C 
ATOM      2  C1  UNL d   1       0.495  -3.153  -3.616  0.00  0.00    -0.077 A 
ATOM      3  C2  UNL d   1       1.856  -3.442  -3.775  0.00  0.00    -0.001 A 
ATOM      4  C3  UNL d   1       2.322  -4.010  -4.962  0.00  0.00     0.003 A 
ATOM      5  C4  UNL d   1       1.435  -4.291  -5.999  0.00  0.00    -0.005 A 
ATOM      6  C5  UNL d   1       0.080  -4.004  -5.850  0.00  0.00     0.003 A 
ATOM      7  C6  UNL d   1      -0.389  -3.437  -4.664  0.00  0.00    -0.001 A 
ENDROOT
TORSDOF 0
ENDMDL
