MODEL 1
REMARK minimizedAffinity 0.621816576
REMARK minimizedRMSD -1
REMARK  0 active torsions:
REMARK  status: ('A' for Active; 'I' for Inactive)
ROOT
ATOM      1  C   UNL d   1       1.819  -2.638  -4.160  0.00  0.00     0.078 C 
ATOM      2  C1  UNL d   1       3.276  -2.594  -3.810  0.00  0.00    -0.077 A 
ATOM      3  C2  UNL d   1       3.881  -3.641  -3.104  0.00  0.00    -0.001 A 
ATOM      4  C3  UNL d   1       5.236  -3.581  -2.776  0.00  0.00     0.003 A 
ATOM      5  C4  UNL d   1       5.998  -2.476  -3.150  0.00  0.00    -0.005 A 
ATOM      6  C5  UNL d   1       5.405  -1.428  -3.851  0.00  0.00     0.003 A 
ATOM      7  C6  UNL d   1       4.050  -1.486  -4.179  0.00  0.00    -0.001 A 
ENDROOT
TORSDOF 0
ENDMDL
