MODEL 1
REMARK minimizedAffinity 3.24706292
REMARK minimizedRMSD -1
REMARK  0 active torsions:
REMARK  status: ('A' for Active; 'I' for Inactive)
ROOT
ATOM      1  C   UNL d   1       1.908   4.674  -3.675  0.00  0.00     0.078 C 
ATOM      2  C1  UNL d   1       3.330   4.733  -3.203  0.00  0.00    -0.077 A 
ATOM      3  C2  UNL d   1       3.965   5.960  -2.975  0.00  0.00    -0.001 A 
ATOM      4  C3  UNL d   1       5.292   6.000  -2.545  0.00  0.00     0.003 A 
ATOM      5  C4  UNL d   1       5.997   4.816  -2.340  0.00  0.00    -0.005 A 
ATOM      6  C5  UNL d   1       5.375   3.589  -2.567  0.00  0.00     0.003 A 
ATOM      7  C6  UNL d   1       4.048   3.547  -2.997  0.00  0.00    -0.001 A 
ENDROOT
TORSDOF 0
ENDMDL
