MODEL 1
REMARK minimizedAffinity -2.5289185
REMARK minimizedRMSD -1
REMARK  0 active torsions:
REMARK  status: ('A' for Active; 'I' for Inactive)
ROOT
ATOM      1  C   UNL d   1       3.562  -2.612  -4.549  0.00  0.00     0.078 C 
ATOM      2  C1  UNL d   1       4.414  -2.931  -3.357  0.00  0.00    -0.077 A 
ATOM      3  C2  UNL d   1       5.206  -4.085  -3.325  0.00  0.00    -0.001 A 
ATOM      4  C3  UNL d   1       5.987  -4.375  -2.205  0.00  0.00     0.003 A 
ATOM      5  C4  UNL d   1       5.984  -3.515  -1.108  0.00  0.00    -0.005 A 
ATOM      6  C5  UNL d   1       5.197  -2.365  -1.130  0.00  0.00     0.003 A 
ATOM      7  C6  UNL d   1       4.415  -2.074  -2.249  0.00  0.00    -0.001 A 
ENDROOT
TORSDOF 0
ENDMDL
