MODEL 1
REMARK minimizedAffinity 3.92597032
REMARK minimizedRMSD -1
REMARK  0 active torsions:
REMARK  status: ('A' for Active; 'I' for Inactive)
ROOT
ATOM      1  C   UNL d   1       6.000  -2.429  -0.977  0.00  0.00     0.078 C 
ATOM      2  C1  UNL d   1       5.287  -2.488  -2.295  0.00  0.00    -0.077 A 
ATOM      3  C2  UNL d   1       6.000  -2.538  -3.499  0.00  0.00    -0.001 A 
ATOM      4  C3  UNL d   1       5.323  -2.582  -4.719  0.00  0.00     0.003 A 
ATOM      5  C4  UNL d   1       3.929  -2.577  -4.746  0.00  0.00    -0.005 A 
ATOM      6  C5  UNL d   1       3.211  -2.526  -3.553  0.00  0.00     0.003 A 
ATOM      7  C6  UNL d   1       3.887  -2.481  -2.332  0.00  0.00    -0.001 A 
ENDROOT
TORSDOF 0
ENDMDL
