MODEL 1
REMARK minimizedAffinity 0.40547353
REMARK minimizedRMSD -1
REMARK  0 active torsions:
REMARK  status: ('A' for Active; 'I' for Inactive)
ROOT
ATOM      1  C   UNL d   1       5.998   5.377  -4.539  0.00  0.00     0.078 C 
ATOM      2  C1  UNL d   1       5.414   5.281  -3.162  0.00  0.00    -0.077 A 
ATOM      3  C2  UNL d   1       4.276   4.504  -2.914  0.00  0.00    -0.001 A 
ATOM      4  C3  UNL d   1       3.737   4.432  -1.628  0.00  0.00     0.003 A 
ATOM      5  C4  UNL d   1       4.328   5.136  -0.581  0.00  0.00    -0.005 A 
ATOM      6  C5  UNL d   1       5.459   5.914  -0.819  0.00  0.00     0.003 A 
ATOM      7  C6  UNL d   1       6.000   5.987  -2.104  0.00  0.00    -0.001 A 
ENDROOT
TORSDOF 0
ENDMDL
