MODEL 1
REMARK minimizedAffinity 5.30141401
REMARK minimizedRMSD -1
REMARK  0 active torsions:
REMARK  status: ('A' for Active; 'I' for Inactive)
ROOT
ATOM      1  C   UNL d   1       3.892  -2.491  -3.690  0.00  0.00     0.078 C 
ATOM      2  C1  UNL d   1       4.296  -1.121  -4.145  0.00  0.00    -0.077 A 
ATOM      3  C2  UNL d   1       5.637  -0.718  -4.117  0.00  0.00    -0.001 A 
ATOM      4  C3  UNL d   1       5.998   0.564  -4.534  0.00  0.00     0.003 A 
ATOM      5  C4  UNL d   1       5.024   1.455  -4.981  0.00  0.00    -0.005 A 
ATOM      6  C5  UNL d   1       3.687   1.064  -5.009  0.00  0.00     0.003 A 
ATOM      7  C6  UNL d   1       3.324  -0.218  -4.593  0.00  0.00    -0.001 A 
ENDROOT
TORSDOF 0
ENDMDL
