MODEL 1
REMARK minimizedAffinity 5.09343529
REMARK minimizedRMSD -1
REMARK  0 active torsions:
REMARK  status: ('A' for Active; 'I' for Inactive)
ROOT
ATOM      1  C   UNL d   1       5.862   2.915  -4.022  0.00  0.00     0.078 C 
ATOM      2  C1  UNL d   1       5.219   3.925  -3.119  0.00  0.00    -0.077 A 
ATOM      3  C2  UNL d   1       3.841   3.900  -2.874  0.00  0.00    -0.001 A 
ATOM      4  C3  UNL d   1       3.255   4.852  -2.038  0.00  0.00     0.003 A 
ATOM      5  C4  UNL d   1       4.040   5.837  -1.441  0.00  0.00    -0.005 A 
ATOM      6  C5  UNL d   1       5.412   5.871  -1.680  0.00  0.00     0.003 A 
ATOM      7  C6  UNL d   1       6.000   4.919  -2.516  0.00  0.00    -0.001 A 
ENDROOT
TORSDOF 0
ENDMDL
