MODEL 1
REMARK minimizedAffinity 5.26525831
REMARK minimizedRMSD -1
REMARK  0 active torsions:
REMARK  status: ('A' for Active; 'I' for Inactive)
ROOT
ATOM      1  C   UNL d   1       5.874   5.702  -1.336  0.00  0.00     0.078 C 
ATOM      2  C1  UNL d   1       4.442   5.282  -1.484  0.00  0.00    -0.077 A 
ATOM      3  C2  UNL d   1       3.754   5.476  -2.688  0.00  0.00    -0.001 A 
ATOM      4  C3  UNL d   1       2.419   5.089  -2.809  0.00  0.00     0.003 A 
ATOM      5  C4  UNL d   1       1.758   4.507  -1.729  0.00  0.00    -0.005 A 
ATOM      6  C5  UNL d   1       2.433   4.312  -0.526  0.00  0.00     0.003 A 
ATOM      7  C6  UNL d   1       3.769   4.698  -0.403  0.00  0.00    -0.001 A 
ENDROOT
TORSDOF 0
ENDMDL
