MODEL 1
REMARK minimizedAffinity 9.34391403
REMARK minimizedRMSD -1
REMARK  0 active torsions:
REMARK  status: ('A' for Active; 'I' for Inactive)
ROOT
ATOM      1  C   UNL d   1      -1.098  -2.250   2.611  0.00  0.00     0.078 C 
ATOM      2  C1  UNL d   1      -1.646  -1.341   3.671  0.00  0.00    -0.077 A 
ATOM      3  C2  UNL d   1      -1.584  -1.693   5.025  0.00  0.00    -0.001 A 
ATOM      4  C3  UNL d   1      -2.107  -0.842   6.000  0.00  0.00     0.003 A 
ATOM      5  C4  UNL d   1      -2.696   0.366   5.631  0.00  0.00    -0.005 A 
ATOM      6  C5  UNL d   1      -2.765   0.723   4.286  0.00  0.00     0.003 A 
ATOM      7  C6  UNL d   1      -2.242  -0.127   3.310  0.00  0.00    -0.001 A 
ENDROOT
TORSDOF 0
ENDMDL
