MODEL 1
REMARK minimizedAffinity -3.8966713
REMARK minimizedRMSD -1
REMARK  3 active torsions:
REMARK  status: ('A' for Active; 'I' for Inactive)
REMARK    1  A    between atoms: C3'_2  and  C2'_3 
REMARK    2  A    between atoms: C2'_3  and  C1'_4 
REMARK    3  A    between atoms: C1'_4  and  C1_5 
ROOT
ATOM      1  C1  N4B d   1      -2.061   0.965  -0.469  0.00  0.00    -0.075 A 
ATOM      2  C2  N4B d   1      -2.857  -0.198  -0.391  0.00  0.00     0.002 A 
ATOM      3  C3  N4B d   1      -3.872  -0.276   0.531  0.00  0.00     0.002 A 
ATOM      4  C4  N4B d   1      -4.096   0.786   1.395  0.00  0.00    -0.004 A 
ATOM      5  C5  N4B d   1      -3.338   1.916   1.297  0.00  0.00     0.002 A 
ATOM      6  C6  N4B d   1      -2.318   2.009   0.372  0.00  0.00     0.002 A 
ENDROOT
BRANCH   1   7
ATOM      7  C1' N4B d   1      -0.885   1.062  -1.402  0.00  0.00     0.057 C 
BRANCH   7   8
ATOM      8  C2' N4B d   1      -0.176  -0.287  -1.456  0.00  0.00     0.009 C 
BRANCH   8   9
ATOM      9  C3' N4B d   1       0.720  -0.506  -0.249  0.00  0.00     0.004 C 
ATOM     10  C4' N4B d   1       1.159  -1.933  -0.103  0.00  0.00     0.003 C 
ENDBRANCH   8   9
ENDBRANCH   7   8
ENDBRANCH   1   7
TORSDOF 3
ENDMDL
