MODEL 1
REMARK minimizedAffinity -5.85684443
REMARK minimizedRMSD -1
REMARK  3 active torsions:
REMARK  status: ('A' for Active; 'I' for Inactive)
REMARK    1  A    between atoms: C3'_2  and  C2'_3 
REMARK    2  A    between atoms: C2'_3  and  C1'_4 
REMARK    3  A    between atoms: C1'_4  and  C1_5 
ROOT
ATOM      1  C1  N4B d   1      -2.229   0.815  -0.015  0.00  0.00    -0.075 A 
ATOM      2  C2  N4B d   1      -3.413   0.161  -0.421  0.00  0.00     0.002 A 
ATOM      3  C3  N4B d   1      -4.533   0.213   0.374  0.00  0.00     0.002 A 
ATOM      4  C4  N4B d   1      -4.486   0.894   1.581  0.00  0.00    -0.004 A 
ATOM      5  C5  N4B d   1      -3.346   1.545   1.953  0.00  0.00     0.002 A 
ATOM      6  C6  N4B d   1      -2.215   1.504   1.163  0.00  0.00     0.002 A 
ENDROOT
BRANCH   1   7
ATOM      7  C1' N4B d   1      -0.955   0.715  -0.809  0.00  0.00     0.057 C 
BRANCH   7   8
ATOM      8  C2' N4B d   1       0.228   0.641   0.152  0.00  0.00     0.009 C 
BRANCH   8   9
ATOM      9  C3' N4B d   1       0.853  -0.743   0.178  0.00  0.00     0.004 C 
ATOM     10  C4' N4B d   1       2.083  -0.808   1.035  0.00  0.00     0.003 C 
ENDBRANCH   8   9
ENDBRANCH   7   8
ENDBRANCH   1   7
TORSDOF 3
ENDMDL
