MODEL 1
REMARK minimizedAffinity -4.60626554
REMARK minimizedRMSD -1
REMARK  3 active torsions:
REMARK  status: ('A' for Active; 'I' for Inactive)
REMARK    1  A    between atoms: C3'_2  and  C2'_3 
REMARK    2  A    between atoms: C2'_3  and  C1'_4 
REMARK    3  A    between atoms: C1'_4  and  C1_5 
ROOT
ATOM      1  C1  N4B d   1       0.413  -0.117  -0.256  0.00  0.00    -0.075 A 
ATOM      2  C2  N4B d   1       1.136  -1.124  -0.931  0.00  0.00     0.002 A 
ATOM      3  C3  N4B d   1       2.202  -1.734  -0.315  0.00  0.00     0.002 A 
ATOM      4  C4  N4B d   1       2.573  -1.341   0.962  0.00  0.00    -0.004 A 
ATOM      5  C5  N4B d   1       1.853  -0.385   1.617  0.00  0.00     0.002 A 
ATOM      6  C6  N4B d   1       0.777   0.234   1.012  0.00  0.00     0.002 A 
ENDROOT
BRANCH   1   7
ATOM      7  C1' N4B d   1      -0.706   0.638  -0.920  0.00  0.00     0.057 C 
BRANCH   7   8
ATOM      8  C2' N4B d   1      -1.879   0.751   0.049  0.00  0.00     0.009 C 
BRANCH   8   9
ATOM      9  C3' N4B d   1      -3.216   0.591  -0.655  0.00  0.00     0.004 C 
ATOM     10  C4' N4B d   1      -4.233  -0.123   0.184  0.00  0.00     0.003 C 
ENDBRANCH   8   9
ENDBRANCH   7   8
ENDBRANCH   1   7
TORSDOF 3
ENDMDL
