MODEL 1
REMARK minimizedAffinity -3.49028635
REMARK minimizedRMSD -1
REMARK  3 active torsions:
REMARK  status: ('A' for Active; 'I' for Inactive)
REMARK    1  A    between atoms: C3'_2  and  C2'_3 
REMARK    2  A    between atoms: C2'_3  and  C1'_4 
REMARK    3  A    between atoms: C1'_4  and  C1_5 
ROOT
ATOM      1  C1  N4B d   1       1.295   0.236  -0.548  0.00  0.00    -0.075 A 
ATOM      2  C2  N4B d   1       2.517  -0.469  -0.482  0.00  0.00     0.002 A 
ATOM      3  C3  N4B d   1       3.701   0.218  -0.369  0.00  0.00     0.002 A 
ATOM      4  C4  N4B d   1       3.689   1.605  -0.339  0.00  0.00    -0.004 A 
ATOM      5  C5  N4B d   1       2.503   2.277  -0.378  0.00  0.00     0.002 A 
ATOM      6  C6  N4B d   1       1.305   1.599  -0.487  0.00  0.00     0.002 A 
ENDROOT
BRANCH   1   7
ATOM      7  C1' N4B d   1      -0.017  -0.468  -0.758  0.00  0.00     0.057 C 
BRANCH   7   8
ATOM      8  C2' N4B d   1      -0.851  -0.365   0.516  0.00  0.00     0.009 C 
BRANCH   8   9
ATOM      9  C3' N4B d   1      -2.159   0.370   0.281  0.00  0.00     0.004 C 
ATOM     10  C4' N4B d   1      -3.160   0.138   1.373  0.00  0.00     0.003 C 
ENDBRANCH   8   9
ENDBRANCH   7   8
ENDBRANCH   1   7
TORSDOF 3
ENDMDL
