MODEL 1
REMARK minimizedAffinity -1.83158541
REMARK minimizedRMSD -1
REMARK  1 active torsions:
REMARK  status: ('A' for Active; 'I' for Inactive)
REMARK    1  A    between atoms: C1_2  and  C2_3 
ROOT
ATOM      1  C2  UNL d   1       1.892  -2.769   2.619  0.00  0.00    -0.077 A 
ATOM      2  C3  UNL d   1       1.980  -1.743   1.668  0.00  0.00     0.002 A 
ATOM      3  C4  UNL d   1       2.029  -0.407   2.073  0.00  0.00     0.002 A 
ATOM      4  C5  UNL d   1       1.996  -0.087   3.428  0.00  0.00    -0.004 A 
ATOM      5  C6  UNL d   1       1.906  -1.100   4.381  0.00  0.00     0.002 A 
ATOM      6  C7  UNL d   1       1.855  -2.435   3.979  0.00  0.00     0.002 A 
ENDROOT
BRANCH   1   7
ATOM      7  C1  UNL d   1       1.888  -4.212   2.186  0.00  0.00     0.055 C 
ATOM      8  C   UNL d   1       2.939  -5.017   2.936  0.00  0.00     0.019 C 
ENDBRANCH   1   7
TORSDOF 1
ENDMDL
