MODEL 1
REMARK minimizedAffinity 3.86940622
REMARK minimizedRMSD -1
REMARK  1 active torsions:
REMARK  status: ('A' for Active; 'I' for Inactive)
REMARK    1  A    between atoms: C1_2  and  C2_3 
ROOT
ATOM      1  C2  UNL d   1       3.566  -3.039   4.129  0.00  0.00    -0.077 A 
ATOM      2  C3  UNL d   1       3.261  -2.273   2.995  0.00  0.00     0.002 A 
ATOM      3  C4  UNL d   1       1.945  -2.182   2.537  0.00  0.00     0.002 A 
ATOM      4  C5  UNL d   1       0.924  -2.850   3.209  0.00  0.00    -0.004 A 
ATOM      5  C6  UNL d   1       1.217  -3.616   4.337  0.00  0.00     0.002 A 
ATOM      6  C7  UNL d   1       2.532  -3.709   4.795  0.00  0.00     0.002 A 
ENDROOT
BRANCH   1   7
ATOM      7  C1  UNL d   1       4.977  -3.098   4.653  0.00  0.00     0.055 C 
ATOM      8  C   UNL d   1       5.988  -2.802   3.555  0.00  0.00     0.019 C 
ENDBRANCH   1   7
TORSDOF 1
ENDMDL
