MODEL 1
REMARK minimizedAffinity 5.69368458
REMARK minimizedRMSD -1
REMARK  1 active torsions:
REMARK  status: ('A' for Active; 'I' for Inactive)
REMARK    1  A    between atoms: C1_2  and  C2_3 
ROOT
ATOM      1  C2  UNL d   1      -2.811   0.366  -2.517  0.00  0.00    -0.077 A 
ATOM      2  C3  UNL d   1      -2.323  -0.148  -1.308  0.00  0.00     0.002 A 
ATOM      3  C4  UNL d   1      -2.040   0.706  -0.240  0.00  0.00     0.002 A 
ATOM      4  C5  UNL d   1      -2.246   2.078  -0.369  0.00  0.00    -0.004 A 
ATOM      5  C6  UNL d   1      -2.729   2.599  -1.568  0.00  0.00     0.002 A 
ATOM      6  C7  UNL d   1      -3.011   1.748  -2.637  0.00  0.00     0.002 A 
ENDROOT
BRANCH   1   7
ATOM      7  C1  UNL d   1      -3.163  -0.558  -3.653  0.00  0.00     0.055 C 
ATOM      8  C   UNL d   1      -3.399  -1.978  -3.159  0.00  0.00     0.019 C 
ENDBRANCH   1   7
TORSDOF 1
ENDMDL
