MODEL 1
REMARK minimizedAffinity 1.51667392
REMARK minimizedRMSD -1
REMARK  1 active torsions:
REMARK  status: ('A' for Active; 'I' for Inactive)
REMARK    1  A    between atoms: C1_2  and  C2_3 
ROOT
ATOM      1  C2  UNL d   1      -3.578   2.820  -1.121  0.00  0.00    -0.077 A 
ATOM      2  C3  UNL d   1      -2.733   2.430  -0.073  0.00  0.00     0.002 A 
ATOM      3  C4  UNL d   1      -3.129   2.603   1.255  0.00  0.00     0.002 A 
ATOM      4  C5  UNL d   1      -4.371   3.162   1.546  0.00  0.00    -0.004 A 
ATOM      5  C6  UNL d   1      -5.218   3.555   0.510  0.00  0.00     0.002 A 
ATOM      6  C7  UNL d   1      -4.823   3.384  -0.818  0.00  0.00     0.002 A 
ENDROOT
BRANCH   1   7
ATOM      7  C1  UNL d   1      -3.173   2.589  -2.554  0.00  0.00     0.055 C 
ATOM      8  C   UNL d   1      -3.131   1.105  -2.885  0.00  0.00     0.019 C 
ENDBRANCH   1   7
TORSDOF 1
ENDMDL
