MODEL 1
REMARK minimizedAffinity 10.0141821
REMARK minimizedRMSD -1
REMARK  1 active torsions:
REMARK  status: ('A' for Active; 'I' for Inactive)
REMARK    1  A    between atoms: C1_2  and  C2_3 
ROOT
ATOM      1  C2  UNL d   1      -3.818   1.882  -3.188  0.00  0.00    -0.077 A 
ATOM      2  C3  UNL d   1      -4.888   2.180  -2.333  0.00  0.00     0.002 A 
ATOM      3  C4  UNL d   1      -5.970   2.933  -2.793  0.00  0.00     0.002 A 
ATOM      4  C5  UNL d   1      -5.994   3.391  -4.108  0.00  0.00    -0.004 A 
ATOM      5  C6  UNL d   1      -4.933   3.102  -4.966  0.00  0.00     0.002 A 
ATOM      6  C7  UNL d   1      -3.850   2.350  -4.507  0.00  0.00     0.002 A 
ENDROOT
BRANCH   1   7
ATOM      7  C1  UNL d   1      -2.673   1.028  -2.708  0.00  0.00     0.055 C 
ATOM      8  C   UNL d   1      -2.544  -0.241  -3.537  0.00  0.00     0.019 C 
ENDBRANCH   1   7
TORSDOF 1
ENDMDL
