MODEL 1
REMARK minimizedAffinity -4.48598862
REMARK minimizedRMSD -1
REMARK  0 active torsions:
REMARK  status: ('A' for Active; 'I' for Inactive)
ROOT
ATOM      1  C   UNL d   1       0.644  -0.590  -0.017  0.00  0.00     0.078 C 
ATOM      2  C1  UNL d   1      -0.098   0.603   0.507  0.00  0.00    -0.077 A 
ATOM      3  C2  UNL d   1      -1.332   0.981  -0.036  0.00  0.00    -0.001 A 
ATOM      4  C3  UNL d   1      -2.007   2.099   0.455  0.00  0.00     0.003 A 
ATOM      5  C4  UNL d   1      -1.455   2.850   1.491  0.00  0.00    -0.005 A 
ATOM      6  C5  UNL d   1      -0.227   2.484   2.036  0.00  0.00     0.003 A 
ATOM      7  C6  UNL d   1       0.450   1.366   1.546  0.00  0.00    -0.001 A 
ENDROOT
TORSDOF 0
ENDMDL
