MODEL 1
REMARK minimizedAffinity -5.02201986
REMARK minimizedRMSD -1
REMARK  0 active torsions:
REMARK  status: ('A' for Active; 'I' for Inactive)
ROOT
ATOM      1  C   UNL d   1       2.262  -5.481  -0.064  0.00  0.00     0.078 C 
ATOM      2  C1  UNL d   1       1.125  -4.676  -0.620  0.00  0.00    -0.077 A 
ATOM      3  C2  UNL d   1       1.350  -3.438  -1.234  0.00  0.00    -0.001 A 
ATOM      4  C3  UNL d   1       0.282  -2.695  -1.738  0.00  0.00     0.003 A 
ATOM      5  C4  UNL d   1      -1.020  -3.182  -1.633  0.00  0.00    -0.005 A 
ATOM      6  C5  UNL d   1      -1.254  -4.412  -1.022  0.00  0.00     0.003 A 
ATOM      7  C6  UNL d   1      -0.187  -5.156  -0.517  0.00  0.00    -0.001 A 
ENDROOT
TORSDOF 0
ENDMDL
