MODEL 1
REMARK minimizedAffinity -5.45043659
REMARK minimizedRMSD -1
REMARK  0 active torsions:
REMARK  status: ('A' for Active; 'I' for Inactive)
ROOT
ATOM      1  C   UNL d   1       0.851  -0.611   0.396  0.00  0.00     0.078 C 
ATOM      2  C1  UNL d   1       0.163   0.671   0.759  0.00  0.00    -0.077 A 
ATOM      3  C2  UNL d   1      -0.878   1.179  -0.028  0.00  0.00    -0.001 A 
ATOM      4  C3  UNL d   1      -1.503   2.378   0.317  0.00  0.00     0.003 A 
ATOM      5  C4  UNL d   1      -1.093   3.081   1.448  0.00  0.00    -0.005 A 
ATOM      6  C5  UNL d   1      -0.057   2.585   2.236  0.00  0.00     0.003 A 
ATOM      7  C6  UNL d   1       0.569   1.386   1.893  0.00  0.00    -0.001 A 
ENDROOT
TORSDOF 0
ENDMDL
