MODEL 1
REMARK minimizedAffinity -0.844651997
REMARK minimizedRMSD -1
REMARK  0 active torsions:
REMARK  status: ('A' for Active; 'I' for Inactive)
ROOT
ATOM      1  C   UNL d   1       0.041   3.129   1.652  0.00  0.00     0.078 C 
ATOM      2  C1  UNL d   1       0.123   1.932   0.752  0.00  0.00    -0.077 A 
ATOM      3  C2  UNL d   1       0.410   0.661   1.266  0.00  0.00    -0.001 A 
ATOM      4  C3  UNL d   1       0.494  -0.442   0.415  0.00  0.00     0.003 A 
ATOM      5  C4  UNL d   1       0.292  -0.285  -0.955  0.00  0.00    -0.005 A 
ATOM      6  C5  UNL d   1       0.009   0.976  -1.476  0.00  0.00     0.003 A 
ATOM      7  C6  UNL d   1      -0.075   2.080  -0.626  0.00  0.00    -0.001 A 
ENDROOT
TORSDOF 0
ENDMDL
