MODEL 1
REMARK minimizedAffinity -3.65681934
REMARK minimizedRMSD -1
REMARK  0 active torsions:
REMARK  status: ('A' for Active; 'I' for Inactive)
ROOT
ATOM      1  C   UNL d   1      -1.134   2.614   1.929  0.00  0.00     0.078 C 
ATOM      2  C1  UNL d   1      -0.681   1.434   1.123  0.00  0.00    -0.077 A 
ATOM      3  C2  UNL d   1       0.140   0.449   1.686  0.00  0.00    -0.001 A 
ATOM      4  C3  UNL d   1       0.562  -0.640   0.921  0.00  0.00     0.003 A 
ATOM      5  C4  UNL d   1       0.169  -0.753  -0.411  0.00  0.00    -0.005 A 
ATOM      6  C5  UNL d   1      -0.647   0.223  -0.980  0.00  0.00     0.003 A 
ATOM      7  C6  UNL d   1      -1.069   1.312  -0.217  0.00  0.00    -0.001 A 
ENDROOT
TORSDOF 0
ENDMDL
