MODEL 1
REMARK minimizedAffinity -4.20764399
REMARK minimizedRMSD -1
REMARK  0 active torsions:
REMARK  status: ('A' for Active; 'I' for Inactive)
ROOT
ATOM      1  C   UNL d   1       0.449  -1.227  -0.831  0.00  0.00     0.078 C 
ATOM      2  C1  UNL d   1       0.116  -0.180   0.189  0.00  0.00    -0.077 A 
ATOM      3  C2  UNL d   1       0.704  -0.198   1.460  0.00  0.00    -0.001 A 
ATOM      4  C3  UNL d   1       0.377   0.778   2.403  0.00  0.00     0.003 A 
ATOM      5  C4  UNL d   1      -0.539   1.779   2.086  0.00  0.00    -0.005 A 
ATOM      6  C5  UNL d   1      -1.131   1.804   0.825  0.00  0.00     0.003 A 
ATOM      7  C6  UNL d   1      -0.805   0.829  -0.120  0.00  0.00    -0.001 A 
ENDROOT
TORSDOF 0
ENDMDL
