MODEL 1
REMARK minimizedAffinity -4.95806551
REMARK minimizedRMSD -1
REMARK  0 active torsions:
REMARK  status: ('A' for Active; 'I' for Inactive)
ROOT
ATOM      1  C   UNL d   1      -1.531   2.235   1.696  0.00  0.00     0.078 C 
ATOM      2  C1  UNL d   1      -0.695   1.396   0.776  0.00  0.00    -0.077 A 
ATOM      3  C2  UNL d   1      -0.710   1.609  -0.607  0.00  0.00    -0.001 A 
ATOM      4  C3  UNL d   1       0.066   0.814  -1.453  0.00  0.00     0.003 A 
ATOM      5  C4  UNL d   1       0.862  -0.199  -0.924  0.00  0.00    -0.005 A 
ATOM      6  C5  UNL d   1       0.883  -0.420   0.452  0.00  0.00     0.003 A 
ATOM      7  C6  UNL d   1       0.107   0.374   1.299  0.00  0.00    -0.001 A 
ENDROOT
TORSDOF 0
ENDMDL
