MODEL 1
REMARK minimizedAffinity -4.58205175
REMARK minimizedRMSD -1
REMARK  0 active torsions:
REMARK  status: ('A' for Active; 'I' for Inactive)
ROOT
ATOM      1  C   UNL d   1      -1.439   2.917   1.586  0.00  0.00     0.078 C 
ATOM      2  C1  UNL d   1      -0.661   1.863   0.856  0.00  0.00    -0.077 A 
ATOM      3  C2  UNL d   1      -0.430   1.962  -0.522  0.00  0.00    -0.001 A 
ATOM      4  C3  UNL d   1       0.287   0.968  -1.190  0.00  0.00     0.003 A 
ATOM      5  C4  UNL d   1       0.777  -0.132  -0.489  0.00  0.00    -0.005 A 
ATOM      6  C5  UNL d   1       0.550  -0.240   0.881  0.00  0.00     0.003 A 
ATOM      7  C6  UNL d   1      -0.166   0.752   1.551  0.00  0.00    -0.001 A 
ENDROOT
TORSDOF 0
ENDMDL
