MODEL 1
REMARK minimizedAffinity -3.13133192
REMARK minimizedRMSD -1
REMARK  0 active torsions:
REMARK  status: ('A' for Active; 'I' for Inactive)
ROOT
ATOM      1  C   UNL d   1       0.053  -0.198  -1.132  0.00  0.00     0.078 C 
ATOM      2  C1  UNL d   1       0.064  -1.687  -1.314  0.00  0.00    -0.077 A 
ATOM      3  C2  UNL d   1       0.136  -2.257  -2.591  0.00  0.00    -0.001 A 
ATOM      4  C3  UNL d   1       0.135  -3.644  -2.746  0.00  0.00     0.003 A 
ATOM      5  C4  UNL d   1       0.062  -4.473  -1.628  0.00  0.00    -0.005 A 
ATOM      6  C5  UNL d   1      -0.011  -3.915  -0.354  0.00  0.00     0.003 A 
ATOM      7  C6  UNL d   1      -0.011  -2.528  -0.197  0.00  0.00    -0.001 A 
ENDROOT
TORSDOF 0
ENDMDL
