MODEL 1
REMARK minimizedAffinity -4.71171188
REMARK minimizedRMSD -1
REMARK  0 active torsions:
REMARK  status: ('A' for Active; 'I' for Inactive)
ROOT
ATOM      1  C   UNL d   1      -1.179   3.356  -1.723  0.00  0.00     0.078 C 
ATOM      2  C1  UNL d   1      -0.819   2.911  -0.337  0.00  0.00    -0.077 A 
ATOM      3  C2  UNL d   1      -0.138   3.765   0.540  0.00  0.00    -0.001 A 
ATOM      4  C3  UNL d   1       0.200   3.334   1.824  0.00  0.00     0.003 A 
ATOM      5  C4  UNL d   1      -0.139   2.048   2.242  0.00  0.00    -0.005 A 
ATOM      6  C5  UNL d   1      -0.814   1.191   1.376  0.00  0.00     0.003 A 
ATOM      7  C6  UNL d   1      -1.153   1.620   0.091  0.00  0.00    -0.001 A 
ENDROOT
TORSDOF 0
ENDMDL
