MODEL 1
REMARK minimizedAffinity -5.00308704
REMARK minimizedRMSD -1
REMARK  0 active torsions:
REMARK  status: ('A' for Active; 'I' for Inactive)
ROOT
ATOM      1  C   UNL d   1      -1.514   2.022   1.699  0.00  0.00     0.078 C 
ATOM      2  C1  UNL d   1      -0.704   1.043   0.902  0.00  0.00    -0.077 A 
ATOM      3  C2  UNL d   1      -0.858   0.941  -0.486  0.00  0.00    -0.001 A 
ATOM      4  C3  UNL d   1      -0.104   0.019  -1.214  0.00  0.00     0.003 A 
ATOM      5  C4  UNL d   1       0.808  -0.808  -0.563  0.00  0.00    -0.005 A 
ATOM      6  C5  UNL d   1       0.967  -0.716   0.819  0.00  0.00     0.003 A 
ATOM      7  C6  UNL d   1       0.214   0.206   1.548  0.00  0.00    -0.001 A 
ENDROOT
TORSDOF 0
ENDMDL
