MODEL 1
REMARK minimizedAffinity -5.08188486
REMARK minimizedRMSD -1
REMARK  0 active torsions:
REMARK  status: ('A' for Active; 'I' for Inactive)
ROOT
ATOM      1  C   UNL d   1      -0.787   3.095  -2.131  0.00  0.00     0.078 C 
ATOM      2  C1  UNL d   1      -0.787   2.620  -0.709  0.00  0.00    -0.077 A 
ATOM      3  C2  UNL d   1      -1.274   3.432   0.323  0.00  0.00    -0.001 A 
ATOM      4  C3  UNL d   1      -1.259   2.981   1.643  0.00  0.00     0.003 A 
ATOM      5  C4  UNL d   1      -0.755   1.717   1.945  0.00  0.00    -0.005 A 
ATOM      6  C5  UNL d   1      -0.266   0.903   0.925  0.00  0.00     0.003 A 
ATOM      7  C6  UNL d   1      -0.280   1.353  -0.396  0.00  0.00    -0.001 A 
ENDROOT
TORSDOF 0
ENDMDL
