MODEL 1
REMARK minimizedAffinity -4.35397673
REMARK minimizedRMSD -1
REMARK  1 active torsions:
REMARK  status: ('A' for Active; 'I' for Inactive)
REMARK    1  A    between atoms: C1_2  and  C2_3 
ROOT
ATOM      1  C2  UNL d   1       0.214   0.139  -0.644  0.00  0.00    -0.081 A 
ATOM      2  C3  UNL d   1      -0.232   1.294  -1.298  0.00  0.00     0.006 A 
ATOM      3  C4  UNL d   1      -0.569   2.436  -0.567  0.00  0.00     0.002 A 
ATOM      4  C5  UNL d   1      -0.458   2.444   0.827  0.00  0.00    -0.080 A 
ATOM      5  C6  UNL d   1      -0.787   3.673   1.621  0.00  0.00     0.076 C 
ATOM      6  C7  UNL d   1      -0.029   1.285   1.482  0.00  0.00     0.002 A 
ATOM      7  C8  UNL d   1       0.308   0.143   0.752  0.00  0.00     0.006 A 
ENDROOT
BRANCH   1   8
ATOM      8  C1  UNL d   1       0.640  -1.073  -1.434  0.00  0.00     0.054 C 
ATOM      9  C   UNL d   1      -0.142  -2.309  -1.014  0.00  0.00     0.018 C 
ENDBRANCH   1   8
TORSDOF 1
ENDMDL
