MODEL 1
REMARK minimizedAffinity -5.16477394
REMARK minimizedRMSD -1
REMARK  1 active torsions:
REMARK  status: ('A' for Active; 'I' for Inactive)
REMARK    1  A    between atoms: C1_2  and  C2_3 
ROOT
ATOM      1  C2  UNL d   1       0.021  -0.760  -0.793  0.00  0.00    -0.081 A 
ATOM      2  C3  UNL d   1      -0.090  -0.709   0.602  0.00  0.00     0.006 A 
ATOM      3  C4  UNL d   1      -0.359   0.500   1.248  0.00  0.00     0.002 A 
ATOM      4  C5  UNL d   1      -0.528   1.676   0.510  0.00  0.00    -0.080 A 
ATOM      5  C6  UNL d   1      -0.847   2.975   1.189  0.00  0.00     0.076 C 
ATOM      6  C7  UNL d   1      -0.400   1.629  -0.882  0.00  0.00     0.002 A 
ATOM      7  C8  UNL d   1      -0.131   0.421  -1.529  0.00  0.00     0.006 A 
ENDROOT
BRANCH   1   8
ATOM      8  C1  UNL d   1       0.246  -2.073  -1.497  0.00  0.00     0.054 C 
ATOM      9  C   UNL d   1      -1.042  -2.597  -2.117  0.00  0.00     0.018 C 
ENDBRANCH   1   8
TORSDOF 1
ENDMDL
