MODEL 1
REMARK minimizedAffinity -5.04085159
REMARK minimizedRMSD -1
REMARK  1 active torsions:
REMARK  status: ('A' for Active; 'I' for Inactive)
REMARK    1  A    between atoms: C1_2  and  C2_3 
ROOT
ATOM      1  C2  UNL d   1       0.600  -0.304   0.071  0.00  0.00    -0.081 A 
ATOM      2  C3  UNL d   1      -0.233   0.471  -0.746  0.00  0.00     0.006 A 
ATOM      3  C4  UNL d   1      -0.767   1.673  -0.276  0.00  0.00     0.002 A 
ATOM      4  C5  UNL d   1      -0.470   2.125   1.015  0.00  0.00    -0.080 A 
ATOM      5  C6  UNL d   1      -1.012   3.429   1.520  0.00  0.00     0.076 C 
ATOM      6  C7  UNL d   1       0.348   1.343   1.837  0.00  0.00     0.002 A 
ATOM      7  C8  UNL d   1       0.881   0.140   1.368  0.00  0.00     0.006 A 
ENDROOT
BRANCH   1   8
ATOM      8  C1  UNL d   1       1.229  -1.568  -0.455  0.00  0.00     0.054 C 
ATOM      9  C   UNL d   1       0.191  -2.477  -1.097  0.00  0.00     0.018 C 
ENDBRANCH   1   8
TORSDOF 1
ENDMDL
