MODEL 1
REMARK minimizedAffinity -3.34719014
REMARK minimizedRMSD -1
REMARK  1 active torsions:
REMARK  status: ('A' for Active; 'I' for Inactive)
REMARK    1  A    between atoms: C1_2  and  C2_3 
ROOT
ATOM      1  C2  UNL d   1      -0.022  -0.041  -0.719  0.00  0.00    -0.081 A 
ATOM      2  C3  UNL d   1       0.317   0.074   0.634  0.00  0.00     0.006 A 
ATOM      3  C4  UNL d   1      -0.255   1.073   1.426  0.00  0.00     0.002 A 
ATOM      4  C5  UNL d   1      -1.181   1.968   0.879  0.00  0.00    -0.080 A 
ATOM      5  C6  UNL d   1      -1.825   3.025   1.725  0.00  0.00     0.076 C 
ATOM      6  C7  UNL d   1      -1.507   1.864  -0.477  0.00  0.00     0.002 A 
ATOM      7  C8  UNL d   1      -0.935   0.866  -1.269  0.00  0.00     0.006 A 
ENDROOT
BRANCH   1   8
ATOM      8  C1  UNL d   1       0.544  -1.157  -1.559  0.00  0.00     0.054 C 
ATOM      9  C   UNL d   1      -0.391  -2.358  -1.587  0.00  0.00     0.018 C 
ENDBRANCH   1   8
TORSDOF 1
ENDMDL
