MODEL 1
REMARK minimizedAffinity 0.415215462
REMARK minimizedRMSD -1
REMARK  1 active torsions:
REMARK  status: ('A' for Active; 'I' for Inactive)
REMARK    1  A    between atoms: C1_2  and  C2_3 
ROOT
ATOM      1  C2  UNL d   1      -0.006  -0.508  -0.378  0.00  0.00    -0.081 A 
ATOM      2  C3  UNL d   1       0.404  -0.225   0.931  0.00  0.00     0.006 A 
ATOM      3  C4  UNL d   1      -0.109   0.882   1.610  0.00  0.00     0.002 A 
ATOM      4  C5  UNL d   1      -1.047   1.719   0.996  0.00  0.00    -0.080 A 
ATOM      5  C6  UNL d   1      -1.629   2.893   1.726  0.00  0.00     0.076 C 
ATOM      6  C7  UNL d   1      -1.444   1.447  -0.317  0.00  0.00     0.002 A 
ATOM      7  C8  UNL d   1      -0.930   0.340  -0.997  0.00  0.00     0.006 A 
ENDROOT
BRANCH   1   8
ATOM      8  C1  UNL d   1       0.497  -1.738  -1.090  0.00  0.00     0.054 C 
ATOM      9  C   UNL d   1      -0.625  -2.440  -1.841  0.00  0.00     0.018 C 
ENDBRANCH   1   8
TORSDOF 1
ENDMDL
