MODEL 1
REMARK minimizedAffinity 10.7836666
REMARK minimizedRMSD -1
REMARK  2 active torsions:
REMARK  status: ('A' for Active; 'I' for Inactive)
REMARK    1  A    between atoms: C1_2  and  C2_3 
REMARK    2  A    between atoms: C2_3  and  C3_4 
ROOT
ATOM      1  C3  UNL d   1      -0.826   1.273  -0.827  0.00  0.00    -0.075 A 
ATOM      2  C4  UNL d   1       0.241   0.585  -1.422  0.00  0.00     0.002 A 
ATOM      3  C5  UNL d   1       0.052  -0.690  -1.957  0.00  0.00     0.002 A 
ATOM      4  C6  UNL d   1      -1.202  -1.295  -1.896  0.00  0.00    -0.004 A 
ATOM      5  C7  UNL d   1      -2.265  -0.627  -1.293  0.00  0.00     0.002 A 
ATOM      6  C8  UNL d   1      -2.079   0.650  -0.761  0.00  0.00     0.002 A 
ENDROOT
BRANCH   1   7
ATOM      7  C2  UNL d   1      -0.635   2.664  -0.272  0.00  0.00     0.056 C 
BRANCH   7   8
ATOM      8  C1  UNL d   1       0.153   2.709   1.042  0.00  0.00     0.007 C 
ATOM      9  C   UNL d   1      -0.681   2.317   2.254  0.00  0.00     0.009 C 
ENDBRANCH   7   8
ENDBRANCH   1   7
TORSDOF 2
ENDMDL
