MODEL 1
REMARK minimizedAffinity 3.9116621
REMARK minimizedRMSD -1
REMARK  2 active torsions:
REMARK  status: ('A' for Active; 'I' for Inactive)
REMARK    1  A    between atoms: C1_2  and  C2_3 
REMARK    2  A    between atoms: C2_3  and  C3_4 
ROOT
ATOM      1  C3  UNL d   1      -1.211   1.524  -0.685  0.00  0.00    -0.075 A 
ATOM      2  C4  UNL d   1      -2.577   1.253  -0.852  0.00  0.00     0.002 A 
ATOM      3  C5  UNL d   1      -2.998   0.031  -1.378  0.00  0.00     0.002 A 
ATOM      4  C6  UNL d   1      -2.061  -0.930  -1.752  0.00  0.00    -0.004 A 
ATOM      5  C7  UNL d   1      -0.701  -0.665  -1.606  0.00  0.00     0.002 A 
ATOM      6  C8  UNL d   1      -0.277   0.555  -1.076  0.00  0.00     0.002 A 
ENDROOT
BRANCH   1   7
ATOM      7  C2  UNL d   1      -0.750   2.832  -0.090  0.00  0.00     0.056 C 
BRANCH   7   8
ATOM      8  C1  UNL d   1      -0.438   3.915  -1.128  0.00  0.00     0.007 C 
ATOM      9  C   UNL d   1      -0.991   5.283  -0.754  0.00  0.00     0.009 C 
ENDBRANCH   7   8
ENDBRANCH   1   7
TORSDOF 2
ENDMDL
