MODEL 1
REMARK minimizedAffinity 11.5858469
REMARK minimizedRMSD -1
REMARK  2 active torsions:
REMARK  status: ('A' for Active; 'I' for Inactive)
REMARK    1  A    between atoms: C1_2  and  C2_3 
REMARK    2  A    between atoms: C2_3  and  C3_4 
ROOT
ATOM      1  C3  UNL d   1      -0.817   1.319  -0.630  0.00  0.00    -0.075 A 
ATOM      2  C4  UNL d   1       0.129   0.459  -1.208  0.00  0.00     0.002 A 
ATOM      3  C5  UNL d   1      -0.272  -0.740  -1.798  0.00  0.00     0.002 A 
ATOM      4  C6  UNL d   1      -1.617  -1.099  -1.809  0.00  0.00    -0.004 A 
ATOM      5  C7  UNL d   1      -2.563  -0.260  -1.223  0.00  0.00     0.002 A 
ATOM      6  C8  UNL d   1      -2.166   0.942  -0.636  0.00  0.00     0.002 A 
ENDROOT
BRANCH   1   7
ATOM      7  C2  UNL d   1      -0.394   2.633  -0.017  0.00  0.00     0.056 C 
BRANCH   7   8
ATOM      8  C1  UNL d   1      -0.388   3.807  -1.000  0.00  0.00     0.007 C 
ATOM      9  C   UNL d   1       0.174   5.090  -0.400  0.00  0.00     0.009 C 
ENDBRANCH   7   8
ENDBRANCH   1   7
TORSDOF 2
ENDMDL
