MODEL 1
REMARK minimizedAffinity 4.1907692
REMARK minimizedRMSD -1
REMARK  2 active torsions:
REMARK  status: ('A' for Active; 'I' for Inactive)
REMARK    1  A    between atoms: C1_2  and  C2_3 
REMARK    2  A    between atoms: C2_3  and  C3_4 
ROOT
ATOM      1  C3  UNL d   1       0.121   3.551   1.110  0.00  0.00    -0.075 A 
ATOM      2  C4  UNL d   1       1.440   3.573   1.588  0.00  0.00     0.002 A 
ATOM      3  C5  UNL d   1       1.789   2.861   2.736  0.00  0.00     0.002 A 
ATOM      4  C6  UNL d   1       0.825   2.128   3.425  0.00  0.00    -0.004 A 
ATOM      5  C7  UNL d   1      -0.491   2.112   2.968  0.00  0.00     0.002 A 
ATOM      6  C8  UNL d   1      -0.842   2.820   1.818  0.00  0.00     0.002 A 
ENDROOT
BRANCH   1   7
ATOM      7  C2  UNL d   1      -0.257   4.296  -0.148  0.00  0.00     0.056 C 
BRANCH   7   8
ATOM      8  C1  UNL d   1      -0.534   3.388  -1.351  0.00  0.00     0.007 C 
ATOM      9  C   UNL d   1      -0.585   1.909  -0.988  0.00  0.00     0.009 C 
ENDBRANCH   7   8
ENDBRANCH   1   7
TORSDOF 2
ENDMDL
