MODEL 1
REMARK minimizedAffinity 4.54854155
REMARK minimizedRMSD -1
REMARK  2 active torsions:
REMARK  status: ('A' for Active; 'I' for Inactive)
REMARK    1  A    between atoms: C1_2  and  C2_3 
REMARK    2  A    between atoms: C2_3  and  C3_4 
ROOT
ATOM      1  C3  UNL d   1      -0.964   2.443  -0.943  0.00  0.00    -0.075 A 
ATOM      2  C4  UNL d   1      -0.589   2.808   0.358  0.00  0.00     0.002 A 
ATOM      3  C5  UNL d   1      -0.321   4.140   0.671  0.00  0.00     0.002 A 
ATOM      4  C6  UNL d   1      -0.414   5.123  -0.312  0.00  0.00    -0.004 A 
ATOM      5  C7  UNL d   1      -0.770   4.770  -1.612  0.00  0.00     0.002 A 
ATOM      6  C8  UNL d   1      -1.043   3.438  -1.928  0.00  0.00     0.002 A 
ENDROOT
BRANCH   1   7
ATOM      7  C2  UNL d   1      -1.284   1.007  -1.282  0.00  0.00     0.056 C 
BRANCH   7   8
ATOM      8  C1  UNL d   1      -2.760   0.757  -1.609  0.00  0.00     0.007 C 
ATOM      9  C   UNL d   1      -3.304  -0.523  -0.990  0.00  0.00     0.009 C 
ENDBRANCH   7   8
ENDBRANCH   1   7
TORSDOF 2
ENDMDL
