MODEL 1
REMARK minimizedAffinity 2.58656907
REMARK minimizedRMSD -1
REMARK  2 active torsions:
REMARK  status: ('A' for Active; 'I' for Inactive)
REMARK    1  A    between atoms: C1_2  and  C2_3 
REMARK    2  A    between atoms: C2_3  and  C3_4 
ROOT
ATOM      1  C3  UNL d   1      -0.853   1.337  -0.652  0.00  0.00    -0.075 A 
ATOM      2  C4  UNL d   1      -2.200   0.949  -0.673  0.00  0.00     0.002 A 
ATOM      3  C5  UNL d   1      -2.562  -0.330  -1.095  0.00  0.00     0.002 A 
ATOM      4  C6  UNL d   1      -1.585  -1.233  -1.510  0.00  0.00    -0.004 A 
ATOM      5  C7  UNL d   1      -0.245  -0.852  -1.508  0.00  0.00     0.002 A 
ATOM      6  C8  UNL d   1       0.121   0.426  -1.082  0.00  0.00     0.002 A 
ENDROOT
BRANCH   1   7
ATOM      7  C2  UNL d   1      -0.452   2.711  -0.168  0.00  0.00     0.056 C 
BRANCH   7   8
ATOM      8  C1  UNL d   1      -0.599   3.811  -1.224  0.00  0.00     0.007 C 
ATOM      9  C   UNL d   1      -0.683   5.209  -0.626  0.00  0.00     0.009 C 
ENDBRANCH   7   8
ENDBRANCH   1   7
TORSDOF 2
ENDMDL
