MODEL 1
REMARK minimizedAffinity 4.02113962
REMARK minimizedRMSD -1
REMARK  2 active torsions:
REMARK  status: ('A' for Active; 'I' for Inactive)
REMARK    1  A    between atoms: C1_2  and  C2_3 
REMARK    2  A    between atoms: C2_3  and  C3_4 
ROOT
ATOM      1  C3  UNL d   1      -1.506  -1.204  -2.440  0.00  0.00    -0.075 A 
ATOM      2  C4  UNL d   1      -0.968  -1.423  -3.716  0.00  0.00     0.002 A 
ATOM      3  C5  UNL d   1       0.409  -1.346  -3.928  0.00  0.00     0.002 A 
ATOM      4  C6  UNL d   1       1.263  -1.041  -2.870  0.00  0.00    -0.004 A 
ATOM      5  C7  UNL d   1       0.738  -0.805  -1.601  0.00  0.00     0.002 A 
ATOM      6  C8  UNL d   1      -0.639  -0.885  -1.386  0.00  0.00     0.002 A 
ENDROOT
BRANCH   1   7
ATOM      7  C2  UNL d   1      -2.992  -1.314  -2.198  0.00  0.00     0.056 C 
BRANCH   7   8
ATOM      8  C1  UNL d   1      -3.468  -0.629  -0.913  0.00  0.00     0.007 C 
ATOM      9  C   UNL d   1      -4.520   0.445  -1.159  0.00  0.00     0.009 C 
ENDBRANCH   7   8
ENDBRANCH   1   7
TORSDOF 2
ENDMDL
