MODEL 1
REMARK minimizedAffinity 9.87358952
REMARK minimizedRMSD -1
REMARK  2 active torsions:
REMARK  status: ('A' for Active; 'I' for Inactive)
REMARK    1  A    between atoms: C1_2  and  C2_3 
REMARK    2  A    between atoms: C2_3  and  C3_4 
ROOT
ATOM      1  C3  UNL d   1       0.057   3.548   1.050  0.00  0.00    -0.075 A 
ATOM      2  C4  UNL d   1       1.293   3.317   1.671  0.00  0.00     0.002 A 
ATOM      3  C5  UNL d   1       1.357   2.650   2.895  0.00  0.00     0.002 A 
ATOM      4  C6  UNL d   1       0.189   2.216   3.517  0.00  0.00    -0.004 A 
ATOM      5  C7  UNL d   1      -1.045   2.454   2.917  0.00  0.00     0.002 A 
ATOM      6  C8  UNL d   1      -1.112   3.118   1.691  0.00  0.00     0.002 A 
ENDROOT
BRANCH   1   7
ATOM      7  C2  UNL d   1      -0.017   4.243  -0.288  0.00  0.00     0.056 C 
BRANCH   7   8
ATOM      8  C1  UNL d   1      -0.486   3.341  -1.435  0.00  0.00     0.007 C 
ATOM      9  C   UNL d   1      -0.717   1.898  -1.007  0.00  0.00     0.009 C 
ENDBRANCH   7   8
ENDBRANCH   1   7
TORSDOF 2
ENDMDL
