MODEL 1
REMARK minimizedAffinity 5.19959307
REMARK minimizedRMSD -1
REMARK  2 active torsions:
REMARK  status: ('A' for Active; 'I' for Inactive)
REMARK    1  A    between atoms: C1_2  and  C2_3 
REMARK    2  A    between atoms: C2_3  and  C3_4 
ROOT
ATOM      1  C3  UNL d   1       0.335   1.542   1.986  0.00  0.00    -0.075 A 
ATOM      2  C4  UNL d   1       1.508   0.843   1.662  0.00  0.00     0.002 A 
ATOM      3  C5  UNL d   1       1.877  -0.293   2.382  0.00  0.00     0.002 A 
ATOM      4  C6  UNL d   1       1.086  -0.740   3.439  0.00  0.00    -0.004 A 
ATOM      5  C7  UNL d   1      -0.072  -0.044   3.780  0.00  0.00     0.002 A 
ATOM      6  C8  UNL d   1      -0.446   1.091   3.059  0.00  0.00     0.002 A 
ENDROOT
BRANCH   1   7
ATOM      7  C2  UNL d   1      -0.085   2.756   1.192  0.00  0.00     0.056 C 
BRANCH   7   8
ATOM      8  C1  UNL d   1      -1.171   2.473   0.149  0.00  0.00     0.007 C 
ATOM      9  C   UNL d   1      -0.689   2.654  -1.284  0.00  0.00     0.009 C 
ENDBRANCH   7   8
ENDBRANCH   1   7
TORSDOF 2
ENDMDL
