MODEL 1
REMARK minimizedAffinity 6.76824331
REMARK minimizedRMSD -1
REMARK  2 active torsions:
REMARK  status: ('A' for Active; 'I' for Inactive)
REMARK    1  A    between atoms: C1_2  and  C2_3 
REMARK    2  A    between atoms: C2_3  and  C3_4 
ROOT
ATOM      1  C3  UNL d   1       1.523   0.040   2.253  0.00  0.00    -0.075 A 
ATOM      2  C4  UNL d   1       1.468  -0.106   0.860  0.00  0.00     0.002 A 
ATOM      3  C5  UNL d   1       0.847   0.861   0.069  0.00  0.00     0.002 A 
ATOM      4  C6  UNL d   1       0.264   1.979   0.662  0.00  0.00    -0.004 A 
ATOM      5  C7  UNL d   1       0.297   2.127   2.047  0.00  0.00     0.002 A 
ATOM      6  C8  UNL d   1       0.923   1.163   2.839  0.00  0.00     0.002 A 
ENDROOT
BRANCH   1   7
ATOM      7  C2  UNL d   1       2.220  -0.988   3.111  0.00  0.00     0.056 C 
BRANCH   7   8
ATOM      8  C1  UNL d   1       3.749  -0.932   3.033  0.00  0.00     0.007 C 
ATOM      9  C   UNL d   1       4.435  -1.878   4.010  0.00  0.00     0.009 C 
ENDBRANCH   7   8
ENDBRANCH   1   7
TORSDOF 2
ENDMDL
