MODEL 1
REMARK minimizedAffinity 6.36343908
REMARK minimizedRMSD -1
REMARK  2 active torsions:
REMARK  status: ('A' for Active; 'I' for Inactive)
REMARK    1  A    between atoms: C1_2  and  C2_3 
REMARK    2  A    between atoms: C2_3  and  C3_4 
ROOT
ATOM      1  C3  UNL d   1       0.414   3.082   2.255  0.00  0.00    -0.075 A 
ATOM      2  C4  UNL d   1       0.863   1.918   1.616  0.00  0.00     0.002 A 
ATOM      3  C5  UNL d   1      -0.037   1.080   0.956  0.00  0.00     0.002 A 
ATOM      4  C6  UNL d   1      -1.395   1.389   0.937  0.00  0.00    -0.004 A 
ATOM      5  C7  UNL d   1      -1.854   2.535   1.583  0.00  0.00     0.002 A 
ATOM      6  C8  UNL d   1      -0.955   3.378   2.239  0.00  0.00     0.002 A 
ENDROOT
BRANCH   1   7
ATOM      7  C2  UNL d   1       1.387   4.009   2.945  0.00  0.00     0.056 C 
BRANCH   7   8
ATOM      8  C1  UNL d   1       2.231   4.854   1.986  0.00  0.00     0.007 C 
ATOM      9  C   UNL d   1       1.504   5.201   0.693  0.00  0.00     0.009 C 
ENDBRANCH   7   8
ENDBRANCH   1   7
TORSDOF 2
ENDMDL
