MODEL 1
REMARK minimizedAffinity 4.93879986
REMARK minimizedRMSD -1
REMARK  2 active torsions:
REMARK  status: ('A' for Active; 'I' for Inactive)
REMARK    1  A    between atoms: C1_2  and  C2_3 
REMARK    2  A    between atoms: C2_3  and  C3_4 
ROOT
ATOM      1  C3  UNL d   1       3.526  -4.474  -1.964  0.00  0.00    -0.075 A 
ATOM      2  C4  UNL d   1       4.285  -3.777  -1.013  0.00  0.00     0.002 A 
ATOM      3  C5  UNL d   1       5.412  -3.051  -1.399  0.00  0.00     0.002 A 
ATOM      4  C6  UNL d   1       5.800  -3.022  -2.737  0.00  0.00    -0.004 A 
ATOM      5  C7  UNL d   1       5.064  -3.725  -3.688  0.00  0.00     0.002 A 
ATOM      6  C8  UNL d   1       3.933  -4.448  -3.305  0.00  0.00     0.002 A 
ENDROOT
BRANCH   1   7
ATOM      7  C2  UNL d   1       2.288  -5.237  -1.557  0.00  0.00     0.056 C 
BRANCH   7   8
ATOM      8  C1  UNL d   1       1.250  -4.390  -0.814  0.00  0.00     0.007 C 
ATOM      9  C   UNL d   1      -0.186  -4.789  -1.129  0.00  0.00     0.009 C 
ENDBRANCH   7   8
ENDBRANCH   1   7
TORSDOF 2
ENDMDL
