MODEL 1
REMARK minimizedAffinity 1.32278562
REMARK minimizedRMSD -1
REMARK  2 active torsions:
REMARK  status: ('A' for Active; 'I' for Inactive)
REMARK    1  A    between atoms: C1_2  and  C2_3 
REMARK    2  A    between atoms: C2_3  and  C3_4 
ROOT
ATOM      1  C3  UNL d   1       0.234   1.285   2.290  0.00  0.00    -0.075 A 
ATOM      2  C4  UNL d   1       0.028   0.776   3.581  0.00  0.00     0.002 A 
ATOM      3  C5  UNL d   1       0.323  -0.556   3.873  0.00  0.00     0.002 A 
ATOM      4  C6  UNL d   1       0.817  -1.397   2.878  0.00  0.00    -0.004 A 
ATOM      5  C7  UNL d   1       1.010  -0.906   1.588  0.00  0.00     0.002 A 
ATOM      6  C8  UNL d   1       0.719   0.427   1.295  0.00  0.00     0.002 A 
ENDROOT
BRANCH   1   7
ATOM      7  C2  UNL d   1      -0.056   2.733   1.976  0.00  0.00     0.056 C 
BRANCH   7   8
ATOM      8  C1  UNL d   1       1.190   3.560   1.640  0.00  0.00     0.007 C 
ATOM      9  C   UNL d   1       2.214   3.588   2.767  0.00  0.00     0.009 C 
ENDBRANCH   7   8
ENDBRANCH   1   7
TORSDOF 2
ENDMDL
