MODEL 1
REMARK minimizedAffinity 4.14951563
REMARK minimizedRMSD -1
REMARK  0 active torsions:
REMARK  status: ('A' for Active; 'I' for Inactive)
ROOT
ATOM      1  C   UNL d   1       0.490   1.562   1.881  0.00  0.00     0.023 A 
ATOM      2  C1  UNL d   1       0.069   2.602   1.052  0.00  0.00     0.003 A 
ATOM      3  C2  UNL d   1       0.143   2.463  -0.336  0.00  0.00     0.048 A 
ATOM      4  C3  UNL d   1       0.637   1.281  -0.887  0.00  0.00     0.023 A 
ATOM      5  C4  UNL d   1       1.058   0.238  -0.061  0.00  0.00     0.048 A 
ATOM      6  C5  UNL d   1       0.984   0.382   1.326  0.00  0.00     0.003 A 
ATOM      7  I   UNL d   1       0.747   1.072  -2.952  0.00  0.00    -0.146 I 
ENDROOT
TORSDOF 0
ENDMDL
