MODEL 1
REMARK minimizedAffinity 3.60801864
REMARK minimizedRMSD -1
REMARK  0 active torsions:
REMARK  status: ('A' for Active; 'I' for Inactive)
ROOT
ATOM      1  C   UNL d   1      -6.000   2.789  -5.203  0.00  0.00     0.023 A 
ATOM      2  C1  UNL d   1      -5.807   3.999  -5.869  0.00  0.00     0.003 A 
ATOM      3  C2  UNL d   1      -4.521   4.528  -5.999  0.00  0.00     0.048 A 
ATOM      4  C3  UNL d   1      -3.433   3.841  -5.462  0.00  0.00     0.023 A 
ATOM      5  C4  UNL d   1      -3.621   2.629  -4.796  0.00  0.00     0.048 A 
ATOM      6  C5  UNL d   1      -4.908   2.105  -4.668  0.00  0.00     0.003 A 
ATOM      7  I   UNL d   1      -1.518   4.627  -5.655  0.00  0.00    -0.146 I 
ENDROOT
TORSDOF 0
ENDMDL
