MODEL 1
REMARK minimizedAffinity 0.709316254
REMARK minimizedRMSD -1
REMARK  0 active torsions:
REMARK  status: ('A' for Active; 'I' for Inactive)
ROOT
ATOM      1  C   UNL d   1      -1.320   3.123  -4.123  0.00  0.00     0.023 A 
ATOM      2  C1  UNL d   1      -1.863   4.164  -4.875  0.00  0.00     0.003 A 
ATOM      3  C2  UNL d   1      -3.206   4.125  -5.255  0.00  0.00     0.048 A 
ATOM      4  C3  UNL d   1      -4.000   3.042  -4.878  0.00  0.00     0.023 A 
ATOM      5  C4  UNL d   1      -3.461   1.999  -4.124  0.00  0.00     0.048 A 
ATOM      6  C5  UNL d   1      -2.117   2.042  -3.748  0.00  0.00     0.003 A 
ATOM      7  I   UNL d   1      -6.000   2.982  -5.442  0.00  0.00    -0.146 I 
ENDROOT
TORSDOF 0
ENDMDL
