MODEL 1
REMARK minimizedAffinity 1.63093042
REMARK minimizedRMSD -1
REMARK  0 active torsions:
REMARK  status: ('A' for Active; 'I' for Inactive)
ROOT
ATOM      1  C   UNL d   1      -6.000   1.892  -6.000  0.00  0.00     0.023 A 
ATOM      2  C1  UNL d   1      -5.304   3.074  -5.744  0.00  0.00     0.003 A 
ATOM      3  C2  UNL d   1      -4.552   3.204  -4.575  0.00  0.00     0.048 A 
ATOM      4  C3  UNL d   1      -4.500   2.148  -3.666  0.00  0.00     0.023 A 
ATOM      5  C4  UNL d   1      -5.194   0.964  -3.917  0.00  0.00     0.048 A 
ATOM      6  C5  UNL d   1      -5.945   0.839  -5.088  0.00  0.00     0.003 A 
ATOM      7  I   UNL d   1      -3.381   2.339  -1.924  0.00  0.00    -0.146 I 
ENDROOT
TORSDOF 0
ENDMDL
