MODEL 1
REMARK minimizedAffinity 9.36542511
REMARK minimizedRMSD -1
REMARK  0 active torsions:
REMARK  status: ('A' for Active; 'I' for Inactive)
ROOT
ATOM      1  C   UNL d   1      -0.245  -0.301  -0.517  0.00  0.00     0.023 A 
ATOM      2  C1  UNL d   1      -0.782   0.921  -0.922  0.00  0.00     0.003 A 
ATOM      3  C2  UNL d   1      -0.555   2.071  -0.162  0.00  0.00     0.048 A 
ATOM      4  C3  UNL d   1       0.210   1.991   1.001  0.00  0.00     0.023 A 
ATOM      5  C4  UNL d   1       0.749   0.770   1.410  0.00  0.00     0.048 A 
ATOM      6  C5  UNL d   1       0.519  -0.376   0.648  0.00  0.00     0.003 A 
ATOM      7  I   UNL d   1       0.548   3.701   2.134  0.00  0.00    -0.146 I 
ENDROOT
TORSDOF 0
ENDMDL
