MODEL 1
REMARK minimizedAffinity 6.43758011
REMARK minimizedRMSD -1
REMARK  0 active torsions:
REMARK  status: ('A' for Active; 'I' for Inactive)
ROOT
ATOM      1  C   UNL d   1      -0.151   1.849   1.739  0.00  0.00     0.023 A 
ATOM      2  C1  UNL d   1       0.240   2.879   0.882  0.00  0.00     0.003 A 
ATOM      3  C2  UNL d   1       0.534   2.603  -0.455  0.00  0.00     0.048 A 
ATOM      4  C3  UNL d   1       0.433   1.295  -0.929  0.00  0.00     0.023 A 
ATOM      5  C4  UNL d   1       0.040   0.262  -0.076  0.00  0.00     0.048 A 
ATOM      6  C5  UNL d   1      -0.251   0.543   1.260  0.00  0.00     0.003 A 
ATOM      7  I   UNL d   1       0.868   0.882  -2.919  0.00  0.00    -0.146 I 
ENDROOT
TORSDOF 0
ENDMDL
