MODEL 1
REMARK minimizedAffinity 9.91070557
REMARK minimizedRMSD -1
REMARK  0 active torsions:
REMARK  status: ('A' for Active; 'I' for Inactive)
ROOT
ATOM      1  C   UNL d   1      -4.663   3.762  -5.249  0.00  0.00     0.023 A 
ATOM      2  C1  UNL d   1      -4.092   3.181  -4.117  0.00  0.00     0.003 A 
ATOM      3  C2  UNL d   1      -4.474   1.897  -3.721  0.00  0.00     0.048 A 
ATOM      4  C3  UNL d   1      -5.426   1.200  -4.463  0.00  0.00     0.023 A 
ATOM      5  C4  UNL d   1      -5.999   1.777  -5.598  0.00  0.00     0.048 A 
ATOM      6  C5  UNL d   1      -5.615   3.061  -5.989  0.00  0.00     0.003 A 
ATOM      7  I   UNL d   1      -5.996  -0.711  -3.877  0.00  0.00    -0.146 I 
ENDROOT
TORSDOF 0
ENDMDL
