MODEL 1
REMARK minimizedAffinity 4.85941505
REMARK minimizedRMSD -1
REMARK  0 active torsions:
REMARK  status: ('A' for Active; 'I' for Inactive)
ROOT
ATOM      1  C   UNL d   1      -0.021   1.038   1.374  0.00  0.00     0.023 A 
ATOM      2  C1  UNL d   1      -0.180   1.390   0.033  0.00  0.00     0.003 A 
ATOM      3  C2  UNL d   1       0.145   2.678  -0.395  0.00  0.00     0.048 A 
ATOM      4  C3  UNL d   1       0.630   3.610   0.522  0.00  0.00     0.023 A 
ATOM      5  C4  UNL d   1       0.791   3.263   1.864  0.00  0.00     0.048 A 
ATOM      6  C5  UNL d   1       0.464   1.974   2.288  0.00  0.00     0.003 A 
ATOM      7  I   UNL d   1       1.114   5.529  -0.114  0.00  0.00    -0.146 I 
ENDROOT
TORSDOF 0
ENDMDL
