MODEL 1
REMARK minimizedAffinity 6.42267227
REMARK minimizedRMSD -1
REMARK  0 active torsions:
REMARK  status: ('A' for Active; 'I' for Inactive)
ROOT
ATOM      1  C   UNL d   1      -0.006   1.253   1.517  0.00  0.00     0.023 A 
ATOM      2  C1  UNL d   1      -1.035   1.488   0.604  0.00  0.00     0.003 A 
ATOM      3  C2  UNL d   1      -0.832   1.245  -0.756  0.00  0.00     0.048 A 
ATOM      4  C3  UNL d   1       0.401   0.765  -1.196  0.00  0.00     0.023 A 
ATOM      5  C4  UNL d   1       1.433   0.528  -0.286  0.00  0.00     0.048 A 
ATOM      6  C5  UNL d   1       1.226   0.774   1.072  0.00  0.00     0.003 A 
ATOM      7  I   UNL d   1       0.704   0.401  -3.220  0.00  0.00    -0.146 I 
ENDROOT
TORSDOF 0
ENDMDL
