MODEL 1
REMARK minimizedAffinity 0.927247047
REMARK minimizedRMSD -1
REMARK  0 active torsions:
REMARK  status: ('A' for Active; 'I' for Inactive)
ROOT
ATOM      1  C   UNL d   1      -5.999   2.287  -5.245  0.00  0.00     0.023 A 
ATOM      2  C1  UNL d   1      -4.949   1.761  -4.492  0.00  0.00     0.003 A 
ATOM      3  C2  UNL d   1      -3.703   2.392  -4.492  0.00  0.00     0.048 A 
ATOM      4  C3  UNL d   1      -3.515   3.550  -5.246  0.00  0.00     0.023 A 
ATOM      5  C4  UNL d   1      -4.562   4.081  -6.000  0.00  0.00     0.048 A 
ATOM      6  C5  UNL d   1      -5.806   3.446  -5.998  0.00  0.00     0.003 A 
ATOM      7  I   UNL d   1      -1.662   4.492  -5.246  0.00  0.00    -0.146 I 
ENDROOT
TORSDOF 0
ENDMDL
