MODEL 1
REMARK minimizedAffinity 7.29757118
REMARK minimizedRMSD -1
REMARK  0 active torsions:
REMARK  status: ('A' for Active; 'I' for Inactive)
ROOT
ATOM      1  C   UNL d   1       0.040   1.087   1.186  0.00  0.00     0.023 A 
ATOM      2  C1  UNL d   1       0.285  -0.162   0.615  0.00  0.00     0.003 A 
ATOM      3  C2  UNL d   1       0.509  -0.272  -0.759  0.00  0.00     0.048 A 
ATOM      4  C3  UNL d   1       0.488   0.872  -1.556  0.00  0.00     0.023 A 
ATOM      5  C4  UNL d   1       0.244   2.124  -0.989  0.00  0.00     0.048 A 
ATOM      6  C5  UNL d   1       0.020   2.229   0.385  0.00  0.00     0.003 A 
ATOM      7  I   UNL d   1       0.821   0.712  -3.601  0.00  0.00    -0.146 I 
ENDROOT
TORSDOF 0
ENDMDL
