MODEL 1
REMARK minimizedAffinity -2.90767169
REMARK minimizedRMSD -1
REMARK  0 active torsions:
REMARK  status: ('A' for Active; 'I' for Inactive)
ROOT
ATOM      1  C   UNL d   1      -5.988   0.917  -4.443  0.00  0.00     0.023 A 
ATOM      2  C1  UNL d   1      -6.000   2.147  -3.784  0.00  0.00     0.003 A 
ATOM      3  C2  UNL d   1      -5.182   3.187  -4.229  0.00  0.00     0.048 A 
ATOM      4  C3  UNL d   1      -4.355   2.991  -5.335  0.00  0.00     0.023 A 
ATOM      5  C4  UNL d   1      -4.340   1.763  -5.998  0.00  0.00     0.048 A 
ATOM      6  C5  UNL d   1      -5.160   0.726  -5.548  0.00  0.00     0.003 A 
ATOM      7  I   UNL d   1      -3.136   4.538  -6.000  0.00  0.00    -0.146 I 
ENDROOT
TORSDOF 0
ENDMDL
