MODEL 1
REMARK minimizedAffinity 2.04873753
REMARK minimizedRMSD -1
REMARK  0 active torsions:
REMARK  status: ('A' for Active; 'I' for Inactive)
ROOT
ATOM      1  C   UNL d   1      -6.000   3.213  -6.000  0.00  0.00     0.023 A 
ATOM      2  C1  UNL d   1      -5.418   4.271  -5.301  0.00  0.00     0.003 A 
ATOM      3  C2  UNL d   1      -4.474   4.015  -4.304  0.00  0.00     0.048 A 
ATOM      4  C3  UNL d   1      -4.115   2.700  -4.012  0.00  0.00     0.023 A 
ATOM      5  C4  UNL d   1      -4.694   1.638  -4.710  0.00  0.00     0.048 A 
ATOM      6  C5  UNL d   1      -5.638   1.898  -5.705  0.00  0.00     0.003 A 
ATOM      7  I   UNL d   1      -2.710   2.317  -2.530  0.00  0.00    -0.146 I 
ENDROOT
TORSDOF 0
ENDMDL
