MODEL 1
REMARK minimizedAffinity 4.5137825
REMARK minimizedRMSD -1
REMARK  0 active torsions:
REMARK  status: ('A' for Active; 'I' for Inactive)
ROOT
ATOM      1  C   UNL d   1      -4.591   4.451  -4.955  0.00  0.00     0.023 A 
ATOM      2  C1  UNL d   1      -5.595   4.101  -5.859  0.00  0.00     0.003 A 
ATOM      3  C2  UNL d   1      -6.000   2.770  -5.974  0.00  0.00     0.048 A 
ATOM      4  C3  UNL d   1      -5.397   1.793  -5.182  0.00  0.00     0.023 A 
ATOM      5  C4  UNL d   1      -4.394   2.138  -4.276  0.00  0.00     0.048 A 
ATOM      6  C5  UNL d   1      -3.991   3.470  -4.164  0.00  0.00     0.003 A 
ATOM      7  I   UNL d   1      -5.998  -0.189  -5.352  0.00  0.00    -0.146 I 
ENDROOT
TORSDOF 0
ENDMDL
