MODEL 1
REMARK minimizedAffinity 3.02050066
REMARK minimizedRMSD -1
REMARK  0 active torsions:
REMARK  status: ('A' for Active; 'I' for Inactive)
ROOT
ATOM      1  C   UNL d   1      -6.000   1.680  -5.475  0.00  0.00     0.023 A 
ATOM      2  C1  UNL d   1      -5.995   2.972  -6.000  0.00  0.00     0.003 A 
ATOM      3  C2  UNL d   1      -4.831   3.742  -5.951  0.00  0.00     0.048 A 
ATOM      4  C3  UNL d   1      -3.676   3.214  -5.376  0.00  0.00     0.023 A 
ATOM      5  C4  UNL d   1      -3.676   1.921  -4.850  0.00  0.00     0.048 A 
ATOM      6  C5  UNL d   1      -4.842   1.155  -4.901  0.00  0.00     0.003 A 
ATOM      7  I   UNL d   1      -1.943   4.358  -5.303  0.00  0.00    -0.146 I 
ENDROOT
TORSDOF 0
ENDMDL
