MODEL 1
REMARK minimizedAffinity 4.79930067
REMARK minimizedRMSD -1
REMARK  0 active torsions:
REMARK  status: ('A' for Active; 'I' for Inactive)
ROOT
ATOM      1  C   UNL d   1      -4.665   4.308  -5.234  0.00  0.00     0.023 A 
ATOM      2  C1  UNL d   1      -5.616   3.632  -5.999  0.00  0.00     0.003 A 
ATOM      3  C2  UNL d   1      -5.999   2.335  -5.651  0.00  0.00     0.048 A 
ATOM      4  C3  UNL d   1      -5.429   1.721  -4.537  0.00  0.00     0.023 A 
ATOM      5  C4  UNL d   1      -4.478   2.394  -3.768  0.00  0.00     0.048 A 
ATOM      6  C5  UNL d   1      -4.097   3.690  -4.120  0.00  0.00     0.003 A 
ATOM      7  I   UNL d   1      -5.999  -0.209  -4.018  0.00  0.00    -0.146 I 
ENDROOT
TORSDOF 0
ENDMDL
