MODEL 1
REMARK minimizedAffinity 4.2357111
REMARK minimizedRMSD -1
REMARK  0 active torsions:
REMARK  status: ('A' for Active; 'I' for Inactive)
ROOT
ATOM      1  C   UNL d   1       0.370   2.167   0.278  0.00  0.00     0.023 A 
ATOM      2  C1  UNL d   1      -0.087   1.231   1.205  0.00  0.00     0.003 A 
ATOM      3  C2  UNL d   1      -0.102  -0.127   0.879  0.00  0.00     0.048 A 
ATOM      4  C3  UNL d   1       0.342  -0.541  -0.376  0.00  0.00     0.023 A 
ATOM      5  C4  UNL d   1       0.801   0.392  -1.307  0.00  0.00     0.048 A 
ATOM      6  C5  UNL d   1       0.814   1.749  -0.977  0.00  0.00     0.003 A 
ATOM      7  I   UNL d   1       0.321  -2.561  -0.864  0.00  0.00    -0.146 I 
ENDROOT
TORSDOF 0
ENDMDL
