MODEL 1
REMARK minimizedAffinity -2.5048635
REMARK minimizedRMSD -1
REMARK  0 active torsions:
REMARK  status: ('A' for Active; 'I' for Inactive)
ROOT
ATOM      1  C   UNL d   1      -1.109  -0.083   0.652  0.00  0.00     0.172 C 
ATOM      2  N   UNL d   1      -0.411  -0.747   1.728  0.00  0.00    -0.070 N 
ATOM      3  C1  UNL d   1       0.560  -0.188   2.515  0.00  0.00    -0.004 A 
ATOM      4  C2  UNL d   1       0.971  -1.142   3.420  0.00  0.00    -0.047 A 
ATOM      5  C3  UNL d   1       0.221  -2.316   3.168  0.00  0.00    -0.047 A 
ATOM      6  C4  UNL d   1      -0.627  -2.043   2.116  0.00  0.00    -0.004 A 
ENDROOT
TORSDOF 0
ENDMDL
