MODEL 1
REMARK minimizedAffinity -3.56513309
REMARK minimizedRMSD -1
REMARK  0 active torsions:
REMARK  status: ('A' for Active; 'I' for Inactive)
ROOT
ATOM      1  C   UNL d   1      -1.928  -0.523   0.692  0.00  0.00     0.172 C 
ATOM      2  N   UNL d   1      -0.635  -0.469   1.332  0.00  0.00    -0.070 N 
ATOM      3  C1  UNL d   1       0.460   0.208   0.864  0.00  0.00    -0.004 A 
ATOM      4  C2  UNL d   1       1.491   0.013   1.757  0.00  0.00    -0.047 A 
ATOM      5  C3  UNL d   1       0.999  -0.811   2.798  0.00  0.00    -0.047 A 
ATOM      6  C4  UNL d   1      -0.319  -1.094   2.509  0.00  0.00    -0.004 A 
ENDROOT
TORSDOF 0
ENDMDL
