MODEL 1
REMARK minimizedAffinity -3.92715025
REMARK minimizedRMSD -1
REMARK  0 active torsions:
REMARK  status: ('A' for Active; 'I' for Inactive)
ROOT
ATOM      1  C   UNL d   1      -0.020   0.434   0.367  0.00  0.00     0.172 C 
ATOM      2  N   UNL d   1       0.857  -0.443   1.105  0.00  0.00    -0.070 N 
ATOM      3  C1  UNL d   1       1.959  -1.081   0.600  0.00  0.00    -0.004 A 
ATOM      4  C2  UNL d   1       2.522  -1.820   1.618  0.00  0.00    -0.047 A 
ATOM      5  C3  UNL d   1       1.731  -1.620   2.774  0.00  0.00    -0.047 A 
ATOM      6  C4  UNL d   1       0.707  -0.764   2.429  0.00  0.00    -0.004 A 
ENDROOT
TORSDOF 0
ENDMDL
