MODEL 1
REMARK minimizedAffinity -3.12961078
REMARK minimizedRMSD -1
REMARK  0 active torsions:
REMARK  status: ('A' for Active; 'I' for Inactive)
ROOT
ATOM      1  C   UNL d   1      -0.456   0.421  -0.873  0.00  0.00     0.172 C 
ATOM      2  N   UNL d   1      -0.186   0.062   0.500  0.00  0.00    -0.070 N 
ATOM      3  C1  UNL d   1      -1.076   0.149   1.537  0.00  0.00    -0.004 A 
ATOM      4  C2  UNL d   1      -0.438  -0.285   2.678  0.00  0.00    -0.047 A 
ATOM      5  C3  UNL d   1       0.882  -0.644   2.315  0.00  0.00    -0.047 A 
ATOM      6  C4  UNL d   1       1.011  -0.419   0.961  0.00  0.00    -0.004 A 
ENDROOT
TORSDOF 0
ENDMDL
