MODEL 1
REMARK minimizedAffinity -3.42818856
REMARK minimizedRMSD -1
REMARK  0 active torsions:
REMARK  status: ('A' for Active; 'I' for Inactive)
ROOT
ATOM      1  C   UNL d   1      -1.224  -0.029   0.386  0.00  0.00     0.172 C 
ATOM      2  N   UNL d   1       0.029  -0.207   1.081  0.00  0.00    -0.070 N 
ATOM      3  C1  UNL d   1       0.222  -0.982   2.193  0.00  0.00    -0.004 A 
ATOM      4  C2  UNL d   1       1.550  -0.888   2.549  0.00  0.00    -0.047 A 
ATOM      5  C3  UNL d   1       2.177  -0.025   1.619  0.00  0.00    -0.047 A 
ATOM      6  C4  UNL d   1       1.213   0.382   0.721  0.00  0.00    -0.004 A 
ENDROOT
TORSDOF 0
ENDMDL
