MODEL 1
REMARK minimizedAffinity -3.81017661
REMARK minimizedRMSD -1
REMARK  0 active torsions:
REMARK  status: ('A' for Active; 'I' for Inactive)
ROOT
ATOM      1  C1  BNZ d   1       2.299  -0.332  -4.129  0.00  0.00     0.000 A 
ATOM      2  C2  BNZ d   1       1.035  -0.032  -4.563  0.00  0.00     0.000 A 
ATOM      3  C3  BNZ d   1       0.003   0.098  -3.677  0.00  0.00     0.000 A 
ATOM      4  C4  BNZ d   1       0.227  -0.110  -2.363  0.00  0.00     0.000 A 
ATOM      5  C5  BNZ d   1       1.493  -0.422  -1.911  0.00  0.00     0.000 A 
ATOM      6  C6  BNZ d   1       2.538  -0.515  -2.802  0.00  0.00     0.000 A 
ENDROOT
TORSDOF 0
ENDMDL
