MODEL 1
REMARK minimizedAffinity -4.57965899
REMARK minimizedRMSD -1
REMARK  0 active torsions:
REMARK  status: ('A' for Active; 'I' for Inactive)
ROOT
ATOM      1  C1  BNZ d   1      -1.373  -2.082  -0.528  0.00  0.00     0.000 A 
ATOM      2  C2  BNZ d   1      -1.394  -3.405  -0.880  0.00  0.00     0.000 A 
ATOM      3  C3  BNZ d   1      -1.971  -3.809  -2.052  0.00  0.00     0.000 A 
ATOM      4  C4  BNZ d   1      -2.561  -2.895  -2.849  0.00  0.00     0.000 A 
ATOM      5  C5  BNZ d   1      -2.556  -1.558  -2.504  0.00  0.00     0.000 A 
ATOM      6  C6  BNZ d   1      -1.940  -1.151  -1.343  0.00  0.00     0.000 A 
ENDROOT
TORSDOF 0
ENDMDL
