MODEL 1
REMARK minimizedAffinity -3.29344392
REMARK minimizedRMSD -1
REMARK  0 active torsions:
REMARK  status: ('A' for Active; 'I' for Inactive)
ROOT
ATOM      1  C1  BNZ d   1      -2.754  -2.714  -2.285  0.00  0.00     0.000 A 
ATOM      2  C2  BNZ d   1      -2.686  -1.379  -1.984  0.00  0.00     0.000 A 
ATOM      3  C3  BNZ d   1      -1.978  -0.942  -0.900  0.00  0.00     0.000 A 
ATOM      4  C4  BNZ d   1      -1.374  -1.840  -0.096  0.00  0.00     0.000 A 
ATOM      5  C5  BNZ d   1      -1.441  -3.190  -0.380  0.00  0.00     0.000 A 
ATOM      6  C6  BNZ d   1      -2.122  -3.624  -1.495  0.00  0.00     0.000 A 
ENDROOT
TORSDOF 0
ENDMDL
