MODEL 1
REMARK minimizedAffinity -3.76182818
REMARK minimizedRMSD -1
REMARK  0 active torsions:
REMARK  status: ('A' for Active; 'I' for Inactive)
ROOT
ATOM      1  C1  BNZ d   1      -4.992   3.618   1.030  0.00  0.00     0.000 A 
ATOM      2  C2  BNZ d   1      -5.536   3.653  -0.226  0.00  0.00     0.000 A 
ATOM      3  C3  BNZ d   1      -5.825   4.845  -0.830  0.00  0.00     0.000 A 
ATOM      4  C4  BNZ d   1      -5.608   5.996  -0.162  0.00  0.00     0.000 A 
ATOM      5  C5  BNZ d   1      -5.069   5.977   1.108  0.00  0.00     0.000 A 
ATOM      6  C6  BNZ d   1      -4.743   4.777   1.698  0.00  0.00     0.000 A 
ENDROOT
TORSDOF 0
ENDMDL
