MODEL 1
REMARK minimizedAffinity 0.398153424
REMARK minimizedRMSD -1
REMARK  0 active torsions:
REMARK  status: ('A' for Active; 'I' for Inactive)
ROOT
ATOM      1  C1  BNZ d   1       2.263   3.033   0.814  0.00  0.00     0.000 A 
ATOM      2  C2  BNZ d   1       2.637   3.330  -0.469  0.00  0.00     0.000 A 
ATOM      3  C3  BNZ d   1       3.750   4.083  -0.717  0.00  0.00     0.000 A 
ATOM      4  C4  BNZ d   1       4.465   4.571   0.317  0.00  0.00     0.000 A 
ATOM      5  C5  BNZ d   1       4.096   4.287   1.617  0.00  0.00     0.000 A 
ATOM      6  C6  BNZ d   1       2.997   3.497   1.862  0.00  0.00     0.000 A 
ENDROOT
TORSDOF 0
ENDMDL
