MODEL 1
REMARK minimizedAffinity -3.91242695
REMARK minimizedRMSD -1
REMARK  0 active torsions:
REMARK  status: ('A' for Active; 'I' for Inactive)
ROOT
ATOM      1  C1  BNZ d   1      -2.895  -0.389   4.506  0.00  0.00     0.000 A 
ATOM      2  C2  BNZ d   1      -3.009  -1.754   4.524  0.00  0.00     0.000 A 
ATOM      3  C3  BNZ d   1      -3.988  -2.366   5.255  0.00  0.00     0.000 A 
ATOM      4  C4  BNZ d   1      -4.826  -1.616   6.000  0.00  0.00     0.000 A 
ATOM      5  C5  BNZ d   1      -4.718  -0.239   6.000  0.00  0.00     0.000 A 
ATOM      6  C6  BNZ d   1      -3.756   0.375   5.231  0.00  0.00     0.000 A 
ENDROOT
TORSDOF 0
ENDMDL
