MODEL 1
REMARK minimizedAffinity 2.29524279
REMARK minimizedRMSD -1
REMARK  0 active torsions:
REMARK  status: ('A' for Active; 'I' for Inactive)
ROOT
ATOM      1  C1  BNZ d   1      -2.499  -2.748  -3.741  0.00  0.00     0.000 A 
ATOM      2  C2  BNZ d   1      -1.693  -1.993  -2.931  0.00  0.00     0.000 A 
ATOM      3  C3  BNZ d   1      -1.904  -1.946  -1.581  0.00  0.00     0.000 A 
ATOM      4  C4  BNZ d   1      -2.944  -2.620  -1.049  0.00  0.00     0.000 A 
ATOM      5  C5  BNZ d   1      -3.772  -3.378  -1.854  0.00  0.00     0.000 A 
ATOM      6  C6  BNZ d   1      -3.532  -3.454  -3.207  0.00  0.00     0.000 A 
ENDROOT
TORSDOF 0
ENDMDL
