MODEL 1
REMARK minimizedAffinity -0.958090961
REMARK minimizedRMSD -1
REMARK  0 active torsions:
REMARK  status: ('A' for Active; 'I' for Inactive)
ROOT
ATOM      1  C1  BNZ d   1      -4.059   5.847   3.221  0.00  0.00     0.000 A 
ATOM      2  C2  BNZ d   1      -4.065   5.993   1.859  0.00  0.00     0.000 A 
ATOM      3  C3  BNZ d   1      -5.047   5.421   1.099  0.00  0.00     0.000 A 
ATOM      4  C4  BNZ d   1      -5.996   4.672   1.696  0.00  0.00     0.000 A 
ATOM      5  C5  BNZ d   1      -5.998   4.508   3.066  0.00  0.00     0.000 A 
ATOM      6  C6  BNZ d   1      -5.031   5.117   3.833  0.00  0.00     0.000 A 
ENDROOT
TORSDOF 0
ENDMDL
