MODEL 1
REMARK minimizedAffinity 0.649378538
REMARK minimizedRMSD -1
REMARK  0 active torsions:
REMARK  status: ('A' for Active; 'I' for Inactive)
ROOT
ATOM      1  C1  BNZ d   1      -3.860   0.281   5.634  0.00  0.00     0.000 A 
ATOM      2  C2  BNZ d   1      -3.938  -1.086   5.642  0.00  0.00     0.000 A 
ATOM      3  C3  BNZ d   1      -3.294  -1.829   4.693  0.00  0.00     0.000 A 
ATOM      4  C4  BNZ d   1      -2.607  -1.205   3.715  0.00  0.00     0.000 A 
ATOM      5  C5  BNZ d   1      -2.527   0.174   3.688  0.00  0.00     0.000 A 
ATOM      6  C6  BNZ d   1      -3.144   0.917   4.667  0.00  0.00     0.000 A 
ENDROOT
TORSDOF 0
ENDMDL
