MODEL 1
REMARK minimizedAffinity 0.141980276
REMARK minimizedRMSD -1
REMARK  0 active torsions:
REMARK  status: ('A' for Active; 'I' for Inactive)
ROOT
ATOM      1  C1  BNZ d   1      -1.282   1.147  -0.113  0.00  0.00     0.000 A 
ATOM      2  C2  BNZ d   1      -0.884   0.055  -0.836  0.00  0.00     0.000 A 
ATOM      3  C3  BNZ d   1      -1.314  -1.199  -0.504  0.00  0.00     0.000 A 
ATOM      4  C4  BNZ d   1      -2.108  -1.364   0.573  0.00  0.00     0.000 A 
ATOM      5  C5  BNZ d   1      -2.511  -0.274   1.318  0.00  0.00     0.000 A 
ATOM      6  C6  BNZ d   1      -2.108   0.991   0.958  0.00  0.00     0.000 A 
ENDROOT
TORSDOF 0
ENDMDL
