MODEL 1
REMARK minimizedAffinity 1.18900144
REMARK minimizedRMSD -1
REMARK  0 active torsions:
REMARK  status: ('A' for Active; 'I' for Inactive)
ROOT
ATOM      1  C1  BNZ d   1      -4.884   5.178   0.650  0.00  0.00     0.000 A 
ATOM      2  C2  BNZ d   1      -6.000   5.675   1.269  0.00  0.00     0.000 A 
ATOM      3  C3  BNZ d   1      -5.980   5.990   2.599  0.00  0.00     0.000 A 
ATOM      4  C4  BNZ d   1      -4.859   5.771   3.316  0.00  0.00     0.000 A 
ATOM      5  C5  BNZ d   1      -3.729   5.262   2.708  0.00  0.00     0.000 A 
ATOM      6  C6  BNZ d   1      -3.740   4.982   1.361  0.00  0.00     0.000 A 
ENDROOT
TORSDOF 0
ENDMDL
