MODEL 1
REMARK minimizedAffinity -3.72571874
REMARK minimizedRMSD -1
REMARK  0 active torsions:
REMARK  status: ('A' for Active; 'I' for Inactive)
ROOT
ATOM      1  C1  BNZ d   1      -4.682   1.757   4.921  0.00  0.00     0.000 A 
ATOM      2  C2  BNZ d   1      -4.296   1.338   3.675  0.00  0.00     0.000 A 
ATOM      3  C3  BNZ d   1      -4.125   2.234   2.657  0.00  0.00     0.000 A 
ATOM      4  C4  BNZ d   1      -4.378   3.540   2.874  0.00  0.00     0.000 A 
ATOM      5  C5  BNZ d   1      -4.777   3.977   4.121  0.00  0.00     0.000 A 
ATOM      6  C6  BNZ d   1      -4.911   3.078   5.154  0.00  0.00     0.000 A 
ENDROOT
TORSDOF 0
ENDMDL
