MODEL 1
REMARK minimizedAffinity -1.0045675
REMARK minimizedRMSD -1
REMARK  0 active torsions:
REMARK  status: ('A' for Active; 'I' for Inactive)
ROOT
ATOM      1  C1  BNZ d   1      -3.633   5.957   1.956  0.00  0.00     0.000 A 
ATOM      2  C2  BNZ d   1      -3.658   5.735   3.307  0.00  0.00     0.000 A 
ATOM      3  C3  BNZ d   1      -4.841   5.543   3.963  0.00  0.00     0.000 A 
ATOM      4  C4  BNZ d   1      -6.000   5.612   3.276  0.00  0.00     0.000 A 
ATOM      5  C5  BNZ d   1      -5.992   5.845   1.915  0.00  0.00     0.000 A 
ATOM      6  C6  BNZ d   1      -4.797   5.999   1.251  0.00  0.00     0.000 A 
ENDROOT
TORSDOF 0
ENDMDL
