MODEL 1
REMARK minimizedAffinity 0.0536587313
REMARK minimizedRMSD -1
REMARK  0 active torsions:
REMARK  status: ('A' for Active; 'I' for Inactive)
ROOT
ATOM      1  C1  BNZ d   1       0.902   1.425   4.189  0.00  0.00     0.000 A 
ATOM      2  C2  BNZ d   1       1.203   2.441   3.322  0.00  0.00     0.000 A 
ATOM      3  C3  BNZ d   1       2.458   2.983   3.289  0.00  0.00     0.000 A 
ATOM      4  C4  BNZ d   1       3.396   2.538   4.149  0.00  0.00     0.000 A 
ATOM      5  C5  BNZ d   1       3.104   1.521   5.036  0.00  0.00     0.000 A 
ATOM      6  C6  BNZ d   1       1.852   0.950   5.040  0.00  0.00     0.000 A 
ENDROOT
TORSDOF 0
ENDMDL
