MODEL 1
REMARK minimizedAffinity -0.549328029
REMARK minimizedRMSD -1
REMARK  0 active torsions:
REMARK  status: ('A' for Active; 'I' for Inactive)
ROOT
ATOM      1  C1  BNZ d   1      -5.054   5.671   1.476  0.00  0.00     0.000 A 
ATOM      2  C2  BNZ d   1      -4.133   4.696   1.753  0.00  0.00     0.000 A 
ATOM      3  C3  BNZ d   1      -4.155   4.033   2.948  0.00  0.00     0.000 A 
ATOM      4  C4  BNZ d   1      -5.071   4.372   3.878  0.00  0.00     0.000 A 
ATOM      5  C5  BNZ d   1      -6.000   5.359   3.617  0.00  0.00     0.000 A 
ATOM      6  C6  BNZ d   1      -5.999   5.998   2.399  0.00  0.00     0.000 A 
ENDROOT
TORSDOF 0
ENDMDL
