MODEL 1
REMARK minimizedAffinity -2.05411172
REMARK minimizedRMSD -1
REMARK  0 active torsions:
REMARK  status: ('A' for Active; 'I' for Inactive)
ROOT
ATOM      1  C1  BNZ d   1      -5.995   5.710   2.481  0.00  0.00     0.000 A 
ATOM      2  C2  BNZ d   1      -5.984   6.000   3.819  0.00  0.00     0.000 A 
ATOM      3  C3  BNZ d   1      -4.855   5.810   4.567  0.00  0.00     0.000 A 
ATOM      4  C4  BNZ d   1      -3.754   5.294   3.985  0.00  0.00     0.000 A 
ATOM      5  C5  BNZ d   1      -3.752   4.988   2.639  0.00  0.00     0.000 A 
ATOM      6  C6  BNZ d   1      -4.878   5.217   1.881  0.00  0.00     0.000 A 
ENDROOT
TORSDOF 0
ENDMDL
