MODEL 1
REMARK minimizedAffinity 12.8004875
REMARK minimizedRMSD -1
REMARK  0 active torsions:
REMARK  status: ('A' for Active; 'I' for Inactive)
ROOT
ATOM      1  C   UNL d   1      -0.107   3.365  -1.857  0.00  0.00     0.020 A 
ATOM      2  C1  UNL d   1      -0.340   4.740  -1.883  0.00  0.00     0.020 A 
ATOM      3  C2  UNL d   1      -1.605   5.227  -2.217  0.00  0.00     0.034 A 
ATOM      4  C3  UNL d   1      -2.642   4.340  -2.527  0.00  0.00     0.017 A 
ATOM      5  C4  UNL d   1      -2.407   2.960  -2.501  0.00  0.00     0.017 A 
ATOM      6  C5  UNL d   1      -1.138   2.478  -2.165  0.00  0.00     0.034 A 
ATOM      7 Cl   UNL d   1      -3.637   1.804  -2.871  0.00  0.00    -0.070 Cl
ATOM      8 Cl1  UNL d   1      -4.181   5.013  -2.930  0.00  0.00    -0.070 Cl
ENDROOT
TORSDOF 0
ENDMDL
