MODEL 1
REMARK minimizedAffinity 5.49075699
REMARK minimizedRMSD -1
REMARK  0 active torsions:
REMARK  status: ('A' for Active; 'I' for Inactive)
ROOT
ATOM      1  C   UNL d   1      -5.019   0.602   0.252  0.00  0.00     0.020 A 
ATOM      2  C1  UNL d   1      -4.031  -0.364   0.064  0.00  0.00     0.020 A 
ATOM      3  C2  UNL d   1      -3.637  -1.176   1.129  0.00  0.00     0.034 A 
ATOM      4  C3  UNL d   1      -4.230  -1.023   2.388  0.00  0.00     0.017 A 
ATOM      5  C4  UNL d   1      -5.221  -0.053   2.576  0.00  0.00     0.017 A 
ATOM      6  C5  UNL d   1      -5.612   0.757   1.505  0.00  0.00     0.034 A 
ATOM      7 Cl   UNL d   1      -5.999   0.195   4.099  0.00  0.00    -0.070 Cl
ATOM      8 Cl1  UNL d   1      -3.693  -2.061   3.660  0.00  0.00    -0.070 Cl
ENDROOT
TORSDOF 0
ENDMDL
