MODEL 1
REMARK minimizedAffinity 5.08943129
REMARK minimizedRMSD -1
REMARK  0 active torsions:
REMARK  status: ('A' for Active; 'I' for Inactive)
ROOT
ATOM      1  C   UNL d   1      -2.948  -5.992  -5.951  0.00  0.00     0.020 A 
ATOM      2  C1  UNL d   1      -3.989  -5.065  -5.983  0.00  0.00     0.020 A 
ATOM      3  C2  UNL d   1      -3.707  -3.698  -5.996  0.00  0.00     0.034 A 
ATOM      4  C3  UNL d   1      -2.380  -3.253  -5.976  0.00  0.00     0.017 A 
ATOM      5  C4  UNL d   1      -1.335  -4.184  -5.943  0.00  0.00     0.017 A 
ATOM      6  C5  UNL d   1      -1.624  -5.552  -5.931  0.00  0.00     0.034 A 
ATOM      7 Cl   UNL d   1       0.327  -3.711  -5.916  0.00  0.00    -0.070 Cl
ATOM      8 Cl1  UNL d   1      -2.104  -1.547  -5.993  0.00  0.00    -0.070 Cl
ENDROOT
TORSDOF 0
ENDMDL
