MODEL 1
REMARK minimizedAffinity 8.24300575
REMARK minimizedRMSD -1
REMARK  0 active torsions:
REMARK  status: ('A' for Active; 'I' for Inactive)
ROOT
ATOM      1  C   UNL d   1      -0.996   4.989  -3.059  0.00  0.00     0.020 A 
ATOM      2  C1  UNL d   1      -0.612   3.683  -2.756  0.00  0.00     0.020 A 
ATOM      3  C2  UNL d   1      -1.576   2.736  -2.404  0.00  0.00     0.034 A 
ATOM      4  C3  UNL d   1      -2.928   3.093  -2.355  0.00  0.00     0.017 A 
ATOM      5  C4  UNL d   1      -3.312   4.404  -2.659  0.00  0.00     0.017 A 
ATOM      6  C5  UNL d   1      -2.343   5.348  -3.011  0.00  0.00     0.034 A 
ATOM      7 Cl   UNL d   1      -4.962   4.919  -2.620  0.00  0.00    -0.070 Cl
ATOM      8 Cl1  UNL d   1      -4.066   1.870  -1.912  0.00  0.00    -0.070 Cl
ENDROOT
TORSDOF 0
ENDMDL
