MODEL 1
REMARK minimizedAffinity 9.99140358
REMARK minimizedRMSD -1
REMARK  0 active torsions:
REMARK  status: ('A' for Active; 'I' for Inactive)
ROOT
ATOM      1  C   UNL d   1      -1.491   1.303   2.255  0.00  0.00     0.020 A 
ATOM      2  C1  UNL d   1      -0.456   0.952   3.121  0.00  0.00     0.020 A 
ATOM      3  C2  UNL d   1       0.850   1.364   2.849  0.00  0.00     0.034 A 
ATOM      4  C3  UNL d   1       1.125   2.130   1.710  0.00  0.00     0.017 A 
ATOM      5  C4  UNL d   1       0.085   2.481   0.842  0.00  0.00     0.017 A 
ATOM      6  C5  UNL d   1      -1.222   2.066   1.119  0.00  0.00     0.034 A 
ATOM      7 Cl   UNL d   1       0.345   3.424  -0.583  0.00  0.00    -0.070 Cl
ATOM      8 Cl1  UNL d   1       2.763   2.605   1.437  0.00  0.00    -0.070 Cl
ENDROOT
TORSDOF 0
ENDMDL
