MODEL 1
REMARK minimizedAffinity 4.62629604
REMARK minimizedRMSD -1
REMARK  0 active torsions:
REMARK  status: ('A' for Active; 'I' for Inactive)
ROOT
ATOM      1  C   UNL d   1       1.493  -1.828   6.000  0.00  0.00     0.020 A 
ATOM      2  C1  UNL d   1       1.878  -3.006   5.360  0.00  0.00     0.020 A 
ATOM      3  C2  UNL d   1       1.873  -3.077   3.966  0.00  0.00     0.034 A 
ATOM      4  C3  UNL d   1       1.482  -1.968   3.206  0.00  0.00     0.017 A 
ATOM      5  C4  UNL d   1       1.096  -0.787   3.849  0.00  0.00     0.017 A 
ATOM      6  C5  UNL d   1       1.103  -0.721   5.245  0.00  0.00     0.034 A 
ATOM      7 Cl   UNL d   1       0.602   0.623   2.979  0.00  0.00    -0.070 Cl
ATOM      8 Cl1  UNL d   1       1.500  -2.127   1.485  0.00  0.00    -0.070 Cl
ENDROOT
TORSDOF 0
ENDMDL
