MODEL 1
REMARK minimizedAffinity 8.15260124
REMARK minimizedRMSD -1
REMARK  0 active torsions:
REMARK  status: ('A' for Active; 'I' for Inactive)
ROOT
ATOM      1  C   UNL d   1       2.208  -3.196   0.348  0.00  0.00     0.020 A 
ATOM      2  C1  UNL d   1       2.392  -1.894  -0.115  0.00  0.00     0.020 A 
ATOM      3  C2  UNL d   1       3.569  -1.550  -0.782  0.00  0.00     0.034 A 
ATOM      4  C3  UNL d   1       4.568  -2.508  -0.987  0.00  0.00     0.017 A 
ATOM      5  C4  UNL d   1       4.383  -3.815  -0.521  0.00  0.00     0.017 A 
ATOM      6  C5  UNL d   1       3.202  -4.155   0.146  0.00  0.00     0.034 A 
ATOM      7 Cl   UNL d   1       5.570  -5.053  -0.736  0.00  0.00    -0.070 Cl
ATOM      8 Cl1  UNL d   1       5.999  -2.013  -1.819  0.00  0.00    -0.070 Cl
ENDROOT
TORSDOF 0
ENDMDL
