MODEL 1
REMARK minimizedAffinity 9.34424973
REMARK minimizedRMSD -1
REMARK  0 active torsions:
REMARK  status: ('A' for Active; 'I' for Inactive)
ROOT
ATOM      1  C   UNL d   1      -6.000  -0.132   3.412  0.00  0.00     0.020 A 
ATOM      2  C1  UNL d   1      -5.534   1.147   3.113  0.00  0.00     0.020 A 
ATOM      3  C2  UNL d   1      -4.164   1.417   3.149  0.00  0.00     0.034 A 
ATOM      4  C3  UNL d   1      -3.256   0.407   3.484  0.00  0.00     0.017 A 
ATOM      5  C4  UNL d   1      -3.725  -0.877   3.784  0.00  0.00     0.017 A 
ATOM      6  C5  UNL d   1      -5.097  -1.142   3.747  0.00  0.00     0.034 A 
ATOM      7 Cl   UNL d   1      -2.665  -2.176   4.206  0.00  0.00    -0.070 Cl
ATOM      8 Cl1  UNL d   1      -1.576   0.812   3.508  0.00  0.00    -0.070 Cl
ENDROOT
TORSDOF 0
ENDMDL
