MODEL 1
REMARK minimizedAffinity 12.1902914
REMARK minimizedRMSD -1
REMARK  0 active torsions:
REMARK  status: ('A' for Active; 'I' for Inactive)
ROOT
ATOM      1  C   UNL d   1      -4.131   1.239  -2.123  0.00  0.00     0.020 A 
ATOM      2  C1  UNL d   1      -5.038   0.651  -1.241  0.00  0.00     0.020 A 
ATOM      3  C2  UNL d   1      -4.675   0.430   0.089  0.00  0.00     0.034 A 
ATOM      4  C3  UNL d   1      -3.402   0.797   0.542  0.00  0.00     0.017 A 
ATOM      5  C4  UNL d   1      -2.493   1.388  -0.344  0.00  0.00     0.017 A 
ATOM      6  C5  UNL d   1      -2.862   1.607  -1.675  0.00  0.00     0.034 A 
ATOM      7 Cl   UNL d   1      -0.905   1.868   0.142  0.00  0.00    -0.070 Cl
ATOM      8 Cl1  UNL d   1      -3.021   0.495   2.200  0.00  0.00    -0.070 Cl
ENDROOT
TORSDOF 0
ENDMDL
