MODEL 1
REMARK minimizedAffinity 0.812987566
REMARK minimizedRMSD -1
REMARK  0 active torsions:
REMARK  status: ('A' for Active; 'I' for Inactive)
ROOT
ATOM      1  C2' OXE d   1      -1.462  -0.681  -0.763  0.00  0.00     0.078 C 
ATOM      2  C1' OXE d   1      -1.969  -3.356  -0.081  0.00  0.00     0.078 C 
ATOM      3  C1  OXE d   1      -2.095  -2.964  -1.532  0.00  0.00    -0.078 A 
ATOM      4  C2  OXE d   1      -1.890  -1.643  -1.850  0.00  0.00    -0.078 A 
ATOM      5  C3  OXE d   1      -1.941  -1.239  -3.181  0.00  0.00     0.003 A 
ATOM      6  C4  OXE d   1      -2.347  -2.133  -4.178  0.00  0.00    -0.002 A 
ATOM      7  C5  OXE d   1      -2.599  -3.474  -3.870  0.00  0.00    -0.002 A 
ATOM      8  C6  OXE d   1      -2.436  -3.915  -2.561  0.00  0.00     0.003 A 
ENDROOT
TORSDOF 0
ENDMDL
