MODEL 1
REMARK minimizedAffinity 2.8182497
REMARK minimizedRMSD -1
REMARK  0 active torsions:
REMARK  status: ('A' for Active; 'I' for Inactive)
ROOT
ATOM      1  C2' OXE d   1      -2.896  -2.175  -0.689  0.00  0.00     0.078 C 
ATOM      2  C1' OXE d   1      -3.001  -0.748   1.726  0.00  0.00     0.078 C 
ATOM      3  C1  OXE d   1      -1.936  -0.365   0.728  0.00  0.00    -0.078 A 
ATOM      4  C2  OXE d   1      -1.862  -1.100  -0.430  0.00  0.00    -0.078 A 
ATOM      5  C3  OXE d   1      -0.934  -0.754  -1.408  0.00  0.00     0.003 A 
ATOM      6  C4  OXE d   1       0.025   0.235  -1.157  0.00  0.00    -0.002 A 
ATOM      7  C5  OXE d   1      -0.007   0.969   0.034  0.00  0.00    -0.002 A 
ATOM      8  C6  OXE d   1      -1.006   0.710   0.967  0.00  0.00     0.003 A 
ENDROOT
TORSDOF 0
ENDMDL
