MODEL 1
REMARK minimizedAffinity -4.09149599
REMARK minimizedRMSD -1
REMARK  0 active torsions:
REMARK  status: ('A' for Active; 'I' for Inactive)
ROOT
ATOM      1  C2' OXE d   1      -5.127   5.190   1.793  0.00  0.00     0.078 C 
ATOM      2  C1' OXE d   1      -4.317   2.607   2.535  0.00  0.00     0.078 C 
ATOM      3  C1  OXE d   1      -4.723   3.559   3.632  0.00  0.00    -0.078 A 
ATOM      4  C2  OXE d   1      -5.073   4.835   3.263  0.00  0.00    -0.078 A 
ATOM      5  C3  OXE d   1      -5.509   5.737   4.230  0.00  0.00     0.003 A 
ATOM      6  C4  OXE d   1      -5.447   5.404   5.589  0.00  0.00    -0.002 A 
ATOM      7  C5  OXE d   1      -5.055   4.122   5.988  0.00  0.00    -0.002 A 
ATOM      8  C6  OXE d   1      -4.732   3.176   5.022  0.00  0.00     0.003 A 
ENDROOT
TORSDOF 0
ENDMDL
