MODEL 1
REMARK minimizedAffinity 0.015099897
REMARK minimizedRMSD -1
REMARK  0 active torsions:
REMARK  status: ('A' for Active; 'I' for Inactive)
ROOT
ATOM      1  C2' OXE d   1      -0.549  -1.159  -0.231  0.00  0.00     0.078 C 
ATOM      2  C1' OXE d   1      -0.715   0.625  -2.392  0.00  0.00     0.078 C 
ATOM      3  C1  OXE d   1      -1.464  -0.680  -2.498  0.00  0.00    -0.078 A 
ATOM      4  C2  OXE d   1      -1.340  -1.567  -1.456  0.00  0.00    -0.078 A 
ATOM      5  C3  OXE d   1      -2.054  -2.762  -1.478  0.00  0.00     0.003 A 
ATOM      6  C4  OXE d   1      -2.775  -3.135  -2.619  0.00  0.00    -0.002 A 
ATOM      7  C5  OXE d   1      -2.882  -2.264  -3.708  0.00  0.00    -0.002 A 
ATOM      8  C6  OXE d   1      -2.269  -1.017  -3.646  0.00  0.00     0.003 A 
ENDROOT
TORSDOF 0
ENDMDL
