MODEL 1
REMARK minimizedAffinity 0.565033317
REMARK minimizedRMSD -1
REMARK  0 active torsions:
REMARK  status: ('A' for Active; 'I' for Inactive)
ROOT
ATOM      1  C2' OXE d   1       1.907  -0.226  -4.558  0.00  0.00     0.078 C 
ATOM      2  C1' OXE d   1       3.274  -0.604  -2.136  0.00  0.00     0.078 C 
ATOM      3  C1  OXE d   1       1.826  -0.187  -2.069  0.00  0.00    -0.078 A 
ATOM      4  C2  OXE d   1       1.178   0.041  -3.259  0.00  0.00    -0.078 A 
ATOM      5  C3  OXE d   1      -0.173   0.375  -3.255  0.00  0.00     0.003 A 
ATOM      6  C4  OXE d   1      -0.837   0.630  -2.049  0.00  0.00    -0.002 A 
ATOM      7  C5  OXE d   1      -0.184   0.442  -0.826  0.00  0.00    -0.002 A 
ATOM      8  C6  OXE d   1       1.132  -0.006  -0.818  0.00  0.00     0.003 A 
ENDROOT
TORSDOF 0
ENDMDL
