MODEL 1
REMARK minimizedAffinity 7.40000963
REMARK minimizedRMSD -1
REMARK  0 active torsions:
REMARK  status: ('A' for Active; 'I' for Inactive)
ROOT
ATOM      1  C2' OXE d   1       3.777  -1.322  -2.215  0.00  0.00     0.078 C 
ATOM      2  C1' OXE d   1       1.455  -0.300  -1.014  0.00  0.00     0.078 C 
ATOM      3  C1  OXE d   1       1.553  -0.242  -2.518  0.00  0.00    -0.078 A 
ATOM      4  C2  OXE d   1       2.713  -0.702  -3.094  0.00  0.00    -0.078 A 
ATOM      5  C3  OXE d   1       2.833  -0.722  -4.480  0.00  0.00     0.003 A 
ATOM      6  C4  OXE d   1       1.849  -0.136  -5.286  0.00  0.00    -0.002 A 
ATOM      7  C5  OXE d   1       0.677   0.374  -4.717  0.00  0.00    -0.002 A 
ATOM      8  C6  OXE d   1       0.495   0.291  -3.341  0.00  0.00     0.003 A 
ENDROOT
TORSDOF 0
ENDMDL
