MODEL 1
REMARK minimizedAffinity 5.92682886
REMARK minimizedRMSD -1
REMARK  0 active torsions:
REMARK  status: ('A' for Active; 'I' for Inactive)
ROOT
ATOM      1  C2' OXE d   1      -5.985   5.538  -0.188  0.00  0.00     0.078 C 
ATOM      2  C1' OXE d   1      -3.617   4.063   0.123  0.00  0.00     0.078 C 
ATOM      3  C1  OXE d   1      -4.223   4.688   1.355  0.00  0.00    -0.078 A 
ATOM      4  C2  OXE d   1      -5.356   5.447   1.186  0.00  0.00    -0.078 A 
ATOM      5  C3  OXE d   1      -5.987   6.000   2.297  0.00  0.00     0.003 A 
ATOM      6  C4  OXE d   1      -5.393   5.919   3.563  0.00  0.00    -0.002 A 
ATOM      7  C5  OXE d   1      -4.218   5.184   3.750  0.00  0.00    -0.002 A 
ATOM      8  C6  OXE d   1      -3.645   4.528   2.666  0.00  0.00     0.003 A 
ENDROOT
TORSDOF 0
ENDMDL
