MODEL 1
REMARK minimizedAffinity -1.47507691
REMARK minimizedRMSD -1
REMARK  0 active torsions:
REMARK  status: ('A' for Active; 'I' for Inactive)
ROOT
ATOM      1  C2' OXE d   1      -4.826   5.521   5.977  0.00  0.00     0.078 C 
ATOM      2  C1' OXE d   1      -2.400   5.239   4.592  0.00  0.00     0.078 C 
ATOM      3  C1  OXE d   1      -3.643   5.521   3.785  0.00  0.00    -0.078 A 
ATOM      4  C2  OXE d   1      -4.832   5.612   4.466  0.00  0.00    -0.078 A 
ATOM      5  C3  OXE d   1      -6.000   5.925   3.776  0.00  0.00     0.003 A 
ATOM      6  C4  OXE d   1      -5.999   5.998   2.378  0.00  0.00    -0.002 A 
ATOM      7  C5  OXE d   1      -4.805   5.870   1.661  0.00  0.00    -0.002 A 
ATOM      8  C6  OXE d   1      -3.613   5.674   2.351  0.00  0.00     0.003 A 
ENDROOT
TORSDOF 0
ENDMDL
