MODEL 1
REMARK minimizedAffinity -1.23519969
REMARK minimizedRMSD -1
REMARK  0 active torsions:
REMARK  status: ('A' for Active; 'I' for Inactive)
ROOT
ATOM      1  C2' OXE d   1      -0.472   0.689  -1.970  0.00  0.00     0.078 C 
ATOM      2  C1' OXE d   1       0.499  -0.723   0.254  0.00  0.00     0.078 C 
ATOM      3  C1  OXE d   1      -0.667  -1.313  -0.499  0.00  0.00    -0.078 A 
ATOM      4  C2  OXE d   1      -1.166  -0.592  -1.557  0.00  0.00    -0.078 A 
ATOM      5  C3  OXE d   1      -2.206  -1.116  -2.319  0.00  0.00     0.003 A 
ATOM      6  C4  OXE d   1      -2.849  -2.296  -1.925  0.00  0.00    -0.002 A 
ATOM      7  C5  OXE d   1      -2.382  -3.025  -0.827  0.00  0.00    -0.002 A 
ATOM      8  C6  OXE d   1      -1.268  -2.570  -0.130  0.00  0.00     0.003 A 
ENDROOT
TORSDOF 0
ENDMDL
