MODEL 1
REMARK minimizedAffinity -0.815572679
REMARK minimizedRMSD -1
REMARK  0 active torsions:
REMARK  status: ('A' for Active; 'I' for Inactive)
ROOT
ATOM      1  C2' OXE d   1      -4.709   3.336   5.875  0.00  0.00     0.078 C 
ATOM      2  C1' OXE d   1      -5.691   5.965   5.855  0.00  0.00     0.078 C 
ATOM      3  C1  OXE d   1      -5.378   5.321   4.527  0.00  0.00    -0.078 A 
ATOM      4  C2  OXE d   1      -4.854   4.051   4.549  0.00  0.00    -0.078 A 
ATOM      5  C3  OXE d   1      -4.599   3.390   3.351  0.00  0.00     0.003 A 
ATOM      6  C4  OXE d   1      -4.726   4.063   2.129  0.00  0.00    -0.002 A 
ATOM      7  C5  OXE d   1      -5.221   5.370   2.087  0.00  0.00    -0.002 A 
ATOM      8  C6  OXE d   1      -5.591   5.998   3.272  0.00  0.00     0.003 A 
ENDROOT
TORSDOF 0
ENDMDL
