MODEL 1
REMARK minimizedAffinity 7.52462292
REMARK minimizedRMSD -1
REMARK  0 active torsions:
REMARK  status: ('A' for Active; 'I' for Inactive)
ROOT
ATOM      1  C2' OXE d   1      -3.066   1.736   4.792  0.00  0.00     0.078 C 
ATOM      2  C1' OXE d   1      -2.877   0.370   2.347  0.00  0.00     0.078 C 
ATOM      3  C1  OXE d   1      -2.932  -0.453   3.610  0.00  0.00    -0.078 A 
ATOM      4  C2  OXE d   1      -2.977   0.225   4.804  0.00  0.00    -0.078 A 
ATOM      5  C3  OXE d   1      -3.084  -0.485   5.997  0.00  0.00     0.003 A 
ATOM      6  C4  OXE d   1      -2.990  -1.882   6.000  0.00  0.00    -0.002 A 
ATOM      7  C5  OXE d   1      -2.904  -2.591   4.797  0.00  0.00    -0.002 A 
ATOM      8  C6  OXE d   1      -2.917  -1.895   3.593  0.00  0.00     0.003 A 
ENDROOT
TORSDOF 0
ENDMDL
