MODEL 1
REMARK minimizedAffinity 1.21137607
REMARK minimizedRMSD -1
REMARK  0 active torsions:
REMARK  status: ('A' for Active; 'I' for Inactive)
ROOT
ATOM      1  C2' OXE d   1      -3.381   4.621   4.320  0.00  0.00     0.078 C 
ATOM      2  C1' OXE d   1      -5.823   5.999   4.465  0.00  0.00     0.078 C 
ATOM      3  C1  OXE d   1      -5.290   5.655   3.097  0.00  0.00    -0.078 A 
ATOM      4  C2  OXE d   1      -4.072   5.022   3.034  0.00  0.00    -0.078 A 
ATOM      5  C3  OXE d   1      -3.560   4.632   1.799  0.00  0.00     0.003 A 
ATOM      6  C4  OXE d   1      -4.200   5.016   0.614  0.00  0.00    -0.002 A 
ATOM      7  C5  OXE d   1      -5.422   5.696   0.655  0.00  0.00    -0.002 A 
ATOM      8  C6  OXE d   1      -6.000   5.985   1.886  0.00  0.00     0.003 A 
ENDROOT
TORSDOF 0
ENDMDL
