MODEL 1
REMARK minimizedAffinity -5.84491014
REMARK minimizedRMSD -1
REMARK  0 active torsions:
REMARK  status: ('A' for Active; 'I' for Inactive)
ROOT
ATOM      1  C2' OXE d   1      -4.990  -5.136  -0.014  0.00  0.00     0.078 C 
ATOM      2  C1' OXE d   1      -5.765  -3.103   1.759  0.00  0.00     0.078 C 
ATOM      3  C1  OXE d   1      -4.562  -2.853   0.885  0.00  0.00    -0.078 A 
ATOM      4  C2  OXE d   1      -4.162  -3.871   0.054  0.00  0.00    -0.078 A 
ATOM      5  C3  OXE d   1      -3.091  -3.672  -0.813  0.00  0.00     0.003 A 
ATOM      6  C4  OXE d   1      -2.324  -2.503  -0.737  0.00  0.00    -0.002 A 
ATOM      7  C5  OXE d   1      -2.691  -1.469   0.131  0.00  0.00    -0.002 A 
ATOM      8  C6  OXE d   1      -3.830  -1.611   0.917  0.00  0.00     0.003 A 
ENDROOT
TORSDOF 0
ENDMDL
