MODEL 1
REMARK minimizedAffinity -4.89458466
REMARK minimizedRMSD -1
REMARK  0 active torsions:
REMARK  status: ('A' for Active; 'I' for Inactive)
ROOT
ATOM      1  C2' OXE d   1      -4.204  -6.000   0.361  0.00  0.00     0.078 C 
ATOM      2  C1' OXE d   1      -5.809  -3.835   1.145  0.00  0.00     0.078 C 
ATOM      3  C1  OXE d   1      -4.547  -3.532   0.377  0.00  0.00    -0.078 A 
ATOM      4  C2  OXE d   1      -3.744  -4.595   0.038  0.00  0.00    -0.078 A 
ATOM      5  C3  OXE d   1      -2.596  -4.377  -0.718  0.00  0.00     0.003 A 
ATOM      6  C4  OXE d   1      -2.172  -3.073  -1.005  0.00  0.00    -0.002 A 
ATOM      7  C5  OXE d   1      -2.955  -1.975  -0.634  0.00  0.00    -0.002 A 
ATOM      8  C6  OXE d   1      -4.164  -2.189   0.019  0.00  0.00     0.003 A 
ENDROOT
TORSDOF 0
ENDMDL
