MODEL 1
REMARK minimizedAffinity 4.45735312
REMARK minimizedRMSD -1
REMARK  0 active torsions:
REMARK  status: ('A' for Active; 'I' for Inactive)
ROOT
ATOM      1  C2' OXE d   1       2.284   3.177   2.862  0.00  0.00     0.078 C 
ATOM      2  C1' OXE d   1       0.655   3.019   5.143  0.00  0.00     0.078 C 
ATOM      3  C1  OXE d   1       1.441   1.792   4.754  0.00  0.00    -0.078 A 
ATOM      4  C2  OXE d   1       2.200   1.864   3.610  0.00  0.00    -0.078 A 
ATOM      5  C3  OXE d   1       2.987   0.779   3.236  0.00  0.00     0.003 A 
ATOM      6  C4  OXE d   1       2.895  -0.436   3.927  0.00  0.00    -0.002 A 
ATOM      7  C5  OXE d   1       2.098  -0.542   5.072  0.00  0.00    -0.002 A 
ATOM      8  C6  OXE d   1       1.400   0.572   5.522  0.00  0.00     0.003 A 
ENDROOT
TORSDOF 0
ENDMDL
