MODEL 1
REMARK minimizedAffinity 11.5172787
REMARK minimizedRMSD -1
REMARK  0 active torsions:
REMARK  status: ('A' for Active; 'I' for Inactive)
ROOT
ATOM      1  C2' OXE d   1      -1.050  -0.826  -1.263  0.00  0.00     0.078 C 
ATOM      2  C1' OXE d   1      -0.916  -0.143  -3.982  0.00  0.00     0.078 C 
ATOM      3  C1  OXE d   1      -1.593  -1.440  -3.615  0.00  0.00    -0.078 A 
ATOM      4  C2  OXE d   1      -1.613  -1.789  -2.286  0.00  0.00    -0.078 A 
ATOM      5  C3  OXE d   1      -2.272  -2.948  -1.888  0.00  0.00     0.003 A 
ATOM      6  C4  OXE d   1      -2.781  -3.838  -2.842  0.00  0.00    -0.002 A 
ATOM      7  C5  OXE d   1      -2.736  -3.520  -4.204  0.00  0.00    -0.002 A 
ATOM      8  C6  OXE d   1      -2.185  -2.308  -4.603  0.00  0.00     0.003 A 
ENDROOT
TORSDOF 0
ENDMDL
