MODEL 1
REMARK minimizedAffinity 11.9213867
REMARK minimizedRMSD -1
REMARK  0 active torsions:
REMARK  status: ('A' for Active; 'I' for Inactive)
ROOT
ATOM      1  C   UNL d   1      -3.583   1.511   3.803  0.00  0.00     0.023 A 
ATOM      2  C1  UNL d   1      -3.549   1.139   5.147  0.00  0.00     0.003 A 
ATOM      3  C2  UNL d   1      -3.620  -0.210   5.501  0.00  0.00     0.048 A 
ATOM      4  C3  UNL d   1      -3.725  -1.181   4.506  0.00  0.00     0.023 A 
ATOM      5  C4  UNL d   1      -3.759  -0.814   3.160  0.00  0.00     0.048 A 
ATOM      6  C5  UNL d   1      -3.688   0.536   2.811  0.00  0.00     0.003 A 
ATOM      7  I   UNL d   1      -3.831  -3.189   5.032  0.00  0.00    -0.146 I 
ENDROOT
TORSDOF 0
ENDMDL
