MODEL 1
REMARK minimizedAffinity 11.7209024
REMARK minimizedRMSD -1
REMARK  0 active torsions:
REMARK  status: ('A' for Active; 'I' for Inactive)
ROOT
ATOM      1  C   UNL d   1      -3.354   2.106   4.007  0.00  0.00     0.023 A 
ATOM      2  C1  UNL d   1      -3.251   1.565   5.288  0.00  0.00     0.003 A 
ATOM      3  C2  UNL d   1      -3.362   0.186   5.476  0.00  0.00     0.048 A 
ATOM      4  C3  UNL d   1      -3.574  -0.647   4.378  0.00  0.00     0.023 A 
ATOM      5  C4  UNL d   1      -3.676  -0.110   3.093  0.00  0.00     0.048 A 
ATOM      6  C5  UNL d   1      -3.566   1.270   2.910  0.00  0.00     0.003 A 
ATOM      7  I   UNL d   1      -3.739  -2.700   4.655  0.00  0.00    -0.146 I 
ENDROOT
TORSDOF 0
ENDMDL
