MODEL 1
REMARK minimizedAffinity 7.12402773
REMARK minimizedRMSD -1
REMARK  0 active torsions:
REMARK  status: ('A' for Active; 'I' for Inactive)
ROOT
ATOM      1  C   UNL d   1       3.766   1.875  -0.061  0.00  0.00     0.023 A 
ATOM      2  C1  UNL d   1       2.736   1.354  -0.845  0.00  0.00     0.003 A 
ATOM      3  C2  UNL d   1       2.498  -0.022  -0.863  0.00  0.00     0.048 A 
ATOM      4  C3  UNL d   1       3.293  -0.871  -0.094  0.00  0.00     0.023 A 
ATOM      5  C4  UNL d   1       4.324  -0.354   0.693  0.00  0.00     0.048 A 
ATOM      6  C5  UNL d   1       4.559   1.022   0.707  0.00  0.00     0.003 A 
ATOM      7  I   UNL d   1       2.940  -2.919  -0.118  0.00  0.00    -0.146 I 
ENDROOT
TORSDOF 0
ENDMDL
