MODEL 1
REMARK minimizedAffinity 24.6602192
REMARK minimizedRMSD -1
REMARK  0 active torsions:
REMARK  status: ('A' for Active; 'I' for Inactive)
ROOT
ATOM      1  C   UNL d   1       2.072  -2.435  -0.769  0.00  0.00     0.023 A 
ATOM      2  C1  UNL d   1       1.498  -1.255  -1.243  0.00  0.00     0.003 A 
ATOM      3  C2  UNL d   1       2.053  -0.020  -0.902  0.00  0.00     0.048 A 
ATOM      4  C3  UNL d   1       3.184   0.027  -0.087  0.00  0.00     0.023 A 
ATOM      5  C4  UNL d   1       3.762  -1.150   0.389  0.00  0.00     0.048 A 
ATOM      6  C5  UNL d   1       3.203  -2.383   0.046  0.00  0.00     0.003 A 
ATOM      7  I   UNL d   1       4.013   1.864   0.423  0.00  0.00    -0.146 I 
ENDROOT
TORSDOF 0
ENDMDL
