MODEL 1
REMARK minimizedAffinity 14.1014643
REMARK minimizedRMSD -1
REMARK  0 active torsions:
REMARK  status: ('A' for Active; 'I' for Inactive)
ROOT
ATOM      1  C   UNL d   1       2.162  -2.539  -1.084  0.00  0.00     0.023 A 
ATOM      2  C1  UNL d   1       1.568  -1.361  -1.536  0.00  0.00     0.003 A 
ATOM      3  C2  UNL d   1       2.164  -0.128  -1.264  0.00  0.00     0.048 A 
ATOM      4  C3  UNL d   1       3.355  -0.080  -0.540  0.00  0.00     0.023 A 
ATOM      5  C4  UNL d   1       3.954  -1.257  -0.087  0.00  0.00     0.048 A 
ATOM      6  C5  UNL d   1       3.353  -2.487  -0.361  0.00  0.00     0.003 A 
ATOM      7  I   UNL d   1       4.244   1.754  -0.134  0.00  0.00    -0.146 I 
ENDROOT
TORSDOF 0
ENDMDL
