MODEL 1
REMARK minimizedAffinity 7.68309212
REMARK minimizedRMSD -1
REMARK  0 active torsions:
REMARK  status: ('A' for Active; 'I' for Inactive)
ROOT
ATOM      1  C   UNL d   1      -3.007   6.000  -5.192  0.00  0.00     0.023 A 
ATOM      2  C1  UNL d   1      -2.190   5.775  -4.084  0.00  0.00     0.003 A 
ATOM      3  C2  UNL d   1      -1.764   4.481  -3.780  0.00  0.00     0.048 A 
ATOM      4  C3  UNL d   1      -2.156   3.416  -4.590  0.00  0.00     0.023 A 
ATOM      5  C4  UNL d   1      -2.973   3.636  -5.701  0.00  0.00     0.048 A 
ATOM      6  C5  UNL d   1      -3.398   4.932  -5.999  0.00  0.00     0.003 A 
ATOM      7  I   UNL d   1      -1.522   1.488  -4.141  0.00  0.00    -0.146 I 
ENDROOT
TORSDOF 0
ENDMDL
