MODEL 1
REMARK minimizedAffinity 19.5933838
REMARK minimizedRMSD -1
REMARK  0 active torsions:
REMARK  status: ('A' for Active; 'I' for Inactive)
ROOT
ATOM      1  C   UNL d   1      -3.178   0.438   3.140  0.00  0.00     0.023 A 
ATOM      2  C1  UNL d   1      -2.981   1.448   2.198  0.00  0.00     0.003 A 
ATOM      3  C2  UNL d   1      -1.689   1.774   1.782  0.00  0.00     0.048 A 
ATOM      4  C3  UNL d   1      -0.597   1.086   2.312  0.00  0.00     0.023 A 
ATOM      5  C4  UNL d   1      -0.790   0.074   3.254  0.00  0.00     0.048 A 
ATOM      6  C5  UNL d   1      -2.084  -0.248   3.667  0.00  0.00     0.003 A 
ATOM      7  I   UNL d   1       1.327   1.570   1.694  0.00  0.00    -0.146 I 
ENDROOT
TORSDOF 0
ENDMDL
