MODEL 1
REMARK minimizedAffinity 6.52823448
REMARK minimizedRMSD -1
REMARK  0 active torsions:
REMARK  status: ('A' for Active; 'I' for Inactive)
ROOT
ATOM      1  C   UNL d   1       2.918  -2.836  -0.286  0.00  0.00     0.023 A 
ATOM      2  C1  UNL d   1       2.142  -1.861  -0.913  0.00  0.00     0.003 A 
ATOM      3  C2  UNL d   1       2.478  -0.512  -0.787  0.00  0.00     0.048 A 
ATOM      4  C3  UNL d   1       3.592  -0.144  -0.034  0.00  0.00     0.023 A 
ATOM      5  C4  UNL d   1       4.372  -1.116   0.595  0.00  0.00     0.048 A 
ATOM      6  C5  UNL d   1       4.031  -2.464   0.467  0.00  0.00     0.003 A 
ATOM      7  I   UNL d   1       4.095   1.864   0.155  0.00  0.00    -0.146 I 
ENDROOT
TORSDOF 0
ENDMDL
