MODEL 1
REMARK minimizedAffinity 15.0359392
REMARK minimizedRMSD -1
REMARK  0 active torsions:
REMARK  status: ('A' for Active; 'I' for Inactive)
ROOT
ATOM      1  C   UNL d   1      -2.025   1.534   2.954  0.00  0.00     0.023 A 
ATOM      2  C1  UNL d   1      -1.450   0.520   2.188  0.00  0.00     0.003 A 
ATOM      3  C2  UNL d   1      -2.160  -0.655   1.936  0.00  0.00     0.048 A 
ATOM      4  C3  UNL d   1      -3.447  -0.809   2.452  0.00  0.00     0.023 A 
ATOM      5  C4  UNL d   1      -4.027   0.203   3.219  0.00  0.00     0.048 A 
ATOM      6  C5  UNL d   1      -3.312   1.376   3.469  0.00  0.00     0.003 A 
ATOM      7  I   UNL d   1      -4.506  -2.557   2.078  0.00  0.00    -0.146 I 
ENDROOT
TORSDOF 0
ENDMDL
