MODEL 1
REMARK minimizedAffinity 5.4108882
REMARK minimizedRMSD -1
REMARK  0 active torsions:
REMARK  status: ('A' for Active; 'I' for Inactive)
ROOT
ATOM      1  C   UNL d   1       3.499  -3.290  -0.485  0.00  0.00     0.023 A 
ATOM      2  C1  UNL d   1       4.538  -2.888   0.354  0.00  0.00     0.003 A 
ATOM      3  C2  UNL d   1       4.709  -1.536   0.658  0.00  0.00     0.048 A 
ATOM      4  C3  UNL d   1       3.837  -0.591   0.119  0.00  0.00     0.023 A 
ATOM      5  C4  UNL d   1       2.795  -0.988  -0.721  0.00  0.00     0.048 A 
ATOM      6  C5  UNL d   1       2.628  -2.341  -1.022  0.00  0.00     0.003 A 
ATOM      7  I   UNL d   1       4.089   1.422   0.569  0.00  0.00    -0.146 I 
ENDROOT
TORSDOF 0
ENDMDL
