MODEL 1
REMARK minimizedAffinity 16.1298218
REMARK minimizedRMSD -1
REMARK  0 active torsions:
REMARK  status: ('A' for Active; 'I' for Inactive)
ROOT
ATOM      1  C   UNL d   1       0.969   0.838   4.079  0.00  0.00     0.023 A 
ATOM      2  C1  UNL d   1       0.401   1.817   3.263  0.00  0.00     0.003 A 
ATOM      3  C2  UNL d   1      -0.010   3.033   3.813  0.00  0.00     0.048 A 
ATOM      4  C3  UNL d   1       0.151   3.264   5.179  0.00  0.00     0.023 A 
ATOM      5  C4  UNL d   1       0.719   2.287   5.999  0.00  0.00     0.048 A 
ATOM      6  C5  UNL d   1       1.128   1.073   5.445  0.00  0.00     0.003 A 
ATOM      7  I   UNL d   1      -0.460   5.073   6.000  0.00  0.00    -0.146 I 
ENDROOT
TORSDOF 0
ENDMDL
