MODEL 1
REMARK minimizedAffinity 19.1844597
REMARK minimizedRMSD -1
REMARK  0 active torsions:
REMARK  status: ('A' for Active; 'I' for Inactive)
ROOT
ATOM      1  C   UNL d   1       1.029   1.023   3.387  0.00  0.00     0.023 A 
ATOM      2  C1  UNL d   1       0.064   2.018   3.232  0.00  0.00     0.003 A 
ATOM      3  C2  UNL d   1      -1.221   1.684   2.797  0.00  0.00     0.048 A 
ATOM      4  C3  UNL d   1      -1.533   0.353   2.520  0.00  0.00     0.023 A 
ATOM      5  C4  UNL d   1      -0.570  -0.646   2.675  0.00  0.00     0.048 A 
ATOM      6  C5  UNL d   1       0.713  -0.307   3.109  0.00  0.00     0.003 A 
ATOM      7  I   UNL d   1      -3.444  -0.147   1.873  0.00  0.00    -0.146 I 
ENDROOT
TORSDOF 0
ENDMDL
