MODEL 1
REMARK minimizedAffinity 17.6188908
REMARK minimizedRMSD -1
REMARK  0 active torsions:
REMARK  status: ('A' for Active; 'I' for Inactive)
ROOT
ATOM      1  C   UNL d   1      -4.560  -1.331   2.339  0.00  0.00     0.023 A 
ATOM      2  C1  UNL d   1      -4.190  -0.007   2.102  0.00  0.00     0.003 A 
ATOM      3  C2  UNL d   1      -3.721   0.786   3.151  0.00  0.00     0.048 A 
ATOM      4  C3  UNL d   1      -3.625   0.249   4.435  0.00  0.00     0.023 A 
ATOM      5  C4  UNL d   1      -3.994  -1.075   4.676  0.00  0.00     0.048 A 
ATOM      6  C5  UNL d   1      -4.463  -1.864   3.624  0.00  0.00     0.003 A 
ATOM      7  I   UNL d   1      -2.928   1.428   5.998  0.00  0.00    -0.146 I 
ENDROOT
TORSDOF 0
ENDMDL
