MODEL 1
REMARK minimizedAffinity 13.1153412
REMARK minimizedRMSD -1
REMARK  0 active torsions:
REMARK  status: ('A' for Active; 'I' for Inactive)
ROOT
ATOM      1  C   UNL d   1      -1.700   0.376   1.405  0.00  0.00     0.023 A 
ATOM      2  C1  UNL d   1      -0.442   0.317   2.004  0.00  0.00     0.003 A 
ATOM      3  C2  UNL d   1      -0.275   0.744   3.323  0.00  0.00     0.048 A 
ATOM      4  C3  UNL d   1      -1.370   1.229   4.037  0.00  0.00     0.023 A 
ATOM      5  C4  UNL d   1      -2.631   1.290   3.441  0.00  0.00     0.048 A 
ATOM      6  C5  UNL d   1      -2.793   0.862   2.122  0.00  0.00     0.003 A 
ATOM      7  I   UNL d   1      -1.123   1.866   6.000  0.00  0.00    -0.146 I 
ENDROOT
TORSDOF 0
ENDMDL
