MODEL 1
REMARK minimizedAffinity 12.6171694
REMARK minimizedRMSD -1
REMARK  0 active torsions:
REMARK  status: ('A' for Active; 'I' for Inactive)
ROOT
ATOM      1  C   UNL d   1      -4.873   3.003   5.670  0.00  0.00     0.023 A 
ATOM      2  C1  UNL d   1      -3.743   2.255   5.999  0.00  0.00     0.003 A 
ATOM      3  C2  UNL d   1      -3.094   1.500   5.020  0.00  0.00     0.048 A 
ATOM      4  C3  UNL d   1      -3.580   1.498   3.713  0.00  0.00     0.023 A 
ATOM      5  C4  UNL d   1      -4.710   2.246   3.379  0.00  0.00     0.048 A 
ATOM      6  C5  UNL d   1      -5.356   2.999   4.362  0.00  0.00     0.003 A 
ATOM      7  I   UNL d   1      -2.616   0.375   2.254  0.00  0.00    -0.146 I 
ENDROOT
TORSDOF 0
ENDMDL
