MODEL 1
REMARK minimizedAffinity 6.23484659
REMARK minimizedRMSD -1
REMARK  0 active torsions:
REMARK  status: ('A' for Active; 'I' for Inactive)
ROOT
ATOM      1  C   UNL d   1       5.996  -5.458  -5.435  0.00  0.00     0.020 A 
ATOM      2  C1  UNL d   1       5.815  -5.924  -4.133  0.00  0.00     0.020 A 
ATOM      3  C2  UNL d   1       4.713  -5.500  -3.387  0.00  0.00     0.034 A 
ATOM      4  C3  UNL d   1       3.789  -4.607  -3.941  0.00  0.00     0.017 A 
ATOM      5  C4  UNL d   1       3.972  -4.140  -5.248  0.00  0.00     0.017 A 
ATOM      6  C5  UNL d   1       5.077  -4.568  -5.991  0.00  0.00     0.034 A 
ATOM      7 Cl   UNL d   1       2.874  -3.037  -6.000  0.00  0.00    -0.070 Cl
ATOM      8 Cl1  UNL d   1       2.450  -4.125  -2.961  0.00  0.00    -0.070 Cl
ENDROOT
TORSDOF 0
ENDMDL
