MODEL 1
REMARK minimizedAffinity 5.49211025
REMARK minimizedRMSD -1
REMARK  0 active torsions:
REMARK  status: ('A' for Active; 'I' for Inactive)
ROOT
ATOM      1  C   UNL d   1      -0.781  -0.455   1.794  0.00  0.00     0.020 A 
ATOM      2  C1  UNL d   1       0.378  -1.228   1.841  0.00  0.00     0.020 A 
ATOM      3  C2  UNL d   1       1.307  -1.158   0.801  0.00  0.00     0.034 A 
ATOM      4  C3  UNL d   1       1.078  -0.313  -0.292  0.00  0.00     0.017 A 
ATOM      5  C4  UNL d   1      -0.086   0.462  -0.338  0.00  0.00     0.017 A 
ATOM      6  C5  UNL d   1      -1.013   0.388   0.706  0.00  0.00     0.034 A 
ATOM      7 Cl   UNL d   1      -0.438   1.527  -1.653  0.00  0.00    -0.070 Cl
ATOM      8 Cl1  UNL d   1       2.269  -0.277  -1.543  0.00  0.00    -0.070 Cl
ENDROOT
TORSDOF 0
ENDMDL
