MODEL 1
REMARK minimizedAffinity 3.21635818
REMARK minimizedRMSD -1
REMARK  0 active torsions:
REMARK  status: ('A' for Active; 'I' for Inactive)
ROOT
ATOM      1  C   UNL d   1       5.857  -4.884  -5.503  0.00  0.00     0.020 A 
ATOM      2  C1  UNL d   1       4.831  -4.080  -5.999  0.00  0.00     0.020 A 
ATOM      3  C2  UNL d   1       3.685  -3.857  -5.233  0.00  0.00     0.034 A 
ATOM      4  C3  UNL d   1       3.562  -4.440  -3.966  0.00  0.00     0.017 A 
ATOM      5  C4  UNL d   1       4.591  -5.247  -3.469  0.00  0.00     0.017 A 
ATOM      6  C5  UNL d   1       5.737  -5.466  -4.241  0.00  0.00     0.034 A 
ATOM      7 Cl   UNL d   1       4.511  -6.000  -1.915  0.00  0.00    -0.070 Cl
ATOM      8 Cl1  UNL d   1       2.117  -4.122  -3.073  0.00  0.00    -0.070 Cl
ENDROOT
TORSDOF 0
ENDMDL
