MODEL 1
REMARK minimizedAffinity 13.1267967
REMARK minimizedRMSD -1
REMARK  0 active torsions:
REMARK  status: ('A' for Active; 'I' for Inactive)
ROOT
ATOM      1  C   UNL d   1      -2.559  -5.538  -4.946  0.00  0.00     0.020 A 
ATOM      2  C1  UNL d   1      -1.753  -4.455  -5.292  0.00  0.00     0.020 A 
ATOM      3  C2  UNL d   1      -0.968  -3.830  -4.320  0.00  0.00     0.034 A 
ATOM      4  C3  UNL d   1      -0.989  -4.288  -2.998  0.00  0.00     0.017 A 
ATOM      5  C4  UNL d   1      -1.799  -5.376  -2.652  0.00  0.00     0.017 A 
ATOM      6  C5  UNL d   1      -2.582  -5.998  -3.629  0.00  0.00     0.034 A 
ATOM      7 Cl   UNL d   1      -1.877  -5.998  -1.041  0.00  0.00    -0.070 Cl
ATOM      8 Cl1  UNL d   1       0.006  -3.469  -1.848  0.00  0.00    -0.070 Cl
ENDROOT
TORSDOF 0
ENDMDL
