MODEL 1
REMARK minimizedAffinity -0.786182523
REMARK minimizedRMSD -1
REMARK  0 active torsions:
REMARK  status: ('A' for Active; 'I' for Inactive)
ROOT
ATOM      1  C   UNL d   1       5.269  -5.898  -4.933  0.00  0.00     0.020 A 
ATOM      2  C1  UNL d   1       4.469  -5.407  -5.964  0.00  0.00     0.020 A 
ATOM      3  C2  UNL d   1       4.130  -4.052  -6.000  0.00  0.00     0.034 A 
ATOM      4  C3  UNL d   1       4.591  -3.185  -5.003  0.00  0.00     0.017 A 
ATOM      5  C4  UNL d   1       5.393  -3.679  -3.968  0.00  0.00     0.017 A 
ATOM      6  C5  UNL d   1       5.730  -5.036  -3.938  0.00  0.00     0.034 A 
ATOM      7 Cl   UNL d   1       6.000  -2.671  -2.703  0.00  0.00    -0.070 Cl
ATOM      8 Cl1  UNL d   1       4.133  -1.522  -5.109  0.00  0.00    -0.070 Cl
ENDROOT
TORSDOF 0
ENDMDL
