MODEL 1
REMARK minimizedAffinity 2.24038243
REMARK minimizedRMSD -1
REMARK  0 active torsions:
REMARK  status: ('A' for Active; 'I' for Inactive)
ROOT
ATOM      1  C   UNL d   1       4.209  -6.000  -4.945  0.00  0.00     0.020 A 
ATOM      2  C1  UNL d   1       3.726  -5.224  -5.998  0.00  0.00     0.020 A 
ATOM      3  C2  UNL d   1       3.933  -3.843  -6.000  0.00  0.00     0.034 A 
ATOM      4  C3  UNL d   1       4.626  -3.234  -4.948  0.00  0.00     0.017 A 
ATOM      5  C4  UNL d   1       5.111  -4.013  -3.891  0.00  0.00     0.017 A 
ATOM      6  C5  UNL d   1       4.901  -5.396  -3.894  0.00  0.00     0.034 A 
ATOM      7 Cl   UNL d   1       5.976  -3.333  -2.558  0.00  0.00    -0.070 Cl
ATOM      8 Cl1  UNL d   1       4.847  -1.521  -5.016  0.00  0.00    -0.070 Cl
ENDROOT
TORSDOF 0
ENDMDL
