MODEL 1
REMARK minimizedAffinity 8.72502708
REMARK minimizedRMSD -1
REMARK  0 active torsions:
REMARK  status: ('A' for Active; 'I' for Inactive)
ROOT
ATOM      1  C   UNL d   1       6.000  -5.257  -5.458  0.00  0.00     0.020 A 
ATOM      2  C1  UNL d   1       5.736  -5.879  -4.239  0.00  0.00     0.020 A 
ATOM      3  C2  UNL d   1       4.564  -5.579  -3.541  0.00  0.00     0.034 A 
ATOM      4  C3  UNL d   1       3.653  -4.653  -4.061  0.00  0.00     0.017 A 
ATOM      5  C4  UNL d   1       3.918  -4.029  -5.285  0.00  0.00     0.017 A 
ATOM      6  C5  UNL d   1       5.093  -4.334  -5.980  0.00  0.00     0.034 A 
ATOM      7 Cl   UNL d   1       2.841  -2.876  -5.991  0.00  0.00    -0.070 Cl
ATOM      8 Cl1  UNL d   1       2.224  -4.329  -3.144  0.00  0.00    -0.070 Cl
ENDROOT
TORSDOF 0
ENDMDL
