MODEL 1
REMARK minimizedAffinity 3.64307714
REMARK minimizedRMSD -1
REMARK  0 active torsions:
REMARK  status: ('A' for Active; 'I' for Inactive)
ROOT
ATOM      1  C   UNL d   1       3.737  -4.585  -5.995  0.00  0.00     0.020 A 
ATOM      2  C1  UNL d   1       3.742  -3.207  -5.783  0.00  0.00     0.020 A 
ATOM      3  C2  UNL d   1       4.445  -2.669  -4.703  0.00  0.00     0.034 A 
ATOM      4  C3  UNL d   1       5.145  -3.510  -3.830  0.00  0.00     0.017 A 
ATOM      5  C4  UNL d   1       5.140  -4.893  -4.043  0.00  0.00     0.017 A 
ATOM      6  C5  UNL d   1       4.435  -5.426  -5.127  0.00  0.00     0.034 A 
ATOM      7 Cl   UNL d   1       5.981  -5.994  -3.010  0.00  0.00    -0.070 Cl
ATOM      8 Cl1  UNL d   1       5.993  -2.776  -2.515  0.00  0.00    -0.070 Cl
ENDROOT
TORSDOF 0
ENDMDL
