MODEL 1
REMARK minimizedAffinity 2.62920666
REMARK minimizedRMSD -1
REMARK  0 active torsions:
REMARK  status: ('A' for Active; 'I' for Inactive)
ROOT
ATOM      1  C   UNL d   1       5.844  -5.929  -5.400  0.00  0.00     0.020 A 
ATOM      2  C1  UNL d   1       6.000  -5.996  -4.016  0.00  0.00     0.020 A 
ATOM      3  C2  UNL d   1       5.666  -4.897  -3.222  0.00  0.00     0.034 A 
ATOM      4  C3  UNL d   1       5.174  -3.726  -3.811  0.00  0.00     0.017 A 
ATOM      5  C4  UNL d   1       5.018  -3.660  -5.200  0.00  0.00     0.017 A 
ATOM      6  C5  UNL d   1       5.354  -4.763  -5.991  0.00  0.00     0.034 A 
ATOM      7 Cl   UNL d   1       4.418  -2.250  -5.999  0.00  0.00    -0.070 Cl
ATOM      8 Cl1  UNL d   1       4.781  -2.406  -2.768  0.00  0.00    -0.070 Cl
ENDROOT
TORSDOF 0
ENDMDL
