MODEL 1
REMARK minimizedAffinity 1.56954527
REMARK minimizedRMSD -1
REMARK  0 active torsions:
REMARK  status: ('A' for Active; 'I' for Inactive)
ROOT
ATOM      1  C   UNL d   1       5.885  -6.000  -4.018  0.00  0.00     0.020 A 
ATOM      2  C1  UNL d   1       5.814  -5.895  -5.407  0.00  0.00     0.020 A 
ATOM      3  C2  UNL d   1       5.465  -4.678  -5.998  0.00  0.00     0.034 A 
ATOM      4  C3  UNL d   1       5.185  -3.563  -5.200  0.00  0.00     0.017 A 
ATOM      5  C4  UNL d   1       5.256  -3.670  -3.807  0.00  0.00     0.017 A 
ATOM      6  C5  UNL d   1       5.606  -4.890  -3.220  0.00  0.00     0.034 A 
ATOM      7 Cl   UNL d   1       4.925  -2.337  -2.757  0.00  0.00    -0.070 Cl
ATOM      8 Cl1  UNL d   1       4.760  -2.091  -5.999  0.00  0.00    -0.070 Cl
ENDROOT
TORSDOF 0
ENDMDL
