MODEL 1
REMARK minimizedAffinity 5.28366041
REMARK minimizedRMSD -1
REMARK  0 active torsions:
REMARK  status: ('A' for Active; 'I' for Inactive)
ROOT
ATOM      1  C   UNL d   1       5.990  -4.175  -5.516  0.00  0.00     0.020 A 
ATOM      2  C1  UNL d   1       5.110  -5.256  -5.525  0.00  0.00     0.020 A 
ATOM      3  C2  UNL d   1       3.738  -5.039  -5.675  0.00  0.00     0.034 A 
ATOM      4  C3  UNL d   1       3.243  -3.738  -5.817  0.00  0.00     0.017 A 
ATOM      5  C4  UNL d   1       4.128  -2.653  -5.808  0.00  0.00     0.017 A 
ATOM      6  C5  UNL d   1       5.500  -2.876  -5.658  0.00  0.00     0.034 A 
ATOM      7 Cl   UNL d   1       3.592  -1.019  -5.978  0.00  0.00    -0.070 Cl
ATOM      8 Cl1  UNL d   1       1.536  -3.543  -5.998  0.00  0.00    -0.070 Cl
ENDROOT
TORSDOF 0
ENDMDL
