MODEL 1
REMARK minimizedAffinity 4.75945187
REMARK minimizedRMSD -1
REMARK  0 active torsions:
REMARK  status: ('A' for Active; 'I' for Inactive)
ROOT
ATOM      1  C   UNL d   1      -2.915  -5.974  -1.911  0.00  0.00     0.020 A 
ATOM      2  C1  UNL d   1      -4.161  -5.903  -1.290  0.00  0.00     0.020 A 
ATOM      3  C2  UNL d   1      -4.568  -4.717  -0.675  0.00  0.00     0.034 A 
ATOM      4  C3  UNL d   1      -3.729  -3.597  -0.680  0.00  0.00     0.017 A 
ATOM      5  C4  UNL d   1      -2.478  -3.669  -1.304  0.00  0.00     0.017 A 
ATOM      6  C5  UNL d   1      -2.075  -4.859  -1.918  0.00  0.00     0.034 A 
ATOM      7 Cl   UNL d   1      -1.387  -2.329  -1.352  0.00  0.00    -0.070 Cl
ATOM      8 Cl1  UNL d   1      -4.297  -2.164   0.099  0.00  0.00    -0.070 Cl
ENDROOT
TORSDOF 0
ENDMDL
