MODEL 1
REMARK minimizedAffinity 6.56598949
REMARK minimizedRMSD -1
REMARK  0 active torsions:
REMARK  status: ('A' for Active; 'I' for Inactive)
ROOT
ATOM      1  C   UNL d   1       5.252  -5.620  -4.216  0.00  0.00     0.020 A 
ATOM      2  C1  UNL d   1       5.999  -4.443  -4.216  0.00  0.00     0.020 A 
ATOM      3  C2  UNL d   1       5.467  -3.278  -4.772  0.00  0.00     0.034 A 
ATOM      4  C3  UNL d   1       4.183  -3.287  -5.330  0.00  0.00     0.017 A 
ATOM      5  C4  UNL d   1       3.434  -4.469  -5.330  0.00  0.00     0.017 A 
ATOM      6  C5  UNL d   1       3.972  -5.633  -4.772  0.00  0.00     0.034 A 
ATOM      7 Cl   UNL d   1       1.843  -4.558  -6.000  0.00  0.00    -0.070 Cl
ATOM      8 Cl1  UNL d   1       3.588  -1.810  -6.000  0.00  0.00    -0.070 Cl
ENDROOT
TORSDOF 0
ENDMDL
