MODEL 1
REMARK minimizedAffinity 6.04868412
REMARK minimizedRMSD -1
REMARK  0 active torsions:
REMARK  status: ('A' for Active; 'I' for Inactive)
ROOT
ATOM      1  C   UNL d   1       0.578   0.865   2.149  0.00  0.00     0.020 A 
ATOM      2  C1  UNL d   1       0.159  -0.443   2.386  0.00  0.00     0.020 A 
ATOM      3  C2  UNL d   1      -0.447  -1.179   1.366  0.00  0.00     0.034 A 
ATOM      4  C3  UNL d   1      -0.635  -0.606   0.102  0.00  0.00     0.017 A 
ATOM      5  C4  UNL d   1      -0.214   0.707  -0.136  0.00  0.00     0.017 A 
ATOM      6  C5  UNL d   1       0.392   1.439   0.890  0.00  0.00     0.034 A 
ATOM      7 Cl   UNL d   1      -0.413   1.481  -1.668  0.00  0.00    -0.070 Cl
ATOM      8 Cl1  UNL d   1      -1.391  -1.574  -1.114  0.00  0.00    -0.070 Cl
ENDROOT
TORSDOF 0
ENDMDL
