MODEL 1
REMARK minimizedAffinity 8.2508297
REMARK minimizedRMSD -1
REMARK  0 active torsions:
REMARK  status: ('A' for Active; 'I' for Inactive)
ROOT
ATOM      1  C   UNL d   1       5.995  -1.109   3.016  0.00  0.00     0.020 A 
ATOM      2  C1  UNL d   1       5.998  -2.424   2.553  0.00  0.00     0.020 A 
ATOM      3  C2  UNL d   1       6.000  -2.680   1.180  0.00  0.00     0.034 A 
ATOM      4  C3  UNL d   1       5.998  -1.621   0.266  0.00  0.00     0.017 A 
ATOM      5  C4  UNL d   1       5.995  -0.301   0.732  0.00  0.00     0.017 A 
ATOM      6  C5  UNL d   1       5.994  -0.050   2.108  0.00  0.00     0.034 A 
ATOM      7 Cl   UNL d   1       5.992   1.059  -0.335  0.00  0.00    -0.070 Cl
ATOM      8 Cl1  UNL d   1       6.000  -2.012  -1.417  0.00  0.00    -0.070 Cl
ENDROOT
TORSDOF 0
ENDMDL
