MODEL 1
REMARK minimizedAffinity 4.4021163
REMARK minimizedRMSD -1
REMARK  0 active torsions:
REMARK  status: ('A' for Active; 'I' for Inactive)
ROOT
ATOM      1  C   UNL d   1       6.000  -5.649  -4.248  0.00  0.00     0.020 A 
ATOM      2  C1  UNL d   1       5.439  -5.999  -5.475  0.00  0.00     0.020 A 
ATOM      3  C2  UNL d   1       4.374  -5.259  -5.993  0.00  0.00     0.034 A 
ATOM      4  C3  UNL d   1       3.868  -4.163  -5.284  0.00  0.00     0.017 A 
ATOM      5  C4  UNL d   1       4.432  -3.812  -4.052  0.00  0.00     0.017 A 
ATOM      6  C5  UNL d   1       5.498  -4.557  -3.538  0.00  0.00     0.034 A 
ATOM      7 Cl   UNL d   1       3.861  -2.474  -3.119  0.00  0.00    -0.070 Cl
ATOM      8 Cl1  UNL d   1       2.550  -3.292  -5.984  0.00  0.00    -0.070 Cl
ENDROOT
TORSDOF 0
ENDMDL
