MODEL 1
REMARK minimizedAffinity 7.84086561
REMARK minimizedRMSD -1
REMARK  0 active torsions:
REMARK  status: ('A' for Active; 'I' for Inactive)
ROOT
ATOM      1  C   UNL d   1       5.998  -5.550  -5.388  0.00  0.00     0.020 A 
ATOM      2  C1  UNL d   1       5.537  -5.996  -4.150  0.00  0.00     0.020 A 
ATOM      3  C2  UNL d   1       4.564  -5.267  -3.463  0.00  0.00     0.034 A 
ATOM      4  C3  UNL d   1       4.050  -4.087  -4.013  0.00  0.00     0.017 A 
ATOM      5  C4  UNL d   1       4.514  -3.640  -5.256  0.00  0.00     0.017 A 
ATOM      6  C5  UNL d   1       5.488  -4.374  -5.940  0.00  0.00     0.034 A 
ATOM      7 Cl   UNL d   1       3.927  -2.194  -5.998  0.00  0.00    -0.070 Cl
ATOM      8 Cl1  UNL d   1       2.849  -3.235  -3.109  0.00  0.00    -0.070 Cl
ENDROOT
TORSDOF 0
ENDMDL
