MODEL 1
REMARK minimizedAffinity 6.67364836
REMARK minimizedRMSD -1
REMARK  0 active torsions:
REMARK  status: ('A' for Active; 'I' for Inactive)
ROOT
ATOM      1  C   UNL d   1       5.963  -5.489  -5.209  0.00  0.00     0.020 A 
ATOM      2  C1  UNL d   1       5.999  -5.546  -3.816  0.00  0.00     0.020 A 
ATOM      3  C2  UNL d   1       4.847  -5.275  -3.076  0.00  0.00     0.034 A 
ATOM      4  C3  UNL d   1       3.653  -4.945  -3.727  0.00  0.00     0.017 A 
ATOM      5  C4  UNL d   1       3.617  -4.888  -5.125  0.00  0.00     0.017 A 
ATOM      6  C5  UNL d   1       4.774  -5.160  -5.862  0.00  0.00     0.034 A 
ATOM      7 Cl   UNL d   1       2.181  -4.488  -6.000  0.00  0.00    -0.070 Cl
ATOM      8 Cl1  UNL d   1       2.266  -4.622  -2.748  0.00  0.00    -0.070 Cl
ENDROOT
TORSDOF 0
ENDMDL
