MODEL 1
REMARK minimizedAffinity 3.27645373
REMARK minimizedRMSD -1
REMARK  0 active torsions:
REMARK  status: ('A' for Active; 'I' for Inactive)
ROOT
ATOM      1  C   UNL d   1       5.303  -5.977  -4.268  0.00  0.00     0.020 A 
ATOM      2  C1  UNL d   1       5.896  -5.628  -5.481  0.00  0.00     0.020 A 
ATOM      3  C2  UNL d   1       5.724  -4.342  -5.998  0.00  0.00     0.034 A 
ATOM      4  C3  UNL d   1       4.959  -3.400  -5.301  0.00  0.00     0.017 A 
ATOM      5  C4  UNL d   1       4.365  -3.751  -4.084  0.00  0.00     0.017 A 
ATOM      6  C5  UNL d   1       4.540  -5.040  -3.571  0.00  0.00     0.034 A 
ATOM      7 Cl   UNL d   1       3.406  -2.643  -3.167  0.00  0.00    -0.070 Cl
ATOM      8 Cl1  UNL d   1       4.789  -1.828  -5.999  0.00  0.00    -0.070 Cl
ENDROOT
TORSDOF 0
ENDMDL
