MODEL 1
REMARK minimizedAffinity 6.30844259
REMARK minimizedRMSD -1
REMARK  0 active torsions:
REMARK  status: ('A' for Active; 'I' for Inactive)
ROOT
ATOM      1  C   UNL d   1       5.996  -4.968  -5.750  0.00  0.00     0.020 A 
ATOM      2  C1  UNL d   1       4.991  -5.935  -5.711  0.00  0.00     0.020 A 
ATOM      3  C2  UNL d   1       3.650  -5.550  -5.757  0.00  0.00     0.034 A 
ATOM      4  C3  UNL d   1       3.309  -4.195  -5.844  0.00  0.00     0.017 A 
ATOM      5  C4  UNL d   1       4.317  -3.226  -5.883  0.00  0.00     0.017 A 
ATOM      6  C5  UNL d   1       5.659  -3.617  -5.836  0.00  0.00     0.034 A 
ATOM      7 Cl   UNL d   1       3.974  -1.535  -5.990  0.00  0.00    -0.070 Cl
ATOM      8 Cl1  UNL d   1       1.630  -3.791  -5.898  0.00  0.00    -0.070 Cl
ENDROOT
TORSDOF 0
ENDMDL
