MODEL 1
REMARK minimizedAffinity 14.1618643
REMARK minimizedRMSD -1
REMARK  0 active torsions:
REMARK  status: ('A' for Active; 'I' for Inactive)
ROOT
ATOM      1  C   UNL d   1      -5.921   2.363   3.522  0.00  0.00     0.020 A 
ATOM      2  C1  UNL d   1      -4.989   2.589   4.533  0.00  0.00     0.020 A 
ATOM      3  C2  UNL d   1      -3.708   2.040   4.437  0.00  0.00     0.034 A 
ATOM      4  C3  UNL d   1      -3.357   1.263   3.327  0.00  0.00     0.017 A 
ATOM      5  C4  UNL d   1      -4.293   1.038   2.312  0.00  0.00     0.017 A 
ATOM      6  C5  UNL d   1      -5.574   1.589   2.414  0.00  0.00     0.034 A 
ATOM      7 Cl   UNL d   1      -3.933   0.090   0.912  0.00  0.00    -0.070 Cl
ATOM      8 Cl1  UNL d   1      -1.755   0.616   3.274  0.00  0.00    -0.070 Cl
ENDROOT
TORSDOF 0
ENDMDL
