MODEL 1
REMARK minimizedAffinity 6.18758726
REMARK minimizedRMSD -1
REMARK  0 active torsions:
REMARK  status: ('A' for Active; 'I' for Inactive)
ROOT
ATOM      1  C   UNL d   1       4.392  -6.000   4.879  0.00  0.00     0.020 A 
ATOM      2  C1  UNL d   1       5.496  -5.840   5.715  0.00  0.00     0.020 A 
ATOM      3  C2  UNL d   1       5.977  -4.560   6.000  0.00  0.00     0.034 A 
ATOM      4  C3  UNL d   1       5.352  -3.435   5.449  0.00  0.00     0.017 A 
ATOM      5  C4  UNL d   1       4.244  -3.597   4.610  0.00  0.00     0.017 A 
ATOM      6  C5  UNL d   1       3.767  -4.880   4.328  0.00  0.00     0.034 A 
ATOM      7 Cl   UNL d   1       3.421  -2.256   3.893  0.00  0.00    -0.070 Cl
ATOM      8 Cl1  UNL d   1       6.000  -1.883   5.845  0.00  0.00    -0.070 Cl
ENDROOT
TORSDOF 0
ENDMDL
