MODEL 1
REMARK minimizedAffinity 8.76453876
REMARK minimizedRMSD -1
REMARK  0 active torsions:
REMARK  status: ('A' for Active; 'I' for Inactive)
ROOT
ATOM      1  C   UNL d   1      -2.246   5.299   4.708  0.00  0.00     0.020 A 
ATOM      2  C1  UNL d   1      -1.691   5.957   5.805  0.00  0.00     0.020 A 
ATOM      3  C2  UNL d   1      -0.305   5.998   5.967  0.00  0.00     0.034 A 
ATOM      4  C3  UNL d   1       0.531   5.378   5.031  0.00  0.00     0.017 A 
ATOM      5  C4  UNL d   1      -0.027   4.717   3.930  0.00  0.00     0.017 A 
ATOM      6  C5  UNL d   1      -1.415   4.680   3.773  0.00  0.00     0.034 A 
ATOM      7 Cl   UNL d   1       0.941   3.930   2.734  0.00  0.00    -0.070 Cl
ATOM      8 Cl1  UNL d   1       2.237   5.468   5.293  0.00  0.00    -0.070 Cl
ENDROOT
TORSDOF 0
ENDMDL
