MODEL 1
REMARK minimizedAffinity 5.63576603
REMARK minimizedRMSD -1
REMARK  0 active torsions:
REMARK  status: ('A' for Active; 'I' for Inactive)
ROOT
ATOM      1  C   UNL d   1       2.004  -4.867   0.762  0.00  0.00     0.020 A 
ATOM      2  C1  UNL d   1       2.092  -3.482   0.895  0.00  0.00     0.020 A 
ATOM      3  C2  UNL d   1       3.335  -2.851   0.812  0.00  0.00     0.034 A 
ATOM      4  C3  UNL d   1       4.495  -3.604   0.595  0.00  0.00     0.017 A 
ATOM      5  C4  UNL d   1       4.405  -4.995   0.462  0.00  0.00     0.017 A 
ATOM      6  C5  UNL d   1       3.158  -5.622   0.546  0.00  0.00     0.034 A 
ATOM      7 Cl   UNL d   1       5.791  -5.991   0.193  0.00  0.00    -0.070 Cl
ATOM      8 Cl1  UNL d   1       5.998  -2.757   0.503  0.00  0.00    -0.070 Cl
ENDROOT
TORSDOF 0
ENDMDL
