MODEL 1
REMARK minimizedAffinity 9.7619381
REMARK minimizedRMSD -1
REMARK  0 active torsions:
REMARK  status: ('A' for Active; 'I' for Inactive)
ROOT
ATOM      1  C   UNL d   1       2.048  -2.977   0.572  0.00  0.00     0.020 A 
ATOM      2  C1  UNL d   1       3.193  -2.202   0.753  0.00  0.00     0.020 A 
ATOM      3  C2  UNL d   1       3.150  -1.074   1.575  0.00  0.00     0.034 A 
ATOM      4  C3  UNL d   1       1.960  -0.718   2.219  0.00  0.00     0.017 A 
ATOM      5  C4  UNL d   1       0.811  -1.497   2.037  0.00  0.00     0.017 A 
ATOM      6  C5  UNL d   1       0.860  -2.625   1.212  0.00  0.00     0.034 A 
ATOM      7 Cl   UNL d   1      -0.694  -1.120   2.798  0.00  0.00    -0.070 Cl
ATOM      8 Cl1  UNL d   1       1.978   0.689   3.221  0.00  0.00    -0.070 Cl
ENDROOT
TORSDOF 0
ENDMDL
