MODEL 1
REMARK minimizedAffinity 13.5017529
REMARK minimizedRMSD -1
REMARK  0 active torsions:
REMARK  status: ('A' for Active; 'I' for Inactive)
ROOT
ATOM      1  C   UNL d   1       5.618  -0.830  -0.015  0.00  0.00     0.020 A 
ATOM      2  C1  UNL d   1       5.619   0.545   0.220  0.00  0.00     0.020 A 
ATOM      3  C2  UNL d   1       5.738   1.436  -0.848  0.00  0.00     0.034 A 
ATOM      4  C3  UNL d   1       5.857   0.954  -2.157  0.00  0.00     0.017 A 
ATOM      5  C4  UNL d   1       5.856  -0.426  -2.392  0.00  0.00     0.017 A 
ATOM      6  C5  UNL d   1       5.737  -1.314  -1.318  0.00  0.00     0.034 A 
ATOM      7 Cl   UNL d   1       5.999  -1.096  -3.979  0.00  0.00    -0.070 Cl
ATOM      8 Cl1  UNL d   1       6.000   2.113  -3.430  0.00  0.00    -0.070 Cl
ENDROOT
TORSDOF 0
ENDMDL
