MODEL 1
REMARK minimizedAffinity 9.60445976
REMARK minimizedRMSD -1
REMARK  0 active torsions:
REMARK  status: ('A' for Active; 'I' for Inactive)
ROOT
ATOM      1  C   UNL d   1       1.954  -0.636   2.662  0.00  0.00     0.020 A 
ATOM      2  C1  UNL d   1       1.872  -1.917   2.118  0.00  0.00     0.020 A 
ATOM      3  C2  UNL d   1       0.635  -2.561   2.033  0.00  0.00     0.034 A 
ATOM      4  C3  UNL d   1      -0.523  -1.924   2.492  0.00  0.00     0.017 A 
ATOM      5  C4  UNL d   1      -0.439  -0.638   3.038  0.00  0.00     0.017 A 
ATOM      6  C5  UNL d   1       0.801   0.002   3.121  0.00  0.00     0.034 A 
ATOM      7 Cl   UNL d   1      -1.825   0.212   3.625  0.00  0.00    -0.070 Cl
ATOM      8 Cl1  UNL d   1      -2.018  -2.779   2.355  0.00  0.00    -0.070 Cl
ENDROOT
TORSDOF 0
ENDMDL
