MODEL 1
REMARK minimizedAffinity 7.5161705
REMARK minimizedRMSD -1
REMARK  0 active torsions:
REMARK  status: ('A' for Active; 'I' for Inactive)
ROOT
ATOM      1  C   UNL d   1       4.834  -5.596   4.965  0.00  0.00     0.020 A 
ATOM      2  C1  UNL d   1       5.759  -5.120   5.893  0.00  0.00     0.020 A 
ATOM      3  C2  UNL d   1       5.999  -3.748   5.999  0.00  0.00     0.034 A 
ATOM      4  C3  UNL d   1       5.314  -2.848   5.175  0.00  0.00     0.017 A 
ATOM      5  C4  UNL d   1       4.386  -3.327   4.243  0.00  0.00     0.017 A 
ATOM      6  C5  UNL d   1       4.149  -4.701   4.142  0.00  0.00     0.034 A 
ATOM      7 Cl   UNL d   1       3.502  -2.277   3.192  0.00  0.00    -0.070 Cl
ATOM      8 Cl1  UNL d   1       5.661  -1.165   5.360  0.00  0.00    -0.070 Cl
ENDROOT
TORSDOF 0
ENDMDL
