MODEL 1
REMARK minimizedAffinity 4.09954929
REMARK minimizedRMSD -1
REMARK  0 active torsions:
REMARK  status: ('A' for Active; 'I' for Inactive)
ROOT
ATOM      1  C   UNL d   1       1.859  -0.778   2.827  0.00  0.00     0.020 A 
ATOM      2  C1  UNL d   1       1.836  -2.128   2.479  0.00  0.00     0.020 A 
ATOM      3  C2  UNL d   1       0.618  -2.804   2.382  0.00  0.00     0.034 A 
ATOM      4  C3  UNL d   1      -0.582  -2.131   2.635  0.00  0.00     0.017 A 
ATOM      5  C4  UNL d   1      -0.559  -0.776   2.985  0.00  0.00     0.017 A 
ATOM      6  C5  UNL d   1       0.664  -0.104   3.080  0.00  0.00     0.034 A 
ATOM      7 Cl   UNL d   1      -1.999   0.122   3.312  0.00  0.00    -0.070 Cl
ATOM      8 Cl1  UNL d   1      -2.052  -3.029   2.497  0.00  0.00    -0.070 Cl
ENDROOT
TORSDOF 0
ENDMDL
