MODEL 1
REMARK minimizedAffinity 12.2746525
REMARK minimizedRMSD -1
REMARK  0 active torsions:
REMARK  status: ('A' for Active; 'I' for Inactive)
ROOT
ATOM      1  C   UNL d   1       2.219  -2.193   1.359  0.00  0.00     0.020 A 
ATOM      2  C1  UNL d   1       1.686  -2.694   0.172  0.00  0.00     0.020 A 
ATOM      3  C2  UNL d   1       0.340  -2.482  -0.132  0.00  0.00     0.034 A 
ATOM      4  C3  UNL d   1      -0.478  -1.769   0.752  0.00  0.00     0.017 A 
ATOM      5  C4  UNL d   1       0.058  -1.267   1.943  0.00  0.00     0.017 A 
ATOM      6  C5  UNL d   1       1.407  -1.481   2.242  0.00  0.00     0.034 A 
ATOM      7 Cl   UNL d   1      -0.888  -0.377   3.083  0.00  0.00    -0.070 Cl
ATOM      8 Cl1  UNL d   1      -2.134  -1.545   0.311  0.00  0.00    -0.070 Cl
ENDROOT
TORSDOF 0
ENDMDL
