MODEL 1
REMARK minimizedAffinity -4.09198141
REMARK minimizedRMSD -1
REMARK  0 active torsions:
REMARK  status: ('A' for Active; 'I' for Inactive)
ROOT
ATOM      1  C2' OXE d   1       1.207   2.097  -0.007  0.00  0.00     0.078 C 
ATOM      2  C1' OXE d   1       1.024  -0.604   0.736  0.00  0.00     0.078 C 
ATOM      3  C1  OXE d   1       2.037  -0.231  -0.318  0.00  0.00    -0.078 A 
ATOM      4  C2  OXE d   1       2.087   1.085  -0.709  0.00  0.00    -0.078 A 
ATOM      5  C3  OXE d   1       3.040   1.492  -1.638  0.00  0.00     0.003 A 
ATOM      6  C4  OXE d   1       3.844   0.549  -2.289  0.00  0.00    -0.002 A 
ATOM      7  C5  OXE d   1       3.781  -0.803  -1.935  0.00  0.00    -0.002 A 
ATOM      8  C6  OXE d   1       2.915  -1.202  -0.923  0.00  0.00     0.003 A 
ENDROOT
TORSDOF 0
ENDMDL
