MODEL 1
REMARK minimizedAffinity -3.68646049
REMARK minimizedRMSD -1
REMARK  0 active torsions:
REMARK  status: ('A' for Active; 'I' for Inactive)
ROOT
ATOM      1  C2' OXE d   1       3.753  -0.710  -1.826  0.00  0.00     0.078 C 
ATOM      2  C1' OXE d   1       2.499   1.680  -1.053  0.00  0.00     0.078 C 
ATOM      3  C1  OXE d   1       2.064   0.405  -0.373  0.00  0.00    -0.078 A 
ATOM      4  C2  OXE d   1       2.650  -0.765  -0.791  0.00  0.00    -0.078 A 
ATOM      5  C3  OXE d   1       2.325  -1.962  -0.159  0.00  0.00     0.003 A 
ATOM      6  C4  OXE d   1       1.297  -2.006   0.791  0.00  0.00    -0.002 A 
ATOM      7  C5  OXE d   1       0.660  -0.831   1.202  0.00  0.00    -0.002 A 
ATOM      8  C6  OXE d   1       1.060   0.386   0.662  0.00  0.00     0.003 A 
ENDROOT
TORSDOF 0
ENDMDL
