MODEL 1
REMARK minimizedAffinity -2.67537737
REMARK minimizedRMSD -1
REMARK  0 active torsions:
REMARK  status: ('A' for Active; 'I' for Inactive)
ROOT
ATOM      1  C2' OXE d   1       3.430  -0.920  -1.416  0.00  0.00     0.078 C 
ATOM      2  C1' OXE d   1       2.856   1.639  -0.416  0.00  0.00     0.078 C 
ATOM      3  C1  OXE d   1       2.010   0.489   0.068  0.00  0.00    -0.078 A 
ATOM      4  C2  OXE d   1       2.267  -0.753  -0.462  0.00  0.00    -0.078 A 
ATOM      5  C3  OXE d   1       1.552  -1.858  -0.009  0.00  0.00     0.003 A 
ATOM      6  C4  OXE d   1       0.472  -1.692   0.866  0.00  0.00    -0.002 A 
ATOM      7  C5  OXE d   1       0.167  -0.431   1.387  0.00  0.00    -0.002 A 
ATOM      8  C6  OXE d   1       0.951   0.661   1.032  0.00  0.00     0.003 A 
ENDROOT
TORSDOF 0
ENDMDL
