MODEL 1
REMARK minimizedAffinity -2.98751402
REMARK minimizedRMSD -1
REMARK  0 active torsions:
REMARK  status: ('A' for Active; 'I' for Inactive)
ROOT
ATOM      1  C2' OXE d   1       1.023   1.209   0.180  0.00  0.00     0.078 C 
ATOM      2  C1' OXE d   1       1.385  -1.312   1.358  0.00  0.00     0.078 C 
ATOM      3  C1  OXE d   1       2.266  -0.949   0.190  0.00  0.00    -0.078 A 
ATOM      4  C2  OXE d   1       2.051   0.268  -0.410  0.00  0.00    -0.078 A 
ATOM      5  C3  OXE d   1       2.872   0.676  -1.458  0.00  0.00     0.003 A 
ATOM      6  C4  OXE d   1       3.814  -0.205  -2.004  0.00  0.00    -0.002 A 
ATOM      7  C5  OXE d   1       4.023  -1.465  -1.433  0.00  0.00    -0.002 A 
ATOM      8  C6  OXE d   1       3.288  -1.835  -0.311  0.00  0.00     0.003 A 
ENDROOT
TORSDOF 0
ENDMDL
