MODEL 1
REMARK minimizedAffinity -1.79247713
REMARK minimizedRMSD -1
REMARK  0 active torsions:
REMARK  status: ('A' for Active; 'I' for Inactive)
ROOT
ATOM      1  C2' OXE d   1       4.804  -0.786  -1.966  0.00  0.00     0.078 C 
ATOM      2  C1' OXE d   1       3.658   1.765  -1.721  0.00  0.00     0.078 C 
ATOM      3  C1  OXE d   1       2.978   0.618  -1.016  0.00  0.00    -0.078 A 
ATOM      4  C2  OXE d   1       3.519  -0.634  -1.180  0.00  0.00    -0.078 A 
ATOM      5  C3  OXE d   1       2.963  -1.719  -0.508  0.00  0.00     0.003 A 
ATOM      6  C4  OXE d   1       1.769  -1.572   0.209  0.00  0.00    -0.002 A 
ATOM      7  C5  OXE d   1       1.179  -0.312   0.355  0.00  0.00    -0.002 A 
ATOM      8  C6  OXE d   1       1.793   0.798  -0.214  0.00  0.00     0.003 A 
ENDROOT
TORSDOF 0
ENDMDL
