MODEL 1
REMARK minimizedAffinity -2.7146759
REMARK minimizedRMSD -1
REMARK  0 active torsions:
REMARK  status: ('A' for Active; 'I' for Inactive)
ROOT
ATOM      1  C2' OXE d   1       3.680  -1.319  -1.149  0.00  0.00     0.078 C 
ATOM      2  C1' OXE d   1       2.734   1.324  -1.099  0.00  0.00     0.078 C 
ATOM      3  C1  OXE d   1       2.054   0.316  -0.205  0.00  0.00    -0.078 A 
ATOM      4  C2  OXE d   1       2.493  -0.984  -0.271  0.00  0.00    -0.078 A 
ATOM      5  C3  OXE d   1       1.937  -1.943   0.572  0.00  0.00     0.003 A 
ATOM      6  C4  OXE d   1       0.834  -1.627   1.373  0.00  0.00    -0.002 A 
ATOM      7  C5  OXE d   1       0.345  -0.317   1.425  0.00  0.00    -0.002 A 
ATOM      8  C6  OXE d   1       0.970   0.673   0.676  0.00  0.00     0.003 A 
ENDROOT
TORSDOF 0
ENDMDL
