MODEL 1
REMARK minimizedAffinity 2.70258617
REMARK minimizedRMSD -1
REMARK  0 active torsions:
REMARK  status: ('A' for Active; 'I' for Inactive)
ROOT
ATOM      1  C2' OXE d   1       0.390   0.129   1.272  0.00  0.00     0.078 C 
ATOM      2  C1' OXE d   1       2.321   1.800   0.105  0.00  0.00     0.078 C 
ATOM      3  C1  OXE d   1       2.320   0.344  -0.288  0.00  0.00    -0.078 A 
ATOM      4  C2  OXE d   1       1.402  -0.476   0.323  0.00  0.00    -0.078 A 
ATOM      5  C3  OXE d   1       1.323  -1.816  -0.044  0.00  0.00     0.003 A 
ATOM      6  C4  OXE d   1       2.269  -2.370  -0.915  0.00  0.00    -0.002 A 
ATOM      7  C5  OXE d   1       3.238  -1.561  -1.518  0.00  0.00    -0.002 A 
ATOM      8  C6  OXE d   1       3.250  -0.197  -1.249  0.00  0.00     0.003 A 
ENDROOT
TORSDOF 0
ENDMDL
