MODEL 1
REMARK minimizedAffinity -2.69283295
REMARK minimizedRMSD -1
REMARK  0 active torsions:
REMARK  status: ('A' for Active; 'I' for Inactive)
ROOT
ATOM      1  C2' OXE d   1       2.195   0.862  -0.413  0.00  0.00     0.078 C 
ATOM      2  C1' OXE d   1       3.621  -1.534  -0.734  0.00  0.00     0.078 C 
ATOM      3  C1  OXE d   1       2.344  -1.577   0.068  0.00  0.00    -0.078 A 
ATOM      4  C2  OXE d   1       1.677  -0.391   0.259  0.00  0.00    -0.078 A 
ATOM      5  C3  OXE d   1       0.466  -0.384   0.945  0.00  0.00     0.003 A 
ATOM      6  C4  OXE d   1      -0.000  -1.545   1.572  0.00  0.00    -0.002 A 
ATOM      7  C5  OXE d   1       0.684  -2.756   1.424  0.00  0.00    -0.002 A 
ATOM      8  C6  OXE d   1       1.833  -2.798   0.641  0.00  0.00     0.003 A 
ENDROOT
TORSDOF 0
ENDMDL
