MODEL 1
REMARK minimizedAffinity -0.857040346
REMARK minimizedRMSD -1
REMARK  0 active torsions:
REMARK  status: ('A' for Active; 'I' for Inactive)
ROOT
ATOM      1  C2' OXE d   1       3.422  -0.471  -1.289  0.00  0.00     0.078 C 
ATOM      2  C1' OXE d   1       1.802   1.790  -0.907  0.00  0.00     0.078 C 
ATOM      3  C1  OXE d   1       1.502   0.562  -0.084  0.00  0.00    -0.078 A 
ATOM      4  C2  OXE d   1       2.270  -0.555  -0.311  0.00  0.00    -0.078 A 
ATOM      5  C3  OXE d   1       2.070  -1.697   0.460  0.00  0.00     0.003 A 
ATOM      6  C4  OXE d   1       0.997  -1.769   1.355  0.00  0.00    -0.002 A 
ATOM      7  C5  OXE d   1       0.178  -0.656   1.573  0.00  0.00    -0.002 A 
ATOM      8  C6  OXE d   1       0.443   0.528   0.894  0.00  0.00     0.003 A 
ENDROOT
TORSDOF 0
ENDMDL
