MODEL 1
REMARK minimizedAffinity -4.57655144
REMARK minimizedRMSD -1
REMARK  0 active torsions:
REMARK  status: ('A' for Active; 'I' for Inactive)
ROOT
ATOM      1  C2' OXE d   1       0.343  -0.647   1.696  0.00  0.00     0.078 C 
ATOM      2  C1' OXE d   1       1.125   1.742   0.446  0.00  0.00     0.078 C 
ATOM      3  C1  OXE d   1       1.784   0.463  -0.006  0.00  0.00    -0.078 A 
ATOM      4  C2  OXE d   1       1.429  -0.695   0.643  0.00  0.00    -0.078 A 
ATOM      5  C3  OXE d   1       1.966  -1.910   0.228  0.00  0.00     0.003 A 
ATOM      6  C4  OXE d   1       2.978  -1.944  -0.740  0.00  0.00    -0.002 A 
ATOM      7  C5  OXE d   1       3.382  -0.771  -1.386  0.00  0.00    -0.002 A 
ATOM      8  C6  OXE d   1       2.766   0.433  -1.062  0.00  0.00     0.003 A 
ENDROOT
TORSDOF 0
ENDMDL
