MODEL 1
REMARK minimizedAffinity -1.00543284
REMARK minimizedRMSD -1
REMARK  0 active torsions:
REMARK  status: ('A' for Active; 'I' for Inactive)
ROOT
ATOM      1  C2' OXE d   1       0.141  -1.848   0.987  0.00  0.00     0.078 C 
ATOM      2  C1' OXE d   1       1.557   0.487   1.635  0.00  0.00     0.078 C 
ATOM      3  C1  OXE d   1       1.999  -0.290   0.420  0.00  0.00    -0.078 A 
ATOM      4  C2  OXE d   1       1.330  -1.456   0.137  0.00  0.00    -0.078 A 
ATOM      5  C3  OXE d   1       1.662  -2.183  -1.003  0.00  0.00     0.003 A 
ATOM      6  C4  OXE d   1       2.770  -1.819  -1.778  0.00  0.00    -0.002 A 
ATOM      7  C5  OXE d   1       3.490  -0.656  -1.484  0.00  0.00    -0.002 A 
ATOM      8  C6  OXE d   1       3.092   0.141  -0.417  0.00  0.00     0.003 A 
ENDROOT
TORSDOF 0
ENDMDL
