MODEL 1
REMARK minimizedAffinity -2.49163866
REMARK minimizedRMSD -1
REMARK  0 active torsions:
REMARK  status: ('A' for Active; 'I' for Inactive)
ROOT
ATOM      1  C2' OXE d   1       2.076   1.071   0.225  0.00  0.00     0.078 C 
ATOM      2  C1' OXE d   1       4.102  -0.332  -1.118  0.00  0.00     0.078 C 
ATOM      3  C1  OXE d   1       2.910  -1.116  -0.628  0.00  0.00    -0.078 A 
ATOM      4  C2  OXE d   1       1.946  -0.429   0.069  0.00  0.00    -0.078 A 
ATOM      5  C3  OXE d   1       0.799  -1.093   0.495  0.00  0.00     0.003 A 
ATOM      6  C4  OXE d   1       0.691  -2.482   0.356  0.00  0.00    -0.002 A 
ATOM      7  C5  OXE d   1       1.681  -3.207  -0.316  0.00  0.00    -0.002 A 
ATOM      8  C6  OXE d   1       2.774  -2.534  -0.850  0.00  0.00     0.003 A 
ENDROOT
TORSDOF 0
ENDMDL
