MODEL 1
REMARK minimizedAffinity -4.20936728
REMARK minimizedRMSD -1
REMARK  0 active torsions:
REMARK  status: ('A' for Active; 'I' for Inactive)
ROOT
ATOM      1  C2' OXE d   1       4.299  -0.739  -1.861  0.00  0.00     0.078 C 
ATOM      2  C1' OXE d   1       3.190   1.833  -1.675  0.00  0.00     0.078 C 
ATOM      3  C1  OXE d   1       2.525   0.723  -0.901  0.00  0.00    -0.078 A 
ATOM      4  C2  OXE d   1       3.046  -0.542  -1.035  0.00  0.00    -0.078 A 
ATOM      5  C3  OXE d   1       2.504  -1.592  -0.301  0.00  0.00     0.003 A 
ATOM      6  C4  OXE d   1       1.340  -1.404   0.453  0.00  0.00    -0.002 A 
ATOM      7  C5  OXE d   1       0.769  -0.132   0.571  0.00  0.00    -0.002 A 
ATOM      8  C6  OXE d   1       1.372   0.948  -0.064  0.00  0.00     0.003 A 
ENDROOT
TORSDOF 0
ENDMDL
