MODEL 1
REMARK minimizedAffinity -3.12579322
REMARK minimizedRMSD -1
REMARK  0 active torsions:
REMARK  status: ('A' for Active; 'I' for Inactive)
ROOT
ATOM      1  C2' OXE d   1       4.115  -0.429  -1.621  0.00  0.00     0.078 C 
ATOM      2  C1' OXE d   1       2.441   1.718  -0.938  0.00  0.00     0.078 C 
ATOM      3  C1  OXE d   1       2.022   0.335  -0.506  0.00  0.00    -0.078 A 
ATOM      4  C2  OXE d   1       2.824  -0.715  -0.885  0.00  0.00    -0.078 A 
ATOM      5  C3  OXE d   1       2.513  -2.006  -0.466  0.00  0.00     0.003 A 
ATOM      6  C4  OXE d   1       1.312  -2.263   0.206  0.00  0.00    -0.002 A 
ATOM      7  C5  OXE d   1       0.462  -1.213   0.567  0.00  0.00    -0.002 A 
ATOM      8  C6  OXE d   1       0.822   0.094   0.257  0.00  0.00     0.003 A 
ENDROOT
TORSDOF 0
ENDMDL
