MODEL 1
REMARK minimizedAffinity -4.54875994
REMARK minimizedRMSD -1
REMARK  0 active torsions:
REMARK  status: ('A' for Active; 'I' for Inactive)
ROOT
ATOM      1  C2' OXE d   1       4.213  -0.652  -2.150  0.00  0.00     0.078 C 
ATOM      2  C1' OXE d   1       2.840   1.764  -1.749  0.00  0.00     0.078 C 
ATOM      3  C1  OXE d   1       2.371   0.552  -0.983  0.00  0.00    -0.078 A 
ATOM      4  C2  OXE d   1       3.018  -0.636  -1.221  0.00  0.00    -0.078 A 
ATOM      5  C3  OXE d   1       2.661  -1.772  -0.500  0.00  0.00     0.003 A 
ATOM      6  C4  OXE d   1       1.549  -1.751   0.350  0.00  0.00    -0.002 A 
ATOM      7  C5  OXE d   1       0.850  -0.561   0.576  0.00  0.00    -0.002 A 
ATOM      8  C6  OXE d   1       1.274   0.607  -0.049  0.00  0.00     0.003 A 
ENDROOT
TORSDOF 0
ENDMDL
