MODEL 1
REMARK minimizedAffinity -2.9876256
REMARK minimizedRMSD -1
REMARK  0 active torsions:
REMARK  status: ('A' for Active; 'I' for Inactive)
ROOT
ATOM      1  C2' OXE d   1       0.961  -1.449   1.150  0.00  0.00     0.078 C 
ATOM      2  C1' OXE d   1       1.088   1.308   0.641  0.00  0.00     0.078 C 
ATOM      3  C1  OXE d   1       1.914   0.394  -0.228  0.00  0.00    -0.078 A 
ATOM      4  C2  OXE d   1       1.882  -0.950   0.058  0.00  0.00    -0.078 A 
ATOM      5  C3  OXE d   1       2.583  -1.843  -0.747  0.00  0.00     0.003 A 
ATOM      6  C4  OXE d   1       3.440  -1.372  -1.749  0.00  0.00    -0.002 A 
ATOM      7  C5  OXE d   1       3.518  -0.004  -2.031  0.00  0.00    -0.002 A 
ATOM      8  C6  OXE d   1       2.731   0.887  -1.309  0.00  0.00     0.003 A 
ENDROOT
TORSDOF 0
ENDMDL
