MODEL 1
REMARK minimizedAffinity -6.28813934
REMARK minimizedRMSD -1
REMARK  0 active torsions:
REMARK  status: ('A' for Active; 'I' for Inactive)
ROOT
ATOM      1  C2' OXE d   1       1.215   1.903  -0.368  0.00  0.00     0.078 C 
ATOM      2  C1' OXE d   1       0.700  -0.688   0.579  0.00  0.00     0.078 C 
ATOM      3  C1  OXE d   1       1.933  -0.480  -0.263  0.00  0.00    -0.078 A 
ATOM      4  C2  OXE d   1       2.152   0.782  -0.761  0.00  0.00    -0.078 A 
ATOM      5  C3  OXE d   1       3.304   1.042  -1.499  0.00  0.00     0.003 A 
ATOM      6  C4  OXE d   1       4.161  -0.003  -1.867  0.00  0.00    -0.002 A 
ATOM      7  C5  OXE d   1       3.934  -1.303  -1.403  0.00  0.00    -0.002 A 
ATOM      8  C6  OXE d   1       2.851  -1.550  -0.567  0.00  0.00     0.003 A 
ENDROOT
TORSDOF 0
ENDMDL
