MODEL 1
REMARK minimizedAffinity -1.8911227
REMARK minimizedRMSD -1
REMARK  0 active torsions:
REMARK  status: ('A' for Active; 'I' for Inactive)
ROOT
ATOM      1  C2' OXE d   1       1.469  -1.021   0.656  0.00  0.00     0.078 C 
ATOM      2  C1' OXE d   1       2.013   1.705   0.268  0.00  0.00     0.078 C 
ATOM      3  C1  OXE d   1       2.761   0.710  -0.583  0.00  0.00    -0.078 A 
ATOM      4  C2  OXE d   1       2.523  -0.623  -0.354  0.00  0.00    -0.078 A 
ATOM      5  C3  OXE d   1       3.145  -1.582  -1.149  0.00  0.00     0.003 A 
ATOM      6  C4  OXE d   1       4.126  -1.206  -2.075  0.00  0.00    -0.002 A 
ATOM      7  C5  OXE d   1       4.414   0.145  -2.296  0.00  0.00    -0.002 A 
ATOM      8  C6  OXE d   1       3.711   1.116  -1.590  0.00  0.00     0.003 A 
ENDROOT
TORSDOF 0
ENDMDL
