MODEL 1
REMARK minimizedAffinity 14.673831
REMARK minimizedRMSD -1
REMARK  0 active torsions:
REMARK  status: ('A' for Active; 'I' for Inactive)
ROOT
ATOM      1  N1  IND d   1       6.000   4.901  -0.726  0.00  0.00    -0.196 N 
ATOM      2  C2  IND d   1       5.526   5.979  -0.032  0.00  0.00     0.054 A 
ATOM      3  C3  IND d   1       4.937   5.578   1.117  0.00  0.00    -0.031 A 
ATOM      4  C4  IND d   1       4.727   3.210   2.106  0.00  0.00     0.051 A 
ATOM      5  C5  IND d   1       4.975   1.897   1.819  0.00  0.00    -0.031 A 
ATOM      6  C6  IND d   1       5.592   1.510   0.646  0.00  0.00     0.015 A 
ATOM      7  C7  IND d   1       5.996   2.428  -0.282  0.00  0.00    -0.016 A 
ATOM      8  C8  IND d   1       5.740   3.762   0.003  0.00  0.00    -0.047 A 
ATOM      9  C9  IND d   1       5.076   4.157   1.172  0.00  0.00    -0.096 A 
ATOM     10  HN1 IND d   1       6.394   4.930  -1.490  0.00  0.00     0.298 HD
ENDROOT
TORSDOF 0
ENDMDL
