MODEL 1
REMARK minimizedAffinity 19.1274128
REMARK minimizedRMSD -1
REMARK  0 active torsions:
REMARK  status: ('A' for Active; 'I' for Inactive)
ROOT
ATOM      1  N1  IND d   1       6.000   0.470   2.230  0.00  0.00    -0.196 N 
ATOM      2  C2  IND d   1       5.238   0.430   3.364  0.00  0.00     0.054 A 
ATOM      3  C3  IND d   1       4.316   1.419   3.345  0.00  0.00    -0.031 A 
ATOM      4  C4  IND d   1       3.813   3.152   1.509  0.00  0.00     0.051 A 
ATOM      5  C5  IND d   1       4.268   3.607   0.303  0.00  0.00    -0.031 A 
ATOM      6  C6  IND d   1       5.343   3.025  -0.337  0.00  0.00     0.015 A 
ATOM      7  C7  IND d   1       6.000   1.955   0.203  0.00  0.00    -0.016 A 
ATOM      8  C8  IND d   1       5.545   1.496   1.431  0.00  0.00    -0.047 A 
ATOM      9  C9  IND d   1       4.481   2.109   2.105  0.00  0.00    -0.096 A 
ATOM     10  HN1 IND d   1       6.654  -0.058   2.047  0.00  0.00     0.298 HD
ENDROOT
TORSDOF 0
ENDMDL
