MODEL 1
REMARK minimizedAffinity 6.71026373
REMARK minimizedRMSD -1
REMARK  0 active torsions:
REMARK  status: ('A' for Active; 'I' for Inactive)
ROOT
ATOM      1  N1  IND d   1       3.129   2.636   1.200  0.00  0.00    -0.196 N 
ATOM      2  C2  IND d   1       3.748   2.957   0.024  0.00  0.00     0.054 A 
ATOM      3  C3  IND d   1       4.930   2.308  -0.078  0.00  0.00    -0.031 A 
ATOM      4  C4  IND d   1       5.999   0.595   1.519  0.00  0.00     0.051 A 
ATOM      5  C5  IND d   1       5.827   0.009   2.741  0.00  0.00    -0.031 A 
ATOM      6  C6  IND d   1       4.723   0.271   3.527  0.00  0.00     0.015 A 
ATOM      7  C7  IND d   1       3.740   1.125   3.113  0.00  0.00    -0.016 A 
ATOM      8  C8  IND d   1       3.915   1.728   1.875  0.00  0.00    -0.047 A 
ATOM      9  C9  IND d   1       5.054   1.498   1.092  0.00  0.00    -0.096 A 
ATOM     10  HN1 IND d   1       2.376   2.948   1.472  0.00  0.00     0.298 HD
ENDROOT
TORSDOF 0
ENDMDL
