MODEL 1
REMARK minimizedAffinity 12.7313919
REMARK minimizedRMSD -1
REMARK  0 active torsions:
REMARK  status: ('A' for Active; 'I' for Inactive)
ROOT
ATOM      1  N1  IND d   1       2.878   2.324  -0.003  0.00  0.00    -0.196 N 
ATOM      2  C2  IND d   1       3.643   2.731   1.054  0.00  0.00     0.054 A 
ATOM      3  C3  IND d   1       4.935   2.860   0.677  0.00  0.00    -0.031 A 
ATOM      4  C4  IND d   1       5.999   2.556  -1.647  0.00  0.00     0.051 A 
ATOM      5  C5  IND d   1       5.709   2.154  -2.920  0.00  0.00    -0.031 A 
ATOM      6  C6  IND d   1       4.433   1.783  -3.295  0.00  0.00     0.015 A 
ATOM      7  C7  IND d   1       3.394   1.812  -2.408  0.00  0.00    -0.016 A 
ATOM      8  C8  IND d   1       3.687   2.213  -1.112  0.00  0.00    -0.047 A 
ATOM      9  C9  IND d   1       4.988   2.549  -0.716  0.00  0.00    -0.096 A 
ATOM     10  HN1 IND d   1       2.034   2.165   0.021  0.00  0.00     0.298 HD
ENDROOT
TORSDOF 0
ENDMDL
