MODEL 1
REMARK minimizedAffinity 21.1984711
REMARK minimizedRMSD -1
REMARK  0 active torsions:
REMARK  status: ('A' for Active; 'I' for Inactive)
ROOT
ATOM      1  N1  IND d   1      -0.682  -3.395  -3.293  0.00  0.00    -0.196 N 
ATOM      2  C2  IND d   1      -1.067  -2.163  -3.744  0.00  0.00     0.054 A 
ATOM      3  C3  IND d   1      -1.285  -1.328  -2.703  0.00  0.00    -0.031 A 
ATOM      4  C4  IND d   1      -0.974  -1.742  -0.182  0.00  0.00     0.051 A 
ATOM      5  C5  IND d   1      -0.673  -2.724   0.720  0.00  0.00    -0.031 A 
ATOM      6  C6  IND d   1      -0.350  -4.005   0.322  0.00  0.00     0.015 A 
ATOM      7  C7  IND d   1      -0.306  -4.350  -0.999  0.00  0.00    -0.016 A 
ATOM      8  C8  IND d   1      -0.618  -3.357  -1.917  0.00  0.00    -0.047 A 
ATOM      9  C9  IND d   1      -0.987  -2.067  -1.517  0.00  0.00    -0.096 A 
ATOM     10  HN1 IND d   1      -0.510  -4.078  -3.785  0.00  0.00     0.298 HD
ENDROOT
TORSDOF 0
ENDMDL
