MODEL 1
REMARK minimizedAffinity 19.5307369
REMARK minimizedRMSD -1
REMARK  0 active torsions:
REMARK  status: ('A' for Active; 'I' for Inactive)
ROOT
ATOM      1  N1  IND d   1      -2.276   4.186  -4.196  0.00  0.00    -0.196 N 
ATOM      2  C2  IND d   1      -1.672   2.995  -4.489  0.00  0.00     0.054 A 
ATOM      3  C3  IND d   1      -2.521   2.192  -5.170  0.00  0.00    -0.031 A 
ATOM      4  C4  IND d   1      -4.911   2.668  -5.999  0.00  0.00     0.051 A 
ATOM      5  C5  IND d   1      -5.904   3.605  -5.943  0.00  0.00    -0.031 A 
ATOM      6  C6  IND d   1      -5.734   4.809  -5.291  0.00  0.00     0.015 A 
ATOM      7  C7  IND d   1      -4.555   5.127  -4.678  0.00  0.00    -0.016 A 
ATOM      8  C8  IND d   1      -3.547   4.175  -4.727  0.00  0.00    -0.047 A 
ATOM      9  C9  IND d   1      -3.728   2.934  -5.350  0.00  0.00    -0.096 A 
ATOM     10  HN1 IND d   1      -1.921   4.833  -3.755  0.00  0.00     0.298 HD
ENDROOT
TORSDOF 0
ENDMDL
