MODEL 1
REMARK minimizedAffinity 15.400095
REMARK minimizedRMSD -1
REMARK  0 active torsions:
REMARK  status: ('A' for Active; 'I' for Inactive)
ROOT
ATOM      1  N1  IND d   1       5.997   0.376   2.246  0.00  0.00    -0.196 N 
ATOM      2  C2  IND d   1       5.209   0.303   3.360  0.00  0.00     0.054 A 
ATOM      3  C3  IND d   1       4.258   1.263   3.328  0.00  0.00    -0.031 A 
ATOM      4  C4  IND d   1       3.746   2.997   1.495  0.00  0.00     0.051 A 
ATOM      5  C5  IND d   1       4.216   3.477   0.304  0.00  0.00    -0.031 A 
ATOM      6  C6  IND d   1       5.324   2.934  -0.314  0.00  0.00     0.015 A 
ATOM      7  C7  IND d   1       6.000   1.880   0.233  0.00  0.00    -0.016 A 
ATOM      8  C8  IND d   1       5.530   1.395   1.445  0.00  0.00    -0.047 A 
ATOM      9  C9  IND d   1       4.432   1.969   2.098  0.00  0.00    -0.096 A 
ATOM     10  HN1 IND d   1       6.671  -0.129   2.074  0.00  0.00     0.298 HD
ENDROOT
TORSDOF 0
ENDMDL
