MODEL 1
REMARK minimizedAffinity 6.81012154
REMARK minimizedRMSD -1
REMARK  0 active torsions:
REMARK  status: ('A' for Active; 'I' for Inactive)
ROOT
ATOM      1  N1  IND d   1      -0.302  -4.969   1.135  0.00  0.00    -0.196 N 
ATOM      2  C2  IND d   1      -0.527  -5.307   2.440  0.00  0.00     0.054 A 
ATOM      3  C3  IND d   1      -1.288  -4.367   3.045  0.00  0.00    -0.031 A 
ATOM      4  C4  IND d   1      -2.359  -2.245   2.055  0.00  0.00     0.051 A 
ATOM      5  C5  IND d   1      -2.407  -1.495   0.914  0.00  0.00    -0.031 A 
ATOM      6  C6  IND d   1      -1.745  -1.873  -0.236  0.00  0.00     0.015 A 
ATOM      7  C7  IND d   1      -1.016  -3.027  -0.291  0.00  0.00    -0.016 A 
ATOM      8  C8  IND d   1      -0.959  -3.788   0.868  0.00  0.00    -0.047 A 
ATOM      9  C9  IND d   1      -1.594  -3.387   2.051  0.00  0.00    -0.096 A 
ATOM     10  HN1 IND d   1       0.171  -5.418   0.575  0.00  0.00     0.298 HD
ENDROOT
TORSDOF 0
ENDMDL
