MODEL 1
REMARK minimizedAffinity 10.5619707
REMARK minimizedRMSD -1
REMARK  0 active torsions:
REMARK  status: ('A' for Active; 'I' for Inactive)
ROOT
ATOM      1  N1  IND d   1       4.741   5.410   1.261  0.00  0.00    -0.196 N 
ATOM      2  C2  IND d   1       5.369   5.985   0.192  0.00  0.00     0.054 A 
ATOM      3  C3  IND d   1       5.983   5.041  -0.556  0.00  0.00    -0.031 A 
ATOM      4  C4  IND d   1       6.000   2.483  -0.270  0.00  0.00     0.051 A 
ATOM      5  C5  IND d   1       5.596   1.491   0.579  0.00  0.00    -0.031 A 
ATOM      6  C6  IND d   1       4.869   1.761   1.721  0.00  0.00     0.015 A 
ATOM      7  C7  IND d   1       4.508   3.036   2.051  0.00  0.00    -0.016 A 
ATOM      8  C8  IND d   1       4.923   4.046   1.195  0.00  0.00    -0.047 A 
ATOM      9  C9  IND d   1       5.697   3.784   0.058  0.00  0.00    -0.096 A 
ATOM     10  HN1 IND d   1       4.305   5.830   1.873  0.00  0.00     0.298 HD
ENDROOT
TORSDOF 0
ENDMDL
