MODEL 1
REMARK minimizedAffinity 15.0600863
REMARK minimizedRMSD -1
REMARK  0 active torsions:
REMARK  status: ('A' for Active; 'I' for Inactive)
ROOT
ATOM      1  N1  IND d   1      -0.322  -4.812   1.143  0.00  0.00    -0.196 N 
ATOM      2  C2  IND d   1      -0.438  -5.004   2.491  0.00  0.00     0.054 A 
ATOM      3  C3  IND d   1      -1.162  -4.007   3.047  0.00  0.00    -0.031 A 
ATOM      4  C4  IND d   1      -2.338  -2.014   1.919  0.00  0.00     0.051 A 
ATOM      5  C5  IND d   1      -2.488  -1.395   0.709  0.00  0.00    -0.031 A 
ATOM      6  C6  IND d   1      -1.914  -1.896  -0.442  0.00  0.00     0.015 A 
ATOM      7  C7  IND d   1      -1.175  -3.045  -0.427  0.00  0.00    -0.016 A 
ATOM      8  C8  IND d   1      -1.015  -3.672   0.800  0.00  0.00    -0.047 A 
ATOM      9  C9  IND d   1      -1.560  -3.145   1.979  0.00  0.00    -0.096 A 
ATOM     10  HN1 IND d   1       0.111  -5.319   0.599  0.00  0.00     0.298 HD
ENDROOT
TORSDOF 0
ENDMDL
