MODEL 1
REMARK minimizedAffinity 6.15027952
REMARK minimizedRMSD -1
REMARK  0 active torsions:
REMARK  status: ('A' for Active; 'I' for Inactive)
ROOT
ATOM      1  N1  IND d   1      -5.996   5.683  -0.600  0.00  0.00    -0.196 N 
ATOM      2  C2  IND d   1      -5.041   5.404   0.338  0.00  0.00     0.054 A 
ATOM      3  C3  IND d   1      -3.830   5.272  -0.249  0.00  0.00    -0.031 A 
ATOM      4  C4  IND d   1      -3.168   5.571  -2.719  0.00  0.00     0.051 A 
ATOM      5  C5  IND d   1      -3.701   5.793  -3.958  0.00  0.00    -0.031 A 
ATOM      6  C6  IND d   1      -5.053   5.996  -4.144  0.00  0.00     0.015 A 
ATOM      7  C7  IND d   1      -5.925   5.996  -3.092  0.00  0.00    -0.016 A 
ATOM      8  C8  IND d   1      -5.389   5.764  -1.833  0.00  0.00    -0.047 A 
ATOM      9  C9  IND d   1      -4.023   5.515  -1.643  0.00  0.00    -0.096 A 
ATOM     10  HN1 IND d   1      -6.835   5.789  -0.445  0.00  0.00     0.298 HD
ENDROOT
TORSDOF 0
ENDMDL
