MODEL 1
REMARK minimizedAffinity 18.9878635
REMARK minimizedRMSD -1
REMARK  0 active torsions:
REMARK  status: ('A' for Active; 'I' for Inactive)
ROOT
ATOM      1  N1  IND d   1       4.489   5.224   0.684  0.00  0.00    -0.196 N 
ATOM      2  C2  IND d   1       5.254   5.647  -0.368  0.00  0.00     0.054 A 
ATOM      3  C3  IND d   1       5.980   4.620  -0.864  0.00  0.00    -0.031 A 
ATOM      4  C4  IND d   1       5.996   2.141  -0.168  0.00  0.00     0.051 A 
ATOM      5  C5  IND d   1       5.491   1.282   0.767  0.00  0.00    -0.031 A 
ATOM      6  C6  IND d   1       4.606   1.701   1.740  0.00  0.00     0.015 A 
ATOM      7  C7  IND d   1       4.183   2.998   1.808  0.00  0.00    -0.016 A 
ATOM      8  C8  IND d   1       4.699   3.875   0.864  0.00  0.00    -0.047 A 
ATOM      9  C9  IND d   1       5.630   3.465  -0.100  0.00  0.00    -0.096 A 
ATOM     10  HN1 IND d   1       3.966   5.719   1.154  0.00  0.00     0.298 HD
ENDROOT
TORSDOF 0
ENDMDL
