MODEL 1
REMARK minimizedAffinity 11.5604725
REMARK minimizedRMSD -1
REMARK  0 active torsions:
REMARK  status: ('A' for Active; 'I' for Inactive)
ROOT
ATOM      1  N1  IND d   1       4.502   4.143   0.704  0.00  0.00    -0.196 N 
ATOM      2  C2  IND d   1       5.220   4.016  -0.452  0.00  0.00     0.054 A 
ATOM      3  C3  IND d   1       5.935   2.869  -0.437  0.00  0.00    -0.031 A 
ATOM      4  C4  IND d   1       6.000   1.004   1.337  0.00  0.00     0.051 A 
ATOM      5  C5  IND d   1       5.540   0.688   2.584  0.00  0.00    -0.031 A 
ATOM      6  C6  IND d   1       4.692   1.523   3.282  0.00  0.00     0.015 A 
ATOM      7  C7  IND d   1       4.260   2.706   2.751  0.00  0.00    -0.016 A 
ATOM      8  C8  IND d   1       4.730   3.033   1.487  0.00  0.00    -0.047 A 
ATOM      9  C9  IND d   1       5.625   2.210   0.792  0.00  0.00    -0.096 A 
ATOM     10  HN1 IND d   1       3.993   4.806   0.908  0.00  0.00     0.298 HD
ENDROOT
TORSDOF 0
ENDMDL
