MODEL 1
REMARK minimizedAffinity 17.1607475
REMARK minimizedRMSD -1
REMARK  0 active torsions:
REMARK  status: ('A' for Active; 'I' for Inactive)
ROOT
ATOM      1  N1  IND d   1       4.489   5.630   0.766  0.00  0.00    -0.196 N 
ATOM      2  C2  IND d   1       5.268   5.991  -0.298  0.00  0.00     0.054 A 
ATOM      3  C3  IND d   1       6.000   4.937  -0.724  0.00  0.00    -0.031 A 
ATOM      4  C4  IND d   1       6.000   2.502   0.112  0.00  0.00     0.051 A 
ATOM      5  C5  IND d   1       5.480   1.698   1.087  0.00  0.00    -0.031 A 
ATOM      6  C6  IND d   1       4.583   2.172   2.022  0.00  0.00     0.015 A 
ATOM      7  C7  IND d   1       4.162   3.472   2.010  0.00  0.00    -0.016 A 
ATOM      8  C8  IND d   1       4.693   4.293   1.025  0.00  0.00    -0.047 A 
ATOM      9  C9  IND d   1       5.636   3.828   0.100  0.00  0.00    -0.096 A 
ATOM     10  HN1 IND d   1       3.959   6.151   1.199  0.00  0.00     0.298 HD
ENDROOT
TORSDOF 0
ENDMDL
