MODEL 1
REMARK minimizedAffinity 4.62518978
REMARK minimizedRMSD -1
REMARK  0 active torsions:
REMARK  status: ('A' for Active; 'I' for Inactive)
ROOT
ATOM      1  N1  IND d   1      -0.971  -2.445  -0.682  0.00  0.00    -0.196 N 
ATOM      2  C2  IND d   1      -1.911  -1.505  -1.003  0.00  0.00     0.054 A 
ATOM      3  C3  IND d   1      -2.846  -1.424  -0.029  0.00  0.00    -0.031 A 
ATOM      4  C4  IND d   1      -2.974  -2.665   2.223  0.00  0.00     0.051 A 
ATOM      5  C5  IND d   1      -2.361  -3.649   2.947  0.00  0.00    -0.031 A 
ATOM      6  C6  IND d   1      -1.229  -4.293   2.490  0.00  0.00     0.015 A 
ATOM      7  C7  IND d   1      -0.659  -3.968   1.292  0.00  0.00    -0.016 A 
ATOM      8  C8  IND d   1      -1.283  -2.974   0.551  0.00  0.00    -0.047 A 
ATOM      9  C9  IND d   1      -2.456  -2.346   0.990  0.00  0.00    -0.096 A 
ATOM     10  HN1 IND d   1      -0.299  -2.668  -1.169  0.00  0.00     0.298 HD
ENDROOT
TORSDOF 0
ENDMDL
