MODEL 1
REMARK minimizedAffinity 15.0220718
REMARK minimizedRMSD -1
REMARK  0 active torsions:
REMARK  status: ('A' for Active; 'I' for Inactive)
ROOT
ATOM      1  N1  IND d   1      -3.952   2.262   5.964  0.00  0.00    -0.196 N 
ATOM      2  C2  IND d   1      -5.316   2.332   6.000  0.00  0.00     0.054 A 
ATOM      3  C3  IND d   1      -5.856   1.108   5.803  0.00  0.00    -0.031 A 
ATOM      4  C4  IND d   1      -4.686  -1.166   5.506  0.00  0.00     0.051 A 
ATOM      5  C5  IND d   1      -3.450  -1.731   5.367  0.00  0.00    -0.031 A 
ATOM      6  C6  IND d   1      -2.294  -0.980   5.425  0.00  0.00     0.015 A 
ATOM      7  C7  IND d   1      -2.331   0.370   5.635  0.00  0.00    -0.016 A 
ATOM      8  C8  IND d   1      -3.585   0.948   5.769  0.00  0.00    -0.047 A 
ATOM      9  C9  IND d   1      -4.764   0.197   5.669  0.00  0.00    -0.096 A 
ATOM     10  HN1 IND d   1      -3.413   2.926   6.050  0.00  0.00     0.298 HD
ENDROOT
TORSDOF 0
ENDMDL
