MODEL 1
REMARK minimizedAffinity 18.2996826
REMARK minimizedRMSD -1
REMARK  0 active torsions:
REMARK  status: ('A' for Active; 'I' for Inactive)
ROOT
ATOM      1  N1  IND d   1       1.442  -0.420  -3.427  0.00  0.00    -0.196 N 
ATOM      2  C2  IND d   1       2.262   0.249  -2.561  0.00  0.00     0.054 A 
ATOM      3  C3  IND d   1       1.647   0.419  -1.368  0.00  0.00    -0.031 A 
ATOM      4  C4  IND d   1      -0.661  -0.408  -0.585  0.00  0.00     0.051 A 
ATOM      5  C5  IND d   1      -1.791  -1.033  -1.034  0.00  0.00    -0.031 A 
ATOM      6  C6  IND d   1      -1.901  -1.498  -2.329  0.00  0.00     0.015 A 
ATOM      7  C7  IND d   1      -0.878  -1.364  -3.224  0.00  0.00    -0.016 A 
ATOM      8  C8  IND d   1       0.268  -0.724  -2.773  0.00  0.00    -0.047 A 
ATOM      9  C9  IND d   1       0.370  -0.212  -1.473  0.00  0.00    -0.096 A 
ATOM     10  HN1 IND d   1       1.629  -0.618  -4.242  0.00  0.00     0.298 HD
ENDROOT
TORSDOF 0
ENDMDL
