MODEL 1
REMARK minimizedAffinity 10.947814
REMARK minimizedRMSD -1
REMARK  0 active torsions:
REMARK  status: ('A' for Active; 'I' for Inactive)
ROOT
ATOM      1  N1  IND d   1      -0.204  -4.081  -1.175  0.00  0.00    -0.196 N 
ATOM      2  C2  IND d   1      -0.051  -5.071  -0.244  0.00  0.00     0.054 A 
ATOM      3  C3  IND d   1      -0.729  -4.763   0.885  0.00  0.00    -0.031 A 
ATOM      4  C4  IND d   1      -2.239  -2.738   1.385  0.00  0.00     0.051 A 
ATOM      5  C5  IND d   1      -2.657  -1.550   0.856  0.00  0.00    -0.031 A 
ATOM      6  C6  IND d   1      -2.274  -1.137  -0.403  0.00  0.00     0.015 A 
ATOM      7  C7  IND d   1      -1.463  -1.907  -1.189  0.00  0.00    -0.016 A 
ATOM      8  C8  IND d   1      -1.030  -3.111  -0.652  0.00  0.00    -0.047 A 
ATOM      9  C9  IND d   1      -1.382  -3.515   0.642  0.00  0.00    -0.096 A 
ATOM     10  HN1 IND d   1       0.156  -4.068  -1.956  0.00  0.00     0.298 HD
ENDROOT
TORSDOF 0
ENDMDL
