MODEL 1
REMARK minimizedAffinity 4.31176662
REMARK minimizedRMSD -1
REMARK  3 active torsions:
REMARK  status: ('A' for Active; 'I' for Inactive)
REMARK    1  A    between atoms: C3'_2  and  C2'_3 
REMARK    2  A    between atoms: C2'_3  and  C1'_4 
REMARK    3  A    between atoms: C1'_4  and  C1_5 
ROOT
ATOM      1  C1  N4B d   1       3.752  -2.647  -3.098  0.00  0.00    -0.075 A 
ATOM      2  C2  N4B d   1       3.512  -3.637  -4.076  0.00  0.00     0.002 A 
ATOM      3  C3  N4B d   1       4.483  -3.939  -5.000  0.00  0.00     0.002 A 
ATOM      4  C4  N4B d   1       5.688  -3.254  -4.976  0.00  0.00    -0.004 A 
ATOM      5  C5  N4B d   1       5.922  -2.317  -4.012  0.00  0.00     0.002 A 
ATOM      6  C6  N4B d   1       4.957  -2.007  -3.076  0.00  0.00     0.002 A 
ENDROOT
BRANCH   1   7
ATOM      7  C1' N4B d   1       2.690  -2.222  -2.121  0.00  0.00     0.057 C 
BRANCH   7   8
ATOM      8  C2' N4B d   1       1.366  -2.877  -2.504  0.00  0.00     0.009 C 
BRANCH   8   9
ATOM      9  C3' N4B d   1       1.059  -4.087  -1.639  0.00  0.00     0.004 C 
ATOM     10  C4' N4B d   1       0.309  -3.732  -0.389  0.00  0.00     0.003 C 
ENDBRANCH   8   9
ENDBRANCH   7   8
ENDBRANCH   1   7
TORSDOF 3
ENDMDL
