MODEL 1
REMARK minimizedAffinity 7.50025988
REMARK minimizedRMSD -1
REMARK  3 active torsions:
REMARK  status: ('A' for Active; 'I' for Inactive)
REMARK    1  A    between atoms: C3'_2  and  C2'_3 
REMARK    2  A    between atoms: C2'_3  and  C1'_4 
REMARK    3  A    between atoms: C1'_4  and  C1_5 
ROOT
ATOM      1  C1  N4B d   1      -0.889  -2.644  -5.191  0.00  0.00    -0.075 A 
ATOM      2  C2  N4B d   1      -0.036  -3.049  -4.141  0.00  0.00     0.002 A 
ATOM      3  C3  N4B d   1       0.730  -2.120  -3.481  0.00  0.00     0.002 A 
ATOM      4  C4  N4B d   1       0.674  -0.788  -3.864  0.00  0.00    -0.004 A 
ATOM      5  C5  N4B d   1      -0.171  -0.401  -4.863  0.00  0.00     0.002 A 
ATOM      6  C6  N4B d   1      -0.949  -1.324  -5.532  0.00  0.00     0.002 A 
ENDROOT
BRANCH   1   7
ATOM      7  C1' N4B d   1      -1.681  -3.636  -5.999  0.00  0.00     0.057 C 
BRANCH   7   8
ATOM      8  C2' N4B d   1      -1.133  -5.037  -5.748  0.00  0.00     0.009 C 
BRANCH   8   9
ATOM      9  C3' N4B d   1      -2.218  -5.999  -5.295  0.00  0.00     0.004 C 
ATOM     10  C4' N4B d   1      -3.524  -5.772  -5.997  0.00  0.00     0.003 C 
ENDBRANCH   8   9
ENDBRANCH   7   8
ENDBRANCH   1   7
TORSDOF 3
ENDMDL
