MODEL 1
REMARK minimizedAffinity 8.06305027
REMARK minimizedRMSD -1
REMARK  3 active torsions:
REMARK  status: ('A' for Active; 'I' for Inactive)
REMARK    1  A    between atoms: C3'_2  and  C2'_3 
REMARK    2  A    between atoms: C2'_3  and  C1'_4 
REMARK    3  A    between atoms: C1'_4  and  C1_5 
ROOT
ATOM      1  C1  N4B d   1       4.392  -1.811  -3.323  0.00  0.00    -0.075 A 
ATOM      2  C2  N4B d   1       3.700  -1.794  -2.092  0.00  0.00     0.002 A 
ATOM      3  C3  N4B d   1       2.387  -1.392  -2.049  0.00  0.00     0.002 A 
ATOM      4  C4  N4B d   1       1.755  -0.987  -3.214  0.00  0.00    -0.004 A 
ATOM      5  C5  N4B d   1       2.423  -1.031  -4.403  0.00  0.00     0.002 A 
ATOM      6  C6  N4B d   1       3.741  -1.436  -4.462  0.00  0.00     0.002 A 
ENDROOT
BRANCH   1   7
ATOM      7  C1' N4B d   1       5.853  -2.160  -3.407  0.00  0.00     0.057 C 
BRANCH   7   8
ATOM      8  C2' N4B d   1       5.997  -3.599  -3.895  0.00  0.00     0.009 C 
BRANCH   8   9
ATOM      9  C3' N4B d   1       5.998  -4.591  -2.745  0.00  0.00     0.004 C 
ATOM     10  C4' N4B d   1       5.734  -5.998  -3.192  0.00  0.00     0.003 C 
ENDBRANCH   8   9
ENDBRANCH   7   8
ENDBRANCH   1   7
TORSDOF 3
ENDMDL
