MODEL 1
REMARK minimizedAffinity -2.65781856
REMARK minimizedRMSD -1
REMARK  1 active torsions:
REMARK  status: ('A' for Active; 'I' for Inactive)
REMARK    1  A    between atoms: C3_4  and  O_7 
ROOT
ATOM      1  C   UNL d   1      -1.443  -0.224   1.961  0.00  0.00    -0.033 A 
ATOM      2  C1  UNL d   1      -0.130  -0.505   1.580  0.00  0.00     0.039 A 
ATOM      3  C2  UNL d   1       0.220  -1.795   1.175  0.00  0.00    -0.080 A 
ATOM      4  C3  UNL d   1      -0.751  -2.792   1.156  0.00  0.00     0.150 A 
ATOM      5  C4  UNL d   1      -2.062  -2.518   1.531  0.00  0.00    -0.007 A 
ATOM      6  C5  UNL d   1      -2.410  -1.229   1.935  0.00  0.00     0.039 A 
ENDROOT
BRANCH   4   7
ATOM      7  O   UNL d   1      -0.457  -4.067   0.773  0.00  0.00    -0.526 OA
ATOM      8  H5  UNL d   1       0.492  -4.115   0.569  0.00  0.00     0.418 HD
ENDBRANCH   4   7
TORSDOF 1
ENDMDL
