MODEL 1
REMARK minimizedAffinity -3.51826358
REMARK minimizedRMSD -1
REMARK  1 active torsions:
REMARK  status: ('A' for Active; 'I' for Inactive)
REMARK    1  A    between atoms: C3_4  and  O_7 
ROOT
ATOM      1  C   UNL d   1       0.202   0.120  -0.081  0.00  0.00    -0.033 A 
ATOM      2  C1  UNL d   1      -0.954   0.213   0.698  0.00  0.00     0.039 A 
ATOM      3  C2  UNL d   1      -1.730  -0.923   0.936  0.00  0.00    -0.080 A 
ATOM      4  C3  UNL d   1      -1.340  -2.143   0.391  0.00  0.00     0.150 A 
ATOM      5  C4  UNL d   1      -0.188  -2.244  -0.382  0.00  0.00    -0.007 A 
ATOM      6  C5  UNL d   1       0.585  -1.108  -0.619  0.00  0.00     0.039 A 
ENDROOT
BRANCH   4   7
ATOM      7  O   UNL d   1      -2.069  -3.278   0.592  0.00  0.00    -0.526 OA
ATOM      8  H5  UNL d   1      -2.852  -3.052   1.120  0.00  0.00     0.418 HD
ENDBRANCH   4   7
TORSDOF 1
ENDMDL
