MODEL 1
REMARK minimizedAffinity -2.26055813
REMARK minimizedRMSD -1
REMARK  1 active torsions:
REMARK  status: ('A' for Active; 'I' for Inactive)
REMARK    1  A    between atoms: C3_4  and  O_7 
ROOT
ATOM      1  C   UNL d   1       2.584   4.280   1.161  0.00  0.00    -0.033 A 
ATOM      2  C1  UNL d   1       1.208   4.358   1.386  0.00  0.00     0.039 A 
ATOM      3  C2  UNL d   1       0.378   3.297   1.020  0.00  0.00    -0.080 A 
ATOM      4  C3  UNL d   1       0.935   2.165   0.432  0.00  0.00     0.150 A 
ATOM      5  C4  UNL d   1       2.305   2.079   0.208  0.00  0.00    -0.007 A 
ATOM      6  C5  UNL d   1       3.133   3.140   0.573  0.00  0.00     0.039 A 
ENDROOT
BRANCH   4   7
ATOM      7  O   UNL d   1       0.164   1.106   0.054  0.00  0.00    -0.526 OA
ATOM      8  H5  UNL d   1      -0.765   1.318   0.244  0.00  0.00     0.418 HD
ENDBRANCH   4   7
TORSDOF 1
ENDMDL
