MODEL 1
REMARK minimizedAffinity -0.368218005
REMARK minimizedRMSD -1
REMARK  1 active torsions:
REMARK  status: ('A' for Active; 'I' for Inactive)
REMARK    1  A    between atoms: C3_4  and  O_7 
ROOT
ATOM      1  C   UNL d   1      -2.602  -1.823   1.371  0.00  0.00    -0.033 A 
ATOM      2  C1  UNL d   1      -2.236  -2.995   0.705  0.00  0.00     0.039 A 
ATOM      3  C2  UNL d   1      -1.022  -3.059   0.019  0.00  0.00    -0.080 A 
ATOM      4  C3  UNL d   1      -0.184  -1.948   0.008  0.00  0.00     0.150 A 
ATOM      5  C4  UNL d   1      -0.540  -0.779   0.672  0.00  0.00    -0.007 A 
ATOM      6  C5  UNL d   1      -1.754  -0.716   1.356  0.00  0.00     0.039 A 
ENDROOT
BRANCH   4   7
ATOM      7  O   UNL d   1       1.009  -1.962  -0.652  0.00  0.00    -0.526 OA
ATOM      8  H5  UNL d   1       1.109  -2.824  -1.089  0.00  0.00     0.418 HD
ENDBRANCH   4   7
TORSDOF 1
ENDMDL
