MODEL 1
REMARK minimizedAffinity -4.89347315
REMARK minimizedRMSD -1
REMARK  1 active torsions:
REMARK  status: ('A' for Active; 'I' for Inactive)
REMARK    1  A    between atoms: C3_4  and  O_7 
ROOT
ATOM      1  C   UNL d   1      -1.082   0.364   0.819  0.00  0.00    -0.033 A 
ATOM      2  C1  UNL d   1       0.006   0.084  -0.011  0.00  0.00     0.039 A 
ATOM      3  C2  UNL d   1       0.467  -1.227  -0.144  0.00  0.00    -0.080 A 
ATOM      4  C3  UNL d   1      -0.168  -2.248   0.558  0.00  0.00     0.150 A 
ATOM      5  C4  UNL d   1      -1.254  -1.978   1.383  0.00  0.00    -0.007 A 
ATOM      6  C5  UNL d   1      -1.712  -0.668   1.515  0.00  0.00     0.039 A 
ENDROOT
BRANCH   4   7
ATOM      7  O   UNL d   1       0.249  -3.543   0.464  0.00  0.00    -0.526 OA
ATOM      8  H5  UNL d   1       1.026  -3.574  -0.119  0.00  0.00     0.418 HD
ENDBRANCH   4   7
TORSDOF 1
ENDMDL
