MODEL 1
REMARK minimizedAffinity -3.13734198
REMARK minimizedRMSD -1
REMARK  1 active torsions:
REMARK  status: ('A' for Active; 'I' for Inactive)
REMARK    1  A    between atoms: C3_4  and  O_7 
ROOT
ATOM      1  C   UNL d   1      -0.474   0.905   0.030  0.00  0.00    -0.033 A 
ATOM      2  C1  UNL d   1      -1.171   0.416   1.136  0.00  0.00     0.039 A 
ATOM      3  C2  UNL d   1      -1.042  -0.924   1.509  0.00  0.00    -0.080 A 
ATOM      4  C3  UNL d   1      -0.213  -1.761   0.768  0.00  0.00     0.150 A 
ATOM      5  C4  UNL d   1       0.487  -1.280  -0.334  0.00  0.00    -0.007 A 
ATOM      6  C5  UNL d   1       0.356   0.058  -0.704  0.00  0.00     0.039 A 
ENDROOT
BRANCH   4   7
ATOM      7  O   UNL d   1      -0.058  -3.077   1.090  0.00  0.00    -0.526 OA
ATOM      8  H5  UNL d   1      -0.624  -3.275   1.854  0.00  0.00     0.418 HD
ENDBRANCH   4   7
TORSDOF 1
ENDMDL
