MODEL 1
REMARK minimizedAffinity -4.10728884
REMARK minimizedRMSD -1
REMARK  1 active torsions:
REMARK  status: ('A' for Active; 'I' for Inactive)
REMARK    1  A    between atoms: C3_4  and  O_7 
ROOT
ATOM      1  C   UNL d   1       0.216  -0.995  -0.087  0.00  0.00    -0.033 A 
ATOM      2  C1  UNL d   1      -0.711  -0.309   0.699  0.00  0.00     0.039 A 
ATOM      3  C2  UNL d   1      -1.809  -0.984   1.237  0.00  0.00    -0.080 A 
ATOM      4  C3  UNL d   1      -1.966  -2.344   0.982  0.00  0.00     0.150 A 
ATOM      5  C4  UNL d   1      -1.044  -3.035   0.203  0.00  0.00    -0.007 A 
ATOM      6  C5  UNL d   1       0.051  -2.359  -0.334  0.00  0.00     0.039 A 
ENDROOT
BRANCH   4   7
ATOM      7  O   UNL d   1      -3.024  -3.045   1.481  0.00  0.00    -0.526 OA
ATOM      8  H5  UNL d   1      -3.593  -2.432   1.976  0.00  0.00     0.418 HD
ENDBRANCH   4   7
TORSDOF 1
ENDMDL
