MODEL 1
REMARK minimizedAffinity -4.84828711
REMARK minimizedRMSD -1
REMARK  1 active torsions:
REMARK  status: ('A' for Active; 'I' for Inactive)
REMARK    1  A    between atoms: C3_4  and  O_7 
ROOT
ATOM      1  C   UNL d   1      -0.616  -3.412   0.531  0.00  0.00    -0.033 A 
ATOM      2  C1  UNL d   1      -1.380  -2.546   1.315  0.00  0.00     0.039 A 
ATOM      3  C2  UNL d   1      -1.185  -1.166   1.227  0.00  0.00    -0.080 A 
ATOM      4  C3  UNL d   1      -0.225  -0.666   0.352  0.00  0.00     0.150 A 
ATOM      5  C4  UNL d   1       0.537  -1.523  -0.435  0.00  0.00    -0.007 A 
ATOM      6  C5  UNL d   1       0.342  -2.901  -0.345  0.00  0.00     0.039 A 
ENDROOT
BRANCH   4   7
ATOM      7  O   UNL d   1       0.004   0.673   0.234  0.00  0.00    -0.526 OA
ATOM      8  H5  UNL d   1      -0.575   1.140   0.859  0.00  0.00     0.418 HD
ENDBRANCH   4   7
TORSDOF 1
ENDMDL
