MODEL 1
REMARK minimizedAffinity -4.79910469
REMARK minimizedRMSD -1
REMARK  1 active torsions:
REMARK  status: ('A' for Active; 'I' for Inactive)
REMARK    1  A    between atoms: C3_4  and  O_7 
ROOT
ATOM      1  C   UNL d   1      -0.220  -3.056   0.405  0.00  0.00    -0.033 A 
ATOM      2  C1  UNL d   1      -0.879  -2.280   1.360  0.00  0.00     0.039 A 
ATOM      3  C2  UNL d   1      -0.722  -0.893   1.365  0.00  0.00    -0.080 A 
ATOM      4  C3  UNL d   1       0.095  -0.295   0.410  0.00  0.00     0.150 A 
ATOM      5  C4  UNL d   1       0.752  -1.061  -0.547  0.00  0.00    -0.007 A 
ATOM      6  C5  UNL d   1       0.595  -2.447  -0.549  0.00  0.00     0.039 A 
ENDROOT
BRANCH   4   7
ATOM      7  O   UNL d   1       0.283   1.055   0.377  0.00  0.00    -0.526 OA
ATOM      8  H5  UNL d   1      -0.209   1.452   1.115  0.00  0.00     0.418 HD
ENDBRANCH   4   7
TORSDOF 1
ENDMDL
