MODEL 1
REMARK minimizedAffinity -4.01057911
REMARK minimizedRMSD -1
REMARK  1 active torsions:
REMARK  status: ('A' for Active; 'I' for Inactive)
REMARK    1  A    between atoms: C3_4  and  O_7 
ROOT
ATOM      1  C   UNL d   1      -1.111  -3.157   0.383  0.00  0.00    -0.033 A 
ATOM      2  C1  UNL d   1      -1.672  -2.148   1.168  0.00  0.00     0.039 A 
ATOM      3  C2  UNL d   1      -1.190  -0.840   1.078  0.00  0.00    -0.080 A 
ATOM      4  C3  UNL d   1      -0.149  -0.556   0.197  0.00  0.00     0.150 A 
ATOM      5  C4  UNL d   1       0.411  -1.555  -0.591  0.00  0.00    -0.007 A 
ATOM      6  C5  UNL d   1      -0.071  -2.860  -0.498  0.00  0.00     0.039 A 
ENDROOT
BRANCH   4   7
ATOM      7  O   UNL d   1       0.358   0.704   0.077  0.00  0.00    -0.526 OA
ATOM      8  H5  UNL d   1      -0.107   1.284   0.704  0.00  0.00     0.418 HD
ENDBRANCH   4   7
TORSDOF 1
ENDMDL
