MODEL 1
REMARK minimizedAffinity -4.60427618
REMARK minimizedRMSD -1
REMARK  1 active torsions:
REMARK  status: ('A' for Active; 'I' for Inactive)
REMARK    1  A    between atoms: C3_4  and  O_7 
ROOT
ATOM      1  C   UNL d   1      -0.561   0.070   0.541  0.00  0.00    -0.033 A 
ATOM      2  C1  UNL d   1       0.157  -0.520  -0.501  0.00  0.00     0.039 A 
ATOM      3  C2  UNL d   1       0.186  -1.910  -0.631  0.00  0.00    -0.080 A 
ATOM      4  C3  UNL d   1      -0.507  -2.697   0.284  0.00  0.00     0.150 A 
ATOM      5  C4  UNL d   1      -1.228  -2.116   1.322  0.00  0.00    -0.007 A 
ATOM      6  C5  UNL d   1      -1.255  -0.728   1.452  0.00  0.00     0.039 A 
ENDROOT
BRANCH   4   7
ATOM      7  O   UNL d   1      -0.504  -4.058   0.200  0.00  0.00    -0.526 OA
ATOM      8  H5  UNL d   1       0.058  -4.319  -0.548  0.00  0.00     0.418 HD
ENDBRANCH   4   7
TORSDOF 1
ENDMDL
