MODEL 1
REMARK minimizedAffinity -4.05315304
REMARK minimizedRMSD -1
REMARK  1 active torsions:
REMARK  status: ('A' for Active; 'I' for Inactive)
REMARK    1  A    between atoms: C3_4  and  O_7 
ROOT
ATOM      1  C   UNL d   1      -0.797  -3.896  -0.068  0.00  0.00    -0.033 A 
ATOM      2  C1  UNL d   1      -1.009  -3.094   1.055  0.00  0.00     0.039 A 
ATOM      3  C2  UNL d   1      -0.629  -1.750   1.038  0.00  0.00    -0.080 A 
ATOM      4  C3  UNL d   1      -0.042  -1.221  -0.108  0.00  0.00     0.150 A 
ATOM      5  C4  UNL d   1       0.168  -2.013  -1.232  0.00  0.00    -0.007 A 
ATOM      6  C5  UNL d   1      -0.211  -3.355  -1.213  0.00  0.00     0.039 A 
ENDROOT
BRANCH   4   7
ATOM      7  O   UNL d   1       0.349   0.083  -0.171  0.00  0.00    -0.526 OA
ATOM      8  H5  UNL d   1       0.169   0.500   0.688  0.00  0.00     0.418 HD
ENDBRANCH   4   7
TORSDOF 1
ENDMDL
