MODEL 1
REMARK minimizedAffinity -4.91689873
REMARK minimizedRMSD -1
REMARK  1 active torsions:
REMARK  status: ('A' for Active; 'I' for Inactive)
REMARK    1  A    between atoms: C3_4  and  O_7 
ROOT
ATOM      1  C   UNL d   1      -0.845  -0.112   0.462  0.00  0.00    -0.033 A 
ATOM      2  C1  UNL d   1      -1.551  -0.943   1.334  0.00  0.00     0.039 A 
ATOM      3  C2  UNL d   1      -1.218  -2.295   1.437  0.00  0.00    -0.080 A 
ATOM      4  C3  UNL d   1      -0.176  -2.802   0.665  0.00  0.00     0.150 A 
ATOM      5  C4  UNL d   1       0.535  -1.979  -0.203  0.00  0.00    -0.007 A 
ATOM      6  C5  UNL d   1       0.199  -0.630  -0.305  0.00  0.00     0.039 A 
ENDROOT
BRANCH   4   7
ATOM      7  O   UNL d   1       0.183  -4.116   0.727  0.00  0.00    -0.526 OA
ATOM      8  H5  UNL d   1      -0.414  -4.569   1.346  0.00  0.00     0.418 HD
ENDBRANCH   4   7
TORSDOF 1
ENDMDL
