MODEL 1
REMARK minimizedAffinity -5.23611403
REMARK minimizedRMSD -1
REMARK  1 active torsions:
REMARK  status: ('A' for Active; 'I' for Inactive)
REMARK    1  A    between atoms: C3_4  and  O_7 
ROOT
ATOM      1  C   UNL d   1       0.063  -0.082  -1.150  0.00  0.00    -0.033 A 
ATOM      2  C1  UNL d   1       0.436  -1.250  -1.818  0.00  0.00     0.039 A 
ATOM      3  C2  UNL d   1       0.367  -2.482  -1.166  0.00  0.00    -0.080 A 
ATOM      4  C3  UNL d   1      -0.077  -2.534   0.152  0.00  0.00     0.150 A 
ATOM      5  C4  UNL d   1      -0.454  -1.375   0.823  0.00  0.00    -0.007 A 
ATOM      6  C5  UNL d   1      -0.384  -0.145   0.171  0.00  0.00     0.039 A 
ENDROOT
BRANCH   4   7
ATOM      7  O   UNL d   1      -0.157  -3.713   0.832  0.00  0.00    -0.526 OA
ATOM      8  H5  UNL d   1       0.163  -4.425   0.252  0.00  0.00     0.418 HD
ENDBRANCH   4   7
TORSDOF 1
ENDMDL
