MODEL 1
REMARK minimizedAffinity -4.27180004
REMARK minimizedRMSD -1
REMARK  1 active torsions:
REMARK  status: ('A' for Active; 'I' for Inactive)
REMARK    1  A    between atoms: C3_4  and  O_7 
ROOT
ATOM      1  C   UNL d   1      -0.313   0.438   0.073  0.00  0.00    -0.033 A 
ATOM      2  C1  UNL d   1       0.663  -0.238  -0.662  0.00  0.00     0.039 A 
ATOM      3  C2  UNL d   1       0.801  -1.622  -0.536  0.00  0.00    -0.080 A 
ATOM      4  C3  UNL d   1      -0.041  -2.317   0.327  0.00  0.00     0.150 A 
ATOM      5  C4  UNL d   1      -1.017  -1.651   1.060  0.00  0.00    -0.007 A 
ATOM      6  C5  UNL d   1      -1.154  -0.269   0.934  0.00  0.00     0.039 A 
ENDROOT
BRANCH   4   7
ATOM      7  O   UNL d   1       0.060  -3.667   0.487  0.00  0.00    -0.526 OA
ATOM      8  H5  UNL d   1       0.796  -3.988  -0.060  0.00  0.00     0.418 HD
ENDBRANCH   4   7
TORSDOF 1
ENDMDL
