MODEL 1
REMARK minimizedAffinity -0.578439116
REMARK minimizedRMSD -1
REMARK  1 active torsions:
REMARK  status: ('A' for Active; 'I' for Inactive)
REMARK    1  A    between atoms: C1_2  and  C2_3 
ROOT
ATOM      1  C2  UNL d   1       2.744   4.185  -5.962  0.00  0.00    -0.076 A 
ATOM      2  C3  UNL d   1       3.070   5.552  -5.979  0.00  0.00     0.004 A 
ATOM      3  C4  UNL d   1       4.399   5.973  -5.996  0.00  0.00    -0.003 A 
ATOM      4  C5  UNL d   1       5.423   5.032  -5.997  0.00  0.00     0.000 A 
ATOM      5  C6  UNL d   1       5.118   3.672  -5.998  0.00  0.00     0.000 A 
ATOM      6  C7  UNL d   1       3.783   3.231  -5.998  0.00  0.00    -0.073 A 
ATOM      7  C8  UNL d   1       3.511   1.752  -5.993  0.00  0.00     0.078 C 
ENDROOT
BRANCH   1   8
ATOM      8  C1  UNL d   1       1.285   3.789  -5.917  0.00  0.00     0.053 C 
ATOM      9  C   UNL d   1       0.353   4.989  -5.986  0.00  0.00     0.018 C 
ENDBRANCH   1   8
TORSDOF 1
ENDMDL
