MODEL 1
REMARK minimizedAffinity 1.7989496
REMARK minimizedRMSD -1
REMARK  1 active torsions:
REMARK  status: ('A' for Active; 'I' for Inactive)
REMARK    1  A    between atoms: C1_2  and  C2_3 
ROOT
ATOM      1  C2  UNL d   1      -0.528   4.784  -5.969  0.00  0.00    -0.076 A 
ATOM      2  C3  UNL d   1       0.735   5.401  -5.986  0.00  0.00     0.004 A 
ATOM      3  C4  UNL d   1       1.904   4.642  -5.999  0.00  0.00    -0.003 A 
ATOM      4  C5  UNL d   1       1.829   3.254  -5.995  0.00  0.00     0.000 A 
ATOM      5  C6  UNL d   1       0.584   2.625  -5.996  0.00  0.00     0.000 A 
ATOM      6  C7  UNL d   1      -0.604   3.375  -6.000  0.00  0.00    -0.073 A 
ATOM      7  C8  UNL d   1      -1.919   2.645  -5.995  0.00  0.00     0.078 C 
ENDROOT
BRANCH   1   8
ATOM      8  C1  UNL d   1      -1.761   5.659  -5.928  0.00  0.00     0.053 C 
ATOM      9  C   UNL d   1      -2.352   5.767  -4.531  0.00  0.00     0.018 C 
ENDBRANCH   1   8
TORSDOF 1
ENDMDL
