MODEL 1
REMARK minimizedAffinity 7.32261086
REMARK minimizedRMSD -1
REMARK  1 active torsions:
REMARK  status: ('A' for Active; 'I' for Inactive)
REMARK    1  A    between atoms: C1_2  and  C2_3 
ROOT
ATOM      1  C2  UNL d   1      -2.672   3.926  -5.950  0.00  0.00    -0.076 A 
ATOM      2  C3  UNL d   1      -2.616   5.330  -5.965  0.00  0.00     0.004 A 
ATOM      3  C4  UNL d   1      -1.394   6.000  -5.988  0.00  0.00    -0.003 A 
ATOM      4  C5  UNL d   1      -0.207   5.275  -5.996  0.00  0.00     0.000 A 
ATOM      5  C6  UNL d   1      -0.244   3.881  -5.999  0.00  0.00     0.000 A 
ATOM      6  C7  UNL d   1      -1.468   3.191  -5.993  0.00  0.00    -0.073 A 
ATOM      7  C8  UNL d   1      -1.449   1.687  -5.991  0.00  0.00     0.078 C 
ENDROOT
BRANCH   1   8
ATOM      8  C1  UNL d   1      -4.026   3.255  -5.899  0.00  0.00     0.053 C 
ATOM      9  C   UNL d   1      -5.173   4.250  -5.994  0.00  0.00     0.018 C 
ENDBRANCH   1   8
TORSDOF 1
ENDMDL
