MODEL 1
REMARK minimizedAffinity 1.74261296
REMARK minimizedRMSD -1
REMARK  1 active torsions:
REMARK  status: ('A' for Active; 'I' for Inactive)
REMARK    1  A    between atoms: C1_2  and  C2_3 
ROOT
ATOM      1  C2  UNL d   1      -0.660   4.211  -5.964  0.00  0.00    -0.076 A 
ATOM      2  C3  UNL d   1       0.728   3.991  -5.986  0.00  0.00     0.004 A 
ATOM      3  C4  UNL d   1       1.250   2.698  -5.999  0.00  0.00    -0.003 A 
ATOM      4  C5  UNL d   1       0.391   1.604  -5.990  0.00  0.00     0.000 A 
ATOM      5  C6  UNL d   1      -0.989   1.804  -5.986  0.00  0.00     0.000 A 
ATOM      6  C7  UNL d   1      -1.531   3.101  -5.989  0.00  0.00    -0.073 A 
ATOM      7  C8  UNL d   1      -3.027   3.258  -5.978  0.00  0.00     0.078 C 
ENDROOT
BRANCH   1   8
ATOM      8  C1  UNL d   1      -1.166   5.635  -5.923  0.00  0.00     0.053 C 
ATOM      9  C   UNL d   1      -1.791   5.993  -4.583  0.00  0.00     0.018 C 
ENDBRANCH   1   8
TORSDOF 1
ENDMDL
