MODEL 1
REMARK minimizedAffinity 3.99255919
REMARK minimizedRMSD -1
REMARK  1 active torsions:
REMARK  status: ('A' for Active; 'I' for Inactive)
REMARK    1  A    between atoms: C1_2  and  C2_3 
ROOT
ATOM      1  C2  UNL d   1      -0.277   3.479  -5.960  0.00  0.00    -0.076 A 
ATOM      2  C3  UNL d   1       0.086   2.121  -5.922  0.00  0.00     0.004 A 
ATOM      3  C4  UNL d   1       1.426   1.736  -5.926  0.00  0.00    -0.003 A 
ATOM      4  C5  UNL d   1       2.424   2.703  -5.969  0.00  0.00     0.000 A 
ATOM      5  C6  UNL d   1       2.083   4.055  -5.989  0.00  0.00     0.000 A 
ATOM      6  C7  UNL d   1       0.737   4.460  -5.969  0.00  0.00    -0.073 A 
ATOM      7  C8  UNL d   1       0.426   5.931  -5.998  0.00  0.00     0.078 C 
ENDROOT
BRANCH   1   8
ATOM      8  C1  UNL d   1      -1.746   3.835  -5.981  0.00  0.00     0.053 C 
ATOM      9  C   UNL d   1      -2.643   2.623  -5.777  0.00  0.00     0.018 C 
ENDBRANCH   1   8
TORSDOF 1
ENDMDL
