MODEL 1
REMARK minimizedAffinity 1.26671016
REMARK minimizedRMSD -1
REMARK  1 active torsions:
REMARK  status: ('A' for Active; 'I' for Inactive)
REMARK    1  A    between atoms: C1_2  and  C2_3 
ROOT
ATOM      1  C2  UNL d   1      -0.642   4.313  -5.262  0.00  0.00    -0.076 A 
ATOM      2  C3  UNL d   1      -1.674   4.922  -5.998  0.00  0.00     0.004 A 
ATOM      3  C4  UNL d   1      -2.973   4.418  -5.966  0.00  0.00    -0.003 A 
ATOM      4  C5  UNL d   1      -3.261   3.295  -5.197  0.00  0.00     0.000 A 
ATOM      5  C6  UNL d   1      -2.254   2.689  -4.447  0.00  0.00     0.000 A 
ATOM      6  C7  UNL d   1      -0.943   3.195  -4.456  0.00  0.00    -0.073 A 
ATOM      7  C8  UNL d   1       0.105   2.497  -3.633  0.00  0.00     0.078 C 
ENDROOT
BRANCH   1   8
ATOM      8  C1  UNL d   1       0.752   4.889  -5.357  0.00  0.00     0.053 C 
ATOM      9  C   UNL d   1       1.738   3.925  -6.000  0.00  0.00     0.018 C 
ENDBRANCH   1   8
TORSDOF 1
ENDMDL
