MODEL 1
REMARK minimizedAffinity 3.22813249
REMARK minimizedRMSD -1
REMARK  1 active torsions:
REMARK  status: ('A' for Active; 'I' for Inactive)
REMARK    1  A    between atoms: C1_2  and  C2_3 
ROOT
ATOM      1  C2  UNL d   1      -0.656   3.578  -5.806  0.00  0.00    -0.076 A 
ATOM      2  C3  UNL d   1      -0.956   2.206  -5.862  0.00  0.00     0.004 A 
ATOM      3  C4  UNL d   1      -2.274   1.763  -5.957  0.00  0.00    -0.003 A 
ATOM      4  C5  UNL d   1      -3.314   2.686  -6.000  0.00  0.00     0.000 A 
ATOM      5  C6  UNL d   1      -3.033   4.051  -5.964  0.00  0.00     0.000 A 
ATOM      6  C7  UNL d   1      -1.708   4.514  -5.884  0.00  0.00    -0.073 A 
ATOM      7  C8  UNL d   1      -1.464   5.998  -5.842  0.00  0.00     0.078 C 
ENDROOT
BRANCH   1   8
ATOM      8  C1  UNL d   1       0.791   3.998  -5.675  0.00  0.00     0.053 C 
ATOM      9  C   UNL d   1       1.755   2.837  -5.871  0.00  0.00     0.018 C 
ENDBRANCH   1   8
TORSDOF 1
ENDMDL
