MODEL 1
REMARK minimizedAffinity 1.98741591
REMARK minimizedRMSD -1
REMARK  1 active torsions:
REMARK  status: ('A' for Active; 'I' for Inactive)
REMARK    1  A    between atoms: C1_2  and  C2_3 
ROOT
ATOM      1  C2  UNL d   1       2.378   4.285  -5.979  0.00  0.00    -0.076 A 
ATOM      2  C3  UNL d   1       1.683   5.506  -5.971  0.00  0.00     0.004 A 
ATOM      3  C4  UNL d   1       0.289   5.538  -5.981  0.00  0.00    -0.003 A 
ATOM      4  C5  UNL d   1      -0.431   4.349  -5.999  0.00  0.00     0.000 A 
ATOM      5  C6  UNL d   1       0.242   3.128  -5.990  0.00  0.00     0.000 A 
ATOM      6  C7  UNL d   1       1.647   3.078  -5.963  0.00  0.00    -0.073 A 
ATOM      7  C8  UNL d   1       2.321   1.734  -5.960  0.00  0.00     0.078 C 
ENDROOT
BRANCH   1   8
ATOM      8  C1  UNL d   1       3.890   4.312  -5.995  0.00  0.00     0.053 C 
ATOM      9  C   UNL d   1       4.448   5.726  -5.933  0.00  0.00     0.018 C 
ENDBRANCH   1   8
TORSDOF 1
ENDMDL
