MODEL 1
REMARK minimizedAffinity 3.88981891
REMARK minimizedRMSD -1
REMARK  1 active torsions:
REMARK  status: ('A' for Active; 'I' for Inactive)
REMARK    1  A    between atoms: C1_2  and  C2_3 
ROOT
ATOM      1  C2  UNL d   1      -1.373   3.845  -5.678  0.00  0.00    -0.076 A 
ATOM      2  C3  UNL d   1      -0.118   3.215  -5.741  0.00  0.00     0.004 A 
ATOM      3  C4  UNL d   1       1.050   3.959  -5.900  0.00  0.00    -0.003 A 
ATOM      4  C5  UNL d   1       0.982   5.344  -5.998  0.00  0.00     0.000 A 
ATOM      5  C6  UNL d   1      -0.253   5.987  -5.919  0.00  0.00     0.000 A 
ATOM      6  C7  UNL d   1      -1.439   5.253  -5.742  0.00  0.00    -0.073 A 
ATOM      7  C8  UNL d   1      -2.744   5.997  -5.670  0.00  0.00     0.078 C 
ENDROOT
BRANCH   1   8
ATOM      8  C1  UNL d   1      -2.608   2.985  -5.531  0.00  0.00     0.053 C 
ATOM      9  C   UNL d   1      -3.875   3.706  -5.966  0.00  0.00     0.018 C 
ENDBRANCH   1   8
TORSDOF 1
ENDMDL
