MODEL 1
REMARK minimizedAffinity 5.49597645
REMARK minimizedRMSD -1
REMARK  1 active torsions:
REMARK  status: ('A' for Active; 'I' for Inactive)
REMARK    1  A    between atoms: C1_2  and  C2_3 
ROOT
ATOM      1  C2  UNL d   1      -1.947   3.729  -5.969  0.00  0.00    -0.076 A 
ATOM      2  C3  UNL d   1      -3.145   2.993  -5.987  0.00  0.00     0.004 A 
ATOM      3  C4  UNL d   1      -4.382   3.636  -6.000  0.00  0.00    -0.003 A 
ATOM      4  C5  UNL d   1      -4.441   5.026  -5.996  0.00  0.00     0.000 A 
ATOM      5  C6  UNL d   1      -3.262   5.771  -5.996  0.00  0.00     0.000 A 
ATOM      6  C7  UNL d   1      -2.007   5.139  -6.000  0.00  0.00    -0.073 A 
ATOM      7  C8  UNL d   1      -0.768   5.992  -5.994  0.00  0.00     0.078 C 
ENDROOT
BRANCH   1   8
ATOM      8  C1  UNL d   1      -0.636   2.977  -5.929  0.00  0.00     0.053 C 
ATOM      9  C   UNL d   1       0.569   3.902  -5.999  0.00  0.00     0.018 C 
ENDBRANCH   1   8
TORSDOF 1
ENDMDL
