MODEL 1
REMARK minimizedAffinity -3.29554391
REMARK minimizedRMSD -1
REMARK  1 active torsions:
REMARK  status: ('A' for Active; 'I' for Inactive)
REMARK    1  A    between atoms: C1_2  and  C2_3 
ROOT
ATOM      1  C2  UNL d   1       1.072   4.951  -5.978  0.00  0.00    -0.076 A 
ATOM      2  C3  UNL d   1       2.359   5.516  -5.995  0.00  0.00     0.004 A 
ATOM      3  C4  UNL d   1       3.496   4.709  -5.999  0.00  0.00    -0.003 A 
ATOM      4  C5  UNL d   1       3.364   3.325  -5.985  0.00  0.00     0.000 A 
ATOM      5  C6  UNL d   1       2.094   2.748  -5.986  0.00  0.00     0.000 A 
ATOM      6  C7  UNL d   1       0.938   3.547  -5.999  0.00  0.00    -0.073 A 
ATOM      7  C8  UNL d   1      -0.406   2.871  -5.992  0.00  0.00     0.078 C 
ENDROOT
BRANCH   1   8
ATOM      8  C1  UNL d   1      -0.124   5.876  -5.947  0.00  0.00     0.053 C 
ATOM      9  C   UNL d   1      -0.731   5.998  -4.558  0.00  0.00     0.018 C 
ENDBRANCH   1   8
TORSDOF 1
ENDMDL
