MODEL 1
REMARK minimizedAffinity -0.327246577
REMARK minimizedRMSD -1
REMARK  1 active torsions:
REMARK  status: ('A' for Active; 'I' for Inactive)
REMARK    1  A    between atoms: C1_2  and  C2_3 
ROOT
ATOM      1  C2  UNL d   1      -0.915   4.902  -5.967  0.00  0.00    -0.076 A 
ATOM      2  C3  UNL d   1       0.307   5.596  -5.985  0.00  0.00     0.004 A 
ATOM      3  C4  UNL d   1       1.521   4.910  -6.000  0.00  0.00    -0.003 A 
ATOM      4  C5  UNL d   1       1.532   3.520  -5.998  0.00  0.00     0.000 A 
ATOM      5  C6  UNL d   1       0.328   2.815  -5.998  0.00  0.00     0.000 A 
ATOM      6  C7  UNL d   1      -0.904   3.491  -5.999  0.00  0.00    -0.073 A 
ATOM      7  C8  UNL d   1      -2.171   2.680  -5.993  0.00  0.00     0.078 C 
ENDROOT
BRANCH   1   8
ATOM      8  C1  UNL d   1      -2.200   5.698  -5.924  0.00  0.00     0.053 C 
ATOM      9  C   UNL d   1      -2.652   5.998  -4.503  0.00  0.00     0.018 C 
ENDBRANCH   1   8
TORSDOF 1
ENDMDL
