MODEL 1
REMARK minimizedAffinity -2.03689146
REMARK minimizedRMSD -1
REMARK  1 active torsions:
REMARK  status: ('A' for Active; 'I' for Inactive)
REMARK    1  A    between atoms: C1_2  and  C2_3 
ROOT
ATOM      1  C2  UNL d   1      -2.111   3.607  -5.991  0.00  0.00    -0.076 A 
ATOM      2  C3  UNL d   1      -3.485   3.307  -5.999  0.00  0.00     0.004 A 
ATOM      3  C4  UNL d   1      -4.441   4.321  -5.970  0.00  0.00    -0.003 A 
ATOM      4  C5  UNL d   1      -4.039   5.652  -5.933  0.00  0.00     0.000 A 
ATOM      5  C6  UNL d   1      -2.681   5.968  -5.943  0.00  0.00     0.000 A 
ATOM      6  C7  UNL d   1      -1.704   4.959  -5.988  0.00  0.00    -0.073 A 
ATOM      7  C8  UNL d   1      -0.254   5.357  -5.991  0.00  0.00     0.078 C 
ENDROOT
BRANCH   1   8
ATOM      8  C1  UNL d   1      -1.120   2.465  -5.997  0.00  0.00     0.053 C 
ATOM      9  C   UNL d   1       0.321   2.945  -5.925  0.00  0.00     0.018 C 
ENDBRANCH   1   8
TORSDOF 1
ENDMDL
