MODEL 1
REMARK minimizedAffinity 8.77980232
REMARK minimizedRMSD -1
REMARK  1 active torsions:
REMARK  status: ('A' for Active; 'I' for Inactive)
REMARK    1  A    between atoms: C1_2  and  C2_3 
ROOT
ATOM      1  C2  UNL d   1       1.887  -3.698  -2.779  0.00  0.00    -0.076 A 
ATOM      2  C3  UNL d   1       1.903  -3.573  -1.379  0.00  0.00     0.004 A 
ATOM      3  C4  UNL d   1       2.783  -2.695  -0.747  0.00  0.00    -0.003 A 
ATOM      4  C5  UNL d   1       3.660  -1.928  -1.506  0.00  0.00     0.000 A 
ATOM      5  C6  UNL d   1       3.645  -2.027  -2.897  0.00  0.00     0.000 A 
ATOM      6  C7  UNL d   1       2.753  -2.895  -3.550  0.00  0.00    -0.073 A 
ATOM      7  C8  UNL d   1       2.785  -2.965  -5.052  0.00  0.00     0.078 C 
ENDROOT
BRANCH   1   8
ATOM      8  C1  UNL d   1       0.930  -4.687  -3.406  0.00  0.00     0.053 C 
ATOM      9  C   UNL d   1      -0.497  -4.163  -3.458  0.00  0.00     0.018 C 
ENDBRANCH   1   8
TORSDOF 1
ENDMDL
