MODEL 1
REMARK minimizedAffinity -4.0787468
REMARK minimizedRMSD -1
REMARK  2 active torsions:
REMARK  status: ('A' for Active; 'I' for Inactive)
REMARK    1  A    between atoms: C2'_3  and  C1'_4 
REMARK    2  A    between atoms: C1'_4  and  C1_5 
ROOT
ATOM      1  C1  I4B d   1      -0.106   0.068  -0.384  0.00  0.00    -0.075 A 
ATOM      2  C2  I4B d   1       1.117  -0.144   0.201  0.00  0.00     0.003 A 
ATOM      3  C3  I4B d   1       1.211  -0.365   1.597  0.00  0.00     0.002 A 
ATOM      4  C4  I4B d   1       0.070  -0.315   2.371  0.00  0.00    -0.004 A 
ATOM      5  C5  I4B d   1      -1.172  -0.122   1.773  0.00  0.00     0.002 A 
ATOM      6  C6  I4B d   1      -1.262   0.059   0.385  0.00  0.00     0.003 A 
ENDROOT
BRANCH   1   7
ATOM      7  C1' I4B d   1      -0.165   0.331  -1.856  0.00  0.00     0.060 C 
BRANCH   7   8
ATOM      8  C2' I4B d   1      -0.728   1.723  -2.059  0.00  0.00    -0.013 C 
ATOM      9  C4' I4B d   1       0.339   2.679  -2.523  0.00  0.00     0.013 C 
ATOM     10  C3' I4B d   1      -1.843   1.629  -3.057  0.00  0.00     0.013 C 
ENDBRANCH   7   8
ENDBRANCH   1   7
TORSDOF 2
ENDMDL
