MODEL 1
REMARK minimizedAffinity -5.15464973
REMARK minimizedRMSD -1
REMARK  2 active torsions:
REMARK  status: ('A' for Active; 'I' for Inactive)
REMARK    1  A    between atoms: C2'_3  and  C1'_4 
REMARK    2  A    between atoms: C1'_4  and  C1_5 
ROOT
ATOM      1  C1  I4B d   1       0.152  -0.007  -0.562  0.00  0.00    -0.075 A 
ATOM      2  C2  I4B d   1       1.441  -0.265  -0.166  0.00  0.00     0.003 A 
ATOM      3  C3  I4B d   1       1.738  -0.473   1.203  0.00  0.00     0.002 A 
ATOM      4  C4  I4B d   1       0.732  -0.366   2.141  0.00  0.00    -0.004 A 
ATOM      5  C5  I4B d   1      -0.579  -0.128   1.736  0.00  0.00     0.002 A 
ATOM      6  C6  I4B d   1      -0.873   0.041   0.375  0.00  0.00     0.003 A 
ENDROOT
BRANCH   1   7
ATOM      7  C1' I4B d   1      -0.121   0.241  -2.011  0.00  0.00     0.060 C 
BRANCH   7   8
ATOM      8  C2' I4B d   1      -0.827   1.576  -2.132  0.00  0.00    -0.013 C 
ATOM      9  C4' I4B d   1      -0.020   2.548  -2.950  0.00  0.00     0.013 C 
ATOM     10  C3' I4B d   1      -2.172   1.334  -2.749  0.00  0.00     0.013 C 
ENDBRANCH   7   8
ENDBRANCH   1   7
TORSDOF 2
ENDMDL
