MODEL 1
REMARK minimizedAffinity -4.7391367
REMARK minimizedRMSD -1
REMARK  2 active torsions:
REMARK  status: ('A' for Active; 'I' for Inactive)
REMARK    1  A    between atoms: C2'_3  and  C1'_4 
REMARK    2  A    between atoms: C1'_4  and  C1_5 
ROOT
ATOM      1  C1  I4B d   1       0.256  -0.829   1.886  0.00  0.00    -0.075 A 
ATOM      2  C2  I4B d   1      -0.988  -0.878   2.466  0.00  0.00     0.003 A 
ATOM      3  C3  I4B d   1      -2.150  -0.707   1.676  0.00  0.00     0.002 A 
ATOM      4  C4  I4B d   1      -2.022  -0.442   0.328  0.00  0.00    -0.004 A 
ATOM      5  C5  I4B d   1      -0.762  -0.416  -0.263  0.00  0.00     0.002 A 
ATOM      6  C6  I4B d   1       0.384  -0.623   0.519  0.00  0.00     0.003 A 
ENDROOT
BRANCH   1   7
ATOM      7  C1' I4B d   1       1.463  -0.981   2.756  0.00  0.00     0.060 C 
BRANCH   7   8
ATOM      8  C2' I4B d   1       2.578  -0.150   2.155  0.00  0.00    -0.013 C 
ATOM      9  C4' I4B d   1       2.925  -0.624   0.768  0.00  0.00     0.013 C 
ATOM     10  C3' I4B d   1       2.134   1.282   2.142  0.00  0.00     0.013 C 
ENDBRANCH   7   8
ENDBRANCH   1   7
TORSDOF 2
ENDMDL
