MODEL 1
REMARK minimizedAffinity 0.906443834
REMARK minimizedRMSD -1
REMARK  2 active torsions:
REMARK  status: ('A' for Active; 'I' for Inactive)
REMARK    1  A    between atoms: C2'_3  and  C1'_4 
REMARK    2  A    between atoms: C1'_4  and  C1_5 
ROOT
ATOM      1  C1  I4B d   1      -0.314   0.306  -1.048  0.00  0.00    -0.075 A 
ATOM      2  C2  I4B d   1      -1.034   0.635   0.074  0.00  0.00     0.003 A 
ATOM      3  C3  I4B d   1      -0.644   0.138   1.342  0.00  0.00     0.002 A 
ATOM      4  C4  I4B d   1       0.433  -0.720   1.434  0.00  0.00    -0.004 A 
ATOM      5  C5  I4B d   1       1.174  -1.034   0.299  0.00  0.00     0.002 A 
ATOM      6  C6  I4B d   1       0.806  -0.509  -0.948  0.00  0.00     0.003 A 
ENDROOT
BRANCH   1   7
ATOM      7  C1' I4B d   1      -0.773   0.821  -2.375  0.00  0.00     0.060 C 
BRANCH   7   8
ATOM      8  C2' I4B d   1      -1.497   2.132  -2.142  0.00  0.00    -0.013 C 
ATOM      9  C4' I4B d   1      -0.759   3.283  -2.773  0.00  0.00     0.013 C 
ATOM     10  C3' I4B d   1      -2.881   2.002  -2.705  0.00  0.00     0.013 C 
ENDBRANCH   7   8
ENDBRANCH   1   7
TORSDOF 2
ENDMDL
