MODEL 1
REMARK minimizedAffinity -4.03200197
REMARK minimizedRMSD -1
REMARK  2 active torsions:
REMARK  status: ('A' for Active; 'I' for Inactive)
REMARK    1  A    between atoms: C2'_3  and  C1'_4 
REMARK    2  A    between atoms: C1'_4  and  C1_5 
ROOT
ATOM      1  C1  I4B d   1      -0.160  -0.032  -0.026  0.00  0.00    -0.075 A 
ATOM      2  C2  I4B d   1      -0.895   0.051   1.130  0.00  0.00     0.003 A 
ATOM      3  C3  I4B d   1      -0.293  -0.235   2.379  0.00  0.00     0.002 A 
ATOM      4  C4  I4B d   1       1.024  -0.647   2.421  0.00  0.00    -0.004 A 
ATOM      5  C5  I4B d   1       1.773  -0.708   1.249  0.00  0.00     0.002 A 
ATOM      6  C6  I4B d   1       1.182  -0.387   0.019  0.00  0.00     0.003 A 
ENDROOT
BRANCH   1   7
ATOM      7  C1' I4B d   1      -0.837   0.246  -1.331  0.00  0.00     0.060 C 
BRANCH   7   8
ATOM      8  C2' I4B d   1      -0.926   1.749  -1.501  0.00  0.00    -0.013 C 
ATOM      9  C4' I4B d   1       0.343   2.308  -2.088  0.00  0.00     0.013 C 
ATOM     10  C3' I4B d   1      -2.106   2.046  -2.378  0.00  0.00     0.013 C 
ENDBRANCH   7   8
ENDBRANCH   1   7
TORSDOF 2
ENDMDL
