MODEL 1
REMARK minimizedAffinity -5.384202
REMARK minimizedRMSD -1
REMARK  2 active torsions:
REMARK  status: ('A' for Active; 'I' for Inactive)
REMARK    1  A    between atoms: C2'_3  and  C1'_4 
REMARK    2  A    between atoms: C1'_4  and  C1_5 
ROOT
ATOM      1  C1  I4B d   1       0.064   0.046  -0.287  0.00  0.00    -0.075 A 
ATOM      2  C2  I4B d   1       1.298  -0.461   0.037  0.00  0.00     0.003 A 
ATOM      3  C3  I4B d   1       1.578  -0.857   1.367  0.00  0.00     0.002 A 
ATOM      4  C4  I4B d   1       0.620  -0.683   2.344  0.00  0.00    -0.004 A 
ATOM      5  C5  I4B d   1      -0.638  -0.190   2.009  0.00  0.00     0.002 A 
ATOM      6  C6  I4B d   1      -0.922   0.166   0.683  0.00  0.00     0.003 A 
ENDROOT
BRANCH   1   7
ATOM      7  C1' I4B d   1      -0.187   0.486  -1.695  0.00  0.00     0.060 C 
BRANCH   7   8
ATOM      8  C2' I4B d   1      -0.492   1.970  -1.673  0.00  0.00    -0.013 C 
ATOM      9  C4' I4B d   1       0.700   2.778  -2.116  0.00  0.00     0.013 C 
ATOM     10  C3' I4B d   1      -1.672   2.213  -2.566  0.00  0.00     0.013 C 
ENDBRANCH   7   8
ENDBRANCH   1   7
TORSDOF 2
ENDMDL
