MODEL 1
REMARK minimizedAffinity -4.61222887
REMARK minimizedRMSD -1
REMARK  2 active torsions:
REMARK  status: ('A' for Active; 'I' for Inactive)
REMARK    1  A    between atoms: C2'_3  and  C1'_4 
REMARK    2  A    between atoms: C1'_4  and  C1_5 
ROOT
ATOM      1  C1  I4B d   1      -0.393   0.107  -0.037  0.00  0.00    -0.075 A 
ATOM      2  C2  I4B d   1       0.938  -0.048   0.258  0.00  0.00     0.003 A 
ATOM      3  C3  I4B d   1       1.332  -0.656   1.475  0.00  0.00     0.002 A 
ATOM      4  C4  I4B d   1       0.369  -1.047   2.383  0.00  0.00    -0.004 A 
ATOM      5  C5  I4B d   1      -0.981  -0.910   2.071  0.00  0.00     0.002 A 
ATOM      6  C6  I4B d   1      -1.365  -0.341   0.848  0.00  0.00     0.003 A 
ENDROOT
BRANCH   1   7
ATOM      7  C1' I4B d   1      -0.774   0.784  -1.316  0.00  0.00     0.060 C 
BRANCH   7   8
ATOM      8  C2' I4B d   1      -0.224   2.195  -1.279  0.00  0.00    -0.013 C 
ATOM      9  C4' I4B d   1      -0.492   2.919  -2.572  0.00  0.00     0.013 C 
ATOM     10  C3' I4B d   1      -0.854   2.907  -0.119  0.00  0.00     0.013 C 
ENDBRANCH   7   8
ENDBRANCH   1   7
TORSDOF 2
ENDMDL
