MODEL 1
REMARK minimizedAffinity 16.7200184
REMARK minimizedRMSD -1
REMARK  0 active torsions:
REMARK  status: ('A' for Active; 'I' for Inactive)
ROOT
ATOM      1  C   UNL d   1      -2.812   0.572  -0.493  0.00  0.00     0.124 A 
ATOM      2  C1  UNL d   1      -2.525  -0.785  -0.549  0.00  0.00     0.062 A 
ATOM      3  C2  UNL d   1      -1.540  -1.327   0.271  0.00  0.00     0.162 A 
ATOM      4  C3  UNL d   1      -0.834  -0.511   1.155  0.00  0.00    -0.034 A 
ATOM      5  C4  UNL d   1      -1.127   0.853   1.205  0.00  0.00     0.162 A 
ATOM      6  C5  UNL d   1      -2.113   1.389   0.384  0.00  0.00     0.062 A 
ATOM      7  F   UNL d   1      -2.389   2.700   0.439  0.00  0.00    -0.097 F 
ATOM      8  F1  UNL d   1      -0.468   1.665   2.044  0.00  0.00    -0.096 F 
ATOM      9  I   UNL d   1       0.641  -1.317   2.383  0.00  0.00    -0.060 I 
ATOM     10  F2  UNL d   1      -1.284  -2.641   0.195  0.00  0.00    -0.096 F 
ATOM     11  F3  UNL d   1      -3.199  -1.577  -1.397  0.00  0.00    -0.097 F 
ATOM     12  F4  UNL d   1      -3.760   1.091  -1.284  0.00  0.00    -0.092 F 
ENDROOT
TORSDOF 0
ENDMDL
