MODEL 1
REMARK minimizedAffinity 4.96525908
REMARK minimizedRMSD -1
REMARK  0 active torsions:
REMARK  status: ('A' for Active; 'I' for Inactive)
ROOT
ATOM      1  C   UNL d   1      -0.310  -0.856   2.284  0.00  0.00     0.124 A 
ATOM      2  C1  UNL d   1      -0.649  -1.659   3.364  0.00  0.00     0.062 A 
ATOM      3  C2  UNL d   1       0.315  -2.015   4.302  0.00  0.00     0.162 A 
ATOM      4  C3  UNL d   1       1.629  -1.568   4.165  0.00  0.00    -0.034 A 
ATOM      5  C4  UNL d   1       1.963  -0.761   3.076  0.00  0.00     0.162 A 
ATOM      6  C5  UNL d   1       0.996  -0.408   2.141  0.00  0.00     0.062 A 
ATOM      7  F   UNL d   1       1.325   0.369   1.098  0.00  0.00    -0.097 F 
ATOM      8  F1  UNL d   1       3.217  -0.313   2.913  0.00  0.00    -0.096 F 
ATOM      9  I   UNL d   1       3.075  -2.098   5.565  0.00  0.00    -0.060 I 
ATOM     10  F2  UNL d   1      -0.041  -2.793   5.335  0.00  0.00    -0.096 F 
ATOM     11  F3  UNL d   1      -1.910  -2.094   3.504  0.00  0.00    -0.097 F 
ATOM     12  F4  UNL d   1      -1.240  -0.515   1.383  0.00  0.00    -0.092 F 
ENDROOT
TORSDOF 0
ENDMDL
