MODEL 1
REMARK minimizedAffinity 6.82737446
REMARK minimizedRMSD -1
REMARK  0 active torsions:
REMARK  status: ('A' for Active; 'I' for Inactive)
ROOT
ATOM      1  C   UNL d   1      -0.991  -0.167   1.759  0.00  0.00     0.124 A 
ATOM      2  C1  UNL d   1       0.346   0.173   1.607  0.00  0.00     0.062 A 
ATOM      3  C2  UNL d   1       1.311  -0.390   2.436  0.00  0.00     0.162 A 
ATOM      4  C3  UNL d   1       0.943  -1.301   3.426  0.00  0.00    -0.034 A 
ATOM      5  C4  UNL d   1      -0.403  -1.638   3.574  0.00  0.00     0.162 A 
ATOM      6  C5  UNL d   1      -1.364  -1.073   2.743  0.00  0.00     0.062 A 
ATOM      7  F   UNL d   1      -2.655  -1.403   2.892  0.00  0.00    -0.097 F 
ATOM      8  F1  UNL d   1      -0.792  -2.511   4.516  0.00  0.00    -0.096 F 
ATOM      9  I   UNL d   1       2.384  -2.146   4.669  0.00  0.00    -0.060 I 
ATOM     10  F2  UNL d   1       2.595  -0.042   2.266  0.00  0.00    -0.096 F 
ATOM     11  F3  UNL d   1       0.709   1.049   0.658  0.00  0.00    -0.097 F 
ATOM     12  F4  UNL d   1      -1.918   0.377   0.960  0.00  0.00    -0.092 F 
ENDROOT
TORSDOF 0
ENDMDL
