MODEL 1
REMARK minimizedAffinity 17.6544571
REMARK minimizedRMSD -1
REMARK  0 active torsions:
REMARK  status: ('A' for Active; 'I' for Inactive)
ROOT
ATOM      1  C   UNL d   1      -0.459  -1.104   1.901  0.00  0.00     0.124 A 
ATOM      2  C1  UNL d   1      -0.919  -2.204   2.611  0.00  0.00     0.062 A 
ATOM      3  C2  UNL d   1      -0.168  -2.722   3.662  0.00  0.00     0.162 A 
ATOM      4  C3  UNL d   1       1.051  -2.140   4.010  0.00  0.00    -0.034 A 
ATOM      5  C4  UNL d   1       1.507  -1.034   3.291  0.00  0.00     0.162 A 
ATOM      6  C5  UNL d   1       0.753  -0.520   2.241  0.00  0.00     0.062 A 
ATOM      7  F   UNL d   1       1.199   0.543   1.556  0.00  0.00    -0.097 F 
ATOM      8  F1  UNL d   1       2.675  -0.450   3.599  0.00  0.00    -0.096 F 
ATOM      9  I   UNL d   1       2.177  -2.912   5.581  0.00  0.00    -0.060 I 
ATOM     10  F2  UNL d   1      -0.636  -3.786   4.331  0.00  0.00    -0.096 F 
ATOM     11  F3  UNL d   1      -2.089  -2.770   2.284  0.00  0.00    -0.097 F 
ATOM     12  F4  UNL d   1      -1.183  -0.608   0.889  0.00  0.00    -0.092 F 
ENDROOT
TORSDOF 0
ENDMDL
