MODEL 1
REMARK minimizedAffinity 6.50349331
REMARK minimizedRMSD -1
REMARK  0 active torsions:
REMARK  status: ('A' for Active; 'I' for Inactive)
ROOT
ATOM      1  C   UNL d   1      -0.732  -0.978   2.735  0.00  0.00     0.124 A 
ATOM      2  C1  UNL d   1      -0.909  -2.139   3.475  0.00  0.00     0.062 A 
ATOM      3  C2  UNL d   1       0.154  -2.683   4.189  0.00  0.00     0.162 A 
ATOM      4  C3  UNL d   1       1.405  -2.067   4.167  0.00  0.00    -0.034 A 
ATOM      5  C4  UNL d   1       1.576  -0.900   3.420  0.00  0.00     0.162 A 
ATOM      6  C5  UNL d   1       0.510  -0.360   2.708  0.00  0.00     0.062 A 
ATOM      7  F   UNL d   1       0.683   0.762   1.994  0.00  0.00    -0.097 F 
ATOM      8  F1  UNL d   1       2.766  -0.282   3.378  0.00  0.00    -0.096 F 
ATOM      9  I   UNL d   1       2.998  -2.878   5.233  0.00  0.00    -0.060 I 
ATOM     10  F2  UNL d   1      -0.046  -3.806   4.895  0.00  0.00    -0.096 F 
ATOM     11  F3  UNL d   1      -2.108  -2.739   3.502  0.00  0.00    -0.097 F 
ATOM     12  F4  UNL d   1      -1.757  -0.457   2.048  0.00  0.00    -0.092 F 
ENDROOT
TORSDOF 0
ENDMDL
