MODEL 1
REMARK minimizedAffinity 22.4696884
REMARK minimizedRMSD -1
REMARK  0 active torsions:
REMARK  status: ('A' for Active; 'I' for Inactive)
ROOT
ATOM      1  C   UNL d   1      -1.344  -0.262   1.622  0.00  0.00     0.124 A 
ATOM      2  C1  UNL d   1      -1.566  -1.388   2.402  0.00  0.00     0.062 A 
ATOM      3  C2  UNL d   1      -0.564  -1.869   3.239  0.00  0.00     0.162 A 
ATOM      4  C3  UNL d   1       0.671  -1.223   3.302  0.00  0.00    -0.034 A 
ATOM      5  C4  UNL d   1       0.888  -0.092   2.513  0.00  0.00     0.162 A 
ATOM      6  C5  UNL d   1      -0.117   0.385   1.678  0.00  0.00     0.062 A 
ATOM      7  F   UNL d   1       0.100   1.473   0.925  0.00  0.00    -0.097 F 
ATOM      8  F1  UNL d   1       2.064   0.553   2.548  0.00  0.00    -0.096 F 
ATOM      9  I   UNL d   1       2.173  -1.939   4.552  0.00  0.00    -0.060 I 
ATOM     10  F2  UNL d   1      -0.806  -2.959   3.982  0.00  0.00    -0.096 F 
ATOM     11  F3  UNL d   1      -2.750  -2.015   2.350  0.00  0.00    -0.097 F 
ATOM     12  F4  UNL d   1      -2.310   0.198   0.817  0.00  0.00    -0.092 F 
ENDROOT
TORSDOF 0
ENDMDL
