MODEL 1
REMARK minimizedAffinity 6.97321272
REMARK minimizedRMSD -1
REMARK  0 active torsions:
REMARK  status: ('A' for Active; 'I' for Inactive)
ROOT
ATOM      1  C   UNL d   1      -0.814  -0.077   2.048  0.00  0.00     0.124 A 
ATOM      2  C1  UNL d   1       0.501   0.314   1.837  0.00  0.00     0.062 A 
ATOM      3  C2  UNL d   1       1.538  -0.327   2.510  0.00  0.00     0.162 A 
ATOM      4  C3  UNL d   1       1.264  -1.366   3.399  0.00  0.00    -0.034 A 
ATOM      5  C4  UNL d   1      -0.062  -1.753   3.606  0.00  0.00     0.162 A 
ATOM      6  C5  UNL d   1      -1.094  -1.109   2.932  0.00  0.00     0.062 A 
ATOM      7  F   UNL d   1      -2.364  -1.488   3.137  0.00  0.00    -0.097 F 
ATOM      8  F1  UNL d   1      -0.360  -2.748   4.454  0.00  0.00    -0.096 F 
ATOM      9  I   UNL d   1       2.811  -2.326   4.407  0.00  0.00    -0.060 I 
ATOM     10  F2  UNL d   1       2.799   0.072   2.287  0.00  0.00    -0.096 F 
ATOM     11  F3  UNL d   1       0.774   1.312   0.984  0.00  0.00    -0.097 F 
ATOM     12  F4  UNL d   1      -1.810   0.542   1.400  0.00  0.00    -0.092 F 
ENDROOT
TORSDOF 0
ENDMDL
