MODEL 1
REMARK minimizedAffinity 6.4571557
REMARK minimizedRMSD -1
REMARK  0 active torsions:
REMARK  status: ('A' for Active; 'I' for Inactive)
ROOT
ATOM      1  C   UNL d   1      -1.327  -0.687   2.286  0.00  0.00     0.124 A 
ATOM      2  C1  UNL d   1      -1.391  -1.330   3.515  0.00  0.00     0.062 A 
ATOM      3  C2  UNL d   1      -0.235  -1.525   4.264  0.00  0.00     0.162 A 
ATOM      4  C3  UNL d   1       0.997  -1.077   3.788  0.00  0.00    -0.034 A 
ATOM      5  C4  UNL d   1       1.054  -0.432   2.551  0.00  0.00     0.162 A 
ATOM      6  C5  UNL d   1      -0.105  -0.239   1.805  0.00  0.00     0.062 A 
ATOM      7  F   UNL d   1      -0.040   0.381   0.618  0.00  0.00    -0.097 F 
ATOM      8  F1  UNL d   1       2.222   0.012   2.062  0.00  0.00    -0.096 F 
ATOM      9  I   UNL d   1       2.729  -1.367   4.905  0.00  0.00    -0.060 I 
ATOM     10  F2  UNL d   1      -0.327  -2.149   5.448  0.00  0.00    -0.096 F 
ATOM     11  F3  UNL d   1      -2.571  -1.764   3.982  0.00  0.00    -0.097 F 
ATOM     12  F4  UNL d   1      -2.441  -0.502   1.567  0.00  0.00    -0.092 F 
ENDROOT
TORSDOF 0
ENDMDL
