MODEL 1
REMARK minimizedAffinity 3.12579846
REMARK minimizedRMSD -1
REMARK  0 active torsions:
REMARK  status: ('A' for Active; 'I' for Inactive)
ROOT
ATOM      1  O1  BZF d   1       5.935  -2.909  -5.987  0.00  0.00    -0.204 OA
ATOM      2  C2  BZF d   1       5.832  -4.287  -6.000  0.00  0.00     0.174 A 
ATOM      3  C3  BZF d   1       4.883  -4.704  -5.137  0.00  0.00    -0.012 A 
ATOM      4  C3A BZF d   1       4.296  -3.508  -4.616  0.00  0.00    -0.107 A 
ATOM      5  C4  BZF d   1       3.289  -3.267  -3.726  0.00  0.00     0.055 A 
ATOM      6  C5  BZF d   1       3.010  -1.984  -3.376  0.00  0.00    -0.016 A 
ATOM      7  C6  BZF d   1       3.720  -0.919  -3.892  0.00  0.00     0.022 A 
ATOM      8  C7  BZF d   1       4.725  -1.108  -4.782  0.00  0.00     0.029 A 
ATOM      9  C7A BZF d   1       4.987  -2.402  -5.162  0.00  0.00     0.058 A 
ENDROOT
TORSDOF 0
ENDMDL
