MODEL 1
REMARK minimizedAffinity 11.2690296
REMARK minimizedRMSD -1
REMARK  0 active torsions:
REMARK  status: ('A' for Active; 'I' for Inactive)
ROOT
ATOM      1  O1  BZF d   1       4.405  -4.246   3.590  0.00  0.00    -0.204 OA
ATOM      2  C2  BZF d   1       4.858  -4.197   2.286  0.00  0.00     0.174 A 
ATOM      3  C3  BZF d   1       4.148  -3.305   1.566  0.00  0.00    -0.012 A 
ATOM      4  C3A BZF d   1       3.251  -2.696   2.501  0.00  0.00    -0.107 A 
ATOM      5  C4  BZF d   1       2.301  -1.721   2.392  0.00  0.00     0.055 A 
ATOM      6  C5  BZF d   1       1.548  -1.408   3.479  0.00  0.00    -0.016 A 
ATOM      7  C6  BZF d   1       1.715  -2.052   4.688  0.00  0.00     0.022 A 
ATOM      8  C7  BZF d   1       2.649  -3.022   4.846  0.00  0.00     0.029 A 
ATOM      9  C7A BZF d   1       3.433  -3.318   3.758  0.00  0.00     0.058 A 
ENDROOT
TORSDOF 0
ENDMDL
