MODEL 1
REMARK minimizedAffinity 7.08648729
REMARK minimizedRMSD -1
REMARK  0 active torsions:
REMARK  status: ('A' for Active; 'I' for Inactive)
ROOT
ATOM      1  O1  BZF d   1       2.392  -3.775  -4.498  0.00  0.00    -0.204 OA
ATOM      2  C2  BZF d   1       1.782  -4.940  -4.076  0.00  0.00     0.174 A 
ATOM      3  C3  BZF d   1       2.597  -6.000  -4.255  0.00  0.00    -0.012 A 
ATOM      4  C3A BZF d   1       3.827  -5.451  -4.739  0.00  0.00    -0.107 A 
ATOM      5  C4  BZF d   1       5.027  -6.000  -5.087  0.00  0.00     0.055 A 
ATOM      6  C5  BZF d   1       6.000  -5.196  -5.591  0.00  0.00    -0.016 A 
ATOM      7  C6  BZF d   1       5.805  -3.842  -5.765  0.00  0.00     0.022 A 
ATOM      8  C7  BZF d   1       4.632  -3.250  -5.429  0.00  0.00     0.029 A 
ATOM      9  C7A BZF d   1       3.659  -4.055  -4.889  0.00  0.00     0.058 A 
ENDROOT
TORSDOF 0
ENDMDL
