MODEL 1
REMARK minimizedAffinity 11.6910896
REMARK minimizedRMSD -1
REMARK  0 active torsions:
REMARK  status: ('A' for Active; 'I' for Inactive)
ROOT
ATOM      1  O1  BZF d   1      -1.255   1.864  -0.777  0.00  0.00    -0.204 OA
ATOM      2  C2  BZF d   1      -1.860   1.520  -1.971  0.00  0.00     0.174 A 
ATOM      3  C3  BZF d   1      -1.839   0.183  -2.150  0.00  0.00    -0.012 A 
ATOM      4  C3A BZF d   1      -1.262  -0.348  -0.954  0.00  0.00    -0.107 A 
ATOM      5  C4  BZF d   1      -0.989  -1.616  -0.525  0.00  0.00     0.055 A 
ATOM      6  C5  BZF d   1      -0.355  -1.789   0.664  0.00  0.00    -0.016 A 
ATOM      7  C6  BZF d   1       0.025  -0.719   1.447  0.00  0.00     0.022 A 
ATOM      8  C7  BZF d   1      -0.228   0.557   1.066  0.00  0.00     0.029 A 
ATOM      9  C7A BZF d   1      -0.898   0.735  -0.119  0.00  0.00     0.058 A 
ENDROOT
TORSDOF 0
ENDMDL
