MODEL 1
REMARK minimizedAffinity 5.80883455
REMARK minimizedRMSD -1
REMARK  0 active torsions:
REMARK  status: ('A' for Active; 'I' for Inactive)
ROOT
ATOM      1  O1  BZF d   1       2.913  -2.390  -4.499  0.00  0.00    -0.204 OA
ATOM      2  C2  BZF d   1       3.810  -1.578  -5.166  0.00  0.00     0.174 A 
ATOM      3  C3  BZF d   1       4.835  -2.302  -5.660  0.00  0.00    -0.012 A 
ATOM      4  C3A BZF d   1       4.514  -3.664  -5.358  0.00  0.00    -0.107 A 
ATOM      5  C4  BZF d   1       5.138  -4.853  -5.606  0.00  0.00     0.055 A 
ATOM      6  C5  BZF d   1       4.598  -5.998  -5.112  0.00  0.00    -0.016 A 
ATOM      7  C6  BZF d   1       3.440  -5.990  -4.363  0.00  0.00     0.022 A 
ATOM      8  C7  BZF d   1       2.782  -4.836  -4.095  0.00  0.00     0.029 A 
ATOM      9  C7A BZF d   1       3.307  -3.680  -4.620  0.00  0.00     0.058 A 
ENDROOT
TORSDOF 0
ENDMDL
