MODEL 1
REMARK minimizedAffinity 8.54903889
REMARK minimizedRMSD -1
REMARK  0 active torsions:
REMARK  status: ('A' for Active; 'I' for Inactive)
ROOT
ATOM      1  O1  BZF d   1      -1.050   2.383  -3.525  0.00  0.00    -0.204 OA
ATOM      2  C2  BZF d   1      -0.759   1.160  -2.952  0.00  0.00     0.174 A 
ATOM      3  C3  BZF d   1      -1.859   0.623  -2.385  0.00  0.00    -0.012 A 
ATOM      4  C3A BZF d   1      -2.923   1.527  -2.699  0.00  0.00    -0.107 A 
ATOM      5  C4  BZF d   1      -4.261   1.532  -2.426  0.00  0.00     0.055 A 
ATOM      6  C5  BZF d   1      -5.010   2.598  -2.813  0.00  0.00    -0.016 A 
ATOM      7  C6  BZF d   1      -4.453   3.677  -3.469  0.00  0.00     0.022 A 
ATOM      8  C7  BZF d   1      -3.131   3.715  -3.766  0.00  0.00     0.029 A 
ATOM      9  C7A BZF d   1      -2.378   2.624  -3.406  0.00  0.00     0.058 A 
ENDROOT
TORSDOF 0
ENDMDL
