MODEL 1
REMARK minimizedAffinity 14.0483866
REMARK minimizedRMSD -1
REMARK  0 active torsions:
REMARK  status: ('A' for Active; 'I' for Inactive)
ROOT
ATOM      1  O1  BZF d   1       4.424  -4.238   3.403  0.00  0.00    -0.204 OA
ATOM      2  C2  BZF d   1       4.827  -4.231   2.082  0.00  0.00     0.174 A 
ATOM      3  C3  BZF d   1       4.112  -3.338   1.368  0.00  0.00    -0.012 A 
ATOM      4  C3A BZF d   1       3.268  -2.684   2.321  0.00  0.00    -0.107 A 
ATOM      5  C4  BZF d   1       2.339  -1.688   2.225  0.00  0.00     0.055 A 
ATOM      6  C5  BZF d   1       1.638  -1.330   3.333  0.00  0.00    -0.016 A 
ATOM      7  C6  BZF d   1       1.835  -1.949   4.549  0.00  0.00     0.022 A 
ATOM      8  C7  BZF d   1       2.749  -2.939   4.695  0.00  0.00     0.029 A 
ATOM      9  C7A BZF d   1       3.483  -3.281   3.585  0.00  0.00     0.058 A 
ENDROOT
TORSDOF 0
ENDMDL
