MODEL 1
REMARK minimizedAffinity 11.4654799
REMARK minimizedRMSD -1
REMARK  0 active torsions:
REMARK  status: ('A' for Active; 'I' for Inactive)
ROOT
ATOM      1  O1  BZF d   1      -3.616   0.476  -4.465  0.00  0.00    -0.204 OA
ATOM      2  C2  BZF d   1      -3.165  -0.392  -3.489  0.00  0.00     0.174 A 
ATOM      3  C3  BZF d   1      -2.982   0.255  -2.320  0.00  0.00    -0.012 A 
ATOM      4  C3A BZF d   1      -3.428   1.594  -2.557  0.00  0.00    -0.107 A 
ATOM      5  C4  BZF d   1      -3.511   2.709  -1.773  0.00  0.00     0.055 A 
ATOM      6  C5  BZF d   1      -3.923   3.878  -2.329  0.00  0.00    -0.016 A 
ATOM      7  C6  BZF d   1      -4.254   3.970  -3.664  0.00  0.00     0.022 A 
ATOM      8  C7  BZF d   1      -4.193   2.890  -4.481  0.00  0.00     0.029 A 
ATOM      9  C7A BZF d   1      -3.809   1.699  -3.915  0.00  0.00     0.058 A 
ENDROOT
TORSDOF 0
ENDMDL
