MODEL 1
REMARK minimizedAffinity 2.95403957
REMARK minimizedRMSD -1
REMARK  0 active torsions:
REMARK  status: ('A' for Active; 'I' for Inactive)
ROOT
ATOM      1  O1  BZF d   1      -2.146  -3.018   0.587  0.00  0.00    -0.204 OA
ATOM      2  C2  BZF d   1      -2.712  -4.172   1.095  0.00  0.00     0.174 A 
ATOM      3  C3  BZF d   1      -2.172  -5.264   0.516  0.00  0.00    -0.012 A 
ATOM      4  C3A BZF d   1      -1.143  -4.764  -0.344  0.00  0.00    -0.107 A 
ATOM      5  C4  BZF d   1      -0.242  -5.364  -1.177  0.00  0.00     0.055 A 
ATOM      6  C5  BZF d   1       0.578  -4.587  -1.933  0.00  0.00    -0.016 A 
ATOM      7  C6  BZF d   1       0.519  -3.210  -1.886  0.00  0.00     0.022 A 
ATOM      8  C7  BZF d   1      -0.356  -2.569  -1.072  0.00  0.00     0.029 A 
ATOM      9  C7A BZF d   1      -1.162  -3.352  -0.282  0.00  0.00     0.058 A 
ENDROOT
TORSDOF 0
ENDMDL
