MODEL 1
REMARK minimizedAffinity 7.81822681
REMARK minimizedRMSD -1
REMARK  0 active torsions:
REMARK  status: ('A' for Active; 'I' for Inactive)
ROOT
ATOM      1  O1  BZF d   1      -5.570   0.117  -4.975  0.00  0.00    -0.204 OA
ATOM      2  C2  BZF d   1      -5.303  -1.184  -4.595  0.00  0.00     0.174 A 
ATOM      3  C3  BZF d   1      -4.519  -1.210  -3.498  0.00  0.00    -0.012 A 
ATOM      4  C3A BZF d   1      -4.356   0.160  -3.119  0.00  0.00    -0.107 A 
ATOM      5  C4  BZF d   1      -3.694   0.780  -2.098  0.00  0.00     0.055 A 
ATOM      6  C5  BZF d   1      -3.671   2.138  -2.053  0.00  0.00    -0.016 A 
ATOM      7  C6  BZF d   1      -4.294   2.907  -3.014  0.00  0.00     0.022 A 
ATOM      8  C7  BZF d   1      -4.968   2.337  -4.044  0.00  0.00     0.029 A 
ATOM      9  C7A BZF d   1      -5.020   0.965  -4.073  0.00  0.00     0.058 A 
ENDROOT
TORSDOF 0
ENDMDL
