MODEL 1
REMARK minimizedAffinity -0.689620018
REMARK minimizedRMSD -1
REMARK  0 active torsions:
REMARK  status: ('A' for Active; 'I' for Inactive)
ROOT
ATOM      1  O1  BZF d   1       5.959  -4.389  -3.748  0.00  0.00    -0.204 OA
ATOM      2  C2  BZF d   1       5.970  -5.107  -4.928  0.00  0.00     0.174 A 
ATOM      3  C3  BZF d   1       5.930  -4.279  -5.992  0.00  0.00    -0.012 A 
ATOM      4  C3A BZF d   1       5.985  -2.959  -5.444  0.00  0.00    -0.107 A 
ATOM      5  C4  BZF d   1       5.995  -1.711  -5.999  0.00  0.00     0.055 A 
ATOM      6  C5  BZF d   1       5.980  -0.625  -5.183  0.00  0.00    -0.016 A 
ATOM      7  C6  BZF d   1       5.950  -0.749  -3.810  0.00  0.00     0.022 A 
ATOM      8  C7  BZF d   1       5.944  -1.965  -3.212  0.00  0.00     0.029 A 
ATOM      9  C7A BZF d   1       5.992  -3.065  -4.034  0.00  0.00     0.058 A 
ENDROOT
TORSDOF 0
ENDMDL
