MODEL 1
REMARK minimizedAffinity 0.115311265
REMARK minimizedRMSD -1
REMARK  2 active torsions:
REMARK  status: ('A' for Active; 'I' for Inactive)
REMARK    1  A    between atoms: C1_2  and  C2_3 
REMARK    2  A    between atoms: C2_3  and  C3_4 
ROOT
ATOM      1  C3  UNL d   1       1.285   2.564  -1.215  0.00  0.00    -0.075 A 
ATOM      2  C4  UNL d   1       1.244   2.351   0.171  0.00  0.00     0.002 A 
ATOM      3  C5  UNL d   1       1.103   1.061   0.685  0.00  0.00     0.002 A 
ATOM      4  C6  UNL d   1       0.993  -0.027  -0.177  0.00  0.00    -0.004 A 
ATOM      5  C7  UNL d   1       1.017   0.175  -1.555  0.00  0.00     0.002 A 
ATOM      6  C8  UNL d   1       1.161   1.463  -2.073  0.00  0.00     0.002 A 
ENDROOT
BRANCH   1   7
ATOM      7  C2  UNL d   1       1.466   3.954  -1.777  0.00  0.00     0.056 C 
BRANCH   7   8
ATOM      8  C1  UNL d   1       1.769   5.020  -0.719  0.00  0.00     0.007 C 
ATOM      9  C   UNL d   1       2.857   5.997  -1.146  0.00  0.00     0.009 C 
ENDBRANCH   7   8
ENDBRANCH   1   7
TORSDOF 2
ENDMDL
