MODEL 1
REMARK minimizedAffinity -6.0385704
REMARK minimizedRMSD -1
REMARK  2 active torsions:
REMARK  status: ('A' for Active; 'I' for Inactive)
REMARK    1  A    between atoms: C1_2  and  C2_3 
REMARK    2  A    between atoms: C2_3  and  C3_4 
ROOT
ATOM      1  C3  UNL d   1       1.361   1.885  -0.161  0.00  0.00    -0.075 A 
ATOM      2  C4  UNL d   1       1.514   2.883   0.813  0.00  0.00     0.002 A 
ATOM      3  C5  UNL d   1       1.887   4.177   0.449  0.00  0.00     0.002 A 
ATOM      4  C6  UNL d   1       2.121   4.487  -0.889  0.00  0.00    -0.004 A 
ATOM      5  C7  UNL d   1       1.988   3.500  -1.863  0.00  0.00     0.002 A 
ATOM      6  C8  UNL d   1       1.610   2.206  -1.502  0.00  0.00     0.002 A 
ENDROOT
BRANCH   1   7
ATOM      7  C2  UNL d   1       0.928   0.491   0.223  0.00  0.00     0.056 C 
BRANCH   7   8
ATOM      8  C1  UNL d   1       0.531  -0.389  -0.966  0.00  0.00     0.007 C 
ATOM      9  C   UNL d   1       0.729  -1.877  -0.706  0.00  0.00     0.009 C 
ENDBRANCH   7   8
ENDBRANCH   1   7
TORSDOF 2
ENDMDL
