MODEL 1
REMARK minimizedAffinity -4.92454958
REMARK minimizedRMSD -1
REMARK  2 active torsions:
REMARK  status: ('A' for Active; 'I' for Inactive)
REMARK    1  A    between atoms: C1_2  and  C2_3 
REMARK    2  A    between atoms: C2_3  and  C3_4 
ROOT
ATOM      1  C3  UNL d   1       1.259   2.582  -1.152  0.00  0.00    -0.075 A 
ATOM      2  C4  UNL d   1       1.565   1.470  -1.951  0.00  0.00     0.002 A 
ATOM      3  C5  UNL d   1       1.504   0.180  -1.423  0.00  0.00     0.002 A 
ATOM      4  C6  UNL d   1       1.148  -0.014  -0.091  0.00  0.00    -0.004 A 
ATOM      5  C7  UNL d   1       0.859   1.084   0.717  0.00  0.00     0.002 A 
ATOM      6  C8  UNL d   1       0.915   2.375   0.190  0.00  0.00     0.002 A 
ENDROOT
BRANCH   1   7
ATOM      7  C2  UNL d   1       1.294   3.978  -1.725  0.00  0.00     0.056 C 
BRANCH   7   8
ATOM      8  C1  UNL d   1       1.540   5.074  -0.683  0.00  0.00     0.007 C 
ATOM      9  C   UNL d   1       2.694   6.000  -1.046  0.00  0.00     0.009 C 
ENDBRANCH   7   8
ENDBRANCH   1   7
TORSDOF 2
ENDMDL
