MODEL 1
REMARK minimizedAffinity 3.22880745
REMARK minimizedRMSD -1
REMARK  2 active torsions:
REMARK  status: ('A' for Active; 'I' for Inactive)
REMARK    1  A    between atoms: C1_2  and  C2_3 
REMARK    2  A    between atoms: C2_3  and  C3_4 
ROOT
ATOM      1  C3  UNL d   1       1.454   0.165  -0.643  0.00  0.00    -0.075 A 
ATOM      2  C4  UNL d   1       0.685   0.785   0.352  0.00  0.00     0.002 A 
ATOM      3  C5  UNL d   1       0.570   2.175   0.395  0.00  0.00     0.002 A 
ATOM      4  C6  UNL d   1       1.230   2.961  -0.547  0.00  0.00    -0.004 A 
ATOM      5  C7  UNL d   1       2.011   2.357  -1.530  0.00  0.00     0.002 A 
ATOM      6  C8  UNL d   1       2.123   0.966  -1.578  0.00  0.00     0.002 A 
ENDROOT
BRANCH   1   7
ATOM      7  C2  UNL d   1       1.558  -1.340  -0.714  0.00  0.00     0.056 C 
BRANCH   7   8
ATOM      8  C1  UNL d   1       0.339  -2.077  -0.149  0.00  0.00     0.007 C 
ATOM      9  C   UNL d   1      -0.576  -2.638  -1.229  0.00  0.00     0.009 C 
ENDBRANCH   7   8
ENDBRANCH   1   7
TORSDOF 2
ENDMDL
