MODEL 1
REMARK minimizedAffinity -1.25012219
REMARK minimizedRMSD -1
REMARK  2 active torsions:
REMARK  status: ('A' for Active; 'I' for Inactive)
REMARK    1  A    between atoms: C1_2  and  C2_3 
REMARK    2  A    between atoms: C2_3  and  C3_4 
ROOT
ATOM      1  C3  UNL d   1       1.403   2.815   0.016  0.00  0.00    -0.075 A 
ATOM      2  C4  UNL d   1       1.666   2.527  -1.331  0.00  0.00     0.002 A 
ATOM      3  C5  UNL d   1       1.591   1.216  -1.803  0.00  0.00     0.002 A 
ATOM      4  C6  UNL d   1       1.262   0.177  -0.934  0.00  0.00    -0.004 A 
ATOM      5  C7  UNL d   1       1.015   0.450   0.410  0.00  0.00     0.002 A 
ATOM      6  C8  UNL d   1       1.085   1.761   0.884  0.00  0.00     0.002 A 
ENDROOT
BRANCH   1   7
ATOM      7  C2  UNL d   1       1.453   4.235   0.527  0.00  0.00     0.056 C 
BRANCH   7   8
ATOM      8  C1  UNL d   1       1.338   5.297  -0.571  0.00  0.00     0.007 C 
ATOM      9  C   UNL d   1       2.656   5.999  -0.869  0.00  0.00     0.009 C 
ENDBRANCH   7   8
ENDBRANCH   1   7
TORSDOF 2
ENDMDL
