MODEL 1
REMARK minimizedAffinity -0.0433331393
REMARK minimizedRMSD -1
REMARK  2 active torsions:
REMARK  status: ('A' for Active; 'I' for Inactive)
REMARK    1  A    between atoms: C1_2  and  C2_3 
REMARK    2  A    between atoms: C2_3  and  C3_4 
ROOT
ATOM      1  C3  UNL d   1       1.197   2.484  -0.906  0.00  0.00    -0.075 A 
ATOM      2  C4  UNL d   1       1.124   2.198   0.466  0.00  0.00     0.002 A 
ATOM      3  C5  UNL d   1       1.144   0.878   0.916  0.00  0.00     0.002 A 
ATOM      4  C6  UNL d   1       1.226  -0.172   0.004  0.00  0.00    -0.004 A 
ATOM      5  C7  UNL d   1       1.283   0.100  -1.361  0.00  0.00     0.002 A 
ATOM      6  C8  UNL d   1       1.267   1.420  -1.815  0.00  0.00     0.002 A 
ENDROOT
BRANCH   1   7
ATOM      7  C2  UNL d   1       1.206   3.911  -1.398  0.00  0.00     0.056 C 
BRANCH   7   8
ATOM      8  C1  UNL d   1       1.757   4.918  -0.383  0.00  0.00     0.007 C 
ATOM      9  C   UNL d   1       2.626   5.995  -1.017  0.00  0.00     0.009 C 
ENDBRANCH   7   8
ENDBRANCH   1   7
TORSDOF 2
ENDMDL
