MODEL 1
REMARK minimizedAffinity 8.3262043
REMARK minimizedRMSD -1
REMARK  2 active torsions:
REMARK  status: ('A' for Active; 'I' for Inactive)
REMARK    1  A    between atoms: C1_2  and  C2_3 
REMARK    2  A    between atoms: C2_3  and  C3_4 
ROOT
ATOM      1  C3  UNL d   1       1.364   2.214  -1.278  0.00  0.00    -0.075 A 
ATOM      2  C4  UNL d   1       2.023   1.950  -0.069  0.00  0.00     0.002 A 
ATOM      3  C5  UNL d   1       2.092   0.650   0.432  0.00  0.00     0.002 A 
ATOM      4  C6  UNL d   1       1.495  -0.399  -0.264  0.00  0.00    -0.004 A 
ATOM      5  C7  UNL d   1       0.823  -0.146  -1.457  0.00  0.00     0.002 A 
ATOM      6  C8  UNL d   1       0.756   1.153  -1.963  0.00  0.00     0.002 A 
ENDROOT
BRANCH   1   7
ATOM      7  C2  UNL d   1       1.311   3.615  -1.840  0.00  0.00     0.056 C 
BRANCH   7   8
ATOM      8  C1  UNL d   1       2.492   4.499  -1.423  0.00  0.00     0.007 C 
ATOM      9  C   UNL d   1       2.161   5.985  -1.430  0.00  0.00     0.009 C 
ENDBRANCH   7   8
ENDBRANCH   1   7
TORSDOF 2
ENDMDL
