MODEL 1
REMARK minimizedAffinity -0.757642329
REMARK minimizedRMSD -1
REMARK  2 active torsions:
REMARK  status: ('A' for Active; 'I' for Inactive)
REMARK    1  A    between atoms: C1_2  and  C2_3 
REMARK    2  A    between atoms: C2_3  and  C3_4 
ROOT
ATOM      1  C3  UNL d   1       0.833   1.352   0.406  0.00  0.00    -0.075 A 
ATOM      2  C4  UNL d   1       1.220   0.260  -0.384  0.00  0.00     0.002 A 
ATOM      3  C5  UNL d   1       1.740   0.460  -1.664  0.00  0.00     0.002 A 
ATOM      4  C6  UNL d   1       1.869   1.751  -2.172  0.00  0.00    -0.004 A 
ATOM      5  C7  UNL d   1       1.472   2.842  -1.403  0.00  0.00     0.002 A 
ATOM      6  C8  UNL d   1       0.956   2.645  -0.121  0.00  0.00     0.002 A 
ENDROOT
BRANCH   1   7
ATOM      7  C2  UNL d   1       0.297   1.144   1.802  0.00  0.00     0.056 C 
BRANCH   7   8
ATOM      8  C1  UNL d   1       1.254   0.389   2.731  0.00  0.00     0.007 C 
ATOM      9  C   UNL d   1       0.613  -0.016   4.052  0.00  0.00     0.009 C 
ENDBRANCH   7   8
ENDBRANCH   1   7
TORSDOF 2
ENDMDL
