MODEL 1
REMARK minimizedAffinity -0.422836453
REMARK minimizedRMSD -1
REMARK  2 active torsions:
REMARK  status: ('A' for Active; 'I' for Inactive)
REMARK    1  A    between atoms: C1_2  and  C2_3 
REMARK    2  A    between atoms: C2_3  and  C3_4 
ROOT
ATOM      1  C3  UNL d   1       1.225   3.027  -0.505  0.00  0.00    -0.075 A 
ATOM      2  C4  UNL d   1       1.130   1.927   0.361  0.00  0.00     0.002 A 
ATOM      3  C5  UNL d   1       0.982   0.636  -0.147  0.00  0.00     0.002 A 
ATOM      4  C6  UNL d   1       0.919   0.429  -1.523  0.00  0.00    -0.004 A 
ATOM      5  C7  UNL d   1       0.996   1.516  -2.392  0.00  0.00     0.002 A 
ATOM      6  C8  UNL d   1       1.148   2.808  -1.887  0.00  0.00     0.002 A 
ENDROOT
BRANCH   1   7
ATOM      7  C2  UNL d   1       1.415   4.423   0.038  0.00  0.00     0.056 C 
BRANCH   7   8
ATOM      8  C1  UNL d   1       1.440   5.513  -1.039  0.00  0.00     0.007 C 
ATOM      9  C   UNL d   1       2.846   5.993  -1.374  0.00  0.00     0.009 C 
ENDBRANCH   7   8
ENDBRANCH   1   7
TORSDOF 2
ENDMDL
