MODEL 1
REMARK minimizedAffinity 5.00161266
REMARK minimizedRMSD -1
REMARK  2 active torsions:
REMARK  status: ('A' for Active; 'I' for Inactive)
REMARK    1  A    between atoms: C1_2  and  C2_3 
REMARK    2  A    between atoms: C2_3  and  C3_4 
ROOT
ATOM      1  C3  UNL d   1       1.541   1.728  -0.717  0.00  0.00    -0.075 A 
ATOM      2  C4  UNL d   1       1.522   2.112   0.632  0.00  0.00     0.002 A 
ATOM      3  C5  UNL d   1       1.141   3.404   0.996  0.00  0.00     0.002 A 
ATOM      4  C6  UNL d   1       0.785   4.330   0.017  0.00  0.00    -0.004 A 
ATOM      5  C7  UNL d   1       0.817   3.964  -1.327  0.00  0.00     0.002 A 
ATOM      6  C8  UNL d   1       1.193   2.671  -1.693  0.00  0.00     0.002 A 
ENDROOT
BRANCH   1   7
ATOM      7  C2  UNL d   1       1.924   0.323  -1.114  0.00  0.00     0.056 C 
BRANCH   7   8
ATOM      8  C1  UNL d   1       2.367  -0.559   0.058  0.00  0.00     0.007 C 
ATOM      9  C   UNL d   1       3.875  -0.563   0.271  0.00  0.00     0.009 C 
ENDBRANCH   7   8
ENDBRANCH   1   7
TORSDOF 2
ENDMDL
