MODEL 1
REMARK minimizedAffinity -1.89506519
REMARK minimizedRMSD -1
REMARK  2 active torsions:
REMARK  status: ('A' for Active; 'I' for Inactive)
REMARK    1  A    between atoms: C1_2  and  C2_3 
REMARK    2  A    between atoms: C2_3  and  C3_4 
ROOT
ATOM      1  C3  UNL d   1       1.679   0.333  -0.403  0.00  0.00    -0.075 A 
ATOM      2  C4  UNL d   1       1.888   0.781  -1.715  0.00  0.00     0.002 A 
ATOM      3  C5  UNL d   1       1.516   2.073  -2.090  0.00  0.00     0.002 A 
ATOM      4  C6  UNL d   1       0.923   2.927  -1.163  0.00  0.00    -0.004 A 
ATOM      5  C7  UNL d   1       0.696   2.487   0.139  0.00  0.00     0.002 A 
ATOM      6  C8  UNL d   1       1.071   1.196   0.518  0.00  0.00     0.002 A 
ENDROOT
BRANCH   1   7
ATOM      7  C2  UNL d   1       2.106  -1.053   0.017  0.00  0.00     0.056 C 
BRANCH   7   8
ATOM      8  C1  UNL d   1       3.584  -1.159   0.408  0.00  0.00     0.007 C 
ATOM      9  C   UNL d   1       4.107  -2.589   0.393  0.00  0.00     0.009 C 
ENDBRANCH   7   8
ENDBRANCH   1   7
TORSDOF 2
ENDMDL
