MODEL 1
REMARK minimizedAffinity 5.87786484
REMARK minimizedRMSD -1
REMARK  0 active torsions:
REMARK  status: ('A' for Active; 'I' for Inactive)
ROOT
ATOM      1  C   UNL d   1       2.238   1.200  -3.085  0.00  0.00     0.078 C 
ATOM      2  C1  UNL d   1       2.406   0.369  -1.848  0.00  0.00    -0.077 A 
ATOM      3  C2  UNL d   1       3.292  -0.714  -1.821  0.00  0.00    -0.001 A 
ATOM      4  C3  UNL d   1       3.431  -1.485  -0.666  0.00  0.00     0.003 A 
ATOM      5  C4  UNL d   1       2.685  -1.182   0.471  0.00  0.00    -0.005 A 
ATOM      6  C5  UNL d   1       1.798  -0.107   0.454  0.00  0.00     0.003 A 
ATOM      7  C6  UNL d   1       1.658   0.665  -0.701  0.00  0.00    -0.001 A 
ENDROOT
TORSDOF 0
ENDMDL
