MODEL 1
REMARK minimizedAffinity 5.04405451
REMARK minimizedRMSD -1
REMARK  0 active torsions:
REMARK  status: ('A' for Active; 'I' for Inactive)
ROOT
ATOM      1  C   UNL d   1      -0.245  -0.611   1.147  0.00  0.00     0.078 C 
ATOM      2  C1  UNL d   1      -1.222   0.499   0.898  0.00  0.00    -0.077 A 
ATOM      3  C2  UNL d   1      -1.001   1.783   1.412  0.00  0.00    -0.001 A 
ATOM      4  C3  UNL d   1      -1.923   2.804   1.180  0.00  0.00     0.003 A 
ATOM      5  C4  UNL d   1      -3.073   2.553   0.435  0.00  0.00    -0.005 A 
ATOM      6  C5  UNL d   1      -3.303   1.278  -0.079  0.00  0.00     0.003 A 
ATOM      7  C6  UNL d   1      -2.382   0.255   0.152  0.00  0.00    -0.001 A 
ENDROOT
TORSDOF 0
ENDMDL
