MODEL 1
REMARK minimizedAffinity 0.304474562
REMARK minimizedRMSD -1
REMARK  0 active torsions:
REMARK  status: ('A' for Active; 'I' for Inactive)
ROOT
ATOM      1  C   UNL d   1      -1.498   2.839   3.720  0.00  0.00     0.078 C 
ATOM      2  C1  UNL d   1      -1.631   2.143   2.398  0.00  0.00    -0.077 A 
ATOM      3  C2  UNL d   1      -1.725   2.870   1.206  0.00  0.00    -0.001 A 
ATOM      4  C3  UNL d   1      -1.858   2.208  -0.016  0.00  0.00     0.003 A 
ATOM      5  C4  UNL d   1      -1.899   0.816  -0.057  0.00  0.00    -0.005 A 
ATOM      6  C5  UNL d   1      -1.808   0.084   1.125  0.00  0.00     0.003 A 
ATOM      7  C6  UNL d   1      -1.675   0.744   2.348  0.00  0.00    -0.001 A 
ENDROOT
TORSDOF 0
ENDMDL
