MODEL 1
REMARK minimizedAffinity 2.7468996
REMARK minimizedRMSD -1
REMARK  0 active torsions:
REMARK  status: ('A' for Active; 'I' for Inactive)
ROOT
ATOM      1  C   UNL d   1      -1.681   2.669  -5.999  0.00  0.00     0.078 C 
ATOM      2  C1  UNL d   1      -3.087   3.189  -5.990  0.00  0.00    -0.077 A 
ATOM      3  C2  UNL d   1      -4.180   2.314  -5.986  0.00  0.00    -0.001 A 
ATOM      4  C3  UNL d   1      -5.484   2.812  -5.988  0.00  0.00     0.003 A 
ATOM      5  C4  UNL d   1      -5.707   4.188  -5.994  0.00  0.00    -0.005 A 
ATOM      6  C5  UNL d   1      -4.626   5.067  -6.000  0.00  0.00     0.003 A 
ATOM      7  C6  UNL d   1      -3.322   4.570  -5.999  0.00  0.00    -0.001 A 
ENDROOT
TORSDOF 0
ENDMDL
