MODEL 1
REMARK minimizedAffinity -4.70320511
REMARK minimizedRMSD -1
REMARK  0 active torsions:
REMARK  status: ('A' for Active; 'I' for Inactive)
ROOT
ATOM      1  C   UNL d   1       3.247   1.771   1.287  0.00  0.00     0.078 C 
ATOM      2  C1  UNL d   1       1.982   2.360   0.737  0.00  0.00    -0.077 A 
ATOM      3  C2  UNL d   1       1.907   3.715   0.393  0.00  0.00    -0.001 A 
ATOM      4  C3  UNL d   1       0.720   4.251  -0.108  0.00  0.00     0.003 A 
ATOM      5  C4  UNL d   1      -0.401   3.440  -0.269  0.00  0.00    -0.005 A 
ATOM      6  C5  UNL d   1      -0.337   2.091   0.073  0.00  0.00     0.003 A 
ATOM      7  C6  UNL d   1       0.849   1.553   0.575  0.00  0.00    -0.001 A 
ENDROOT
TORSDOF 0
ENDMDL
