MODEL 1
REMARK minimizedAffinity -4.6840539
REMARK minimizedRMSD -1
REMARK  0 active torsions:
REMARK  status: ('A' for Active; 'I' for Inactive)
ROOT
ATOM      1  C   UNL d   1      -0.025  -0.690   0.045  0.00  0.00     0.078 C 
ATOM      2  C1  UNL d   1       0.244   0.779   0.175  0.00  0.00    -0.077 A 
ATOM      3  C2  UNL d   1      -0.734   1.650   0.671  0.00  0.00    -0.001 A 
ATOM      4  C3  UNL d   1      -0.473   3.017   0.777  0.00  0.00     0.003 A 
ATOM      5  C4  UNL d   1       0.765   3.525   0.388  0.00  0.00    -0.005 A 
ATOM      6  C5  UNL d   1       1.743   2.667  -0.109  0.00  0.00     0.003 A 
ATOM      7  C6  UNL d   1       1.484   1.299  -0.216  0.00  0.00    -0.001 A 
ENDROOT
TORSDOF 0
ENDMDL
