MODEL 1
REMARK minimizedAffinity -4.522892
REMARK minimizedRMSD -1
REMARK  0 active torsions:
REMARK  status: ('A' for Active; 'I' for Inactive)
ROOT
ATOM      1  C   UNL d   1      -3.541  -4.868   0.066  0.00  0.00     0.078 C 
ATOM      2  C1  UNL d   1      -2.351  -4.253  -0.609  0.00  0.00    -0.077 A 
ATOM      3  C2  UNL d   1      -1.746  -3.100  -0.094  0.00  0.00    -0.001 A 
ATOM      4  C3  UNL d   1      -0.645  -2.533  -0.737  0.00  0.00     0.003 A 
ATOM      5  C4  UNL d   1      -0.140  -3.111  -1.901  0.00  0.00    -0.005 A 
ATOM      6  C5  UNL d   1      -0.737  -4.257  -2.422  0.00  0.00     0.003 A 
ATOM      7  C6  UNL d   1      -1.839  -4.826  -1.780  0.00  0.00    -0.001 A 
ENDROOT
TORSDOF 0
ENDMDL
