MODEL 1
REMARK minimizedAffinity -4.50661564
REMARK minimizedRMSD -1
REMARK  0 active torsions:
REMARK  status: ('A' for Active; 'I' for Inactive)
ROOT
ATOM      1  C   UNL d   1      -1.030  -3.365  -1.502  0.00  0.00     0.078 C 
ATOM      2  C1  UNL d   1      -1.002  -1.934  -1.054  0.00  0.00    -0.077 A 
ATOM      3  C2  UNL d   1      -2.003  -1.036  -1.445  0.00  0.00    -0.001 A 
ATOM      4  C3  UNL d   1      -1.959   0.295  -1.029  0.00  0.00     0.003 A 
ATOM      5  C4  UNL d   1      -0.916   0.742  -0.221  0.00  0.00    -0.005 A 
ATOM      6  C5  UNL d   1       0.086  -0.143   0.171  0.00  0.00     0.003 A 
ATOM      7  C6  UNL d   1       0.044  -1.475  -0.244  0.00  0.00    -0.001 A 
ENDROOT
TORSDOF 0
ENDMDL
