MODEL 1
REMARK minimizedAffinity 6.63920259
REMARK minimizedRMSD -1
REMARK  0 active torsions:
REMARK  status: ('A' for Active; 'I' for Inactive)
ROOT
ATOM      1  C   UNL d   1       3.073  -0.363  -1.855  0.00  0.00     0.078 C 
ATOM      2  C1  UNL d   1       2.669  -0.310  -3.298  0.00  0.00    -0.077 A 
ATOM      3  C2  UNL d   1       2.648  -1.469  -4.084  0.00  0.00    -0.001 A 
ATOM      4  C3  UNL d   1       2.279  -1.403  -5.429  0.00  0.00     0.003 A 
ATOM      5  C4  UNL d   1       1.931  -0.180  -6.000  0.00  0.00    -0.005 A 
ATOM      6  C5  UNL d   1       1.952   0.978  -5.226  0.00  0.00     0.003 A 
ATOM      7  C6  UNL d   1       2.320   0.914  -3.881  0.00  0.00    -0.001 A 
ENDROOT
TORSDOF 0
ENDMDL
