MODEL 1
REMARK minimizedAffinity -4.58187485
REMARK minimizedRMSD -1
REMARK  0 active torsions:
REMARK  status: ('A' for Active; 'I' for Inactive)
ROOT
ATOM      1  C   UNL d   1      -0.407  -1.549   0.097  0.00  0.00     0.078 C 
ATOM      2  C1  UNL d   1       0.074  -0.161   0.398  0.00  0.00    -0.077 A 
ATOM      3  C2  UNL d   1       1.424   0.090   0.675  0.00  0.00    -0.001 A 
ATOM      4  C3  UNL d   1       1.856   1.386   0.963  0.00  0.00     0.003 A 
ATOM      5  C4  UNL d   1       0.945   2.440   0.979  0.00  0.00    -0.005 A 
ATOM      6  C5  UNL d   1      -0.401   2.199   0.708  0.00  0.00     0.003 A 
ATOM      7  C6  UNL d   1      -0.835   0.905   0.419  0.00  0.00    -0.001 A 
ENDROOT
TORSDOF 0
ENDMDL
