MODEL 1
REMARK minimizedAffinity 3.99238777
REMARK minimizedRMSD -1
REMARK  0 active torsions:
REMARK  status: ('A' for Active; 'I' for Inactive)
ROOT
ATOM      1  C   UNL d   1       1.646   0.293   0.442  0.00  0.00     0.078 C 
ATOM      2  C1  UNL d   1       0.177   0.593   0.406  0.00  0.00    -0.077 A 
ATOM      3  C2  UNL d   1      -0.740  -0.354  -0.067  0.00  0.00    -0.001 A 
ATOM      4  C3  UNL d   1      -2.104  -0.057  -0.104  0.00  0.00     0.003 A 
ATOM      5  C4  UNL d   1      -2.562   1.185   0.328  0.00  0.00    -0.005 A 
ATOM      6  C5  UNL d   1      -1.656   2.135   0.798  0.00  0.00     0.003 A 
ATOM      7  C6  UNL d   1      -0.292   1.840   0.836  0.00  0.00    -0.001 A 
ENDROOT
TORSDOF 0
ENDMDL
