MODEL 1
REMARK minimizedAffinity -3.94041467
REMARK minimizedRMSD -1
REMARK  0 active torsions:
REMARK  status: ('A' for Active; 'I' for Inactive)
ROOT
ATOM      1  C   UNL d   1      -3.953   3.263  -3.718  0.00  0.00     0.078 C 
ATOM      2  C1  UNL d   1      -4.389   2.872  -2.337  0.00  0.00    -0.077 A 
ATOM      3  C2  UNL d   1      -4.019   1.638  -1.787  0.00  0.00    -0.001 A 
ATOM      4  C3  UNL d   1      -4.440   1.283  -0.505  0.00  0.00     0.003 A 
ATOM      5  C4  UNL d   1      -5.234   2.155   0.238  0.00  0.00    -0.005 A 
ATOM      6  C5  UNL d   1      -5.609   3.383  -0.302  0.00  0.00     0.003 A 
ATOM      7  C6  UNL d   1      -5.189   3.740  -1.584  0.00  0.00    -0.001 A 
ENDROOT
TORSDOF 0
ENDMDL
