MODEL 1
REMARK minimizedAffinity -1.63864958
REMARK minimizedRMSD -1
REMARK  0 active torsions:
REMARK  status: ('A' for Active; 'I' for Inactive)
ROOT
ATOM      1  C   UNL d   1      -2.670  -4.748  -1.254  0.00  0.00     0.078 C 
ATOM      2  C1  UNL d   1      -1.511  -3.826  -1.491  0.00  0.00    -0.077 A 
ATOM      3  C2  UNL d   1      -0.698  -3.965  -2.622  0.00  0.00    -0.001 A 
ATOM      4  C3  UNL d   1       0.383  -3.106  -2.825  0.00  0.00     0.003 A 
ATOM      5  C4  UNL d   1       0.661  -2.102  -1.900  0.00  0.00    -0.005 A 
ATOM      6  C5  UNL d   1      -0.141  -1.957  -0.770  0.00  0.00     0.003 A 
ATOM      7  C6  UNL d   1      -1.222  -2.815  -0.565  0.00  0.00    -0.001 A 
ENDROOT
TORSDOF 0
ENDMDL
