MODEL 1
REMARK minimizedAffinity -1.67794144
REMARK minimizedRMSD -1
REMARK  0 active torsions:
REMARK  status: ('A' for Active; 'I' for Inactive)
ROOT
ATOM      1  C   UNL d   1       1.717   5.529  -0.847  0.00  0.00     0.078 C 
ATOM      2  C1  UNL d   1       1.826   4.114  -0.365  0.00  0.00    -0.077 A 
ATOM      3  C2  UNL d   1       2.213   3.084  -1.232  0.00  0.00    -0.001 A 
ATOM      4  C3  UNL d   1       2.301   1.770  -0.772  0.00  0.00     0.003 A 
ATOM      5  C4  UNL d   1       2.003   1.472   0.557  0.00  0.00    -0.005 A 
ATOM      6  C5  UNL d   1       1.615   2.489   1.426  0.00  0.00     0.003 A 
ATOM      7  C6  UNL d   1       1.526   3.804   0.968  0.00  0.00    -0.001 A 
ENDROOT
TORSDOF 0
ENDMDL
