MODEL 1
REMARK minimizedAffinity -1.56225383
REMARK minimizedRMSD -1
REMARK  0 active torsions:
REMARK  status: ('A' for Active; 'I' for Inactive)
ROOT
ATOM      1  C   UNL d   1       1.444   5.291  -0.437  0.00  0.00     0.078 C 
ATOM      2  C1  UNL d   1       1.716   3.904   0.064  0.00  0.00    -0.077 A 
ATOM      3  C2  UNL d   1       1.357   3.523   1.362  0.00  0.00    -0.001 A 
ATOM      4  C3  UNL d   1       1.625   2.231   1.818  0.00  0.00     0.003 A 
ATOM      5  C4  UNL d   1       2.254   1.311   0.982  0.00  0.00    -0.005 A 
ATOM      6  C5  UNL d   1       2.617   1.681  -0.311  0.00  0.00     0.003 A 
ATOM      7  C6  UNL d   1       2.350   2.973  -0.768  0.00  0.00    -0.001 A 
ENDROOT
TORSDOF 0
ENDMDL
