MODEL 1
REMARK minimizedAffinity 4.20638895
REMARK minimizedRMSD -1
REMARK  0 active torsions:
REMARK  status: ('A' for Active; 'I' for Inactive)
ROOT
ATOM      1  C1  BNZ d   1       0.462  -0.385  -4.176  0.00  0.00     0.000 A 
ATOM      2  C2  BNZ d   1      -0.364  -0.064  -3.133  0.00  0.00     0.000 A 
ATOM      3  C3  BNZ d   1      -1.187  -1.003  -2.576  0.00  0.00     0.000 A 
ATOM      4  C4  BNZ d   1      -1.212  -2.249  -3.090  0.00  0.00     0.000 A 
ATOM      5  C5  BNZ d   1      -0.392  -2.587  -4.148  0.00  0.00     0.000 A 
ATOM      6  C6  BNZ d   1       0.463  -1.649  -4.680  0.00  0.00     0.000 A 
ENDROOT
TORSDOF 0
ENDMDL
