MODEL 1
REMARK minimizedAffinity 9.15896034
REMARK minimizedRMSD -1
REMARK  0 active torsions:
REMARK  status: ('A' for Active; 'I' for Inactive)
ROOT
ATOM      1  C1  BNZ d   1       1.980  -1.607   4.460  0.00  0.00     0.000 A 
ATOM      2  C2  BNZ d   1       1.803  -0.318   4.031  0.00  0.00     0.000 A 
ATOM      3  C3  BNZ d   1       1.023  -0.044   2.942  0.00  0.00     0.000 A 
ATOM      4  C4  BNZ d   1       0.455  -1.059   2.261  0.00  0.00     0.000 A 
ATOM      5  C5  BNZ d   1       0.631  -2.364   2.675  0.00  0.00     0.000 A 
ATOM      6  C6  BNZ d   1       1.385  -2.634   3.794  0.00  0.00     0.000 A 
ENDROOT
TORSDOF 0
ENDMDL
