MODEL 1
REMARK minimizedAffinity 1.47271645
REMARK minimizedRMSD -1
REMARK  0 active torsions:
REMARK  status: ('A' for Active; 'I' for Inactive)
ROOT
ATOM      1  C1  BNZ d   1       1.029  -1.739   3.131  0.00  0.00     0.000 A 
ATOM      2  C2  BNZ d   1       0.283  -1.623   1.989  0.00  0.00     0.000 A 
ATOM      3  C3  BNZ d   1      -0.300  -0.433   1.652  0.00  0.00     0.000 A 
ATOM      4  C4  BNZ d   1      -0.171   0.626   2.477  0.00  0.00     0.000 A 
ATOM      5  C5  BNZ d   1       0.570   0.522   3.637  0.00  0.00     0.000 A 
ATOM      6  C6  BNZ d   1       1.188  -0.666   3.953  0.00  0.00     0.000 A 
ENDROOT
TORSDOF 0
ENDMDL
