MODEL 1
REMARK minimizedAffinity 5.67214727
REMARK minimizedRMSD -1
REMARK  0 active torsions:
REMARK  status: ('A' for Active; 'I' for Inactive)
ROOT
ATOM      1  C1  BNZ d   1      -1.477  -3.724  -3.586  0.00  0.00     0.000 A 
ATOM      2  C2  BNZ d   1      -1.465  -3.720  -4.955  0.00  0.00     0.000 A 
ATOM      3  C3  BNZ d   1      -1.797  -4.843  -5.661  0.00  0.00     0.000 A 
ATOM      4  C4  BNZ d   1      -2.101  -5.977  -4.997  0.00  0.00     0.000 A 
ATOM      5  C5  BNZ d   1      -2.108  -5.999  -3.617  0.00  0.00     0.000 A 
ATOM      6  C6  BNZ d   1      -1.812  -4.856  -2.910  0.00  0.00     0.000 A 
ENDROOT
TORSDOF 0
ENDMDL
