MODEL 1
REMARK minimizedAffinity 6.98139238
REMARK minimizedRMSD -1
REMARK  0 active torsions:
REMARK  status: ('A' for Active; 'I' for Inactive)
ROOT
ATOM      1  C1  BNZ d   1       1.455  -0.301  -4.259  0.00  0.00     0.000 A 
ATOM      2  C2  BNZ d   1       0.721  -0.358  -3.105  0.00  0.00     0.000 A 
ATOM      3  C3  BNZ d   1      -0.548  -0.865  -3.106  0.00  0.00     0.000 A 
ATOM      4  C4  BNZ d   1      -1.096  -1.277  -4.267  0.00  0.00     0.000 A 
ATOM      5  C5  BNZ d   1      -0.373  -1.218  -5.442  0.00  0.00     0.000 A 
ATOM      6  C6  BNZ d   1       0.919  -0.743  -5.430  0.00  0.00     0.000 A 
ENDROOT
TORSDOF 0
ENDMDL
