MODEL 1
REMARK minimizedAffinity 4.88144493
REMARK minimizedRMSD -1
REMARK  0 active torsions:
REMARK  status: ('A' for Active; 'I' for Inactive)
ROOT
ATOM      1  C1  BNZ d   1      -0.144  -0.493   1.874  0.00  0.00     0.000 A 
ATOM      2  C2  BNZ d   1       0.054  -1.809   2.200  0.00  0.00     0.000 A 
ATOM      3  C3  BNZ d   1       0.732  -2.154   3.336  0.00  0.00     0.000 A 
ATOM      4  C4  BNZ d   1       1.245  -1.186   4.122  0.00  0.00     0.000 A 
ATOM      5  C5  BNZ d   1       1.062   0.144   3.803  0.00  0.00     0.000 A 
ATOM      6  C6  BNZ d   1       0.346   0.489   2.679  0.00  0.00     0.000 A 
ENDROOT
TORSDOF 0
ENDMDL
