MODEL 1
REMARK minimizedAffinity -1.86154389
REMARK minimizedRMSD -1
REMARK  0 active torsions:
REMARK  status: ('A' for Active; 'I' for Inactive)
ROOT
ATOM      1  C4' PXY d   1       2.858   0.955   0.307  0.00  0.00     0.077 C 
ATOM      2  C1' PXY d   1      -2.347  -1.173  -1.031  0.00  0.00     0.077 C 
ATOM      3  C1  PXY d   1      -0.984  -0.618  -0.667  0.00  0.00    -0.082 A 
ATOM      4  C2  PXY d   1      -0.405   0.267  -1.463  0.00  0.00     0.003 A 
ATOM      5  C3  PXY d   1       0.841   0.755  -1.166  0.00  0.00     0.003 A 
ATOM      6  C4  PXY d   1       1.478   0.374  -0.015  0.00  0.00    -0.082 A 
ATOM      7  C5  PXY d   1       0.889  -0.520   0.807  0.00  0.00     0.003 A 
ATOM      8  C6  PXY d   1      -0.358  -1.035   0.466  0.00  0.00     0.003 A 
ENDROOT
TORSDOF 0
ENDMDL
