MODEL 1
REMARK minimizedAffinity -0.813555479
REMARK minimizedRMSD -1
REMARK  0 active torsions:
REMARK  status: ('A' for Active; 'I' for Inactive)
ROOT
ATOM      1  C4' PXY d   1       2.533   1.995   1.207  0.00  0.00     0.077 C 
ATOM      2  C1' PXY d   1      -1.837  -0.654  -1.494  0.00  0.00     0.077 C 
ATOM      3  C1  PXY d   1      -0.687   0.029  -0.781  0.00  0.00    -0.082 A 
ATOM      4  C2  PXY d   1      -0.771   1.317  -0.489  0.00  0.00     0.003 A 
ATOM      5  C3  PXY d   1       0.273   1.958   0.127  0.00  0.00     0.003 A 
ATOM      6  C4  PXY d   1       1.392   1.262   0.496  0.00  0.00    -0.082 A 
ATOM      7  C5  PXY d   1       1.481  -0.055   0.212  0.00  0.00     0.003 A 
ATOM      8  C6  PXY d   1       0.428  -0.678  -0.451  0.00  0.00     0.003 A 
ENDROOT
TORSDOF 0
ENDMDL
