MODEL 1
REMARK minimizedAffinity -2.92267561
REMARK minimizedRMSD -1
REMARK  0 active torsions:
REMARK  status: ('A' for Active; 'I' for Inactive)
ROOT
ATOM      1  C4' PXY d   1      -1.256  -0.074  -0.813  0.00  0.00     0.077 C 
ATOM      2  C1' PXY d   1       3.745   1.714   1.468  0.00  0.00     0.077 C 
ATOM      3  C1  PXY d   1       2.440   1.243   0.858  0.00  0.00    -0.082 A 
ATOM      4  C2  PXY d   1       1.292   1.660   1.367  0.00  0.00     0.003 A 
ATOM      5  C3  PXY d   1       0.102   1.219   0.849  0.00  0.00     0.003 A 
ATOM      6  C4  PXY d   1       0.087   0.383  -0.236  0.00  0.00    -0.082 A 
ATOM      7  C5  PXY d   1       1.253  -0.038  -0.768  0.00  0.00     0.003 A 
ATOM      8  C6  PXY d   1       2.451   0.389  -0.201  0.00  0.00     0.003 A 
ENDROOT
TORSDOF 0
ENDMDL
