MODEL 1
REMARK minimizedAffinity -3.48342681
REMARK minimizedRMSD -1
REMARK  0 active torsions:
REMARK  status: ('A' for Active; 'I' for Inactive)
ROOT
ATOM      1  C4' PXY d   1       2.523   1.515   0.328  0.00  0.00     0.077 C 
ATOM      2  C1' PXY d   1      -2.320  -1.260  -1.177  0.00  0.00     0.077 C 
ATOM      3  C1  PXY d   1      -1.050  -0.538  -0.771  0.00  0.00    -0.082 A 
ATOM      4  C2  PXY d   1      -0.708   0.581  -1.389  0.00  0.00     0.003 A 
ATOM      5  C3  PXY d   1       0.453   1.230  -1.055  0.00  0.00     0.003 A 
ATOM      6  C4  PXY d   1       1.245   0.758  -0.043  0.00  0.00    -0.082 A 
ATOM      7  C5  PXY d   1       0.897  -0.378   0.599  0.00  0.00     0.003 A 
ATOM      8  C6  PXY d   1      -0.264  -1.043   0.218  0.00  0.00     0.003 A 
ENDROOT
TORSDOF 0
ENDMDL
