MODEL 1
REMARK minimizedAffinity -2.52812552
REMARK minimizedRMSD -1
REMARK  0 active torsions:
REMARK  status: ('A' for Active; 'I' for Inactive)
ROOT
ATOM      1  C4' PXY d   1      -1.375  -0.019  -1.325  0.00  0.00     0.077 C 
ATOM      2  C1' PXY d   1       3.455   1.455   1.489  0.00  0.00     0.077 C 
ATOM      3  C1  PXY d   1       2.194   1.057   0.747  0.00  0.00    -0.082 A 
ATOM      4  C2  PXY d   1       1.333   1.990   0.375  0.00  0.00     0.003 A 
ATOM      5  C3  PXY d   1       0.172   1.645  -0.268  0.00  0.00     0.003 A 
ATOM      6  C4  PXY d   1      -0.084   0.337  -0.582  0.00  0.00    -0.082 A 
ATOM      7  C5  PXY d   1       0.795  -0.619  -0.215  0.00  0.00     0.003 A 
ATOM      8  C6  PXY d   1       1.948  -0.253   0.474  0.00  0.00     0.003 A 
ENDROOT
TORSDOF 0
ENDMDL
