MODEL 1
REMARK minimizedAffinity 0.739540875
REMARK minimizedRMSD -1
REMARK  0 active torsions:
REMARK  status: ('A' for Active; 'I' for Inactive)
ROOT
ATOM      1  C4' PXY d   1       2.223   1.647   0.208  0.00  0.00     0.077 C 
ATOM      2  C1' PXY d   1      -2.609  -1.374  -0.759  0.00  0.00     0.077 C 
ATOM      3  C1  PXY d   1      -1.344  -0.583  -0.492  0.00  0.00    -0.082 A 
ATOM      4  C2  PXY d   1      -0.889   0.252  -1.412  0.00  0.00     0.003 A 
ATOM      5  C3  PXY d   1       0.271   0.951  -1.201  0.00  0.00     0.003 A 
ATOM      6  C4  PXY d   1       0.944   0.835  -0.014  0.00  0.00    -0.082 A 
ATOM      7  C5  PXY d   1       0.480  -0.007   0.934  0.00  0.00     0.003 A 
ATOM      8  C6  PXY d   1      -0.677  -0.739   0.683  0.00  0.00     0.003 A 
ENDROOT
TORSDOF 0
ENDMDL
