MODEL 1
REMARK minimizedAffinity -2.74341178
REMARK minimizedRMSD -1
REMARK  0 active torsions:
REMARK  status: ('A' for Active; 'I' for Inactive)
ROOT
ATOM      1  C4' PXY d   1      -0.290   0.014  -0.725  0.00  0.00     0.077 C 
ATOM      2  C1' PXY d   1       3.651   3.279   1.962  0.00  0.00     0.077 C 
ATOM      3  C1  PXY d   1       2.610   2.424   1.268  0.00  0.00    -0.082 A 
ATOM      4  C2  PXY d   1       2.984   1.576   0.323  0.00  0.00     0.003 A 
ATOM      5  C3  PXY d   1       2.051   0.818  -0.338  0.00  0.00     0.003 A 
ATOM      6  C4  PXY d   1       0.729   0.890   0.009  0.00  0.00    -0.082 A 
ATOM      7  C5  PXY d   1       0.341   1.745   0.980  0.00  0.00     0.003 A 
ATOM      8  C6  PXY d   1       1.298   2.535   1.609  0.00  0.00     0.003 A 
ENDROOT
TORSDOF 0
ENDMDL
