MODEL 1
REMARK minimizedAffinity -2.92684269
REMARK minimizedRMSD -1
REMARK  0 active torsions:
REMARK  status: ('A' for Active; 'I' for Inactive)
ROOT
ATOM      1  C4' PXY d   1      -2.515  -1.411  -1.086  0.00  0.00     0.077 C 
ATOM      2  C1' PXY d   1       2.316   1.397   0.392  0.00  0.00     0.077 C 
ATOM      3  C1  PXY d   1       1.046   0.671  -0.002  0.00  0.00    -0.082 A 
ATOM      4  C2  PXY d   1       0.571  -0.287   0.777  0.00  0.00     0.003 A 
ATOM      5  C3  PXY d   1      -0.559  -0.976   0.419  0.00  0.00     0.003 A 
ATOM      6  C4  PXY d   1      -1.240  -0.645  -0.722  0.00  0.00    -0.082 A 
ATOM      7  C5  PXY d   1      -0.768   0.338  -1.517  0.00  0.00     0.003 A 
ATOM      8  C6  PXY d   1       0.404   0.998  -1.157  0.00  0.00     0.003 A 
ENDROOT
TORSDOF 0
ENDMDL
