MODEL 1
REMARK minimizedAffinity -2.5745759
REMARK minimizedRMSD -1
REMARK  0 active torsions:
REMARK  status: ('A' for Active; 'I' for Inactive)
ROOT
ATOM      1  C4' PXY d   1       2.510   1.390   0.500  0.00  0.00     0.077 C 
ATOM      2  C1' PXY d   1      -2.097  -1.706  -1.113  0.00  0.00     0.077 C 
ATOM      3  C1  PXY d   1      -0.889  -0.900  -0.678  0.00  0.00    -0.082 A 
ATOM      4  C2  PXY d   1      -0.655   0.279  -1.232  0.00  0.00     0.003 A 
ATOM      5  C3  PXY d   1       0.451   1.006  -0.874  0.00  0.00     0.003 A 
ATOM      6  C4  PXY d   1       1.297   0.546   0.099  0.00  0.00    -0.082 A 
ATOM      7  C5  PXY d   1       1.060  -0.650   0.676  0.00  0.00     0.003 A 
ATOM      8  C6  PXY d   1      -0.046  -1.392   0.269  0.00  0.00     0.003 A 
ENDROOT
TORSDOF 0
ENDMDL
