MODEL 1
REMARK minimizedAffinity -2.35916829
REMARK minimizedRMSD -1
REMARK  0 active torsions:
REMARK  status: ('A' for Active; 'I' for Inactive)
ROOT
ATOM      1  C4' PXY d   1       3.024   1.139  -0.038  0.00  0.00     0.077 C 
ATOM      2  C1' PXY d   1      -2.309  -0.771  -1.189  0.00  0.00     0.077 C 
ATOM      3  C1  PXY d   1      -0.912  -0.273  -0.875  0.00  0.00    -0.082 A 
ATOM      4  C2  PXY d   1      -0.322   0.581  -1.696  0.00  0.00     0.003 A 
ATOM      5  C3  PXY d   1       0.954   1.017  -1.443  0.00  0.00     0.003 A 
ATOM      6  C4  PXY d   1       1.611   0.617  -0.311  0.00  0.00    -0.082 A 
ATOM      7  C5  PXY d   1       1.012  -0.246   0.537  0.00  0.00     0.003 A 
ATOM      8  C6  PXY d   1      -0.267  -0.709   0.241  0.00  0.00     0.003 A 
ENDROOT
TORSDOF 0
ENDMDL
