MODEL 1
REMARK minimizedAffinity -2.02074575
REMARK minimizedRMSD -1
REMARK  0 active torsions:
REMARK  status: ('A' for Active; 'I' for Inactive)
ROOT
ATOM      1  C4' PXY d   1       1.774   2.044   0.930  0.00  0.00     0.077 C 
ATOM      2  C1' PXY d   1      -2.435  -1.129  -1.443  0.00  0.00     0.077 C 
ATOM      3  C1  PXY d   1      -1.329  -0.306  -0.812  0.00  0.00    -0.082 A 
ATOM      4  C2  PXY d   1      -1.345   1.011  -0.931  0.00  0.00     0.003 A 
ATOM      5  C3  PXY d   1      -0.335   1.768  -0.394  0.00  0.00     0.003 A 
ATOM      6  C4  PXY d   1       0.673   1.174   0.317  0.00  0.00    -0.082 A 
ATOM      7  C5  PXY d   1       0.690  -0.169   0.452  0.00  0.00     0.003 A 
ATOM      8  C6  PXY d   1      -0.322  -0.922  -0.136  0.00  0.00     0.003 A 
ENDROOT
TORSDOF 0
ENDMDL
