MODEL 1
REMARK minimizedAffinity -1.57132602
REMARK minimizedRMSD -1
REMARK  0 active torsions:
REMARK  status: ('A' for Active; 'I' for Inactive)
ROOT
ATOM      1  C4' PXY d   1      -2.227  -0.582  -1.607  0.00  0.00     0.077 C 
ATOM      2  C1' PXY d   1       2.837   1.373   0.380  0.00  0.00     0.077 C 
ATOM      3  C1  PXY d   1       1.507   0.872  -0.147  0.00  0.00    -0.082 A 
ATOM      4  C2  PXY d   1       0.895  -0.129   0.467  0.00  0.00     0.003 A 
ATOM      5  C3  PXY d   1      -0.293  -0.615  -0.015  0.00  0.00     0.003 A 
ATOM      6  C4  PXY d   1      -0.887  -0.037  -1.105  0.00  0.00    -0.082 A 
ATOM      7  C5  PXY d   1      -0.275   0.991  -1.730  0.00  0.00     0.003 A 
ATOM      8  C6  PXY d   1       0.951   1.443  -1.249  0.00  0.00     0.003 A 
ENDROOT
TORSDOF 0
ENDMDL
