MODEL 1
REMARK minimizedAffinity -4.01921177
REMARK minimizedRMSD -1
REMARK  0 active torsions:
REMARK  status: ('A' for Active; 'I' for Inactive)
ROOT
ATOM      1  C4' PXY d   1      -2.986  -2.190  -0.109  0.00  0.00     0.077 C 
ATOM      2  C1' PXY d   1       1.995   0.664   0.565  0.00  0.00     0.077 C 
ATOM      3  C1  PXY d   1       0.694  -0.095   0.393  0.00  0.00    -0.082 A 
ATOM      4  C2  PXY d   1      -0.188   0.314  -0.504  0.00  0.00     0.003 A 
ATOM      5  C3  PXY d   1      -1.383  -0.342  -0.650  0.00  0.00     0.003 A 
ATOM      6  C4  PXY d   1      -1.655  -1.460   0.092  0.00  0.00    -0.082 A 
ATOM      7  C5  PXY d   1      -0.756  -1.890   1.002  0.00  0.00     0.003 A 
ATOM      8  C6  PXY d   1       0.434  -1.185   1.164  0.00  0.00     0.003 A 
ENDROOT
TORSDOF 0
ENDMDL
