MODEL 1
REMARK minimizedAffinity -0.744675875
REMARK minimizedRMSD -1
REMARK  0 active torsions:
REMARK  status: ('A' for Active; 'I' for Inactive)
ROOT
ATOM      1  C4' PXY d   1       2.179   1.802   0.768  0.00  0.00     0.077 C 
ATOM      2  C1' PXY d   1      -2.033  -1.301  -1.691  0.00  0.00     0.077 C 
ATOM      3  C1  PXY d   1      -0.929  -0.495  -1.036  0.00  0.00    -0.082 A 
ATOM      4  C2  PXY d   1      -0.768   0.778  -1.359  0.00  0.00     0.003 A 
ATOM      5  C3  PXY d   1       0.246   1.512  -0.800  0.00  0.00     0.003 A 
ATOM      6  C4  PXY d   1       1.071   0.953   0.139  0.00  0.00    -0.082 A 
ATOM      7  C5  PXY d   1       0.906  -0.342   0.482  0.00  0.00     0.003 A 
ATOM      8  C6  PXY d   1      -0.103  -1.082  -0.127  0.00  0.00     0.003 A 
ENDROOT
TORSDOF 0
ENDMDL
