MODEL 1
REMARK minimizedAffinity -2.98854566
REMARK minimizedRMSD -1
REMARK  0 active torsions:
REMARK  status: ('A' for Active; 'I' for Inactive)
ROOT
ATOM      1  C4' PXY d   1       2.434   1.424   0.249  0.00  0.00     0.077 C 
ATOM      2  C1' PXY d   1      -2.398  -1.494  -0.998  0.00  0.00     0.077 C 
ATOM      3  C1  PXY d   1      -1.133  -0.720  -0.681  0.00  0.00    -0.082 A 
ATOM      4  C2  PXY d   1      -0.147  -1.317  -0.030  0.00  0.00     0.003 A 
ATOM      5  C3  PXY d   1       0.991  -0.623   0.293  0.00  0.00     0.003 A 
ATOM      6  C4  PXY d   1       1.143   0.679  -0.101  0.00  0.00    -0.082 A 
ATOM      7  C5  PXY d   1       0.146   1.292  -0.774  0.00  0.00     0.003 A 
ATOM      8  C6  PXY d   1      -1.017   0.582  -1.056  0.00  0.00     0.003 A 
ENDROOT
TORSDOF 0
ENDMDL
