MODEL 1
REMARK minimizedAffinity -4.17832088
REMARK minimizedRMSD -1
REMARK  0 active torsions:
REMARK  status: ('A' for Active; 'I' for Inactive)
ROOT
ATOM      1  C4' PXY d   1      -2.319  -1.019  -1.490  0.00  0.00     0.077 C 
ATOM      2  C1' PXY d   1       2.428   1.398   0.757  0.00  0.00     0.077 C 
ATOM      3  C1  PXY d   1       1.180   0.775   0.161  0.00  0.00    -0.082 A 
ATOM      4  C2  PXY d   1       0.588  -0.229   0.786  0.00  0.00     0.003 A 
ATOM      5  C3  PXY d   1      -0.522  -0.825   0.246  0.00  0.00     0.003 A 
ATOM      6  C4  PXY d   1      -1.063  -0.353  -0.920  0.00  0.00    -0.082 A 
ATOM      7  C5  PXY d   1      -0.471   0.678  -1.559  0.00  0.00     0.003 A 
ATOM      8  C6  PXY d   1       0.679   1.243  -1.015  0.00  0.00     0.003 A 
ENDROOT
TORSDOF 0
ENDMDL
