MODEL 1
REMARK minimizedAffinity -1.81075621
REMARK minimizedRMSD -1
REMARK  0 active torsions:
REMARK  status: ('A' for Active; 'I' for Inactive)
ROOT
ATOM      1  C4' PXY d   1      -1.525   1.594  -3.265  0.00  0.00     0.077 C 
ATOM      2  C1' PXY d   1      -2.582  -2.139   1.021  0.00  0.00     0.077 C 
ATOM      3  C1  PXY d   1      -2.318  -1.157  -0.104  0.00  0.00    -0.082 A 
ATOM      4  C2  PXY d   1      -1.220  -1.278  -0.833  0.00  0.00     0.003 A 
ATOM      5  C3  PXY d   1      -0.949  -0.380  -1.833  0.00  0.00     0.003 A 
ATOM      6  C4  PXY d   1      -1.837   0.620  -2.126  0.00  0.00    -0.082 A 
ATOM      7  C5  PXY d   1      -2.965   0.743  -1.394  0.00  0.00     0.003 A 
ATOM      8  C6  PXY d   1      -3.201  -0.154  -0.356  0.00  0.00     0.003 A 
ENDROOT
TORSDOF 0
ENDMDL
