MODEL 1
REMARK minimizedAffinity -0.58692503
REMARK minimizedRMSD -1
REMARK  0 active torsions:
REMARK  status: ('A' for Active; 'I' for Inactive)
ROOT
ATOM      1  C4' PXY d   1      -0.839  -2.171   1.470  0.00  0.00     0.077 C 
ATOM      2  C1' PXY d   1       2.824   2.011  -0.112  0.00  0.00     0.077 C 
ATOM      3  C1  PXY d   1       1.854   0.923   0.303  0.00  0.00    -0.082 A 
ATOM      4  C2  PXY d   1       2.302  -0.143   0.946  0.00  0.00     0.003 A 
ATOM      5  C3  PXY d   1       1.443  -1.151   1.301  0.00  0.00     0.003 A 
ATOM      6  C4  PXY d   1       0.103  -1.043   1.040  0.00  0.00    -0.082 A 
ATOM      7  C5  PXY d   1      -0.363   0.046   0.394  0.00  0.00     0.003 A 
ATOM      8  C6  PXY d   1       0.531   1.040   0.006  0.00  0.00     0.003 A 
ENDROOT
TORSDOF 0
ENDMDL
