MODEL 1
REMARK minimizedAffinity -4.90921974
REMARK minimizedRMSD -1
REMARK  0 active torsions:
REMARK  status: ('A' for Active; 'I' for Inactive)
ROOT
ATOM      1  C4' PXY d   1       2.713   2.629   1.144  0.00  0.00     0.077 C 
ATOM      2  C1' PXY d   1      -1.664  -0.336  -1.196  0.00  0.00     0.077 C 
ATOM      3  C1  PXY d   1      -0.510   0.430  -0.580  0.00  0.00    -0.082 A 
ATOM      4  C2  PXY d   1      -0.716   1.644  -0.094  0.00  0.00     0.003 A 
ATOM      5  C3  PXY d   1       0.323   2.363   0.438  0.00  0.00     0.003 A 
ATOM      6  C4  PXY d   1       1.575   1.815   0.521  0.00  0.00    -0.082 A 
ATOM      7  C5  PXY d   1       1.791   0.573   0.036  0.00  0.00     0.003 A 
ATOM      8  C6  PXY d   1       0.732  -0.125  -0.537  0.00  0.00     0.003 A 
ENDROOT
TORSDOF 0
ENDMDL
