MODEL 1
REMARK minimizedAffinity -0.987598062
REMARK minimizedRMSD -1
REMARK  0 active torsions:
REMARK  status: ('A' for Active; 'I' for Inactive)
ROOT
ATOM      1  C4' PXY d   1       2.424   1.554   0.241  0.00  0.00     0.077 C 
ATOM      2  C1' PXY d   1      -2.575  -1.207  -0.650  0.00  0.00     0.077 C 
ATOM      3  C1  PXY d   1      -1.265  -0.486  -0.404  0.00  0.00    -0.082 A 
ATOM      4  C2  PXY d   1      -0.851   0.430  -1.264  0.00  0.00     0.003 A 
ATOM      5  C3  PXY d   1       0.347   1.069  -1.073  0.00  0.00     0.003 A 
ATOM      6  C4  PXY d   1       1.103   0.807   0.038  0.00  0.00    -0.082 A 
ATOM      7  C5  PXY d   1       0.682  -0.118   0.926  0.00  0.00     0.003 A 
ATOM      8  C6  PXY d   1      -0.517  -0.786   0.693  0.00  0.00     0.003 A 
ENDROOT
TORSDOF 0
ENDMDL
