MODEL 1
REMARK minimizedAffinity -0.308357418
REMARK minimizedRMSD -1
REMARK  1 active torsions:
REMARK  status: ('A' for Active; 'I' for Inactive)
REMARK    1  A    between atoms: C1_2  and  C2_3 
ROOT
ATOM      1  C2  UNL d   1      -1.648   1.221   3.524  0.00  0.00    -0.076 A 
ATOM      2  C3  UNL d   1      -2.375   1.634   4.654  0.00  0.00     0.004 A 
ATOM      3  C4  UNL d   1      -2.380   2.969   5.055  0.00  0.00    -0.003 A 
ATOM      4  C5  UNL d   1      -1.659   3.913   4.331  0.00  0.00     0.000 A 
ATOM      5  C6  UNL d   1      -0.946   3.523   3.197  0.00  0.00     0.000 A 
ATOM      6  C7  UNL d   1      -0.944   2.184   2.771  0.00  0.00    -0.073 A 
ATOM      7  C8  UNL d   1      -0.153   1.819   1.544  0.00  0.00     0.078 C 
ENDROOT
BRANCH   1   8
ATOM      8  C1  UNL d   1      -1.657  -0.245   3.154  0.00  0.00     0.053 C 
ATOM      9  C   UNL d   1      -3.055  -0.844   3.182  0.00  0.00     0.018 C 
ENDBRANCH   1   8
TORSDOF 1
ENDMDL
