MODEL 1
REMARK minimizedAffinity 1.04002595
REMARK minimizedRMSD -1
REMARK  1 active torsions:
REMARK  status: ('A' for Active; 'I' for Inactive)
REMARK    1  A    between atoms: C1_2  and  C2_3 
ROOT
ATOM      1  C2  UNL d   1       5.979   4.381   2.705  0.00  0.00    -0.076 A 
ATOM      2  C3  UNL d   1       5.951   3.202   1.940  0.00  0.00     0.004 A 
ATOM      3  C4  UNL d   1       5.956   1.950   2.552  0.00  0.00    -0.003 A 
ATOM      4  C5  UNL d   1       5.989   1.856   3.939  0.00  0.00     0.000 A 
ATOM      5  C6  UNL d   1       6.000   3.015   4.714  0.00  0.00     0.000 A 
ATOM      6  C7  UNL d   1       5.978   4.286   4.113  0.00  0.00    -0.073 A 
ATOM      7  C8  UNL d   1       5.997   5.503   4.997  0.00  0.00     0.078 C 
ENDROOT
BRANCH   1   8
ATOM      8  C1  UNL d   1       6.000   5.711   1.986  0.00  0.00     0.053 C 
ATOM      9  C   UNL d   1       5.899   5.558   0.476  0.00  0.00     0.018 C 
ENDBRANCH   1   8
TORSDOF 1
ENDMDL
