MODEL 1
REMARK minimizedAffinity 9.41268253
REMARK minimizedRMSD -1
REMARK  1 active torsions:
REMARK  status: ('A' for Active; 'I' for Inactive)
REMARK    1  A    between atoms: C1_2  and  C2_3 
ROOT
ATOM      1  C2  UNL d   1       5.687   1.805   3.533  0.00  0.00    -0.076 A 
ATOM      2  C3  UNL d   1       5.992   1.814   4.905  0.00  0.00     0.004 A 
ATOM      3  C4  UNL d   1       5.964   0.639   5.654  0.00  0.00    -0.003 A 
ATOM      4  C5  UNL d   1       5.631  -0.564   5.043  0.00  0.00     0.000 A 
ATOM      5  C6  UNL d   1       5.343  -0.595   3.679  0.00  0.00     0.000 A 
ATOM      6  C7  UNL d   1       5.383   0.578   2.906  0.00  0.00    -0.073 A 
ATOM      7  C8  UNL d   1       5.057   0.487   1.440  0.00  0.00     0.078 C 
ENDROOT
BRANCH   1   8
ATOM      8  C1  UNL d   1       5.707   3.115   2.777  0.00  0.00     0.053 C 
ATOM      9  C   UNL d   1       5.995   4.304   3.680  0.00  0.00     0.018 C 
ENDBRANCH   1   8
TORSDOF 1
ENDMDL
