MODEL 1
REMARK minimizedAffinity 2.37672567
REMARK minimizedRMSD -1
REMARK  1 active torsions:
REMARK  status: ('A' for Active; 'I' for Inactive)
REMARK    1  A    between atoms: C1_2  and  C2_3 
ROOT
ATOM      1  C2  UNL d   1       5.648   0.593   3.233  0.00  0.00    -0.076 A 
ATOM      2  C3  UNL d   1       5.633  -0.690   3.808  0.00  0.00     0.004 A 
ATOM      3  C4  UNL d   1       5.807  -0.863   5.180  0.00  0.00    -0.003 A 
ATOM      4  C5  UNL d   1       5.999   0.243   6.000  0.00  0.00     0.000 A 
ATOM      5  C6  UNL d   1       6.000   1.525   5.449  0.00  0.00     0.000 A 
ATOM      6  C7  UNL d   1       5.809   1.718   4.070  0.00  0.00    -0.073 A 
ATOM      7  C8  UNL d   1       5.825   3.122   3.529  0.00  0.00     0.078 C 
ENDROOT
BRANCH   1   8
ATOM      8  C1  UNL d   1       5.481   0.718   1.736  0.00  0.00     0.053 C 
ATOM      9  C   UNL d   1       4.022   0.822   1.319  0.00  0.00     0.018 C 
ENDBRANCH   1   8
TORSDOF 1
ENDMDL
