MODEL 1
REMARK minimizedAffinity 0.808828056
REMARK minimizedRMSD -1
REMARK  1 active torsions:
REMARK  status: ('A' for Active; 'I' for Inactive)
REMARK    1  A    between atoms: C1_2  and  C2_3 
ROOT
ATOM      1  C2  UNL d   1       5.887   1.406   4.351  0.00  0.00    -0.076 A 
ATOM      2  C3  UNL d   1       5.953   0.973   5.687  0.00  0.00     0.004 A 
ATOM      3  C4  UNL d   1       6.000  -0.384   6.000  0.00  0.00    -0.003 A 
ATOM      4  C5  UNL d   1       5.982  -1.331   4.982  0.00  0.00     0.000 A 
ATOM      5  C6  UNL d   1       5.934  -0.920   3.650  0.00  0.00     0.000 A 
ATOM      6  C7  UNL d   1       5.902   0.445   3.317  0.00  0.00    -0.073 A 
ATOM      7  C8  UNL d   1       5.845   0.833   1.865  0.00  0.00     0.078 C 
ENDROOT
BRANCH   1   8
ATOM      8  C1  UNL d   1       5.811   2.890   4.074  0.00  0.00     0.053 C 
ATOM      9  C   UNL d   1       4.396   3.352   3.759  0.00  0.00     0.018 C 
ENDBRANCH   1   8
TORSDOF 1
ENDMDL
