MODEL 1
REMARK minimizedAffinity -0.974684119
REMARK minimizedRMSD -1
REMARK  1 active torsions:
REMARK  status: ('A' for Active; 'I' for Inactive)
REMARK    1  A    between atoms: C1_2  and  C2_3 
ROOT
ATOM      1  C2  UNL d   1       5.892   2.353   3.934  0.00  0.00    -0.076 A 
ATOM      2  C3  UNL d   1       5.892   2.283   5.338  0.00  0.00     0.004 A 
ATOM      3  C4  UNL d   1       5.909   1.054   5.996  0.00  0.00    -0.003 A 
ATOM      4  C5  UNL d   1       5.927  -0.125   5.260  0.00  0.00     0.000 A 
ATOM      5  C6  UNL d   1       5.946  -0.075   3.867  0.00  0.00     0.000 A 
ATOM      6  C7  UNL d   1       5.945   1.156   3.188  0.00  0.00    -0.073 A 
ATOM      7  C8  UNL d   1       5.960   1.151   1.684  0.00  0.00     0.078 C 
ENDROOT
BRANCH   1   8
ATOM      8  C1  UNL d   1       5.845   3.713   3.276  0.00  0.00     0.053 C 
ATOM      9  C   UNL d   1       5.997   4.849   4.276  0.00  0.00     0.018 C 
ENDBRANCH   1   8
TORSDOF 1
ENDMDL
