MODEL 1
REMARK minimizedAffinity -1.74701202
REMARK minimizedRMSD -1
REMARK  1 active torsions:
REMARK  status: ('A' for Active; 'I' for Inactive)
REMARK    1  A    between atoms: C1_2  and  C2_3 
ROOT
ATOM      1  C2  UNL d   1       5.995   3.704   3.983  0.00  0.00    -0.076 A 
ATOM      2  C3  UNL d   1       6.000   3.019   2.755  0.00  0.00     0.004 A 
ATOM      3  C4  UNL d   1       5.971   3.711   1.546  0.00  0.00    -0.003 A 
ATOM      4  C5  UNL d   1       5.937   5.101   1.545  0.00  0.00     0.000 A 
ATOM      5  C6  UNL d   1       5.949   5.798   2.752  0.00  0.00     0.000 A 
ATOM      6  C7  UNL d   1       5.994   5.116   3.980  0.00  0.00    -0.073 A 
ATOM      7  C8  UNL d   1       6.000   5.918   5.252  0.00  0.00     0.078 C 
ENDROOT
BRANCH   1   8
ATOM      8  C1  UNL d   1       6.000   2.899   5.262  0.00  0.00     0.053 C 
ATOM      9  C   UNL d   1       5.966   1.400   5.008  0.00  0.00     0.018 C 
ENDBRANCH   1   8
TORSDOF 1
ENDMDL
