MODEL 1
REMARK minimizedAffinity 6.49971294
REMARK minimizedRMSD -1
REMARK  1 active torsions:
REMARK  status: ('A' for Active; 'I' for Inactive)
REMARK    1  A    between atoms: C1_2  and  C2_3 
ROOT
ATOM      1  C2  UNL d   1       5.962   3.423   3.920  0.00  0.00    -0.076 A 
ATOM      2  C3  UNL d   1       5.982   3.308   2.520  0.00  0.00     0.004 A 
ATOM      3  C4  UNL d   1       5.999   4.441   1.707  0.00  0.00    -0.003 A 
ATOM      4  C5  UNL d   1       5.998   5.706   2.283  0.00  0.00     0.000 A 
ATOM      5  C6  UNL d   1       5.996   5.839   3.671  0.00  0.00     0.000 A 
ATOM      6  C7  UNL d   1       5.995   4.707   4.504  0.00  0.00    -0.073 A 
ATOM      7  C8  UNL d   1       5.987   4.909   5.995  0.00  0.00     0.078 C 
ENDROOT
BRANCH   1   8
ATOM      8  C1  UNL d   1       5.916   2.160   4.750  0.00  0.00     0.053 C 
ATOM      9  C   UNL d   1       5.910   0.901   3.896  0.00  0.00     0.018 C 
ENDBRANCH   1   8
TORSDOF 1
ENDMDL
