MODEL 1
REMARK minimizedAffinity 0.752814591
REMARK minimizedRMSD -1
REMARK  1 active torsions:
REMARK  status: ('A' for Active; 'I' for Inactive)
REMARK    1  A    between atoms: C1_2  and  C2_3 
ROOT
ATOM      1  C2  UNL d   1       5.979   0.193   3.833  0.00  0.00    -0.076 A 
ATOM      2  C3  UNL d   1       5.951  -1.074   3.223  0.00  0.00     0.004 A 
ATOM      3  C4  UNL d   1       5.956  -2.239   3.989  0.00  0.00    -0.003 A 
ATOM      4  C5  UNL d   1       5.989  -2.156   5.376  0.00  0.00     0.000 A 
ATOM      5  C6  UNL d   1       5.999  -0.908   5.998  0.00  0.00     0.000 A 
ATOM      6  C7  UNL d   1       5.977   0.276   5.242  0.00  0.00    -0.073 A 
ATOM      7  C8  UNL d   1       5.996   1.595   5.965  0.00  0.00     0.078 C 
ENDROOT
BRANCH   1   8
ATOM      8  C1  UNL d   1       6.000   1.421   2.951  0.00  0.00     0.053 C 
ATOM      9  C   UNL d   1       5.942   2.713   3.750  0.00  0.00     0.018 C 
ENDBRANCH   1   8
TORSDOF 1
ENDMDL
