MODEL 1
REMARK minimizedAffinity -1.60636187
REMARK minimizedRMSD -1
REMARK  1 active torsions:
REMARK  status: ('A' for Active; 'I' for Inactive)
REMARK    1  A    between atoms: C1_2  and  C2_3 
ROOT
ATOM      1  C2  UNL d   1       5.981   2.891   4.821  0.00  0.00    -0.076 A 
ATOM      2  C3  UNL d   1       5.959   4.260   5.139  0.00  0.00     0.004 A 
ATOM      3  C4  UNL d   1       5.966   5.230   4.137  0.00  0.00    -0.003 A 
ATOM      4  C5  UNL d   1       5.995   4.845   2.801  0.00  0.00     0.000 A 
ATOM      5  C6  UNL d   1       6.000   3.491   2.467  0.00  0.00     0.000 A 
ATOM      6  C7  UNL d   1       5.976   2.501   3.465  0.00  0.00    -0.073 A 
ATOM      7  C8  UNL d   1       5.989   1.056   3.048  0.00  0.00     0.078 C 
ENDROOT
BRANCH   1   8
ATOM      8  C1  UNL d   1       6.000   1.886   5.950  0.00  0.00     0.053 C 
ATOM      9  C   UNL d   1       5.149   0.661   5.654  0.00  0.00     0.018 C 
ENDBRANCH   1   8
TORSDOF 1
ENDMDL
