MODEL 1
REMARK minimizedAffinity 0.565617085
REMARK minimizedRMSD -1
REMARK  1 active torsions:
REMARK  status: ('A' for Active; 'I' for Inactive)
REMARK    1  A    between atoms: C1_2  and  C2_3 
ROOT
ATOM      1  C2  UNL d   1       5.956   2.413   4.504  0.00  0.00    -0.076 A 
ATOM      2  C3  UNL d   1       5.936   3.556   5.321  0.00  0.00     0.004 A 
ATOM      3  C4  UNL d   1       5.955   4.835   4.766  0.00  0.00    -0.003 A 
ATOM      4  C5  UNL d   1       5.994   4.990   3.385  0.00  0.00     0.000 A 
ATOM      5  C6  UNL d   1       5.996   3.867   2.559  0.00  0.00     0.000 A 
ATOM      6  C7  UNL d   1       5.961   2.571   3.102  0.00  0.00    -0.073 A 
ATOM      7  C8  UNL d   1       5.972   1.395   2.164  0.00  0.00     0.078 C 
ENDROOT
BRANCH   1   8
ATOM      8  C1  UNL d   1       5.961   1.052   5.164  0.00  0.00     0.053 C 
ATOM      9  C   UNL d   1       4.624   0.339   5.040  0.00  0.00     0.018 C 
ENDBRANCH   1   8
TORSDOF 1
ENDMDL
