MODEL 1
REMARK minimizedAffinity 1.03522432
REMARK minimizedRMSD -1
REMARK  1 active torsions:
REMARK  status: ('A' for Active; 'I' for Inactive)
REMARK    1  A    between atoms: C1_2  and  C2_3 
ROOT
ATOM      1  C2  UNL d   1       5.529   3.476   3.332  0.00  0.00    -0.076 A 
ATOM      2  C3  UNL d   1       6.000   2.213   2.933  0.00  0.00     0.004 A 
ATOM      3  C4  UNL d   1       5.746   1.078   3.700  0.00  0.00    -0.003 A 
ATOM      4  C5  UNL d   1       5.015   1.186   4.879  0.00  0.00     0.000 A 
ATOM      5  C6  UNL d   1       4.525   2.428   5.281  0.00  0.00     0.000 A 
ATOM      6  C7  UNL d   1       4.759   3.581   4.510  0.00  0.00    -0.073 A 
ATOM      7  C8  UNL d   1       4.211   4.896   4.994  0.00  0.00     0.078 C 
ENDROOT
BRANCH   1   8
ATOM      8  C1  UNL d   1       5.858   4.677   2.474  0.00  0.00     0.053 C 
ATOM      9  C   UNL d   1       5.999   5.954   3.288  0.00  0.00     0.018 C 
ENDBRANCH   1   8
TORSDOF 1
ENDMDL
