MODEL 1
REMARK minimizedAffinity -1.73614097
REMARK minimizedRMSD -1
REMARK  1 active torsions:
REMARK  status: ('A' for Active; 'I' for Inactive)
REMARK    1  A    between atoms: C1_2  and  C2_3 
ROOT
ATOM      1  C2  UNL d   1       5.817   1.617   4.801  0.00  0.00    -0.076 A 
ATOM      2  C3  UNL d   1       5.651   0.903   6.000  0.00  0.00     0.004 A 
ATOM      3  C4  UNL d   1       5.454  -0.477   5.991  0.00  0.00    -0.003 A 
ATOM      4  C5  UNL d   1       5.420  -1.165   4.783  0.00  0.00     0.000 A 
ATOM      5  C6  UNL d   1       5.601  -0.475   3.585  0.00  0.00     0.000 A 
ATOM      6  C7  UNL d   1       5.817   0.914   3.577  0.00  0.00    -0.073 A 
ATOM      7  C8  UNL d   1       6.000   1.609   2.256  0.00  0.00     0.078 C 
ENDROOT
BRANCH   1   8
ATOM      8  C1  UNL d   1       6.000   3.117   4.871  0.00  0.00     0.053 C 
ATOM      9  C   UNL d   1       4.896   3.873   4.148  0.00  0.00     0.018 C 
ENDBRANCH   1   8
TORSDOF 1
ENDMDL
