MODEL 1
REMARK minimizedAffinity -0.535343051
REMARK minimizedRMSD -1
REMARK  1 active torsions:
REMARK  status: ('A' for Active; 'I' for Inactive)
REMARK    1  A    between atoms: C1_2  and  C2_3 
ROOT
ATOM      1  C2  UNL d   1       5.788   2.459   4.657  0.00  0.00    -0.076 A 
ATOM      2  C3  UNL d   1       5.595   1.839   5.904  0.00  0.00     0.004 A 
ATOM      3  C4  UNL d   1       5.373   0.466   5.995  0.00  0.00    -0.003 A 
ATOM      4  C5  UNL d   1       5.340  -0.309   4.841  0.00  0.00     0.000 A 
ATOM      5  C6  UNL d   1       5.547   0.287   3.598  0.00  0.00     0.000 A 
ATOM      6  C7  UNL d   1       5.789   1.667   3.489  0.00  0.00    -0.073 A 
ATOM      7  C8  UNL d   1       5.999   2.257   2.122  0.00  0.00     0.078 C 
ENDROOT
BRANCH   1   8
ATOM      8  C1  UNL d   1       5.998   3.956   4.617  0.00  0.00     0.053 C 
ATOM      9  C   UNL d   1       4.966   4.667   3.756  0.00  0.00     0.018 C 
ENDBRANCH   1   8
TORSDOF 1
ENDMDL
