MODEL 1
REMARK minimizedAffinity -1.64397824
REMARK minimizedRMSD -1
REMARK  1 active torsions:
REMARK  status: ('A' for Active; 'I' for Inactive)
REMARK    1  A    between atoms: C1_2  and  C2_3 
ROOT
ATOM      1  C2  UNL d   1       5.931   3.075   3.336  0.00  0.00    -0.076 A 
ATOM      2  C3  UNL d   1       5.860   1.727   2.946  0.00  0.00     0.004 A 
ATOM      3  C4  UNL d   1       5.829   0.706   3.895  0.00  0.00    -0.003 A 
ATOM      4  C5  UNL d   1       5.868   1.018   5.250  0.00  0.00     0.000 A 
ATOM      5  C6  UNL d   1       5.921   2.352   5.655  0.00  0.00     0.000 A 
ATOM      6  C7  UNL d   1       5.936   3.393   4.711  0.00  0.00    -0.073 A 
ATOM      7  C8  UNL d   1       6.000   4.813   5.203  0.00  0.00     0.078 C 
ENDROOT
BRANCH   1   8
ATOM      8  C1  UNL d   1       5.989   4.138   2.261  0.00  0.00     0.053 C 
ATOM      9  C   UNL d   1       6.000   5.546   2.834  0.00  0.00     0.018 C 
ENDBRANCH   1   8
TORSDOF 1
ENDMDL
