MODEL 1
REMARK minimizedAffinity 2.23127437
REMARK minimizedRMSD -1
REMARK  1 active torsions:
REMARK  status: ('A' for Active; 'I' for Inactive)
REMARK    1  A    between atoms: C1_2  and  C2_3 
ROOT
ATOM      1  C2  UNL d   1       5.971  -1.184   4.260  0.00  0.00    -0.076 A 
ATOM      2  C3  UNL d   1       5.962  -0.799   5.612  0.00  0.00     0.004 A 
ATOM      3  C4  UNL d   1       5.967   0.547   5.974  0.00  0.00    -0.003 A 
ATOM      4  C5  UNL d   1       5.980   1.530   4.991  0.00  0.00     0.000 A 
ATOM      5  C6  UNL d   1       5.971   1.166   3.645  0.00  0.00     0.000 A 
ATOM      6  C7  UNL d   1       5.950  -0.186   3.262  0.00  0.00    -0.073 A 
ATOM      7  C8  UNL d   1       5.947  -0.521   1.796  0.00  0.00     0.078 C 
ENDROOT
BRANCH   1   8
ATOM      8  C1  UNL d   1       5.992  -2.658   3.927  0.00  0.00     0.053 C 
ATOM      9  C   UNL d   1       5.990  -3.536   5.169  0.00  0.00     0.018 C 
ENDBRANCH   1   8
TORSDOF 1
ENDMDL
