MODEL 1
REMARK minimizedAffinity -0.0271802638
REMARK minimizedRMSD -1
REMARK  1 active torsions:
REMARK  status: ('A' for Active; 'I' for Inactive)
REMARK    1  A    between atoms: C1_2  and  C2_3 
ROOT
ATOM      1  C2  UNL d   1       5.991  -0.407   3.520  0.00  0.00    -0.076 A 
ATOM      2  C3  UNL d   1       5.999   0.608   2.548  0.00  0.00     0.004 A 
ATOM      3  C4  UNL d   1       5.977   1.952   2.914  0.00  0.00    -0.003 A 
ATOM      4  C5  UNL d   1       5.949   2.304   4.259  0.00  0.00     0.000 A 
ATOM      5  C6  UNL d   1       5.959   1.310   5.238  0.00  0.00     0.000 A 
ATOM      6  C7  UNL d   1       5.997  -0.050   4.886  0.00  0.00    -0.073 A 
ATOM      7  C8  UNL d   1       6.000  -1.080   5.982  0.00  0.00     0.078 C 
ENDROOT
BRANCH   1   8
ATOM      8  C1  UNL d   1       5.988  -1.849   3.063  0.00  0.00     0.053 C 
ATOM      9  C   UNL d   1       5.930  -2.828   4.225  0.00  0.00     0.018 C 
ENDBRANCH   1   8
TORSDOF 1
ENDMDL
