MODEL 1
REMARK minimizedAffinity 5.47975111
REMARK minimizedRMSD -1
REMARK  0 active torsions:
REMARK  status: ('A' for Active; 'I' for Inactive)
ROOT
ATOM      1  C   UNL d   1       1.698   5.464  -2.996  0.00  0.00     0.077 C 
ATOM      2  C1  UNL d   1       3.197   5.435  -2.996  0.00  0.00    -0.074 A 
ATOM      3  C2  UNL d   1       3.927   6.000  -4.047  0.00  0.00    -0.005 A 
ATOM      4  C3  UNL d   1       5.322   5.974  -4.028  0.00  0.00     0.006 A 
ATOM      5  C4  UNL d   1       5.999   5.385  -2.960  0.00  0.00    -0.005 A 
ATOM      6  C5  UNL d   1       5.287   4.817  -1.900  0.00  0.00    -0.074 A 
ATOM      7  C6  UNL d   1       6.000   4.188  -0.740  0.00  0.00     0.077 C 
ATOM      8  C7  UNL d   1       3.886   4.852  -1.923  0.00  0.00    -0.001 A 
ENDROOT
TORSDOF 0
ENDMDL
