MODEL 1
REMARK minimizedAffinity -0.268365055
REMARK minimizedRMSD -1
REMARK  0 active torsions:
REMARK  status: ('A' for Active; 'I' for Inactive)
ROOT
ATOM      1  C   UNL d   1       5.999   3.763  -5.939  0.00  0.00     0.077 C 
ATOM      2  C1  UNL d   1       5.353   4.550  -4.838  0.00  0.00    -0.074 A 
ATOM      3  C2  UNL d   1       4.158   5.244  -5.056  0.00  0.00    -0.005 A 
ATOM      4  C3  UNL d   1       3.564   5.964  -4.020  0.00  0.00     0.006 A 
ATOM      5  C4  UNL d   1       4.158   5.999  -2.757  0.00  0.00    -0.005 A 
ATOM      6  C5  UNL d   1       5.352   5.311  -2.521  0.00  0.00    -0.074 A 
ATOM      7  C6  UNL d   1       5.999   5.330  -1.167  0.00  0.00     0.077 C 
ATOM      8  C7  UNL d   1       5.939   4.584  -3.565  0.00  0.00    -0.001 A 
ENDROOT
TORSDOF 0
ENDMDL
