MODEL 1
REMARK minimizedAffinity 3.07880878
REMARK minimizedRMSD -1
REMARK  0 active torsions:
REMARK  status: ('A' for Active; 'I' for Inactive)
ROOT
ATOM      1  C   UNL d   1       5.280   5.847  -1.028  0.00  0.00     0.077 C 
ATOM      2  C1  UNL d   1       5.391   5.182  -2.368  0.00  0.00    -0.074 A 
ATOM      3  C2  UNL d   1       5.912   3.889  -2.488  0.00  0.00    -0.005 A 
ATOM      4  C3  UNL d   1       5.999   3.280  -3.739  0.00  0.00     0.006 A 
ATOM      5  C4  UNL d   1       5.568   3.955  -4.881  0.00  0.00    -0.005 A 
ATOM      6  C5  UNL d   1       5.043   5.248  -4.781  0.00  0.00    -0.074 A 
ATOM      7  C6  UNL d   1       4.566   5.984  -5.997  0.00  0.00     0.077 C 
ATOM      8  C7  UNL d   1       4.952   5.851  -3.519  0.00  0.00    -0.001 A 
ENDROOT
TORSDOF 0
ENDMDL
