MODEL 1
REMARK minimizedAffinity -3.91357303
REMARK minimizedRMSD -1
REMARK  0 active torsions:
REMARK  status: ('A' for Active; 'I' for Inactive)
ROOT
ATOM      1  C   UNL d   1       5.999   5.747  -2.156  0.00  0.00     0.077 C 
ATOM      2  C1  UNL d   1       5.616   5.151  -3.478  0.00  0.00    -0.074 A 
ATOM      3  C2  UNL d   1       5.057   5.940  -4.488  0.00  0.00    -0.005 A 
ATOM      4  C3  UNL d   1       4.714   5.373  -5.715  0.00  0.00     0.006 A 
ATOM      5  C4  UNL d   1       4.926   4.013  -5.945  0.00  0.00    -0.005 A 
ATOM      6  C5  UNL d   1       5.484   3.208  -4.947  0.00  0.00    -0.074 A 
ATOM      7  C6  UNL d   1       5.727   1.747  -5.181  0.00  0.00     0.077 C 
ATOM      8  C7  UNL d   1       5.833   3.787  -3.719  0.00  0.00    -0.001 A 
ENDROOT
TORSDOF 0
ENDMDL
