MODEL 1
REMARK minimizedAffinity -2.12566853
REMARK minimizedRMSD -1
REMARK  0 active torsions:
REMARK  status: ('A' for Active; 'I' for Inactive)
ROOT
ATOM      1  C   UNL d   1       6.000   4.126  -4.111  0.00  0.00     0.077 C 
ATOM      2  C1  UNL d   1       4.619   4.630  -3.815  0.00  0.00    -0.074 A 
ATOM      3  C2  UNL d   1       3.991   5.546  -4.665  0.00  0.00    -0.005 A 
ATOM      4  C3  UNL d   1       2.702   6.000  -4.381  0.00  0.00     0.006 A 
ATOM      5  C4  UNL d   1       2.030   5.542  -3.247  0.00  0.00    -0.005 A 
ATOM      6  C5  UNL d   1       2.642   4.625  -2.386  0.00  0.00    -0.074 A 
ATOM      7  C6  UNL d   1       1.930   4.116  -1.169  0.00  0.00     0.077 C 
ATOM      8  C7  UNL d   1       3.934   4.169  -2.682  0.00  0.00    -0.001 A 
ENDROOT
TORSDOF 0
ENDMDL
