MODEL 1
REMARK minimizedAffinity 2.38751936
REMARK minimizedRMSD -1
REMARK  0 active torsions:
REMARK  status: ('A' for Active; 'I' for Inactive)
ROOT
ATOM      1  C   UNL d   1       5.831   5.857  -0.823  0.00  0.00     0.077 C 
ATOM      2  C1  UNL d   1       5.295   5.343  -2.127  0.00  0.00    -0.074 A 
ATOM      3  C2  UNL d   1       4.246   5.998  -2.781  0.00  0.00    -0.005 A 
ATOM      4  C3  UNL d   1       3.765   5.515  -3.997  0.00  0.00     0.006 A 
ATOM      5  C4  UNL d   1       4.325   4.373  -4.571  0.00  0.00    -0.005 A 
ATOM      6  C5  UNL d   1       5.375   3.705  -3.932  0.00  0.00    -0.074 A 
ATOM      7  C6  UNL d   1       5.995   2.482  -4.540  0.00  0.00     0.077 C 
ATOM      8  C7  UNL d   1       5.858   4.201  -2.713  0.00  0.00    -0.001 A 
ENDROOT
TORSDOF 0
ENDMDL
