MODEL 1
REMARK minimizedAffinity -0.447306693
REMARK minimizedRMSD -1
REMARK  0 active torsions:
REMARK  status: ('A' for Active; 'I' for Inactive)
ROOT
ATOM      1  C   UNL d   1       4.874   2.988  -5.999  0.00  0.00     0.077 C 
ATOM      2  C1  UNL d   1       4.824   4.029  -4.921  0.00  0.00    -0.074 A 
ATOM      3  C2  UNL d   1       6.000   4.548  -4.368  0.00  0.00    -0.005 A 
ATOM      4  C3  UNL d   1       5.939   5.523  -3.373  0.00  0.00     0.006 A 
ATOM      5  C4  UNL d   1       4.703   5.989  -2.921  0.00  0.00    -0.005 A 
ATOM      6  C5  UNL d   1       3.518   5.483  -3.463  0.00  0.00    -0.074 A 
ATOM      7  C6  UNL d   1       2.182   5.981  -2.996  0.00  0.00     0.077 C 
ATOM      8  C7  UNL d   1       3.587   4.508  -4.468  0.00  0.00    -0.001 A 
ENDROOT
TORSDOF 0
ENDMDL
