MODEL 1
REMARK minimizedAffinity -4.72473574
REMARK minimizedRMSD -1
REMARK  0 active torsions:
REMARK  status: ('A' for Active; 'I' for Inactive)
ROOT
ATOM      1  C   UNL d   1       5.999   5.955  -1.496  0.00  0.00     0.077 C 
ATOM      2  C1  UNL d   1       5.194   5.211  -2.520  0.00  0.00    -0.074 A 
ATOM      3  C2  UNL d   1       3.796   5.217  -2.478  0.00  0.00    -0.005 A 
ATOM      4  C3  UNL d   1       3.061   4.528  -3.443  0.00  0.00     0.006 A 
ATOM      5  C4  UNL d   1       3.715   3.828  -4.458  0.00  0.00    -0.005 A 
ATOM      6  C5  UNL d   1       5.112   3.812  -4.516  0.00  0.00    -0.074 A 
ATOM      7  C6  UNL d   1       5.831   3.073  -5.605  0.00  0.00     0.077 C 
ATOM      8  C7  UNL d   1       5.844   4.512  -3.547  0.00  0.00    -0.001 A 
ENDROOT
TORSDOF 0
ENDMDL
