MODEL 1
REMARK minimizedAffinity -0.565277874
REMARK minimizedRMSD -1
REMARK  0 active torsions:
REMARK  status: ('A' for Active; 'I' for Inactive)
ROOT
ATOM      1  C   UNL d   1       4.270   5.883  -5.948  0.00  0.00     0.077 C 
ATOM      2  C1  UNL d   1       4.506   5.870  -4.467  0.00  0.00    -0.074 A 
ATOM      3  C2  UNL d   1       5.796   6.000  -3.944  0.00  0.00    -0.005 A 
ATOM      4  C3  UNL d   1       5.999   5.996  -2.564  0.00  0.00     0.006 A 
ATOM      5  C4  UNL d   1       4.916   5.862  -1.695  0.00  0.00    -0.005 A 
ATOM      6  C5  UNL d   1       3.618   5.732  -2.199  0.00  0.00    -0.074 A 
ATOM      7  C6  UNL d   1       2.442   5.596  -1.279  0.00  0.00     0.077 C 
ATOM      8  C7  UNL d   1       3.422   5.744  -3.587  0.00  0.00    -0.001 A 
ENDROOT
TORSDOF 0
ENDMDL
