MODEL 1
REMARK minimizedAffinity 1.36855853
REMARK minimizedRMSD -1
REMARK  0 active torsions:
REMARK  status: ('A' for Active; 'I' for Inactive)
ROOT
ATOM      1  C   UNL d   1       5.999   5.630  -1.265  0.00  0.00     0.077 C 
ATOM      2  C1  UNL d   1       5.408   5.159  -2.561  0.00  0.00    -0.074 A 
ATOM      3  C2  UNL d   1       4.336   5.838  -3.150  0.00  0.00    -0.005 A 
ATOM      4  C3  UNL d   1       3.803   5.394  -4.360  0.00  0.00     0.006 A 
ATOM      5  C4  UNL d   1       4.334   4.269  -4.992  0.00  0.00    -0.005 A 
ATOM      6  C5  UNL d   1       5.407   3.579  -4.418  0.00  0.00    -0.074 A 
ATOM      7  C6  UNL d   1       5.996   2.374  -5.089  0.00  0.00     0.077 C 
ATOM      8  C7  UNL d   1       5.942   4.035  -3.205  0.00  0.00    -0.001 A 
ENDROOT
TORSDOF 0
ENDMDL
