MODEL 1
REMARK minimizedAffinity 4.7011857
REMARK minimizedRMSD -1
REMARK  0 active torsions:
REMARK  status: ('A' for Active; 'I' for Inactive)
ROOT
ATOM      1  C   UNL d   1       6.000   5.900  -1.184  0.00  0.00     0.077 C 
ATOM      2  C1  UNL d   1       5.410   5.345  -2.447  0.00  0.00    -0.074 A 
ATOM      3  C2  UNL d   1       4.341   5.984  -3.082  0.00  0.00    -0.005 A 
ATOM      4  C3  UNL d   1       3.809   5.461  -4.261  0.00  0.00     0.006 A 
ATOM      5  C4  UNL d   1       4.340   4.296  -4.815  0.00  0.00    -0.005 A 
ATOM      6  C5  UNL d   1       5.410   3.644  -4.195  0.00  0.00    -0.074 A 
ATOM      7  C6  UNL d   1       6.000   2.396  -4.783  0.00  0.00     0.077 C 
ATOM      8  C7  UNL d   1       5.944   4.179  -3.014  0.00  0.00    -0.001 A 
ENDROOT
TORSDOF 0
ENDMDL
