MODEL 1
REMARK minimizedAffinity -0.19125928
REMARK minimizedRMSD -1
REMARK  0 active torsions:
REMARK  status: ('A' for Active; 'I' for Inactive)
ROOT
ATOM      1  C   UNL d   1       6.000   2.170  -5.824  0.00  0.00     0.077 C 
ATOM      2  C1  UNL d   1       5.679   3.503  -5.216  0.00  0.00    -0.074 A 
ATOM      3  C2  UNL d   1       5.073   4.511  -5.974  0.00  0.00    -0.005 A 
ATOM      4  C3  UNL d   1       4.771   5.742  -5.392  0.00  0.00     0.006 A 
ATOM      5  C4  UNL d   1       5.072   5.978  -4.050  0.00  0.00    -0.005 A 
ATOM      6  C5  UNL d   1       5.677   4.982  -3.277  0.00  0.00    -0.074 A 
ATOM      7  C6  UNL d   1       5.998   5.216  -1.831  0.00  0.00     0.077 C 
ATOM      8  C7  UNL d   1       5.971   3.745  -3.867  0.00  0.00    -0.001 A 
ENDROOT
TORSDOF 0
ENDMDL
