MODEL 1
REMARK minimizedAffinity 1.04210615
REMARK minimizedRMSD -1
REMARK  0 active torsions:
REMARK  status: ('A' for Active; 'I' for Inactive)
ROOT
ATOM      1  C   UNL d   1       5.973   1.674  -4.983  0.00  0.00     0.077 C 
ATOM      2  C1  UNL d   1       5.554   2.932  -4.281  0.00  0.00    -0.074 A 
ATOM      3  C2  UNL d   1       5.999   3.215  -2.986  0.00  0.00    -0.005 A 
ATOM      4  C3  UNL d   1       5.608   4.393  -2.350  0.00  0.00     0.006 A 
ATOM      5  C4  UNL d   1       4.770   5.298  -3.001  0.00  0.00    -0.005 A 
ATOM      6  C5  UNL d   1       4.316   5.033  -4.297  0.00  0.00    -0.074 A 
ATOM      7  C6  UNL d   1       3.422   6.000  -5.015  0.00  0.00     0.077 C 
ATOM      8  C7  UNL d   1       4.718   3.850  -4.932  0.00  0.00    -0.001 A 
ENDROOT
TORSDOF 0
ENDMDL
