MODEL 1
REMARK minimizedAffinity -1.0852201
REMARK minimizedRMSD -1
REMARK  0 active torsions:
REMARK  status: ('A' for Active; 'I' for Inactive)
ROOT
ATOM      1  C   UNL d   1       5.998   2.426  -5.348  0.00  0.00     0.077 C 
ATOM      2  C1  UNL d   1       5.459   3.677  -4.720  0.00  0.00    -0.074 A 
ATOM      3  C2  UNL d   1       4.456   4.423  -5.348  0.00  0.00    -0.005 A 
ATOM      4  C3  UNL d   1       3.958   5.579  -4.747  0.00  0.00     0.006 A 
ATOM      5  C4  UNL d   1       4.457   6.000  -3.514  0.00  0.00    -0.005 A 
ATOM      6  C5  UNL d   1       5.458   5.267  -2.870  0.00  0.00    -0.074 A 
ATOM      7  C6  UNL d   1       5.998   5.700  -1.540  0.00  0.00     0.077 C 
ATOM      8  C7  UNL d   1       5.949   4.102  -3.477  0.00  0.00    -0.001 A 
ENDROOT
TORSDOF 0
ENDMDL
