MODEL 1
REMARK minimizedAffinity -3.0488987
REMARK minimizedRMSD -1
REMARK  0 active torsions:
REMARK  status: ('A' for Active; 'I' for Inactive)
ROOT
ATOM      1  C   UNL d   1       5.954   4.624  -1.265  0.00  0.00     0.077 C 
ATOM      2  C1  UNL d   1       5.541   4.761  -2.700  0.00  0.00    -0.074 A 
ATOM      3  C2  UNL d   1       4.779   5.853  -3.127  0.00  0.00    -0.005 A 
ATOM      4  C3  UNL d   1       4.410   5.973  -4.467  0.00  0.00     0.006 A 
ATOM      5  C4  UNL d   1       4.800   5.004  -5.392  0.00  0.00    -0.005 A 
ATOM      6  C5  UNL d   1       5.564   3.905  -4.984  0.00  0.00    -0.074 A 
ATOM      7  C6  UNL d   1       6.000   2.860  -5.967  0.00  0.00     0.077 C 
ATOM      8  C7  UNL d   1       5.936   3.796  -3.637  0.00  0.00    -0.001 A 
ENDROOT
TORSDOF 0
ENDMDL
