MODEL 1
REMARK minimizedAffinity -3.41207814
REMARK minimizedRMSD -1
REMARK  0 active torsions:
REMARK  status: ('A' for Active; 'I' for Inactive)
ROOT
ATOM      1  C   UNL d   1       6.000   2.208  -5.846  0.00  0.00     0.077 C 
ATOM      2  C1  UNL d   1       5.615   3.487  -5.162  0.00  0.00    -0.074 A 
ATOM      3  C2  UNL d   1       4.894   4.475  -5.839  0.00  0.00    -0.005 A 
ATOM      4  C3  UNL d   1       4.535   5.655  -5.187  0.00  0.00     0.006 A 
ATOM      5  C4  UNL d   1       4.893   5.858  -3.854  0.00  0.00    -0.005 A 
ATOM      6  C5  UNL d   1       5.613   4.880  -3.160  0.00  0.00    -0.074 A 
ATOM      7  C6  UNL d   1       5.997   5.078  -1.724  0.00  0.00     0.077 C 
ATOM      8  C7  UNL d   1       5.964   3.695  -3.820  0.00  0.00    -0.001 A 
ENDROOT
TORSDOF 0
ENDMDL
