MODEL 1
REMARK minimizedAffinity -2.89668798
REMARK minimizedRMSD -1
REMARK  0 active torsions:
REMARK  status: ('A' for Active; 'I' for Inactive)
ROOT
ATOM      1  C   UNL d   1       5.943   5.893  -1.795  0.00  0.00     0.077 C 
ATOM      2  C1  UNL d   1       5.277   5.470  -3.071  0.00  0.00    -0.074 A 
ATOM      3  C2  UNL d   1       4.037   5.999  -3.445  0.00  0.00    -0.005 A 
ATOM      4  C3  UNL d   1       3.435   5.603  -4.639  0.00  0.00     0.006 A 
ATOM      5  C4  UNL d   1       4.065   4.676  -5.470  0.00  0.00    -0.005 A 
ATOM      6  C5  UNL d   1       5.305   4.137  -5.113  0.00  0.00    -0.074 A 
ATOM      7  C6  UNL d   1       6.000   3.147  -6.000  0.00  0.00     0.077 C 
ATOM      8  C7  UNL d   1       5.907   4.545  -3.915  0.00  0.00    -0.001 A 
ENDROOT
TORSDOF 0
ENDMDL
