MODEL 1
REMARK minimizedAffinity 15.7287159
REMARK minimizedRMSD -1
REMARK  0 active torsions:
REMARK  status: ('A' for Active; 'I' for Inactive)
ROOT
ATOM      1  C   UNL d   1       0.484  -4.698   1.460  0.00  0.00     0.124 A 
ATOM      2  C1  UNL d   1       0.468  -4.028   2.675  0.00  0.00     0.062 A 
ATOM      3  C2  UNL d   1       0.799  -2.677   2.734  0.00  0.00     0.162 A 
ATOM      4  C3  UNL d   1       1.147  -1.987   1.573  0.00  0.00    -0.034 A 
ATOM      5  C4  UNL d   1       1.161  -2.668   0.355  0.00  0.00     0.162 A 
ATOM      6  C5  UNL d   1       0.830  -4.018   0.301  0.00  0.00     0.062 A 
ATOM      7  F   UNL d   1       0.846  -4.664  -0.874  0.00  0.00    -0.097 F 
ATOM      8  F1  UNL d   1       1.491  -2.035  -0.781  0.00  0.00    -0.096 F 
ATOM      9  I   UNL d   1       1.641   0.033   1.656  0.00  0.00    -0.060 I 
ATOM     10  F2  UNL d   1       0.775  -2.055   3.922  0.00  0.00    -0.096 F 
ATOM     11  F3  UNL d   1       0.135  -4.683   3.797  0.00  0.00    -0.097 F 
ATOM     12  F4  UNL d   1       0.167  -5.998   1.407  0.00  0.00    -0.092 F 
ENDROOT
TORSDOF 0
ENDMDL
