MODEL 1
REMARK minimizedAffinity 8.47069931
REMARK minimizedRMSD -1
REMARK  0 active torsions:
REMARK  status: ('A' for Active; 'I' for Inactive)
ROOT
ATOM      1  C   UNL d   1       0.358  -4.625   1.738  0.00  0.00     0.124 A 
ATOM      2  C1  UNL d   1       0.701  -3.887   0.614  0.00  0.00     0.062 A 
ATOM      3  C2  UNL d   1       1.098  -2.559   0.744  0.00  0.00     0.162 A 
ATOM      4  C3  UNL d   1       1.155  -1.961   2.002  0.00  0.00    -0.034 A 
ATOM      5  C4  UNL d   1       0.806  -2.710   3.128  0.00  0.00     0.162 A 
ATOM      6  C5  UNL d   1       0.410  -4.036   2.993  0.00  0.00     0.062 A 
ATOM      7  F   UNL d   1       0.078  -4.748   4.080  0.00  0.00    -0.097 F 
ATOM      8  F1  UNL d   1       0.849  -2.165   4.353  0.00  0.00    -0.096 F 
ATOM      9  I   UNL d   1       1.748   0.024   2.200  0.00  0.00    -0.060 I 
ATOM     10  F2  UNL d   1       1.425  -1.870  -0.360  0.00  0.00    -0.096 F 
ATOM     11  F3  UNL d   1       0.651  -4.454  -0.600  0.00  0.00    -0.097 F 
ATOM     12  F4  UNL d   1      -0.025  -5.902   1.611  0.00  0.00    -0.092 F 
ENDROOT
TORSDOF 0
ENDMDL
