MODEL 1
REMARK minimizedAffinity 19.008564
REMARK minimizedRMSD -1
REMARK  0 active torsions:
REMARK  status: ('A' for Active; 'I' for Inactive)
ROOT
ATOM      1  C   UNL d   1      -5.237  -2.406  -2.516  0.00  0.00     0.124 A 
ATOM      2  C1  UNL d   1      -4.819  -2.119  -3.808  0.00  0.00     0.062 A 
ATOM      3  C2  UNL d   1      -4.737  -3.133  -4.758  0.00  0.00     0.162 A 
ATOM      4  C3  UNL d   1      -5.074  -4.444  -4.420  0.00  0.00    -0.034 A 
ATOM      5  C4  UNL d   1      -5.493  -4.724  -3.118  0.00  0.00     0.162 A 
ATOM      6  C5  UNL d   1      -5.573  -3.707  -2.172  0.00  0.00     0.062 A 
ATOM      7  F   UNL d   1      -5.977  -3.986  -0.924  0.00  0.00    -0.097 F 
ATOM      8  F1  UNL d   1      -5.824  -5.973  -2.759  0.00  0.00    -0.096 F 
ATOM      9  I   UNL d   1      -4.952  -5.963  -5.837  0.00  0.00    -0.060 I 
ATOM     10  F2  UNL d   1      -4.330  -2.827  -5.999  0.00  0.00    -0.096 F 
ATOM     11  F3  UNL d   1      -4.493  -0.862  -4.143  0.00  0.00    -0.097 F 
ATOM     12  F4  UNL d   1      -5.315  -1.428  -1.604  0.00  0.00    -0.092 F 
ENDROOT
TORSDOF 0
ENDMDL
