MODEL 1
REMARK minimizedAffinity 20.6122131
REMARK minimizedRMSD -1
REMARK  0 active torsions:
REMARK  status: ('A' for Active; 'I' for Inactive)
ROOT
ATOM      1  C   UNL d   1       1.048  -4.165   1.720  0.00  0.00     0.124 A 
ATOM      2  C1  UNL d   1       1.232  -3.473   2.909  0.00  0.00     0.062 A 
ATOM      3  C2  UNL d   1       1.475  -2.103   2.890  0.00  0.00     0.162 A 
ATOM      4  C3  UNL d   1       1.535  -1.415   1.679  0.00  0.00    -0.034 A 
ATOM      5  C4  UNL d   1       1.350  -2.118   0.487  0.00  0.00     0.162 A 
ATOM      6  C5  UNL d   1       1.107  -3.487   0.510  0.00  0.00     0.062 A 
ATOM      7  F   UNL d   1       0.929  -4.154  -0.640  0.00  0.00    -0.097 F 
ATOM      8  F1  UNL d   1       1.401  -1.487  -0.696  0.00  0.00    -0.096 F 
ATOM      9  I   UNL d   1       1.899   0.634   1.647  0.00  0.00    -0.060 I 
ATOM     10  F2  UNL d   1       1.649  -1.460   4.055  0.00  0.00    -0.096 F 
ATOM     11  F3  UNL d   1       1.176  -4.126   4.078  0.00  0.00    -0.097 F 
ATOM     12  F4  UNL d   1       0.815  -5.484   1.740  0.00  0.00    -0.092 F 
ENDROOT
TORSDOF 0
ENDMDL
