MODEL 1
REMARK minimizedAffinity 24.9877377
REMARK minimizedRMSD -1
REMARK  0 active torsions:
REMARK  status: ('A' for Active; 'I' for Inactive)
ROOT
ATOM      1  C   UNL d   1       0.664  -3.758   1.173  0.00  0.00     0.124 A 
ATOM      2  C1  UNL d   1       0.672  -2.571   1.893  0.00  0.00     0.062 A 
ATOM      3  C2  UNL d   1       1.451  -2.454   3.041  0.00  0.00     0.162 A 
ATOM      4  C3  UNL d   1       2.231  -3.527   3.474  0.00  0.00    -0.034 A 
ATOM      5  C4  UNL d   1       2.217  -4.717   2.745  0.00  0.00     0.162 A 
ATOM      6  C5  UNL d   1       1.436  -4.829   1.599  0.00  0.00     0.062 A 
ATOM      7  F   UNL d   1       1.430  -5.976   0.904  0.00  0.00    -0.097 F 
ATOM      8  F1  UNL d   1       2.954  -5.768   3.134  0.00  0.00    -0.096 F 
ATOM      9  I   UNL d   1       3.398  -3.356   5.189  0.00  0.00    -0.060 I 
ATOM     10  F2  UNL d   1       1.439  -1.296   3.717  0.00  0.00    -0.096 F 
ATOM     11  F3  UNL d   1      -0.074  -1.535   1.484  0.00  0.00    -0.097 F 
ATOM     12  F4  UNL d   1      -0.088  -3.868   0.070  0.00  0.00    -0.092 F 
ENDROOT
TORSDOF 0
ENDMDL
