MODEL 1
REMARK minimizedAffinity 5.4316864
REMARK minimizedRMSD -1
REMARK  0 active torsions:
REMARK  status: ('A' for Active; 'I' for Inactive)
ROOT
ATOM      1  C   UNL d   1       5.681  -2.241   1.930  0.00  0.00     0.078 C 
ATOM      2  C1  UNL d   1       5.275  -2.493   3.351  0.00  0.00    -0.077 A 
ATOM      3  C2  UNL d   1       5.997  -3.377   4.162  0.00  0.00    -0.001 A 
ATOM      4  C3  UNL d   1       5.602  -3.609   5.480  0.00  0.00     0.003 A 
ATOM      5  C4  UNL d   1       4.483  -2.961   6.000  0.00  0.00    -0.005 A 
ATOM      6  C5  UNL d   1       3.757  -2.081   5.200  0.00  0.00     0.003 A 
ATOM      7  C6  UNL d   1       4.150  -1.848   3.882  0.00  0.00    -0.001 A 
ENDROOT
TORSDOF 0
ENDMDL
