MODEL 1
REMARK minimizedAffinity 3.87526894
REMARK minimizedRMSD -1
REMARK  0 active torsions:
REMARK  status: ('A' for Active; 'I' for Inactive)
ROOT
ATOM      1  C   UNL d   1      -5.962   5.670   1.891  0.00  0.00     0.078 C 
ATOM      2  C1  UNL d   1      -5.312   4.367   1.532  0.00  0.00    -0.077 A 
ATOM      3  C2  UNL d   1      -4.020   4.059   1.977  0.00  0.00    -0.001 A 
ATOM      4  C3  UNL d   1      -3.424   2.847   1.627  0.00  0.00     0.003 A 
ATOM      5  C4  UNL d   1      -4.111   1.934   0.830  0.00  0.00    -0.005 A 
ATOM      6  C5  UNL d   1      -5.395   2.232   0.381  0.00  0.00     0.003 A 
ATOM      7  C6  UNL d   1      -5.994   3.444   0.730  0.00  0.00    -0.001 A 
ENDROOT
TORSDOF 0
ENDMDL
