MODEL 1
REMARK minimizedAffinity 1.97395277
REMARK minimizedRMSD -1
REMARK  0 active torsions:
REMARK  status: ('A' for Active; 'I' for Inactive)
ROOT
ATOM      1  C   UNL d   1      -3.186   3.773  -5.486  0.00  0.00     0.078 C 
ATOM      2  C1  UNL d   1      -2.059   2.918  -4.989  0.00  0.00    -0.077 A 
ATOM      3  C2  UNL d   1      -1.537   3.090  -3.701  0.00  0.00    -0.001 A 
ATOM      4  C3  UNL d   1      -0.481   2.294  -3.255  0.00  0.00     0.003 A 
ATOM      5  C4  UNL d   1       0.062   1.320  -4.091  0.00  0.00    -0.005 A 
ATOM      6  C5  UNL d   1      -0.450   1.142  -5.374  0.00  0.00     0.003 A 
ATOM      7  C6  UNL d   1      -1.505   1.938  -5.822  0.00  0.00    -0.001 A 
ENDROOT
TORSDOF 0
ENDMDL
