MODEL 1
REMARK minimizedAffinity 6.88528967
REMARK minimizedRMSD -1
REMARK  0 active torsions:
REMARK  status: ('A' for Active; 'I' for Inactive)
ROOT
ATOM      1  C   UNL d   1       2.178   6.000  -1.864  0.00  0.00     0.078 C 
ATOM      2  C1  UNL d   1       1.373   5.020  -1.064  0.00  0.00    -0.077 A 
ATOM      3  C2  UNL d   1      -0.025   5.005  -1.137  0.00  0.00    -0.001 A 
ATOM      4  C3  UNL d   1      -0.762   4.093  -0.379  0.00  0.00     0.003 A 
ATOM      5  C4  UNL d   1      -0.110   3.191   0.458  0.00  0.00    -0.005 A 
ATOM      6  C5  UNL d   1       1.281   3.200   0.540  0.00  0.00     0.003 A 
ATOM      7  C6  UNL d   1       2.020   4.111  -0.217  0.00  0.00    -0.001 A 
ENDROOT
TORSDOF 0
ENDMDL
