MODEL 1
REMARK minimizedAffinity 7.34428263
REMARK minimizedRMSD -1
REMARK  0 active torsions:
REMARK  status: ('A' for Active; 'I' for Inactive)
ROOT
ATOM      1  C   UNL d   1       1.774   5.987  -1.789  0.00  0.00     0.078 C 
ATOM      2  C1  UNL d   1       0.905   4.890  -1.249  0.00  0.00    -0.077 A 
ATOM      3  C2  UNL d   1       1.452   3.835  -0.509  0.00  0.00    -0.001 A 
ATOM      4  C3  UNL d   1       0.633   2.816  -0.021  0.00  0.00     0.003 A 
ATOM      5  C4  UNL d   1      -0.738   2.841  -0.270  0.00  0.00    -0.005 A 
ATOM      6  C5  UNL d   1      -1.291   3.885  -1.008  0.00  0.00     0.003 A 
ATOM      7  C6  UNL d   1      -0.473   4.905  -1.496  0.00  0.00    -0.001 A 
ENDROOT
TORSDOF 0
ENDMDL
