MODEL 1
REMARK minimizedAffinity 4.95628595
REMARK minimizedRMSD -1
REMARK  0 active torsions:
REMARK  status: ('A' for Active; 'I' for Inactive)
ROOT
ATOM      1  C   UNL d   1       1.876   5.999  -1.720  0.00  0.00     0.078 C 
ATOM      2  C1  UNL d   1       1.003   5.091  -0.907  0.00  0.00    -0.077 A 
ATOM      3  C2  UNL d   1       1.556   4.190   0.011  0.00  0.00    -0.001 A 
ATOM      4  C3  UNL d   1       0.731   3.344   0.754  0.00  0.00     0.003 A 
ATOM      5  C4  UNL d   1      -0.652   3.390   0.586  0.00  0.00    -0.005 A 
ATOM      6  C5  UNL d   1      -1.211   4.281  -0.327  0.00  0.00     0.003 A 
ATOM      7  C6  UNL d   1      -0.388   5.128  -1.071  0.00  0.00    -0.001 A 
ENDROOT
TORSDOF 0
ENDMDL
