MODEL 1
REMARK minimizedAffinity 6.45183134
REMARK minimizedRMSD -1
REMARK  0 active torsions:
REMARK  status: ('A' for Active; 'I' for Inactive)
ROOT
ATOM      1  C   UNL d   1       1.080   6.000  -1.690  0.00  0.00     0.078 C 
ATOM      2  C1  UNL d   1       0.210   4.834  -1.323  0.00  0.00    -0.077 A 
ATOM      3  C2  UNL d   1      -1.175   4.878  -1.520  0.00  0.00    -0.001 A 
ATOM      4  C3  UNL d   1      -1.973   3.789  -1.165  0.00  0.00     0.003 A 
ATOM      5  C4  UNL d   1      -1.395   2.649  -0.610  0.00  0.00    -0.005 A 
ATOM      6  C5  UNL d   1      -0.017   2.597  -0.408  0.00  0.00     0.003 A 
ATOM      7  C6  UNL d   1       0.782   3.685  -0.762  0.00  0.00    -0.001 A 
ENDROOT
TORSDOF 0
ENDMDL
