MODEL 1
REMARK minimizedAffinity 10.0565929
REMARK minimizedRMSD -1
REMARK  0 active torsions:
REMARK  status: ('A' for Active; 'I' for Inactive)
ROOT
ATOM      1  C   UNL d   1       1.711   6.000  -1.563  0.00  0.00     0.078 C 
ATOM      2  C1  UNL d   1       0.931   4.804  -1.104  0.00  0.00    -0.077 A 
ATOM      3  C2  UNL d   1      -0.448   4.713  -1.331  0.00  0.00    -0.001 A 
ATOM      4  C3  UNL d   1      -1.163   3.598  -0.890  0.00  0.00     0.003 A 
ATOM      5  C4  UNL d   1      -0.508   2.568  -0.218  0.00  0.00    -0.005 A 
ATOM      6  C5  UNL d   1       0.863   2.652   0.014  0.00  0.00     0.003 A 
ATOM      7  C6  UNL d   1       1.580   3.765  -0.426  0.00  0.00    -0.001 A 
ENDROOT
TORSDOF 0
ENDMDL
