MODEL 1
REMARK minimizedAffinity 14.893404
REMARK minimizedRMSD -1
REMARK  3 active torsions:
REMARK  status: ('A' for Active; 'I' for Inactive)
REMARK    1  A    between atoms: C3'_2  and  C2'_3 
REMARK    2  A    between atoms: C2'_3  and  C1'_4 
REMARK    3  A    between atoms: C1'_4  and  C1_5 
ROOT
ATOM      1  C1  N4B d   1       0.083   3.000  -0.001  0.00  0.00    -0.075 A 
ATOM      2  C2  N4B d   1       0.735   4.090  -0.619  0.00  0.00     0.002 A 
ATOM      3  C3  N4B d   1       0.570   4.316  -1.964  0.00  0.00     0.002 A 
ATOM      4  C4  N4B d   1      -0.222   3.457  -2.711  0.00  0.00    -0.004 A 
ATOM      5  C5  N4B d   1      -0.868   2.422  -2.102  0.00  0.00     0.002 A 
ATOM      6  C6  N4B d   1      -0.715   2.186  -0.750  0.00  0.00     0.002 A 
ENDROOT
BRANCH   1   7
ATOM      7  C1' N4B d   1       0.301   2.663   1.449  0.00  0.00     0.057 C 
BRANCH   7   8
ATOM      8  C2' N4B d   1       1.737   3.007   1.833  0.00  0.00     0.009 C 
BRANCH   8   9
ATOM      9  C3' N4B d   1       2.293   2.048   2.871  0.00  0.00     0.004 C 
ATOM     10  C4' N4B d   1       2.926   0.833   2.261  0.00  0.00     0.003 C 
ENDBRANCH   8   9
ENDBRANCH   7   8
ENDBRANCH   1   7
TORSDOF 3
ENDMDL
