MODEL 1
REMARK minimizedAffinity 5.05787754
REMARK minimizedRMSD -1
REMARK  3 active torsions:
REMARK  status: ('A' for Active; 'I' for Inactive)
REMARK    1  A    between atoms: C3'_2  and  C2'_3 
REMARK    2  A    between atoms: C2'_3  and  C1'_4 
REMARK    3  A    between atoms: C1'_4  and  C1_5 
ROOT
ATOM      1  C1  N4B d   1      -0.159   1.272   2.564  0.00  0.00    -0.075 A 
ATOM      2  C2  N4B d   1      -1.557   1.301   2.759  0.00  0.00     0.002 A 
ATOM      3  C3  N4B d   1      -2.345   2.094   1.961  0.00  0.00     0.002 A 
ATOM      4  C4  N4B d   1      -1.758   2.877   0.979  0.00  0.00    -0.004 A 
ATOM      5  C5  N4B d   1      -0.409   2.823   0.780  0.00  0.00     0.002 A 
ATOM      6  C6  N4B d   1       0.395   2.028   1.571  0.00  0.00     0.002 A 
ENDROOT
BRANCH   1   7
ATOM      7  C1' N4B d   1       0.753   0.486   3.467  0.00  0.00     0.057 C 
BRANCH   7   8
ATOM      8  C2' N4B d   1       0.708  -0.985   3.066  0.00  0.00     0.009 C 
BRANCH   8   9
ATOM      9  C3' N4B d   1       2.097  -1.552   2.828  0.00  0.00     0.004 C 
ATOM     10  C4' N4B d   1       2.664  -2.228   4.041  0.00  0.00     0.003 C 
ENDBRANCH   8   9
ENDBRANCH   7   8
ENDBRANCH   1   7
TORSDOF 3
ENDMDL
