MODEL 1
REMARK minimizedAffinity 18.1832085
REMARK minimizedRMSD -1
REMARK  3 active torsions:
REMARK  status: ('A' for Active; 'I' for Inactive)
REMARK    1  A    between atoms: C3'_2  and  C2'_3 
REMARK    2  A    between atoms: C2'_3  and  C1'_4 
REMARK    3  A    between atoms: C1'_4  and  C1_5 
ROOT
ATOM      1  C1  N4B d   1      -0.195  -4.496  -3.049  0.00  0.00    -0.075 A 
ATOM      2  C2  N4B d   1       0.457  -5.667  -2.605  0.00  0.00     0.002 A 
ATOM      3  C3  N4B d   1       1.154  -5.659  -1.421  0.00  0.00     0.002 A 
ATOM      4  C4  N4B d   1       1.227  -4.491  -0.677  0.00  0.00    -0.004 A 
ATOM      5  C5  N4B d   1       0.572  -3.371  -1.100  0.00  0.00     0.002 A 
ATOM      6  C6  N4B d   1      -0.135  -3.366  -2.285  0.00  0.00     0.002 A 
ENDROOT
BRANCH   1   7
ATOM      7  C1' N4B d   1      -0.897  -4.433  -4.378  0.00  0.00     0.057 C 
BRANCH   7   8
ATOM      8  C2' N4B d   1      -2.296  -5.024  -4.234  0.00  0.00     0.009 C 
BRANCH   8   9
ATOM      9  C3' N4B d   1      -2.625  -5.986  -5.363  0.00  0.00     0.004 C 
ATOM     10  C4' N4B d   1      -4.081  -5.983  -5.722  0.00  0.00     0.003 C 
ENDBRANCH   8   9
ENDBRANCH   7   8
ENDBRANCH   1   7
TORSDOF 3
ENDMDL
