MODEL 1
REMARK minimizedAffinity 20.3535767
REMARK minimizedRMSD -1
REMARK  3 active torsions:
REMARK  status: ('A' for Active; 'I' for Inactive)
REMARK    1  A    between atoms: C3'_2  and  C2'_3 
REMARK    2  A    between atoms: C2'_3  and  C1'_4 
REMARK    3  A    between atoms: C1'_4  and  C1_5 
ROOT
ATOM      1  C1  N4B d   1       1.010   0.740   3.845  0.00  0.00    -0.075 A 
ATOM      2  C2  N4B d   1       0.202   0.205   4.871  0.00  0.00     0.002 A 
ATOM      3  C3  N4B d   1       0.467  -1.046   5.372  0.00  0.00     0.002 A 
ATOM      4  C4  N4B d   1       1.519  -1.785   4.851  0.00  0.00    -0.004 A 
ATOM      5  C5  N4B d   1       2.311  -1.250   3.877  0.00  0.00     0.002 A 
ATOM      6  C6  N4B d   1       2.059   0.008   3.368  0.00  0.00     0.002 A 
ENDROOT
BRANCH   1   7
ATOM      7  C1' N4B d   1       0.707   2.068   3.206  0.00  0.00     0.057 C 
BRANCH   7   8
ATOM      8  C2' N4B d   1       1.214   2.059   1.767  0.00  0.00     0.009 C 
BRANCH   8   9
ATOM      9  C3' N4B d   1       0.174   2.591   0.796  0.00  0.00     0.004 C 
ATOM     10  C4' N4B d   1       0.378   2.092  -0.604  0.00  0.00     0.003 C 
ENDBRANCH   8   9
ENDBRANCH   7   8
ENDBRANCH   1   7
TORSDOF 3
ENDMDL
