MODEL 1
REMARK minimizedAffinity 5.31884766
REMARK minimizedRMSD -1
REMARK  3 active torsions:
REMARK  status: ('A' for Active; 'I' for Inactive)
REMARK    1  A    between atoms: C3'_2  and  C2'_3 
REMARK    2  A    between atoms: C2'_3  and  C1'_4 
REMARK    3  A    between atoms: C1'_4  and  C1_5 
ROOT
ATOM      1  C1  N4B d   1      -0.587   3.273  -1.455  0.00  0.00    -0.075 A 
ATOM      2  C2  N4B d   1       0.595   4.036  -1.579  0.00  0.00     0.002 A 
ATOM      3  C3  N4B d   1       1.456   4.148  -0.515  0.00  0.00     0.002 A 
ATOM      4  C4  N4B d   1       1.148   3.523   0.684  0.00  0.00    -0.004 A 
ATOM      5  C5  N4B d   1       0.017   2.767   0.789  0.00  0.00     0.002 A 
ATOM      6  C6  N4B d   1      -0.855   2.643  -0.274  0.00  0.00     0.002 A 
ENDROOT
BRANCH   1   7
ATOM      7  C1' N4B d   1      -1.601   3.192  -2.563  0.00  0.00     0.057 C 
BRANCH   7   8
ATOM      8  C2' N4B d   1      -2.970   2.879  -1.967  0.00  0.00     0.009 C 
BRANCH   8   9
ATOM      9  C3' N4B d   1      -3.799   1.994  -2.882  0.00  0.00     0.004 C 
ATOM     10  C4' N4B d   1      -4.984   1.391  -2.189  0.00  0.00     0.003 C 
ENDBRANCH   8   9
ENDBRANCH   7   8
ENDBRANCH   1   7
TORSDOF 3
ENDMDL
