MODEL 1
REMARK minimizedAffinity 16.9806881
REMARK minimizedRMSD -1
REMARK  3 active torsions:
REMARK  status: ('A' for Active; 'I' for Inactive)
REMARK    1  A    between atoms: C3'_2  and  C2'_3 
REMARK    2  A    between atoms: C2'_3  and  C1'_4 
REMARK    3  A    between atoms: C1'_4  and  C1_5 
ROOT
ATOM      1  C1  N4B d   1      -0.858   3.601   1.279  0.00  0.00    -0.075 A 
ATOM      2  C2  N4B d   1      -1.165   4.973   1.148  0.00  0.00     0.002 A 
ATOM      3  C3  N4B d   1      -2.036   5.569   2.027  0.00  0.00     0.002 A 
ATOM      4  C4  N4B d   1      -2.623   4.811   3.030  0.00  0.00    -0.004 A 
ATOM      5  C5  N4B d   1      -2.302   3.493   3.165  0.00  0.00     0.002 A 
ATOM      6  C6  N4B d   1      -1.425   2.882   2.291  0.00  0.00     0.002 A 
ENDROOT
BRANCH   1   7
ATOM      7  C1' N4B d   1       0.021   2.886   0.290  0.00  0.00     0.057 C 
BRANCH   7   8
ATOM      8  C2' N4B d   1       1.386   3.567   0.250  0.00  0.00     0.009 C 
BRANCH   8   9
ATOM      9  C3' N4B d   1       1.680   4.170  -1.113  0.00  0.00     0.004 C 
ATOM     10  C4' N4B d   1       2.601   5.351  -1.039  0.00  0.00     0.003 C 
ENDBRANCH   8   9
ENDBRANCH   7   8
ENDBRANCH   1   7
TORSDOF 3
ENDMDL
