MODEL 1
REMARK minimizedAffinity 0.482200891
REMARK minimizedRMSD -1
REMARK  0 active torsions:
REMARK  status: ('A' for Active; 'I' for Inactive)
ROOT
ATOM      1  C1  DEN d   1       0.317  -1.205   1.601  0.00  0.00     0.130 A 
ATOM      2  C2  DEN d   1      -1.015  -0.607   1.627  0.00  0.00    -0.031 A 
ATOM      3  C3  DEN d   1      -1.740  -1.157   2.791  0.00  0.00     0.027 A 
ATOM      4  C4  DEN d   1      -0.930  -2.863   4.548  0.00  0.00     0.027 A 
ATOM      5  C5  DEN d   1       0.123  -3.661   4.936  0.00  0.00    -0.003 A 
ATOM      6  C6  DEN d   1       1.293  -3.722   4.226  0.00  0.00     0.001 A 
ATOM      7  C7  DEN d   1       1.455  -2.936   3.115  0.00  0.00     0.017 A 
ATOM      8  C8  DEN d   1       0.394  -2.134   2.714  0.00  0.00    -0.094 A 
ATOM      9  C9  DEN d   1      -0.776  -2.078   3.452  0.00  0.00    -0.072 A 
ENDROOT
TORSDOF 0
ENDMDL
