MODEL 1
REMARK minimizedAffinity -0.368419677
REMARK minimizedRMSD -1
REMARK  0 active torsions:
REMARK  status: ('A' for Active; 'I' for Inactive)
ROOT
ATOM      1  C1  DEN d   1       1.732  -1.837   0.155  0.00  0.00     0.130 A 
ATOM      2  C2  DEN d   1       0.948  -0.729  -0.383  0.00  0.00    -0.031 A 
ATOM      3  C3  DEN d   1      -0.157  -0.452   0.557  0.00  0.00     0.027 A 
ATOM      4  C4  DEN d   1      -0.724  -1.624   2.784  0.00  0.00     0.027 A 
ATOM      5  C5  DEN d   1      -0.353  -2.628   3.651  0.00  0.00    -0.003 A 
ATOM      6  C6  DEN d   1       0.710  -3.455   3.398  0.00  0.00     0.001 A 
ATOM      7  C7  DEN d   1       1.467  -3.262   2.272  0.00  0.00     0.017 A 
ATOM      8  C8  DEN d   1       1.094  -2.256   1.391  0.00  0.00    -0.094 A 
ATOM      9  C9  DEN d   1       0.024  -1.424   1.670  0.00  0.00    -0.072 A 
ENDROOT
TORSDOF 0
ENDMDL
