MODEL 1
REMARK minimizedAffinity 4.70133066
REMARK minimizedRMSD -1
REMARK  0 active torsions:
REMARK  status: ('A' for Active; 'I' for Inactive)
ROOT
ATOM      1  C1  DEN d   1       1.167  -2.215   0.265  0.00  0.00     0.130 A 
ATOM      2  C2  DEN d   1       0.331  -1.017   0.306  0.00  0.00    -0.031 A 
ATOM      3  C3  DEN d   1       1.186   0.122   0.697  0.00  0.00     0.027 A 
ATOM      4  C4  DEN d   1       3.708   0.149   1.234  0.00  0.00     0.027 A 
ATOM      5  C5  DEN d   1       4.841  -0.626   1.344  0.00  0.00    -0.003 A 
ATOM      6  C6  DEN d   1       4.822  -1.980   1.137  0.00  0.00     0.001 A 
ATOM      7  C7  DEN d   1       3.655  -2.593   0.765  0.00  0.00     0.017 A 
ATOM      8  C8  DEN d   1       2.507  -1.819   0.659  0.00  0.00    -0.094 A 
ATOM      9  C9  DEN d   1       2.550  -0.450   0.860  0.00  0.00    -0.072 A 
ENDROOT
TORSDOF 0
ENDMDL
