MODEL 1
REMARK minimizedAffinity -1.14556992
REMARK minimizedRMSD -1
REMARK  0 active torsions:
REMARK  status: ('A' for Active; 'I' for Inactive)
ROOT
ATOM      1  C1  DEN d   1      -0.290  -5.465  -3.655  0.00  0.00     0.130 A 
ATOM      2  C2  DEN d   1       0.327  -6.000  -4.866  0.00  0.00    -0.031 A 
ATOM      3  C3  DEN d   1      -0.578  -5.722  -6.000  0.00  0.00     0.027 A 
ATOM      4  C4  DEN d   1      -2.859  -4.518  -5.999  0.00  0.00     0.027 A 
ATOM      5  C5  DEN d   1      -3.800  -3.898  -5.208  0.00  0.00    -0.003 A 
ATOM      6  C6  DEN d   1      -3.655  -3.788  -3.850  0.00  0.00     0.001 A 
ATOM      7  C7  DEN d   1      -2.521  -4.266  -3.248  0.00  0.00     0.017 A 
ATOM      8  C8  DEN d   1      -1.571  -4.899  -4.038  0.00  0.00    -0.094 A 
ATOM      9  C9  DEN d   1      -1.730  -4.989  -5.410  0.00  0.00    -0.072 A 
ENDROOT
TORSDOF 0
ENDMDL
