MODEL 1
REMARK minimizedAffinity 3.15521598
REMARK minimizedRMSD -1
REMARK  0 active torsions:
REMARK  status: ('A' for Active; 'I' for Inactive)
ROOT
ATOM      1  C1  DEN d   1       1.266  -3.191   3.216  0.00  0.00     0.130 A 
ATOM      2  C2  DEN d   1       0.055  -3.029   4.016  0.00  0.00    -0.031 A 
ATOM      3  C3  DEN d   1      -0.829  -2.075   3.318  0.00  0.00     0.027 A 
ATOM      4  C4  DEN d   1      -0.446  -0.842   1.085  0.00  0.00     0.027 A 
ATOM      5  C5  DEN d   1       0.438  -0.650   0.046  0.00  0.00    -0.003 A 
ATOM      6  C6  DEN d   1       1.664  -1.260   0.008  0.00  0.00     0.001 A 
ATOM      7  C7  DEN d   1       2.022  -2.128   1.006  0.00  0.00     0.017 A 
ATOM      8  C8  DEN d   1       1.139  -2.321   2.061  0.00  0.00    -0.094 A 
ATOM      9  C9  DEN d   1      -0.101  -1.704   2.075  0.00  0.00    -0.072 A 
ENDROOT
TORSDOF 0
ENDMDL
