MODEL 1
REMARK minimizedAffinity 1.06192505
REMARK minimizedRMSD -1
REMARK  0 active torsions:
REMARK  status: ('A' for Active; 'I' for Inactive)
ROOT
ATOM      1  C1  DEN d   1      -3.637  -0.361  -1.150  0.00  0.00     0.130 A 
ATOM      2  C2  DEN d   1      -3.831  -1.578  -1.933  0.00  0.00    -0.031 A 
ATOM      3  C3  DEN d   1      -2.598  -2.386  -1.834  0.00  0.00     0.027 A 
ATOM      4  C4  DEN d   1      -0.422  -1.874  -0.547  0.00  0.00     0.027 A 
ATOM      5  C5  DEN d   1       0.218  -0.955   0.255  0.00  0.00    -0.003 A 
ATOM      6  C6  DEN d   1      -0.364   0.232   0.614  0.00  0.00     0.001 A 
ATOM      7  C7  DEN d   1      -1.642   0.511   0.207  0.00  0.00     0.017 A 
ATOM      8  C8  DEN d   1      -2.291  -0.407  -0.608  0.00  0.00    -0.094 A 
ATOM      9  C9  DEN d   1      -1.690  -1.607  -0.949  0.00  0.00    -0.072 A 
ENDROOT
TORSDOF 0
ENDMDL
