MODEL 1
REMARK minimizedAffinity 5.29143381
REMARK minimizedRMSD -1
REMARK  0 active torsions:
REMARK  status: ('A' for Active; 'I' for Inactive)
ROOT
ATOM      1  C1  DEN d   1       3.028   2.469  -2.078  0.00  0.00     0.130 A 
ATOM      2  C2  DEN d   1       4.034   1.796  -2.895  0.00  0.00    -0.031 A 
ATOM      3  C3  DEN d   1       3.399   1.405  -4.170  0.00  0.00     0.027 A 
ATOM      4  C4  DEN d   1       0.971   1.777  -4.954  0.00  0.00     0.027 A 
ATOM      5  C5  DEN d   1      -0.257   2.292  -4.601  0.00  0.00    -0.003 A 
ATOM      6  C6  DEN d   1      -0.482   2.867  -3.378  0.00  0.00     0.001 A 
ATOM      7  C7  DEN d   1       0.547   2.982  -2.481  0.00  0.00     0.017 A 
ATOM      8  C8  DEN d   1       1.786   2.458  -2.828  0.00  0.00    -0.094 A 
ATOM      9  C9  DEN d   1       1.997   1.891  -4.074  0.00  0.00    -0.072 A 
ENDROOT
TORSDOF 0
ENDMDL
