MODEL 1
REMARK minimizedAffinity 6.37900066
REMARK minimizedRMSD -1
REMARK  0 active torsions:
REMARK  status: ('A' for Active; 'I' for Inactive)
ROOT
ATOM      1  C1  DEN d   1      -0.658  -2.404   4.499  0.00  0.00     0.130 A 
ATOM      2  C2  DEN d   1       0.406  -3.355   4.810  0.00  0.00    -0.031 A 
ATOM      3  C3  DEN d   1       1.308  -3.429   3.643  0.00  0.00     0.027 A 
ATOM      4  C4  DEN d   1       1.163  -2.166   1.398  0.00  0.00     0.027 A 
ATOM      5  C5  DEN d   1       0.429  -1.260   0.665  0.00  0.00    -0.003 A 
ATOM      6  C6  DEN d   1      -0.728  -0.701   1.142  0.00  0.00     0.001 A 
ATOM      7  C7  DEN d   1      -1.160  -1.010   2.404  0.00  0.00     0.017 A 
ATOM      8  C8  DEN d   1      -0.430  -1.929   3.146  0.00  0.00    -0.094 A 
ATOM      9  C9  DEN d   1       0.744  -2.473   2.652  0.00  0.00    -0.072 A 
ENDROOT
TORSDOF 0
ENDMDL
