MODEL 1
REMARK minimizedAffinity 3.00794482
REMARK minimizedRMSD -1
REMARK  0 active torsions:
REMARK  status: ('A' for Active; 'I' for Inactive)
ROOT
ATOM      1  C1  DEN d   1      -1.752  -2.506  -0.934  0.00  0.00     0.130 A 
ATOM      2  C2  DEN d   1      -2.952  -1.681  -0.827  0.00  0.00    -0.031 A 
ATOM      3  C3  DEN d   1      -2.595  -0.449  -0.095  0.00  0.00     0.027 A 
ATOM      4  C4  DEN d   1      -0.312   0.260   0.873  0.00  0.00     0.027 A 
ATOM      5  C5  DEN d   1       1.002  -0.117   1.040  0.00  0.00    -0.003 A 
ATOM      6  C6  DEN d   1       1.479  -1.321   0.595  0.00  0.00     0.001 A 
ATOM      7  C7  DEN d   1       0.645  -2.173  -0.080  0.00  0.00     0.017 A 
ATOM      8  C8  DEN d   1      -0.683  -1.804  -0.247  0.00  0.00    -0.094 A 
ATOM      9  C9  DEN d   1      -1.143  -0.576   0.200  0.00  0.00    -0.072 A 
ENDROOT
TORSDOF 0
ENDMDL
