MODEL 1
REMARK minimizedAffinity 9.96981049
REMARK minimizedRMSD -1
REMARK  0 active torsions:
REMARK  status: ('A' for Active; 'I' for Inactive)
ROOT
ATOM      1  C1  DEN d   1       1.766  -3.100   2.964  0.00  0.00     0.130 A 
ATOM      2  C2  DEN d   1       1.270  -3.428   4.298  0.00  0.00    -0.031 A 
ATOM      3  C3  DEN d   1      -0.102  -2.896   4.419  0.00  0.00     0.027 A 
ATOM      4  C4  DEN d   1      -1.501  -1.607   2.677  0.00  0.00     0.027 A 
ATOM      5  C5  DEN d   1      -1.501  -1.081   1.404  0.00  0.00    -0.003 A 
ATOM      6  C6  DEN d   1      -0.409  -1.161   0.581  0.00  0.00     0.001 A 
ATOM      7  C7  DEN d   1       0.714  -1.821   1.005  0.00  0.00     0.017 A 
ATOM      8  C8  DEN d   1       0.724  -2.347   2.290  0.00  0.00    -0.094 A 
ATOM      9  C9  DEN d   1      -0.394  -2.266   3.103  0.00  0.00    -0.072 A 
ENDROOT
TORSDOF 0
ENDMDL
