MODEL 1
REMARK minimizedAffinity 9.85352421
REMARK minimizedRMSD -1
REMARK  0 active torsions:
REMARK  status: ('A' for Active; 'I' for Inactive)
ROOT
ATOM      1  C1  DEN d   1       1.791  -3.132   3.562  0.00  0.00     0.130 A 
ATOM      2  C2  DEN d   1       0.672  -3.426   4.452  0.00  0.00    -0.031 A 
ATOM      3  C3  DEN d   1      -0.561  -2.915   3.820  0.00  0.00     0.027 A 
ATOM      4  C4  DEN d   1      -0.843  -1.707   1.558  0.00  0.00     0.027 A 
ATOM      5  C5  DEN d   1      -0.178  -1.222   0.454  0.00  0.00    -0.003 A 
ATOM      6  C6  DEN d   1       1.183  -1.308   0.325  0.00  0.00     0.001 A 
ATOM      7  C7  DEN d   1       1.918  -1.934   1.297  0.00  0.00     0.017 A 
ATOM      8  C8  DEN d   1       1.256  -2.419   2.416  0.00  0.00    -0.094 A 
ATOM      9  C9  DEN d   1      -0.122  -2.333   2.523  0.00  0.00    -0.072 A 
ENDROOT
TORSDOF 0
ENDMDL
