MODEL 1
REMARK minimizedAffinity 7.33011627
REMARK minimizedRMSD -1
REMARK  0 active torsions:
REMARK  status: ('A' for Active; 'I' for Inactive)
ROOT
ATOM      1  C1  DEN d   1       1.010   2.203  -2.440  0.00  0.00     0.130 A 
ATOM      2  C2  DEN d   1       1.310   2.326  -3.864  0.00  0.00    -0.031 A 
ATOM      3  C3  DEN d   1       0.037   2.533  -4.583  0.00  0.00     0.027 A 
ATOM      4  C4  DEN d   1      -2.357   2.679  -3.633  0.00  0.00     0.027 A 
ATOM      5  C5  DEN d   1      -3.114   2.622  -2.484  0.00  0.00    -0.003 A 
ATOM      6  C6  DEN d   1      -2.559   2.389  -1.254  0.00  0.00     0.001 A 
ATOM      7  C7  DEN d   1      -1.201   2.249  -1.138  0.00  0.00     0.017 A 
ATOM      8  C8  DEN d   1      -0.431   2.299  -2.293  0.00  0.00    -0.094 A 
ATOM      9  C9  DEN d   1      -1.011   2.547  -3.526  0.00  0.00    -0.072 A 
ENDROOT
TORSDOF 0
ENDMDL
