MODEL 1
REMARK minimizedAffinity -6.57530403
REMARK minimizedRMSD -1
REMARK  0 active torsions:
REMARK  status: ('A' for Active; 'I' for Inactive)
ROOT
ATOM      1  C1  DEN d   1      -4.427  -2.236   2.250  0.00  0.00     0.130 A 
ATOM      2  C2  DEN d   1      -4.657  -2.248   3.692  0.00  0.00    -0.031 A 
ATOM      3  C3  DEN d   1      -3.342  -2.208   4.364  0.00  0.00     0.027 A 
ATOM      4  C4  DEN d   1      -0.987  -2.124   3.316  0.00  0.00     0.027 A 
ATOM      5  C5  DEN d   1      -0.285  -2.108   2.131  0.00  0.00    -0.003 A 
ATOM      6  C6  DEN d   1      -0.908  -2.168   0.913  0.00  0.00     0.001 A 
ATOM      7  C7  DEN d   1      -2.276  -2.200   0.851  0.00  0.00     0.017 A 
ATOM      8  C8  DEN d   1      -2.990  -2.224   2.042  0.00  0.00    -0.094 A 
ATOM      9  C9  DEN d   1      -2.342  -2.151   3.263  0.00  0.00    -0.072 A 
ENDROOT
TORSDOF 0
ENDMDL
