MODEL 1
REMARK minimizedAffinity -0.1618063
REMARK minimizedRMSD -1
REMARK  0 active torsions:
REMARK  status: ('A' for Active; 'I' for Inactive)
ROOT
ATOM      1  C1  DEN d   1       2.768   3.530  -2.112  0.00  0.00     0.130 A 
ATOM      2  C2  DEN d   1       3.329   2.209  -2.383  0.00  0.00    -0.031 A 
ATOM      3  C3  DEN d   1       2.377   1.476  -3.242  0.00  0.00     0.027 A 
ATOM      4  C4  DEN d   1       0.103   2.256  -4.176  0.00  0.00     0.027 A 
ATOM      5  C5  DEN d   1      -0.801   3.295  -4.208  0.00  0.00    -0.003 A 
ATOM      6  C6  DEN d   1      -0.596   4.462  -3.522  0.00  0.00     0.001 A 
ATOM      7  C7  DEN d   1       0.562   4.637  -2.810  0.00  0.00     0.017 A 
ATOM      8  C8  DEN d   1       1.474   3.591  -2.767  0.00  0.00    -0.094 A 
ATOM      9  C9  DEN d   1       1.254   2.423  -3.477  0.00  0.00    -0.072 A 
ENDROOT
TORSDOF 0
ENDMDL
