MODEL 1
REMARK minimizedAffinity -0.17699188
REMARK minimizedRMSD -1
REMARK  0 active torsions:
REMARK  status: ('A' for Active; 'I' for Inactive)
ROOT
ATOM      1  C1  DEN d   1      -0.738  -0.838   1.570  0.00  0.00     0.130 A 
ATOM      2  C2  DEN d   1       0.206  -0.765   0.457  0.00  0.00    -0.031 A 
ATOM      3  C3  DEN d   1       1.364  -1.621   0.783  0.00  0.00     0.027 A 
ATOM      4  C4  DEN d   1       1.783  -3.049   2.890  0.00  0.00     0.027 A 
ATOM      5  C5  DEN d   1       1.273  -3.421   4.113  0.00  0.00    -0.003 A 
ATOM      6  C6  DEN d   1       0.082  -2.936   4.586  0.00  0.00     0.001 A 
ATOM      7  C7  DEN d   1      -0.660  -2.085   3.810  0.00  0.00     0.017 A 
ATOM      8  C8  DEN d   1      -0.148  -1.699   2.578  0.00  0.00    -0.094 A 
ATOM      9  C9  DEN d   1       1.052  -2.210   2.113  0.00  0.00    -0.072 A 
ENDROOT
TORSDOF 0
ENDMDL
