MODEL 1
REMARK minimizedAffinity -0.172081798
REMARK minimizedRMSD -1
REMARK  0 active torsions:
REMARK  status: ('A' for Active; 'I' for Inactive)
ROOT
ATOM      1  C1  DEN d   1      -1.927  -5.981  -5.811  0.00  0.00     0.130 A 
ATOM      2  C2  DEN d   1      -0.956  -4.891  -5.781  0.00  0.00    -0.031 A 
ATOM      3  C3  DEN d   1      -1.699  -3.615  -5.808  0.00  0.00     0.027 A 
ATOM      4  C4  DEN d   1      -4.247  -3.224  -5.889  0.00  0.00     0.027 A 
ATOM      5  C5  DEN d   1      -5.477  -3.843  -5.940  0.00  0.00    -0.003 A 
ATOM      6  C6  DEN d   1      -5.607  -5.206  -5.986  0.00  0.00     0.001 A 
ATOM      7  C7  DEN d   1      -4.490  -5.996  -5.936  0.00  0.00     0.017 A 
ATOM      8  C8  DEN d   1      -3.246  -5.380  -5.892  0.00  0.00    -0.094 A 
ATOM      9  C9  DEN d   1      -3.136  -4.001  -5.834  0.00  0.00    -0.072 A 
ENDROOT
TORSDOF 0
ENDMDL
