MODEL 1
REMARK minimizedAffinity -3.4596467
REMARK minimizedRMSD -1
REMARK  0 active torsions:
REMARK  status: ('A' for Active; 'I' for Inactive)
ROOT
ATOM      1  C   UNL d   1      -0.660   3.389  -2.506  0.00  0.00     0.078 C 
ATOM      2  C1  UNL d   1      -0.526   2.083  -1.782  0.00  0.00    -0.077 A 
ATOM      3  C2  UNL d   1      -0.475   0.872  -2.482  0.00  0.00    -0.001 A 
ATOM      4  C3  UNL d   1      -0.359  -0.337  -1.794  0.00  0.00     0.003 A 
ATOM      5  C4  UNL d   1      -0.294  -0.347  -0.402  0.00  0.00    -0.005 A 
ATOM      6  C5  UNL d   1      -0.346   0.853   0.303  0.00  0.00     0.003 A 
ATOM      7  C6  UNL d   1      -0.462   2.063  -0.383  0.00  0.00    -0.001 A 
ENDROOT
TORSDOF 0
ENDMDL
