MODEL 1
REMARK minimizedAffinity -2.89965296
REMARK minimizedRMSD -1
REMARK  0 active torsions:
REMARK  status: ('A' for Active; 'I' for Inactive)
ROOT
ATOM      1  C   UNL d   1       0.286  -0.979   2.816  0.00  0.00     0.078 C 
ATOM      2  C1  UNL d   1      -0.105  -0.467   1.461  0.00  0.00    -0.077 A 
ATOM      3  C2  UNL d   1      -1.366   0.099   1.241  0.00  0.00    -0.001 A 
ATOM      4  C3  UNL d   1      -1.720   0.563  -0.027  0.00  0.00     0.003 A 
ATOM      5  C4  UNL d   1      -0.818   0.464  -1.085  0.00  0.00    -0.005 A 
ATOM      6  C5  UNL d   1       0.439  -0.100  -0.876  0.00  0.00     0.003 A 
ATOM      7  C6  UNL d   1       0.794  -0.564   0.392  0.00  0.00    -0.001 A 
ENDROOT
TORSDOF 0
ENDMDL
