MODEL 1
REMARK minimizedAffinity -0.861421943
REMARK minimizedRMSD -1
REMARK  0 active torsions:
REMARK  status: ('A' for Active; 'I' for Inactive)
ROOT
ATOM      1  C   UNL d   1      -1.360   2.432  -1.916  0.00  0.00     0.078 C 
ATOM      2  C1  UNL d   1      -0.756   1.340  -1.084  0.00  0.00    -0.077 A 
ATOM      3  C2  UNL d   1       0.533   1.467  -0.554  0.00  0.00    -0.001 A 
ATOM      4  C3  UNL d   1       1.086   0.438   0.211  0.00  0.00     0.003 A 
ATOM      5  C4  UNL d   1       0.357  -0.725   0.451  0.00  0.00    -0.005 A 
ATOM      6  C5  UNL d   1      -0.926  -0.861  -0.074  0.00  0.00     0.003 A 
ATOM      7  C6  UNL d   1      -1.481   0.167  -0.839  0.00  0.00    -0.001 A 
ENDROOT
TORSDOF 0
ENDMDL
