MODEL 1
REMARK minimizedAffinity -5.90788937
REMARK minimizedRMSD -1
REMARK  0 active torsions:
REMARK  status: ('A' for Active; 'I' for Inactive)
ROOT
ATOM      1  C   UNL d   1       3.210  -2.023   0.497  0.00  0.00     0.078 C 
ATOM      2  C1  UNL d   1       1.883  -1.419   0.848  0.00  0.00    -0.077 A 
ATOM      3  C2  UNL d   1       1.402  -1.451   2.163  0.00  0.00    -0.001 A 
ATOM      4  C3  UNL d   1       0.161  -0.893   2.474  0.00  0.00     0.003 A 
ATOM      5  C4  UNL d   1      -0.610  -0.301   1.475  0.00  0.00    -0.005 A 
ATOM      6  C5  UNL d   1      -0.141  -0.267   0.164  0.00  0.00     0.003 A 
ATOM      7  C6  UNL d   1       1.100  -0.824  -0.149  0.00  0.00    -0.001 A 
ENDROOT
TORSDOF 0
ENDMDL
