MODEL 1
REMARK minimizedAffinity -5.08845758
REMARK minimizedRMSD -1
REMARK  0 active torsions:
REMARK  status: ('A' for Active; 'I' for Inactive)
ROOT
ATOM      1  C   UNL d   1       1.465  -0.421   2.822  0.00  0.00     0.078 C 
ATOM      2  C1  UNL d   1       0.573  -0.309   1.622  0.00  0.00    -0.077 A 
ATOM      3  C2  UNL d   1       1.091   0.038   0.368  0.00  0.00    -0.001 A 
ATOM      4  C3  UNL d   1       0.247   0.148  -0.739  0.00  0.00     0.003 A 
ATOM      5  C4  UNL d   1      -1.120  -0.085  -0.602  0.00  0.00    -0.005 A 
ATOM      6  C5  UNL d   1      -1.645  -0.428   0.642  0.00  0.00     0.003 A 
ATOM      7  C6  UNL d   1      -0.803  -0.539   1.749  0.00  0.00    -0.001 A 
ENDROOT
TORSDOF 0
ENDMDL
