MODEL 1
REMARK minimizedAffinity -5.20039511
REMARK minimizedRMSD -1
REMARK  0 active torsions:
REMARK  status: ('A' for Active; 'I' for Inactive)
ROOT
ATOM      1  C   UNL d   1      -0.033   0.507  -0.340  0.00  0.00     0.078 C 
ATOM      2  C1  UNL d   1       0.760  -0.298   0.646  0.00  0.00    -0.077 A 
ATOM      3  C2  UNL d   1       1.869  -1.050   0.238  0.00  0.00    -0.001 A 
ATOM      4  C3  UNL d   1       2.592  -1.802   1.166  0.00  0.00     0.003 A 
ATOM      5  C4  UNL d   1       2.213  -1.810   2.507  0.00  0.00    -0.005 A 
ATOM      6  C5  UNL d   1       1.110  -1.067   2.922  0.00  0.00     0.003 A 
ATOM      7  C6  UNL d   1       0.386  -0.314   1.996  0.00  0.00    -0.001 A 
ENDROOT
TORSDOF 0
ENDMDL
