MODEL 1
REMARK minimizedAffinity -1.15326118
REMARK minimizedRMSD -1
REMARK  0 active torsions:
REMARK  status: ('A' for Active; 'I' for Inactive)
ROOT
ATOM      1  C   UNL d   1      -0.065   0.302  -0.335  0.00  0.00     0.078 C 
ATOM      2  C1  UNL d   1      -0.261   1.318  -1.421  0.00  0.00    -0.077 A 
ATOM      3  C2  UNL d   1      -1.371   1.257  -2.273  0.00  0.00    -0.001 A 
ATOM      4  C3  UNL d   1      -1.537   2.203  -3.285  0.00  0.00     0.003 A 
ATOM      5  C4  UNL d   1      -0.595   3.216  -3.458  0.00  0.00    -0.005 A 
ATOM      6  C5  UNL d   1       0.514   3.283  -2.617  0.00  0.00     0.003 A 
ATOM      7  C6  UNL d   1       0.681   2.337  -1.603  0.00  0.00    -0.001 A 
ENDROOT
TORSDOF 0
ENDMDL
