MODEL 1
REMARK minimizedAffinity -6.11809158
REMARK minimizedRMSD -1
REMARK  0 active torsions:
REMARK  status: ('A' for Active; 'I' for Inactive)
ROOT
ATOM      1  C   UNL d   1      -0.067  -0.227  -0.919  0.00  0.00     0.078 C 
ATOM      2  C1  UNL d   1       0.515  -0.654   0.396  0.00  0.00    -0.077 A 
ATOM      3  C2  UNL d   1      -0.181  -0.450   1.593  0.00  0.00    -0.001 A 
ATOM      4  C3  UNL d   1       0.378  -0.844   2.810  0.00  0.00     0.003 A 
ATOM      5  C4  UNL d   1       1.635  -1.443   2.842  0.00  0.00    -0.005 A 
ATOM      6  C5  UNL d   1       2.337  -1.648   1.655  0.00  0.00     0.003 A 
ATOM      7  C6  UNL d   1       1.780  -1.255   0.437  0.00  0.00    -0.001 A 
ENDROOT
TORSDOF 0
ENDMDL
