MODEL 1
REMARK minimizedAffinity -4.25195742
REMARK minimizedRMSD -1
REMARK  0 active torsions:
REMARK  status: ('A' for Active; 'I' for Inactive)
ROOT
ATOM      1  C   UNL d   1      -0.023  -0.763   2.515  0.00  0.00     0.078 C 
ATOM      2  C1  UNL d   1      -0.478  -0.304   1.162  0.00  0.00    -0.077 A 
ATOM      3  C2  UNL d   1      -1.822   0.003   0.919  0.00  0.00    -0.001 A 
ATOM      4  C3  UNL d   1      -2.234   0.419  -0.348  0.00  0.00     0.003 A 
ATOM      5  C4  UNL d   1      -1.307   0.532  -1.383  0.00  0.00    -0.005 A 
ATOM      6  C5  UNL d   1       0.032   0.226  -1.151  0.00  0.00     0.003 A 
ATOM      7  C6  UNL d   1       0.446  -0.191   0.115  0.00  0.00    -0.001 A 
ENDROOT
TORSDOF 0
ENDMDL
