MODEL 1
REMARK minimizedAffinity -3.41343927
REMARK minimizedRMSD -1
REMARK  0 active torsions:
REMARK  status: ('A' for Active; 'I' for Inactive)
ROOT
ATOM      1  C   UNL d   1       2.543  -2.018  -0.513  0.00  0.00     0.078 C 
ATOM      2  C1  UNL d   1       1.294  -1.350  -0.021  0.00  0.00    -0.077 A 
ATOM      3  C2  UNL d   1       0.872  -1.497   1.306  0.00  0.00    -0.001 A 
ATOM      4  C3  UNL d   1      -0.298  -0.877   1.748  0.00  0.00     0.003 A 
ATOM      5  C4  UNL d   1      -1.057  -0.108   0.869  0.00  0.00    -0.005 A 
ATOM      6  C5  UNL d   1      -0.647   0.042  -0.455  0.00  0.00     0.003 A 
ATOM      7  C6  UNL d   1       0.523  -0.577  -0.898  0.00  0.00    -0.001 A 
ENDROOT
TORSDOF 0
ENDMDL
