MODEL 1
REMARK minimizedAffinity -2.91709256
REMARK minimizedRMSD -1
REMARK  0 active torsions:
REMARK  status: ('A' for Active; 'I' for Inactive)
ROOT
ATOM      1  C   UNL d   1      -0.646   0.820  -1.311  0.00  0.00     0.078 C 
ATOM      2  C1  UNL d   1      -0.297   0.036  -0.081  0.00  0.00    -0.077 A 
ATOM      3  C2  UNL d   1      -1.078   0.127   1.078  0.00  0.00    -0.001 A 
ATOM      4  C3  UNL d   1      -0.736  -0.602   2.218  0.00  0.00     0.003 A 
ATOM      5  C4  UNL d   1       0.388  -1.425   2.212  0.00  0.00    -0.005 A 
ATOM      6  C5  UNL d   1       1.173  -1.520   1.064  0.00  0.00     0.003 A 
ATOM      7  C6  UNL d   1       0.832  -0.792  -0.078  0.00  0.00    -0.001 A 
ENDROOT
TORSDOF 0
ENDMDL
