MODEL 1
REMARK minimizedAffinity 3.49175954
REMARK minimizedRMSD -1
REMARK  1 active torsions:
REMARK  status: ('A' for Active; 'I' for Inactive)
REMARK    1  A    between atoms: C3_4  and  O_7 
ROOT
ATOM      1  C   UNL d   1      -1.104   4.282  -0.257  0.00  0.00    -0.033 A 
ATOM      2  C1  UNL d   1      -1.344   3.840  -1.559  0.00  0.00     0.039 A 
ATOM      3  C2  UNL d   1      -0.554   2.831  -2.113  0.00  0.00    -0.080 A 
ATOM      4  C3  UNL d   1       0.471   2.272  -1.355  0.00  0.00     0.150 A 
ATOM      5  C4  UNL d   1       0.713   2.704  -0.055  0.00  0.00    -0.007 A 
ATOM      6  C5  UNL d   1      -0.076   3.713   0.496  0.00  0.00     0.039 A 
ENDROOT
BRANCH   4   7
ATOM      7  O   UNL d   1       1.271   1.287  -1.854  0.00  0.00    -0.526 OA
ATOM      8  H5  UNL d   1       1.005   1.110  -2.772  0.00  0.00     0.418 HD
ENDBRANCH   4   7
TORSDOF 1
ENDMDL
