MODEL 1
REMARK minimizedAffinity 4.17905998
REMARK minimizedRMSD -1
REMARK  1 active torsions:
REMARK  status: ('A' for Active; 'I' for Inactive)
REMARK    1  A    between atoms: C3_4  and  O_7 
ROOT
ATOM      1  C   UNL d   1       0.101   2.205   3.089  0.00  0.00    -0.033 A 
ATOM      2  C1  UNL d   1      -0.843   3.090   2.564  0.00  0.00     0.039 A 
ATOM      3  C2  UNL d   1      -0.574   3.779   1.380  0.00  0.00    -0.080 A 
ATOM      4  C3  UNL d   1       0.640   3.573   0.730  0.00  0.00     0.150 A 
ATOM      5  C4  UNL d   1       1.583   2.690   1.245  0.00  0.00    -0.007 A 
ATOM      6  C5  UNL d   1       1.313   2.004   2.428  0.00  0.00     0.039 A 
ENDROOT
BRANCH   4   7
ATOM      7  O   UNL d   1       0.949   4.226  -0.426  0.00  0.00    -0.526 OA
ATOM      8  H5  UNL d   1       0.216   4.825  -0.647  0.00  0.00     0.418 HD
ENDBRANCH   4   7
TORSDOF 1
ENDMDL
