MODEL 1
REMARK minimizedAffinity -0.333683521
REMARK minimizedRMSD -1
REMARK  1 active torsions:
REMARK  status: ('A' for Active; 'I' for Inactive)
REMARK    1  A    between atoms: C3_4  and  O_7 
ROOT
ATOM      1  C   UNL d   1      -4.874   2.698  -2.102  0.00  0.00    -0.033 A 
ATOM      2  C1  UNL d   1      -3.759   3.374  -2.603  0.00  0.00     0.039 A 
ATOM      3  C2  UNL d   1      -3.762   3.854  -3.914  0.00  0.00    -0.080 A 
ATOM      4  C3  UNL d   1      -4.884   3.653  -4.713  0.00  0.00     0.150 A 
ATOM      5  C4  UNL d   1      -6.000   2.984  -4.219  0.00  0.00    -0.007 A 
ATOM      6  C5  UNL d   1      -5.994   2.504  -2.910  0.00  0.00     0.039 A 
ENDROOT
BRANCH   4   7
ATOM      7  O   UNL d   1      -4.932   4.099  -6.000  0.00  0.00    -0.526 OA
ATOM      8  H5  UNL d   1      -4.081   4.517  -6.213  0.00  0.00     0.418 HD
ENDBRANCH   4   7
TORSDOF 1
ENDMDL
