MODEL 1
REMARK minimizedAffinity 1.60585117
REMARK minimizedRMSD -1
REMARK  1 active torsions:
REMARK  status: ('A' for Active; 'I' for Inactive)
REMARK    1  A    between atoms: C3_4  and  O_7 
ROOT
ATOM      1  C   UNL d   1      -4.067   4.690  -4.530  0.00  0.00    -0.033 A 
ATOM      2  C1  UNL d   1      -3.408   4.311  -3.360  0.00  0.00     0.039 A 
ATOM      3  C2  UNL d   1      -4.043   3.477  -2.437  0.00  0.00    -0.080 A 
ATOM      4  C3  UNL d   1      -5.336   3.030  -2.697  0.00  0.00     0.150 A 
ATOM      5  C4  UNL d   1      -5.997   3.402  -3.863  0.00  0.00    -0.007 A 
ATOM      6  C5  UNL d   1      -5.361   4.235  -4.783  0.00  0.00     0.039 A 
ENDROOT
BRANCH   4   7
ATOM      7  O   UNL d   1      -5.999   2.219  -1.825  0.00  0.00    -0.526 OA
ATOM      8  H5  UNL d   1      -5.430   2.069  -1.051  0.00  0.00     0.418 HD
ENDBRANCH   4   7
TORSDOF 1
ENDMDL
