MODEL 1
REMARK minimizedAffinity 2.08074141
REMARK minimizedRMSD -1
REMARK  1 active torsions:
REMARK  status: ('A' for Active; 'I' for Inactive)
REMARK    1  A    between atoms: C3_4  and  O_7 
ROOT
ATOM      1  C   UNL d   1      -1.496   2.908  -0.847  0.00  0.00    -0.033 A 
ATOM      2  C1  UNL d   1      -0.239   2.663  -0.291  0.00  0.00     0.039 A 
ATOM      3  C2  UNL d   1       0.778   3.612  -0.416  0.00  0.00    -0.080 A 
ATOM      4  C3  UNL d   1       0.524   4.799  -1.098  0.00  0.00     0.150 A 
ATOM      5  C4  UNL d   1      -0.727   5.051  -1.650  0.00  0.00    -0.007 A 
ATOM      6  C5  UNL d   1      -1.741   4.102  -1.525  0.00  0.00     0.039 A 
ENDROOT
BRANCH   4   7
ATOM      7  O   UNL d   1       1.487   5.753  -1.250  0.00  0.00    -0.526 OA
ATOM      8  H5  UNL d   1       2.308   5.430  -0.842  0.00  0.00     0.418 HD
ENDBRANCH   4   7
TORSDOF 1
ENDMDL
