MODEL 1
REMARK minimizedAffinity -0.919796765
REMARK minimizedRMSD -1
REMARK  1 active torsions:
REMARK  status: ('A' for Active; 'I' for Inactive)
REMARK    1  A    between atoms: C3_4  and  O_7 
ROOT
ATOM      1  C   UNL d   1      -0.511   6.000  -0.528  0.00  0.00    -0.033 A 
ATOM      2  C1  UNL d   1      -1.053   6.000   0.758  0.00  0.00     0.039 A 
ATOM      3  C2  UNL d   1      -0.868   4.899   1.596  0.00  0.00    -0.080 A 
ATOM      4  C3  UNL d   1      -0.138   3.806   1.137  0.00  0.00     0.150 A 
ATOM      5  C4  UNL d   1       0.409   3.801  -0.142  0.00  0.00    -0.007 A 
ATOM      6  C5  UNL d   1       0.221   4.901  -0.978  0.00  0.00     0.039 A 
ENDROOT
BRANCH   4   7
ATOM      7  O   UNL d   1       0.066   2.706   1.916  0.00  0.00    -0.526 OA
ATOM      8  H5  UNL d   1      -0.394   2.839   2.762  0.00  0.00     0.418 HD
ENDBRANCH   4   7
TORSDOF 1
ENDMDL
