MODEL 1
REMARK minimizedAffinity -1.41055667
REMARK minimizedRMSD -1
REMARK  1 active torsions:
REMARK  status: ('A' for Active; 'I' for Inactive)
REMARK    1  A    between atoms: C3_4  and  O_7 
ROOT
ATOM      1  C   UNL d   1      -4.013   3.747  -6.000  0.00  0.00    -0.033 A 
ATOM      2  C1  UNL d   1      -5.396   3.556  -5.964  0.00  0.00     0.039 A 
ATOM      3  C2  UNL d   1      -5.996   2.993  -4.835  0.00  0.00    -0.080 A 
ATOM      4  C3  UNL d   1      -5.203   2.627  -3.751  0.00  0.00     0.150 A 
ATOM      5  C4  UNL d   1      -3.825   2.817  -3.779  0.00  0.00    -0.007 A 
ATOM      6  C5  UNL d   1      -3.228   3.378  -4.907  0.00  0.00     0.039 A 
ENDROOT
BRANCH   4   7
ATOM      7  O   UNL d   1      -5.742   2.069  -2.630  0.00  0.00    -0.526 OA
ATOM      8  H5  UNL d   1      -6.700   1.972  -2.765  0.00  0.00     0.418 HD
ENDBRANCH   4   7
TORSDOF 1
ENDMDL
