MODEL 1
REMARK minimizedAffinity -0.658975422
REMARK minimizedRMSD -1
REMARK  1 active torsions:
REMARK  status: ('A' for Active; 'I' for Inactive)
REMARK    1  A    between atoms: C3_4  and  O_7 
ROOT
ATOM      1  C   UNL d   1      -4.884   2.310  -2.181  0.00  0.00    -0.033 A 
ATOM      2  C1  UNL d   1      -3.765   2.162  -3.003  0.00  0.00     0.039 A 
ATOM      3  C2  UNL d   1      -3.763   2.711  -4.287  0.00  0.00    -0.080 A 
ATOM      4  C3  UNL d   1      -4.883   3.406  -4.735  0.00  0.00     0.150 A 
ATOM      5  C4  UNL d   1      -5.999   3.561  -3.919  0.00  0.00    -0.007 A 
ATOM      6  C5  UNL d   1      -6.000   3.011  -2.638  0.00  0.00     0.039 A 
ENDROOT
BRANCH   4   7
ATOM      7  O   UNL d   1      -4.928   3.956  -5.982  0.00  0.00    -0.526 OA
ATOM      8  H5  UNL d   1      -4.099   3.744  -6.442  0.00  0.00     0.418 HD
ENDBRANCH   4   7
TORSDOF 1
ENDMDL
