MODEL 1
REMARK minimizedAffinity 10.9157019
REMARK minimizedRMSD -1
REMARK  0 active torsions:
REMARK  status: ('A' for Active; 'I' for Inactive)
ROOT
ATOM      1  C   UNL d   1      -3.956  -0.369  -0.749  0.00  0.00    -0.002 A 
ATOM      2  C1  UNL d   1      -5.325  -0.189  -0.887  0.00  0.00     0.010 A 
ATOM      3  C2  UNL d   1      -5.999   0.753  -0.106  0.00  0.00     0.041 A 
ATOM      4  C3  UNL d   1      -5.267   1.519   0.822  0.00  0.00    -0.075 A 
ATOM      5  S   UNL d   1      -5.881   2.731   1.883  0.00  0.00     0.015 SA
ATOM      6  C4  UNL d   1      -4.340   3.038   2.544  0.00  0.00     0.022 A 
ATOM      7  C5  UNL d   1      -3.369   2.245   1.980  0.00  0.00     0.026 A 
ATOM      8  C6  UNL d   1      -3.887   1.356   0.978  0.00  0.00    -0.082 A 
ATOM      9  C7  UNL d   1      -3.233   0.393   0.173  0.00  0.00     0.045 A 
ENDROOT
TORSDOF 0
ENDMDL
