MODEL 1
REMARK minimizedAffinity 9.45850658
REMARK minimizedRMSD -1
REMARK  0 active torsions:
REMARK  status: ('A' for Active; 'I' for Inactive)
ROOT
ATOM      1  C   UNL d   1      -2.463  -0.608  -2.257  0.00  0.00    -0.002 A 
ATOM      2  C1  UNL d   1      -1.423   0.024  -1.591  0.00  0.00     0.010 A 
ATOM      3  C2  UNL d   1      -1.672   0.795  -0.454  0.00  0.00     0.041 A 
ATOM      4  C3  UNL d   1      -2.997   0.919   0.009  0.00  0.00    -0.075 A 
ATOM      5  S   UNL d   1      -3.539   1.810   1.382  0.00  0.00     0.015 SA
ATOM      6  C4  UNL d   1      -5.165   1.371   1.117  0.00  0.00     0.022 A 
ATOM      7  C5  UNL d   1      -5.308   0.565   0.013  0.00  0.00     0.026 A 
ATOM      8  C6  UNL d   1      -4.061   0.290  -0.644  0.00  0.00    -0.082 A 
ATOM      9  C7  UNL d   1      -3.776  -0.483  -1.795  0.00  0.00     0.045 A 
ENDROOT
TORSDOF 0
ENDMDL
