MODEL 1
REMARK minimizedAffinity 8.1120224
REMARK minimizedRMSD -1
REMARK  0 active torsions:
REMARK  status: ('A' for Active; 'I' for Inactive)
ROOT
ATOM      1  C   UNL d   1       3.705   2.726   5.347  0.00  0.00    -0.002 A 
ATOM      2  C1  UNL d   1       4.091   3.420   4.209  0.00  0.00     0.010 A 
ATOM      3  C2  UNL d   1       3.294   4.447   3.699  0.00  0.00     0.041 A 
ATOM      4  C3  UNL d   1       2.092   4.769   4.360  0.00  0.00    -0.075 A 
ATOM      5  S   UNL d   1       0.957   5.989   3.917  0.00  0.00     0.015 SA
ATOM      6  C4  UNL d   1      -0.066   5.618   5.229  0.00  0.00     0.022 A 
ATOM      7  C5  UNL d   1       0.431   4.591   5.996  0.00  0.00     0.026 A 
ATOM      8  C6  UNL d   1       1.683   4.085   5.508  0.00  0.00    -0.082 A 
ATOM      9  C7  UNL d   1       2.512   3.048   6.000  0.00  0.00     0.045 A 
ENDROOT
TORSDOF 0
ENDMDL
