MODEL 1
REMARK minimizedAffinity 8.1928606
REMARK minimizedRMSD -1
REMARK  0 active torsions:
REMARK  status: ('A' for Active; 'I' for Inactive)
ROOT
ATOM      1  C   UNL d   1       4.700   2.531   5.200  0.00  0.00    -0.002 A 
ATOM      2  C1  UNL d   1       4.650   2.639   3.817  0.00  0.00     0.010 A 
ATOM      3  C2  UNL d   1       3.698   3.455   3.202  0.00  0.00     0.041 A 
ATOM      4  C3  UNL d   1       2.789   4.168   4.008  0.00  0.00    -0.075 A 
ATOM      5  S   UNL d   1       1.538   5.228   3.475  0.00  0.00     0.015 SA
ATOM      6  C4  UNL d   1       1.040   5.563   5.070  0.00  0.00     0.022 A 
ATOM      7  C5  UNL d   1       1.798   4.890   5.999  0.00  0.00     0.026 A 
ATOM      8  C6  UNL d   1       2.819   4.076   5.402  0.00  0.00    -0.082 A 
ATOM      9  C7  UNL d   1       3.796   3.240   5.996  0.00  0.00     0.045 A 
ENDROOT
TORSDOF 0
ENDMDL
