MODEL 1
REMARK minimizedAffinity 11.7385454
REMARK minimizedRMSD -1
REMARK  0 active torsions:
REMARK  status: ('A' for Active; 'I' for Inactive)
ROOT
ATOM      1  C   UNL d   1       2.434   5.722   5.988  0.00  0.00    -0.002 A 
ATOM      2  C1  UNL d   1       1.121   5.271   5.996  0.00  0.00     0.010 A 
ATOM      3  C2  UNL d   1       0.840   3.904   5.999  0.00  0.00     0.041 A 
ATOM      4  C3  UNL d   1       1.910   2.988   5.996  0.00  0.00    -0.075 A 
ATOM      5  S   UNL d   1       1.806   1.267   6.000  0.00  0.00     0.015 SA
ATOM      6  C4  UNL d   1       3.501   1.089   5.992  0.00  0.00     0.022 A 
ATOM      7  C5  UNL d   1       4.146   2.303   5.986  0.00  0.00     0.026 A 
ATOM      8  C6  UNL d   1       3.240   3.417   5.989  0.00  0.00    -0.082 A 
ATOM      9  C7  UNL d   1       3.493   4.810   5.985  0.00  0.00     0.045 A 
ENDROOT
TORSDOF 0
ENDMDL
