MODEL 1
REMARK minimizedAffinity 19.08325
REMARK minimizedRMSD -1
REMARK  0 active torsions:
REMARK  status: ('A' for Active; 'I' for Inactive)
ROOT
ATOM      1  C   UNL d   1      -5.996   0.759  -1.213  0.00  0.00    -0.002 A 
ATOM      2  C1  UNL d   1      -5.999   1.889  -2.020  0.00  0.00     0.010 A 
ATOM      3  C2  UNL d   1      -5.357   3.058  -1.606  0.00  0.00     0.041 A 
ATOM      4  C3  UNL d   1      -4.704   3.072  -0.358  0.00  0.00    -0.075 A 
ATOM      5  S   UNL d   1      -3.852   4.391   0.354  0.00  0.00     0.015 SA
ATOM      6  C4  UNL d   1      -3.463   3.486   1.745  0.00  0.00     0.022 A 
ATOM      7  C5  UNL d   1      -3.964   2.207   1.684  0.00  0.00     0.026 A 
ATOM      8  C6  UNL d   1      -4.687   1.947   0.471  0.00  0.00    -0.082 A 
ATOM      9  C7  UNL d   1      -5.348   0.778   0.025  0.00  0.00     0.045 A 
ENDROOT
TORSDOF 0
ENDMDL
