MODEL 1
REMARK minimizedAffinity 3.91175222
REMARK minimizedRMSD -1
REMARK  0 active torsions:
REMARK  status: ('A' for Active; 'I' for Inactive)
ROOT
ATOM      1  C4' PXY d   1       0.584   2.177   2.445  0.00  0.00     0.077 C 
ATOM      2  C1' PXY d   1      -0.369   1.110  -3.156  0.00  0.00     0.077 C 
ATOM      3  C1  PXY d   1      -0.118   1.402  -1.690  0.00  0.00    -0.082 A 
ATOM      4  C2  PXY d   1       0.397   0.462  -0.914  0.00  0.00     0.003 A 
ATOM      5  C3  PXY d   1       0.600   0.700   0.421  0.00  0.00     0.003 A 
ATOM      6  C4  PXY d   1       0.323   1.929   0.957  0.00  0.00    -0.082 A 
ATOM      7  C5  PXY d   1      -0.193   2.896   0.169  0.00  0.00     0.003 A 
ATOM      8  C6  PXY d   1      -0.430   2.622  -1.175  0.00  0.00     0.003 A 
ENDROOT
TORSDOF 0
ENDMDL
