MODEL 1
REMARK minimizedAffinity 1.26706851
REMARK minimizedRMSD -1
REMARK  0 active torsions:
REMARK  status: ('A' for Active; 'I' for Inactive)
ROOT
ATOM      1  C4' PXY d   1       1.012  -0.314   3.513  0.00  0.00     0.077 C 
ATOM      2  C1' PXY d   1      -2.193   3.981   1.347  0.00  0.00     0.077 C 
ATOM      3  C1  PXY d   1      -1.363   2.850   1.921  0.00  0.00    -0.082 A 
ATOM      4  C2  PXY d   1      -0.050   2.986   2.018  0.00  0.00     0.003 A 
ATOM      5  C3  PXY d   1       0.719   1.961   2.506  0.00  0.00     0.003 A 
ATOM      6  C4  PXY d   1       0.133   0.805   2.948  0.00  0.00    -0.082 A 
ATOM      7  C5  PXY d   1      -1.207   0.663   2.863  0.00  0.00     0.003 A 
ATOM      8  C6  PXY d   1      -1.965   1.700   2.326  0.00  0.00     0.003 A 
ENDROOT
TORSDOF 0
ENDMDL
