MODEL 1
REMARK minimizedAffinity 1.87718165
REMARK minimizedRMSD -1
REMARK  0 active torsions:
REMARK  status: ('A' for Active; 'I' for Inactive)
ROOT
ATOM      1  C4' PXY d   1      -1.187  -3.744  -1.976  0.00  0.00     0.077 C 
ATOM      2  C1' PXY d   1      -0.753   2.002  -1.511  0.00  0.00     0.077 C 
ATOM      3  C1  PXY d   1      -0.878   0.495  -1.626  0.00  0.00    -0.082 A 
ATOM      4  C2  PXY d   1       0.207  -0.239  -1.807  0.00  0.00     0.003 A 
ATOM      5  C3  PXY d   1       0.109  -1.600  -1.945  0.00  0.00     0.003 A 
ATOM      6  C4  PXY d   1      -1.107  -2.220  -1.844  0.00  0.00    -0.082 A 
ATOM      7  C5  PXY d   1      -2.218  -1.479  -1.649  0.00  0.00     0.003 A 
ATOM      8  C6  PXY d   1      -2.102  -0.095  -1.553  0.00  0.00     0.003 A 
ENDROOT
TORSDOF 0
ENDMDL
