MODEL 1
REMARK minimizedAffinity 7.488832
REMARK minimizedRMSD -1
REMARK  0 active torsions:
REMARK  status: ('A' for Active; 'I' for Inactive)
ROOT
ATOM      1  C4' PXY d   1       0.862  -1.046   4.407  0.00  0.00     0.077 C 
ATOM      2  C1' PXY d   1       0.046   3.286   0.667  0.00  0.00     0.077 C 
ATOM      3  C1  PXY d   1       0.254   2.156   1.657  0.00  0.00    -0.082 A 
ATOM      4  C2  PXY d   1       1.232   1.287   1.462  0.00  0.00     0.003 A 
ATOM      5  C3  PXY d   1       1.414   0.241   2.330  0.00  0.00     0.003 A 
ATOM      6  C4  PXY d   1       0.621   0.115   3.439  0.00  0.00    -0.082 A 
ATOM      7  C5  PXY d   1      -0.372   1.004   3.651  0.00  0.00     0.003 A 
ATOM      8  C6  PXY d   1      -0.566   2.035   2.736  0.00  0.00     0.003 A 
ENDROOT
TORSDOF 0
ENDMDL
