MODEL 1
REMARK minimizedAffinity 8.51992512
REMARK minimizedRMSD -1
REMARK  0 active torsions:
REMARK  status: ('A' for Active; 'I' for Inactive)
ROOT
ATOM      1  C4' PXY d   1      -2.958  -0.287  -0.944  0.00  0.00     0.077 C 
ATOM      2  C1' PXY d   1      -4.008   4.935  -3.189  0.00  0.00     0.077 C 
ATOM      3  C1  PXY d   1      -3.722   3.565  -2.607  0.00  0.00    -0.082 A 
ATOM      4  C2  PXY d   1      -4.722   2.818  -2.170  0.00  0.00     0.003 A 
ATOM      5  C3  PXY d   1      -4.478   1.590  -1.611  0.00  0.00     0.003 A 
ATOM      6  C4  PXY d   1      -3.201   1.099  -1.548  0.00  0.00    -0.082 A 
ATOM      7  C5  PXY d   1      -2.176   1.851  -2.002  0.00  0.00     0.003 A 
ATOM      8  C6  PXY d   1      -2.441   3.112  -2.528  0.00  0.00     0.003 A 
ENDROOT
TORSDOF 0
ENDMDL
