MODEL 1
REMARK minimizedAffinity 5.90207434
REMARK minimizedRMSD -1
REMARK  0 active torsions:
REMARK  status: ('A' for Active; 'I' for Inactive)
ROOT
ATOM      1  C4' PXY d   1      -0.118   1.894   1.162  0.00  0.00     0.077 C 
ATOM      2  C1' PXY d   1      -0.645   0.279  -4.363  0.00  0.00     0.077 C 
ATOM      3  C1  PXY d   1      -0.513   0.714  -2.916  0.00  0.00    -0.082 A 
ATOM      4  C2  PXY d   1       0.442   0.194  -2.162  0.00  0.00     0.003 A 
ATOM      5  C3  PXY d   1       0.556   0.552  -0.843  0.00  0.00     0.003 A 
ATOM      6  C4  PXY d   1      -0.283   1.491  -0.306  0.00  0.00    -0.082 A 
ATOM      7  C5  PXY d   1      -1.253   2.034  -1.072  0.00  0.00     0.003 A 
ATOM      8  C6  PXY d   1      -1.378   1.627  -2.397  0.00  0.00     0.003 A 
ENDROOT
TORSDOF 0
ENDMDL
