MODEL 1
REMARK minimizedAffinity 5.12094975
REMARK minimizedRMSD -1
REMARK  0 active torsions:
REMARK  status: ('A' for Active; 'I' for Inactive)
ROOT
ATOM      1  C4' PXY d   1      -2.999   4.662   1.211  0.00  0.00     0.077 C 
ATOM      2  C1' PXY d   1       0.615   0.275   2.264  0.00  0.00     0.077 C 
ATOM      3  C1  PXY d   1      -0.323   1.431   1.980  0.00  0.00    -0.082 A 
ATOM      4  C2  PXY d   1      -1.280   1.724   2.846  0.00  0.00     0.003 A 
ATOM      5  C3  PXY d   1      -2.158   2.746   2.589  0.00  0.00     0.003 A 
ATOM      6  C4  PXY d   1      -2.022   3.510   1.461  0.00  0.00    -0.082 A 
ATOM      7  C5  PXY d   1      -1.042   3.223   0.578  0.00  0.00     0.003 A 
ATOM      8  C6  PXY d   1      -0.187   2.156   0.837  0.00  0.00     0.003 A 
ENDROOT
TORSDOF 0
ENDMDL
