MODEL 1
REMARK minimizedAffinity 6.64793968
REMARK minimizedRMSD -1
REMARK  0 active torsions:
REMARK  status: ('A' for Active; 'I' for Inactive)
ROOT
ATOM      1  C4' PXY d   1      -4.248   4.559  -2.296  0.00  0.00     0.077 C 
ATOM      2  C1' PXY d   1      -0.024   0.617  -2.496  0.00  0.00     0.077 C 
ATOM      3  C1  PXY d   1      -1.140   1.642  -2.441  0.00  0.00    -0.082 A 
ATOM      4  C2  PXY d   1      -0.984   2.812  -3.038  0.00  0.00     0.003 A 
ATOM      5  C3  PXY d   1      -1.970   3.762  -2.971  0.00  0.00     0.003 A 
ATOM      6  C4  PXY d   1      -3.151   3.491  -2.333  0.00  0.00    -0.082 A 
ATOM      7  C5  PXY d   1      -3.323   2.295  -1.731  0.00  0.00     0.003 A 
ATOM      8  C6  PXY d   1      -2.293   1.360  -1.775  0.00  0.00     0.003 A 
ENDROOT
TORSDOF 0
ENDMDL
