MODEL 1
REMARK minimizedAffinity 5.73950577
REMARK minimizedRMSD -1
REMARK  0 active torsions:
REMARK  status: ('A' for Active; 'I' for Inactive)
ROOT
ATOM      1  C4' PXY d   1      -0.407   2.376  -0.039  0.00  0.00     0.077 C 
ATOM      2  C1' PXY d   1      -1.736  -1.751  -3.863  0.00  0.00     0.077 C 
ATOM      3  C1  PXY d   1      -1.400  -0.664  -2.861  0.00  0.00    -0.082 A 
ATOM      4  C2  PXY d   1      -0.141  -0.293  -2.696  0.00  0.00     0.003 A 
ATOM      5  C3  PXY d   1       0.185   0.666  -1.772  0.00  0.00     0.003 A 
ATOM      6  C4  PXY d   1      -0.795   1.289  -1.046  0.00  0.00    -0.082 A 
ATOM      7  C5  PXY d   1      -2.083   0.924  -1.216  0.00  0.00     0.003 A 
ATOM      8  C6  PXY d   1      -2.388  -0.080  -2.130  0.00  0.00     0.003 A 
ENDROOT
TORSDOF 0
ENDMDL
