MODEL 1
REMARK minimizedAffinity 2.90716624
REMARK minimizedRMSD -1
REMARK  0 active torsions:
REMARK  status: ('A' for Active; 'I' for Inactive)
ROOT
ATOM      1  C4' PXY d   1       3.383  -1.768  -0.250  0.00  0.00     0.077 C 
ATOM      2  C1' PXY d   1       5.611  -6.000  -3.496  0.00  0.00     0.077 C 
ATOM      3  C1  PXY d   1       5.021  -4.885  -2.655  0.00  0.00    -0.082 A 
ATOM      4  C2  PXY d   1       5.633  -4.509  -1.544  0.00  0.00     0.003 A 
ATOM      5  C3  PXY d   1       5.096  -3.525  -0.755  0.00  0.00     0.003 A 
ATOM      6  C4  PXY d   1       3.948  -2.882  -1.135  0.00  0.00    -0.082 A 
ATOM      7  C5  PXY d   1       3.323  -3.253  -2.273  0.00  0.00     0.003 A 
ATOM      8  C6  PXY d   1       3.863  -4.282  -3.038  0.00  0.00     0.003 A 
ENDROOT
TORSDOF 0
ENDMDL
