MODEL 1
REMARK minimizedAffinity -3.75305915
REMARK minimizedRMSD -1
REMARK  0 active torsions:
REMARK  status: ('A' for Active; 'I' for Inactive)
ROOT
ATOM      1  C4' PXY d   1      -5.952   0.144   1.121  0.00  0.00     0.077 C 
ATOM      2  C1' PXY d   1      -4.555  -2.628   5.998  0.00  0.00     0.077 C 
ATOM      3  C1  PXY d   1      -4.928  -1.892   4.726  0.00  0.00    -0.082 A 
ATOM      4  C2  PXY d   1      -4.954  -2.545   3.576  0.00  0.00     0.003 A 
ATOM      5  C3  PXY d   1      -5.257  -1.888   2.411  0.00  0.00     0.003 A 
ATOM      6  C4  PXY d   1      -5.591  -0.560   2.432  0.00  0.00    -0.082 A 
ATOM      7  C5  PXY d   1      -5.577   0.111   3.603  0.00  0.00     0.003 A 
ATOM      8  C6  PXY d   1      -5.226  -0.565   4.768  0.00  0.00     0.003 A 
ENDROOT
TORSDOF 0
ENDMDL
