MODEL 1
REMARK minimizedAffinity 9.62107563
REMARK minimizedRMSD -1
REMARK  0 active torsions:
REMARK  status: ('A' for Active; 'I' for Inactive)
ROOT
ATOM      1  C4' PXY d   1       3.082  -0.292   2.636  0.00  0.00     0.077 C 
ATOM      2  C1' PXY d   1      -1.455   0.959  -0.722  0.00  0.00     0.077 C 
ATOM      3  C1  PXY d   1      -0.269   0.640   0.167  0.00  0.00    -0.082 A 
ATOM      4  C2  PXY d   1       0.814   0.090  -0.358  0.00  0.00     0.003 A 
ATOM      5  C3  PXY d   1       1.883  -0.234   0.436  0.00  0.00     0.003 A 
ATOM      6  C4  PXY d   1       1.864   0.056   1.774  0.00  0.00    -0.082 A 
ATOM      7  C5  PXY d   1       0.768   0.626   2.317  0.00  0.00     0.003 A 
ATOM      8  C6  PXY d   1      -0.323   0.910   1.500  0.00  0.00     0.003 A 
ENDROOT
TORSDOF 0
ENDMDL
