MODEL 1
REMARK minimizedAffinity -2.71421456
REMARK minimizedRMSD -1
REMARK  0 active torsions:
REMARK  status: ('A' for Active; 'I' for Inactive)
ROOT
ATOM      1  C4' PXY d   1       0.941   4.536  -0.024  0.00  0.00     0.077 C 
ATOM      2  C1' PXY d   1       0.319  -1.057   1.296  0.00  0.00     0.077 C 
ATOM      3  C1  PXY d   1       0.477   0.413   0.961  0.00  0.00    -0.082 A 
ATOM      4  C2  PXY d   1       0.534   0.793  -0.305  0.00  0.00     0.003 A 
ATOM      5  C3  PXY d   1       0.709   2.115  -0.625  0.00  0.00     0.003 A 
ATOM      6  C4  PXY d   1       0.773   3.064   0.360  0.00  0.00    -0.082 A 
ATOM      7  C5  PXY d   1       0.704   2.685   1.654  0.00  0.00     0.003 A 
ATOM      8  C6  PXY d   1       0.568   1.334   1.959  0.00  0.00     0.003 A 
ENDROOT
TORSDOF 0
ENDMDL
