MODEL 1
REMARK minimizedAffinity -2.27481413
REMARK minimizedRMSD -1
REMARK  0 active torsions:
REMARK  status: ('A' for Active; 'I' for Inactive)
ROOT
ATOM      1  C   UNL d   1      -0.694  -3.315  -0.605  0.00  0.00     0.124 A 
ATOM      2  C1  UNL d   1       0.202  -2.871  -1.567  0.00  0.00     0.062 A 
ATOM      3  C2  UNL d   1       0.503  -1.516  -1.671  0.00  0.00     0.162 A 
ATOM      4  C3  UNL d   1      -0.092  -0.595  -0.808  0.00  0.00    -0.034 A 
ATOM      5  C4  UNL d   1      -0.993  -1.049   0.156  0.00  0.00     0.162 A 
ATOM      6  C5  UNL d   1      -1.291  -2.404   0.256  0.00  0.00     0.062 A 
ATOM      7  F   UNL d   1      -2.157  -2.831   1.186  0.00  0.00    -0.097 F 
ATOM      8  F1  UNL d   1      -1.583  -0.190   1.001  0.00  0.00    -0.096 F 
ATOM      9  I   UNL d   1       0.356   1.432  -0.960  0.00  0.00    -0.060 I 
ATOM     10  F2  UNL d   1       1.373  -1.115  -2.610  0.00  0.00    -0.096 F 
ATOM     11  F3  UNL d   1       0.779  -3.749  -2.400  0.00  0.00    -0.097 F 
ATOM     12  F4  UNL d   1      -0.983  -4.619  -0.508  0.00  0.00    -0.092 F 
ENDROOT
TORSDOF 0
ENDMDL
