MODEL 1
REMARK minimizedAffinity -2.85791707
REMARK minimizedRMSD -1
REMARK  0 active torsions:
REMARK  status: ('A' for Active; 'I' for Inactive)
ROOT
ATOM      1  C   UNL d   1       1.038  -1.619  -2.739  0.00  0.00     0.124 A 
ATOM      2  C1  UNL d   1       0.475  -0.353  -2.656  0.00  0.00     0.062 A 
ATOM      3  C2  UNL d   1      -0.065   0.096  -1.455  0.00  0.00     0.162 A 
ATOM      4  C3  UNL d   1      -0.043  -0.721  -0.324  0.00  0.00    -0.034 A 
ATOM      5  C4  UNL d   1       0.523  -1.993  -0.415  0.00  0.00     0.162 A 
ATOM      6  C5  UNL d   1       1.061  -2.438  -1.618  0.00  0.00     0.062 A 
ATOM      7  F   UNL d   1       1.604  -3.662  -1.696  0.00  0.00    -0.097 F 
ATOM      8  F1  UNL d   1       0.560  -2.805   0.652  0.00  0.00    -0.096 F 
ATOM      9  I   UNL d   1      -0.849  -0.052   1.474  0.00  0.00    -0.060 I 
ATOM     10  F2  UNL d   1      -0.602   1.325  -1.404  0.00  0.00    -0.096 F 
ATOM     11  F3  UNL d   1       0.450   0.439  -3.738  0.00  0.00    -0.097 F 
ATOM     12  F4  UNL d   1       1.555  -2.050  -3.896  0.00  0.00    -0.092 F 
ENDROOT
TORSDOF 0
ENDMDL
