MODEL 1
REMARK minimizedAffinity -5.37605953
REMARK minimizedRMSD -1
REMARK  0 active torsions:
REMARK  status: ('A' for Active; 'I' for Inactive)
ROOT
ATOM      1  C   UNL d   1      -0.447  -3.084  -0.355  0.00  0.00     0.124 A 
ATOM      2  C1  UNL d   1       0.161  -2.500  -1.458  0.00  0.00     0.062 A 
ATOM      3  C2  UNL d   1       0.320  -1.119  -1.520  0.00  0.00     0.162 A 
ATOM      4  C3  UNL d   1      -0.130  -0.311  -0.475  0.00  0.00    -0.034 A 
ATOM      5  C4  UNL d   1      -0.741  -0.905   0.630  0.00  0.00     0.162 A 
ATOM      6  C5  UNL d   1      -0.897  -2.286   0.687  0.00  0.00     0.062 A 
ATOM      7  F   UNL d   1      -1.485  -2.849   1.754  0.00  0.00    -0.097 F 
ATOM      8  F1  UNL d   1      -1.185  -0.158   1.652  0.00  0.00    -0.096 F 
ATOM      9  I   UNL d   1       0.105   1.755  -0.564  0.00  0.00    -0.060 I 
ATOM     10  F2  UNL d   1       0.911  -0.582  -2.597  0.00  0.00    -0.096 F 
ATOM     11  F3  UNL d   1       0.597  -3.268  -2.467  0.00  0.00    -0.097 F 
ATOM     12  F4  UNL d   1      -0.599  -4.413  -0.298  0.00  0.00    -0.092 F 
ENDROOT
TORSDOF 0
ENDMDL
