MODEL 1
REMARK minimizedAffinity -4.16709995
REMARK minimizedRMSD -1
REMARK  0 active torsions:
REMARK  status: ('A' for Active; 'I' for Inactive)
ROOT
ATOM      1  C   UNL d   1       0.213  -2.151  -0.804  0.00  0.00     0.124 A 
ATOM      2  C1  UNL d   1       0.144  -1.226  -1.836  0.00  0.00     0.062 A 
ATOM      3  C2  UNL d   1       0.189   0.137  -1.558  0.00  0.00     0.162 A 
ATOM      4  C3  UNL d   1       0.306   0.583  -0.241  0.00  0.00    -0.034 A 
ATOM      5  C4  UNL d   1       0.375  -0.354   0.791  0.00  0.00     0.162 A 
ATOM      6  C5  UNL d   1       0.329  -1.715   0.508  0.00  0.00     0.062 A 
ATOM      7  F   UNL d   1       0.397  -2.608   1.507  0.00  0.00    -0.097 F 
ATOM      8  F1  UNL d   1       0.488   0.041   2.068  0.00  0.00    -0.096 F 
ATOM      9  I   UNL d   1       0.375   2.621   0.179  0.00  0.00    -0.060 I 
ATOM     10  F2  UNL d   1       0.120   1.009  -2.574  0.00  0.00    -0.096 F 
ATOM     11  F3  UNL d   1       0.031  -1.645  -3.104  0.00  0.00    -0.097 F 
ATOM     12  F4  UNL d   1       0.168  -3.462  -1.074  0.00  0.00    -0.092 F 
ENDROOT
TORSDOF 0
ENDMDL
