MODEL 1
REMARK minimizedAffinity -0.0778142512
REMARK minimizedRMSD -1
REMARK  0 active torsions:
REMARK  status: ('A' for Active; 'I' for Inactive)
ROOT
ATOM      1  C   UNL d   1      -0.064  -1.059  -0.978  0.00  0.00     0.124 A 
ATOM      2  C1  UNL d   1       0.524  -0.062  -1.744  0.00  0.00     0.062 A 
ATOM      3  C2  UNL d   1       0.959   1.117  -1.145  0.00  0.00     0.162 A 
ATOM      4  C3  UNL d   1       0.809   1.305   0.229  0.00  0.00    -0.034 A 
ATOM      5  C4  UNL d   1       0.216   0.298   0.993  0.00  0.00     0.162 A 
ATOM      6  C5  UNL d   1      -0.218  -0.878   0.389  0.00  0.00     0.062 A 
ATOM      7  F   UNL d   1      -0.786  -1.840   1.131  0.00  0.00    -0.097 F 
ATOM      8  F1  UNL d   1       0.056   0.446   2.316  0.00  0.00    -0.096 F 
ATOM      9  I   UNL d   1       1.459   3.065   1.129  0.00  0.00    -0.060 I 
ATOM     10  F2  UNL d   1       1.524   2.063  -1.910  0.00  0.00    -0.096 F 
ATOM     11  F3  UNL d   1       0.672  -0.234  -3.066  0.00  0.00    -0.097 F 
ATOM     12  F4  UNL d   1      -0.483  -2.191  -1.557  0.00  0.00    -0.092 F 
ENDROOT
TORSDOF 0
ENDMDL
