MODEL 1
REMARK minimizedAffinity -2.02059317
REMARK minimizedRMSD -1
REMARK  0 active torsions:
REMARK  status: ('A' for Active; 'I' for Inactive)
ROOT
ATOM      1  C   UNL d   1      -0.569  -2.195  -0.931  0.00  0.00     0.124 A 
ATOM      2  C1  UNL d   1      -0.059  -1.337  -1.896  0.00  0.00     0.062 A 
ATOM      3  C2  UNL d   1       0.214  -0.009  -1.578  0.00  0.00     0.162 A 
ATOM      4  C3  UNL d   1      -0.021   0.468  -0.289  0.00  0.00    -0.034 A 
ATOM      5  C4  UNL d   1      -0.535  -0.400   0.676  0.00  0.00     0.162 A 
ATOM      6  C5  UNL d   1      -0.806  -1.726   0.353  0.00  0.00     0.062 A 
ATOM      7  F   UNL d   1      -1.299  -2.554   1.286  0.00  0.00    -0.097 F 
ATOM      8  F1  UNL d   1      -0.773   0.026   1.925  0.00  0.00    -0.096 F 
ATOM      9  I   UNL d   1       0.386   2.452   0.190  0.00  0.00    -0.060 I 
ATOM     10  F2  UNL d   1       0.706   0.797  -2.530  0.00  0.00    -0.096 F 
ATOM     11  F3  UNL d   1       0.170  -1.787  -3.138  0.00  0.00    -0.097 F 
ATOM     12  F4  UNL d   1      -0.832  -3.471  -1.240  0.00  0.00    -0.092 F 
ENDROOT
TORSDOF 0
ENDMDL
