MODEL 1
REMARK minimizedAffinity -4.09345865
REMARK minimizedRMSD -1
REMARK  0 active torsions:
REMARK  status: ('A' for Active; 'I' for Inactive)
ROOT
ATOM      1  C   UNL d   1      -0.408  -3.243  -0.177  0.00  0.00     0.124 A 
ATOM      2  C1  UNL d   1       0.278  -2.671  -1.239  0.00  0.00     0.062 A 
ATOM      3  C2  UNL d   1       0.561  -1.308  -1.237  0.00  0.00     0.162 A 
ATOM      4  C3  UNL d   1       0.159  -0.508  -0.167  0.00  0.00    -0.034 A 
ATOM      5  C4  UNL d   1      -0.531  -1.090   0.897  0.00  0.00     0.162 A 
ATOM      6  C5  UNL d   1      -0.812  -2.453   0.890  0.00  0.00     0.062 A 
ATOM      7  F   UNL d   1      -1.474  -3.004   1.917  0.00  0.00    -0.097 F 
ATOM      8  F1  UNL d   1      -0.932  -0.350   1.941  0.00  0.00    -0.096 F 
ATOM      9  I   UNL d   1       0.581   1.531  -0.160  0.00  0.00    -0.060 I 
ATOM     10  F2  UNL d   1       1.225  -0.782  -2.277  0.00  0.00    -0.096 F 
ATOM     11  F3  UNL d   1       0.668  -3.432  -2.272  0.00  0.00    -0.097 F 
ATOM     12  F4  UNL d   1      -0.680  -4.554  -0.182  0.00  0.00    -0.092 F 
ENDROOT
TORSDOF 0
ENDMDL
