MODEL 1
REMARK minimizedAffinity -2.47040296
REMARK minimizedRMSD -1
REMARK  0 active torsions:
REMARK  status: ('A' for Active; 'I' for Inactive)
ROOT
ATOM      1  C   UNL d   1      -0.692  -2.081  -0.871  0.00  0.00     0.124 A 
ATOM      2  C1  UNL d   1      -0.055  -1.231  -1.764  0.00  0.00     0.062 A 
ATOM      3  C2  UNL d   1       0.190   0.094  -1.416  0.00  0.00     0.162 A 
ATOM      4  C3  UNL d   1      -0.200   0.577  -0.167  0.00  0.00    -0.034 A 
ATOM      5  C4  UNL d   1      -0.841  -0.283   0.726  0.00  0.00     0.162 A 
ATOM      6  C5  UNL d   1      -1.084  -1.607   0.373  0.00  0.00     0.062 A 
ATOM      7  F   UNL d   1      -1.700  -2.427   1.237  0.00  0.00    -0.097 F 
ATOM      8  F1  UNL d   1      -1.230   0.148   1.935  0.00  0.00    -0.096 F 
ATOM      9  I   UNL d   1       0.165   2.558   0.358  0.00  0.00    -0.060 I 
ATOM     10  F2  UNL d   1       0.807   0.893  -2.299  0.00  0.00    -0.096 F 
ATOM     11  F3  UNL d   1       0.324  -1.687  -2.967  0.00  0.00    -0.097 F 
ATOM     12  F4  UNL d   1      -0.928  -3.355  -1.209  0.00  0.00    -0.092 F 
ENDROOT
TORSDOF 0
ENDMDL
