MODEL 1
REMARK minimizedAffinity -5.59191036
REMARK minimizedRMSD -1
REMARK  0 active torsions:
REMARK  status: ('A' for Active; 'I' for Inactive)
ROOT
ATOM      1  C   UNL d   1      -0.797  -0.438   1.535  0.00  0.00     0.124 A 
ATOM      2  C1  UNL d   1      -0.733   0.449   0.469  0.00  0.00     0.062 A 
ATOM      3  C2  UNL d   1      -0.340   0.004  -0.790  0.00  0.00     0.162 A 
ATOM      4  C3  UNL d   1      -0.010  -1.336  -0.990  0.00  0.00    -0.034 A 
ATOM      5  C4  UNL d   1      -0.075  -2.222   0.086  0.00  0.00     0.162 A 
ATOM      6  C5  UNL d   1      -0.468  -1.772   1.343  0.00  0.00     0.062 A 
ATOM      7  F   UNL d   1      -0.529  -2.630   2.371  0.00  0.00    -0.097 F 
ATOM      8  F1  UNL d   1       0.236  -3.517  -0.071  0.00  0.00    -0.096 F 
ATOM      9  I   UNL d   1       0.578  -2.006  -2.871  0.00  0.00    -0.060 I 
ATOM     10  F2  UNL d   1      -0.287   0.883  -1.801  0.00  0.00    -0.096 F 
ATOM     11  F3  UNL d   1      -1.049   1.739   0.653  0.00  0.00    -0.097 F 
ATOM     12  F4  UNL d   1      -1.174  -0.006   2.745  0.00  0.00    -0.092 F 
ENDROOT
TORSDOF 0
ENDMDL
