MODEL 1
REMARK minimizedAffinity -5.47964239
REMARK minimizedRMSD -1
REMARK  0 active torsions:
REMARK  status: ('A' for Active; 'I' for Inactive)
ROOT
ATOM      1  C   UNL d   1       0.075  -2.642  -0.872  0.00  0.00     0.124 A 
ATOM      2  C1  UNL d   1       0.339  -2.188   0.413  0.00  0.00     0.062 A 
ATOM      3  C2  UNL d   1       0.376  -0.822   0.679  0.00  0.00     0.162 A 
ATOM      4  C3  UNL d   1       0.148   0.100  -0.343  0.00  0.00    -0.034 A 
ATOM      5  C4  UNL d   1      -0.116  -0.365  -1.632  0.00  0.00     0.162 A 
ATOM      6  C5  UNL d   1      -0.153  -1.731  -1.893  0.00  0.00     0.062 A 
ATOM      7  F   UNL d   1      -0.408  -2.168  -3.135  0.00  0.00    -0.097 F 
ATOM      8  F1  UNL d   1      -0.341   0.494  -2.638  0.00  0.00    -0.096 F 
ATOM      9  I   UNL d   1       0.203   2.143   0.050  0.00  0.00    -0.060 I 
ATOM     10  F2  UNL d   1       0.634  -0.412   1.929  0.00  0.00    -0.096 F 
ATOM     11  F3  UNL d   1       0.560  -3.067   1.401  0.00  0.00    -0.097 F 
ATOM     12  F4  UNL d   1       0.040  -3.957  -1.125  0.00  0.00    -0.092 F 
ENDROOT
TORSDOF 0
ENDMDL
