MODEL 1
REMARK minimizedAffinity -5.29980612
REMARK minimizedRMSD -1
REMARK  0 active torsions:
REMARK  status: ('A' for Active; 'I' for Inactive)
ROOT
ATOM      1  C   UNL d   1       0.313  -2.548  -1.915  0.00  0.00     0.124 A 
ATOM      2  C1  UNL d   1       0.103  -1.187  -2.090  0.00  0.00     0.062 A 
ATOM      3  C2  UNL d   1      -0.467  -0.430  -1.070  0.00  0.00     0.162 A 
ATOM      4  C3  UNL d   1      -0.828  -1.032   0.135  0.00  0.00    -0.034 A 
ATOM      5  C4  UNL d   1      -0.614  -2.401   0.303  0.00  0.00     0.162 A 
ATOM      6  C5  UNL d   1      -0.045  -3.153  -0.719  0.00  0.00     0.062 A 
ATOM      7  F   UNL d   1       0.158  -4.468  -0.548  0.00  0.00    -0.097 F 
ATOM      8  F1  UNL d   1      -0.951  -3.011   1.449  0.00  0.00    -0.096 F 
ATOM      9  I   UNL d   1      -1.680   0.097   1.662  0.00  0.00    -0.060 I 
ATOM     10  F2  UNL d   1      -0.659   0.883  -1.267  0.00  0.00    -0.096 F 
ATOM     11  F3  UNL d   1       0.448  -0.600  -3.245  0.00  0.00    -0.097 F 
ATOM     12  F4  UNL d   1       0.860  -3.274  -2.898  0.00  0.00    -0.092 F 
ENDROOT
TORSDOF 0
ENDMDL
