MODEL 1
REMARK minimizedAffinity -3.25541282
REMARK minimizedRMSD -1
REMARK  0 active torsions:
REMARK  status: ('A' for Active; 'I' for Inactive)
ROOT
ATOM      1  C   UNL d   1       0.098  -3.277  -0.553  0.00  0.00     0.124 A 
ATOM      2  C1  UNL d   1       0.557  -2.618  -1.685  0.00  0.00     0.062 A 
ATOM      3  C2  UNL d   1       0.597  -1.227  -1.718  0.00  0.00     0.162 A 
ATOM      4  C3  UNL d   1       0.177  -0.485  -0.614  0.00  0.00    -0.034 A 
ATOM      5  C4  UNL d   1      -0.285  -1.155   0.521  0.00  0.00     0.162 A 
ATOM      6  C5  UNL d   1      -0.322  -2.545   0.549  0.00  0.00     0.062 A 
ATOM      7  F   UNL d   1      -0.766  -3.180   1.643  0.00  0.00    -0.097 F 
ATOM      8  F1  UNL d   1      -0.696  -0.472   1.600  0.00  0.00    -0.096 F 
ATOM      9  I   UNL d   1       0.234   1.595  -0.659  0.00  0.00    -0.060 I 
ATOM     10  F2  UNL d   1       1.045  -0.617  -2.825  0.00  0.00    -0.096 F 
ATOM     11  F3  UNL d   1       0.963  -3.323  -2.751  0.00  0.00    -0.097 F 
ATOM     12  F4  UNL d   1       0.060  -4.615  -0.524  0.00  0.00    -0.092 F 
ENDROOT
TORSDOF 0
ENDMDL
