MODEL 1
REMARK minimizedAffinity -1.67815173
REMARK minimizedRMSD -1
REMARK  0 active torsions:
REMARK  status: ('A' for Active; 'I' for Inactive)
ROOT
ATOM      1  C   UNL d   1      -0.325  -2.865  -0.423  0.00  0.00     0.124 A 
ATOM      2  C1  UNL d   1       0.074  -2.081  -1.496  0.00  0.00     0.062 A 
ATOM      3  C2  UNL d   1       0.192  -0.702  -1.350  0.00  0.00     0.162 A 
ATOM      4  C3  UNL d   1      -0.089  -0.098  -0.125  0.00  0.00    -0.034 A 
ATOM      5  C4  UNL d   1      -0.491  -0.893   0.950  0.00  0.00     0.162 A 
ATOM      6  C5  UNL d   1      -0.607  -2.271   0.799  0.00  0.00     0.062 A 
ATOM      7  F   UNL d   1      -0.994  -3.027   1.837  0.00  0.00    -0.097 F 
ATOM      8  F1  UNL d   1      -0.769  -0.345   2.142  0.00  0.00    -0.096 F 
ATOM      9  I   UNL d   1       0.086   1.964   0.098  0.00  0.00    -0.060 I 
ATOM     10  F2  UNL d   1       0.580   0.031  -2.404  0.00  0.00    -0.096 F 
ATOM     11  F3  UNL d   1       0.347  -2.653  -2.678  0.00  0.00    -0.097 F 
ATOM     12  F4  UNL d   1      -0.439  -4.192  -0.567  0.00  0.00    -0.092 F 
ENDROOT
TORSDOF 0
ENDMDL
