MODEL 1
REMARK minimizedAffinity 3.75516891
REMARK minimizedRMSD -1
REMARK  0 active torsions:
REMARK  status: ('A' for Active; 'I' for Inactive)
ROOT
ATOM      1  C   UNL d   1       0.011  -1.645  -0.511  0.00  0.00     0.124 A 
ATOM      2  C1  UNL d   1      -0.032  -0.753  -1.573  0.00  0.00     0.062 A 
ATOM      3  C2  UNL d   1       0.118   0.612  -1.347  0.00  0.00     0.162 A 
ATOM      4  C3  UNL d   1       0.313   1.094  -0.053  0.00  0.00    -0.034 A 
ATOM      5  C4  UNL d   1       0.354   0.191   1.011  0.00  0.00     0.162 A 
ATOM      6  C5  UNL d   1       0.203  -1.173   0.779  0.00  0.00     0.062 A 
ATOM      7  F   UNL d   1       0.245  -2.033   1.807  0.00  0.00    -0.097 F 
ATOM      8  F1  UNL d   1       0.539   0.620   2.268  0.00  0.00    -0.096 F 
ATOM      9  I   UNL d   1       0.537   3.135   0.290  0.00  0.00    -0.060 I 
ATOM     10  F2  UNL d   1       0.073   1.452  -2.393  0.00  0.00    -0.096 F 
ATOM     11  F3  UNL d   1      -0.219  -1.206  -2.821  0.00  0.00    -0.097 F 
ATOM     12  F4  UNL d   1      -0.134  -2.958  -0.732  0.00  0.00    -0.092 F 
ENDROOT
TORSDOF 0
ENDMDL
