MODEL 1
REMARK minimizedAffinity 11.6569309
REMARK minimizedRMSD -1
REMARK  2 active torsions:
REMARK  status: ('A' for Active; 'I' for Inactive)
REMARK    1  A    between atoms: C1_2  and  C2_3 
REMARK    2  A    between atoms: C2_3  and  C3_4 
ROOT
ATOM      1  C3  UNL d   1      -1.135  -4.592   1.196  0.00  0.00    -0.075 A 
ATOM      2  C4  UNL d   1      -1.530  -3.601   2.106  0.00  0.00     0.002 A 
ATOM      3  C5  UNL d   1      -1.947  -2.349   1.652  0.00  0.00     0.002 A 
ATOM      4  C6  UNL d   1      -1.965  -2.070   0.287  0.00  0.00    -0.004 A 
ATOM      5  C7  UNL d   1      -1.558  -3.042  -0.624  0.00  0.00     0.002 A 
ATOM      6  C8  UNL d   1      -1.145  -4.297  -0.173  0.00  0.00     0.002 A 
ENDROOT
BRANCH   1   7
ATOM      7  C2  UNL d   1      -0.710  -5.959   1.679  0.00  0.00     0.056 C 
BRANCH   7   8
ATOM      8  C1  UNL d   1      -0.245  -5.988   3.139  0.00  0.00     0.007 C 
ATOM      9  C   UNL d   1      -1.397  -5.992   4.136  0.00  0.00     0.009 C 
ENDBRANCH   7   8
ENDBRANCH   1   7
TORSDOF 2
ENDMDL
