MODEL 1
REMARK minimizedAffinity 16.3501701
REMARK minimizedRMSD -1
REMARK  2 active torsions:
REMARK  status: ('A' for Active; 'I' for Inactive)
REMARK    1  A    between atoms: C1_2  and  C2_3 
REMARK    2  A    between atoms: C2_3  and  C3_4 
ROOT
ATOM      1  C3  UNL d   1      -1.613  -4.027   2.775  0.00  0.00    -0.075 A 
ATOM      2  C4  UNL d   1      -1.116  -5.327   2.949  0.00  0.00     0.002 A 
ATOM      3  C5  UNL d   1      -0.507  -6.000   1.889  0.00  0.00     0.002 A 
ATOM      4  C6  UNL d   1      -0.397  -5.388   0.642  0.00  0.00    -0.004 A 
ATOM      5  C7  UNL d   1      -0.903  -4.104   0.454  0.00  0.00     0.002 A 
ATOM      6  C8  UNL d   1      -1.508  -3.426   1.514  0.00  0.00     0.002 A 
ENDROOT
BRANCH   1   7
ATOM      7  C2  UNL d   1      -2.246  -3.282   3.926  0.00  0.00     0.056 C 
BRANCH   7   8
ATOM      8  C1  UNL d   1      -1.489  -2.016   4.341  0.00  0.00     0.007 C 
ATOM      9  C   UNL d   1      -0.606  -2.219   5.566  0.00  0.00     0.009 C 
ENDBRANCH   7   8
ENDBRANCH   1   7
TORSDOF 2
ENDMDL
