MODEL 1
REMARK minimizedAffinity 4.24186087
REMARK minimizedRMSD -1
REMARK  2 active torsions:
REMARK  status: ('A' for Active; 'I' for Inactive)
REMARK    1  A    between atoms: C1_2  and  C2_3 
REMARK    2  A    between atoms: C2_3  and  C3_4 
ROOT
ATOM      1  C3  UNL d   1      -4.097   5.037  -3.858  0.00  0.00    -0.075 A 
ATOM      2  C4  UNL d   1      -4.024   3.962  -4.756  0.00  0.00     0.002 A 
ATOM      3  C5  UNL d   1      -4.921   3.865  -5.820  0.00  0.00     0.002 A 
ATOM      4  C6  UNL d   1      -5.907   4.833  -5.994  0.00  0.00    -0.004 A 
ATOM      5  C7  UNL d   1      -5.999   5.897  -5.099  0.00  0.00     0.002 A 
ATOM      6  C8  UNL d   1      -5.100   5.999  -4.036  0.00  0.00     0.002 A 
ENDROOT
BRANCH   1   7
ATOM      7  C2  UNL d   1      -3.111   5.164  -2.722  0.00  0.00     0.056 C 
BRANCH   7   8
ATOM      8  C1  UNL d   1      -3.759   5.446  -1.362  0.00  0.00     0.007 C 
ATOM      9  C   UNL d   1      -3.346   4.455  -0.283  0.00  0.00     0.009 C 
ENDBRANCH   7   8
ENDBRANCH   1   7
TORSDOF 2
ENDMDL
