MODEL 1
REMARK minimizedAffinity 9.59315968
REMARK minimizedRMSD -1
REMARK  2 active torsions:
REMARK  status: ('A' for Active; 'I' for Inactive)
REMARK    1  A    between atoms: C1_2  and  C2_3 
REMARK    2  A    between atoms: C2_3  and  C3_4 
ROOT
ATOM      1  C3  UNL d   1      -2.535   1.716  -4.448  0.00  0.00    -0.075 A 
ATOM      2  C4  UNL d   1      -1.142   1.875  -4.453  0.00  0.00     0.002 A 
ATOM      3  C5  UNL d   1      -0.547   2.883  -5.213  0.00  0.00     0.002 A 
ATOM      4  C6  UNL d   1      -1.335   3.735  -5.983  0.00  0.00    -0.004 A 
ATOM      5  C7  UNL d   1      -2.719   3.576  -5.998  0.00  0.00     0.002 A 
ATOM      6  C8  UNL d   1      -3.317   2.571  -5.235  0.00  0.00     0.002 A 
ENDROOT
BRANCH   1   7
ATOM      7  C2  UNL d   1      -3.187   0.646  -3.604  0.00  0.00     0.056 C 
BRANCH   7   8
ATOM      8  C1  UNL d   1      -2.198  -0.340  -2.974  0.00  0.00     0.007 C 
ATOM      9  C   UNL d   1      -2.708  -0.954  -1.677  0.00  0.00     0.009 C 
ENDBRANCH   7   8
ENDBRANCH   1   7
TORSDOF 2
ENDMDL
