MODEL 1
REMARK minimizedAffinity 7.71815729
REMARK minimizedRMSD -1
REMARK  2 active torsions:
REMARK  status: ('A' for Active; 'I' for Inactive)
REMARK    1  A    between atoms: C1_2  and  C2_3 
REMARK    2  A    between atoms: C2_3  and  C3_4 
ROOT
ATOM      1  C3  UNL d   1      -0.586  -2.733  -0.653  0.00  0.00    -0.075 A 
ATOM      2  C4  UNL d   1      -1.486  -2.341   0.349  0.00  0.00     0.002 A 
ATOM      3  C5  UNL d   1      -1.799  -3.207   1.397  0.00  0.00     0.002 A 
ATOM      4  C6  UNL d   1      -1.228  -4.476   1.452  0.00  0.00    -0.004 A 
ATOM      5  C7  UNL d   1      -0.345  -4.882   0.453  0.00  0.00     0.002 A 
ATOM      6  C8  UNL d   1      -0.026  -4.016  -0.595  0.00  0.00     0.002 A 
ENDROOT
BRANCH   1   7
ATOM      7  C2  UNL d   1      -0.220  -1.790  -1.774  0.00  0.00     0.056 C 
BRANCH   7   8
ATOM      8  C1  UNL d   1      -0.797  -2.187  -3.137  0.00  0.00     0.007 C 
ATOM      9  C   UNL d   1      -0.200  -1.398  -4.294  0.00  0.00     0.009 C 
ENDBRANCH   7   8
ENDBRANCH   1   7
TORSDOF 2
ENDMDL
