MODEL 1
REMARK minimizedAffinity 5.44600153
REMARK minimizedRMSD -1
REMARK  2 active torsions:
REMARK  status: ('A' for Active; 'I' for Inactive)
REMARK    1  A    between atoms: C1_2  and  C2_3 
REMARK    2  A    between atoms: C2_3  and  C3_4 
ROOT
ATOM      1  C3  UNL d   1      -1.872  -2.332  -0.900  0.00  0.00    -0.075 A 
ATOM      2  C4  UNL d   1      -1.865  -1.767   0.384  0.00  0.00     0.002 A 
ATOM      3  C5  UNL d   1      -1.464  -2.521   1.487  0.00  0.00     0.002 A 
ATOM      4  C6  UNL d   1      -1.077  -3.849   1.323  0.00  0.00    -0.004 A 
ATOM      5  C7  UNL d   1      -1.096  -4.425   0.055  0.00  0.00     0.002 A 
ATOM      6  C8  UNL d   1      -1.492  -3.672  -1.051  0.00  0.00     0.002 A 
ENDROOT
BRANCH   1   7
ATOM      7  C2  UNL d   1      -2.277  -1.512  -2.102  0.00  0.00     0.056 C 
BRANCH   7   8
ATOM      8  C1  UNL d   1      -1.694  -2.017  -3.426  0.00  0.00     0.007 C 
ATOM      9  C   UNL d   1      -0.378  -1.347  -3.797  0.00  0.00     0.009 C 
ENDBRANCH   7   8
ENDBRANCH   1   7
TORSDOF 2
ENDMDL
