MODEL 1
REMARK minimizedAffinity 8.94325638
REMARK minimizedRMSD -1
REMARK  2 active torsions:
REMARK  status: ('A' for Active; 'I' for Inactive)
REMARK    1  A    between atoms: C1_2  and  C2_3 
REMARK    2  A    between atoms: C2_3  and  C3_4 
ROOT
ATOM      1  C3  UNL d   1      -3.562   0.521   5.626  0.00  0.00    -0.075 A 
ATOM      2  C4  UNL d   1      -4.771  -0.189   5.643  0.00  0.00     0.002 A 
ATOM      3  C5  UNL d   1      -5.983   0.479   5.824  0.00  0.00     0.002 A 
ATOM      4  C6  UNL d   1      -6.000   1.861   5.999  0.00  0.00    -0.004 A 
ATOM      5  C7  UNL d   1      -4.803   2.574   6.000  0.00  0.00     0.002 A 
ATOM      6  C8  UNL d   1      -3.590   1.909   5.815  0.00  0.00     0.002 A 
ENDROOT
BRANCH   1   7
ATOM      7  C2  UNL d   1      -2.250  -0.193   5.401  0.00  0.00     0.056 C 
BRANCH   7   8
ATOM      8  C1  UNL d   1      -2.376  -1.492   4.598  0.00  0.00     0.007 C 
ATOM      9  C   UNL d   1      -1.076  -2.280   4.524  0.00  0.00     0.009 C 
ENDBRANCH   7   8
ENDBRANCH   1   7
TORSDOF 2
ENDMDL
