MODEL 1
REMARK minimizedAffinity 13.1255131
REMARK minimizedRMSD -1
REMARK  2 active torsions:
REMARK  status: ('A' for Active; 'I' for Inactive)
REMARK    1  A    between atoms: C1_2  and  C2_3 
REMARK    2  A    between atoms: C2_3  and  C3_4 
ROOT
ATOM      1  C3  UNL d   1      -0.576  -3.028  -1.913  0.00  0.00    -0.075 A 
ATOM      2  C4  UNL d   1      -1.099  -3.615  -3.074  0.00  0.00     0.002 A 
ATOM      3  C5  UNL d   1      -1.021  -2.951  -4.299  0.00  0.00     0.002 A 
ATOM      4  C6  UNL d   1      -0.430  -1.692  -4.377  0.00  0.00    -0.004 A 
ATOM      5  C7  UNL d   1       0.077  -1.093  -3.226  0.00  0.00     0.002 A 
ATOM      6  C8  UNL d   1       0.005  -1.756  -2.000  0.00  0.00     0.002 A 
ENDROOT
BRANCH   1   7
ATOM      7  C2  UNL d   1      -0.630  -3.753  -0.589  0.00  0.00     0.056 C 
BRANCH   7   8
ATOM      8  C1  UNL d   1      -0.247  -5.235  -0.674  0.00  0.00     0.007 C 
ATOM      9  C   UNL d   1      -1.036  -6.000  -1.728  0.00  0.00     0.009 C 
ENDBRANCH   7   8
ENDBRANCH   1   7
TORSDOF 2
ENDMDL
