MODEL 1
REMARK minimizedAffinity 12.7354975
REMARK minimizedRMSD -1
REMARK  2 active torsions:
REMARK  status: ('A' for Active; 'I' for Inactive)
REMARK    1  A    between atoms: C1_2  and  C2_3 
REMARK    2  A    between atoms: C2_3  and  C3_4 
ROOT
ATOM      1  C3  UNL d   1      -3.682  -1.330   5.619  0.00  0.00    -0.075 A 
ATOM      2  C4  UNL d   1      -2.395  -1.130   5.099  0.00  0.00     0.002 A 
ATOM      3  C5  UNL d   1      -1.605  -2.217   4.723  0.00  0.00     0.002 A 
ATOM      4  C6  UNL d   1      -2.087  -3.516   4.872  0.00  0.00    -0.004 A 
ATOM      5  C7  UNL d   1      -3.358  -3.727   5.403  0.00  0.00     0.002 A 
ATOM      6  C8  UNL d   1      -4.151  -2.641   5.776  0.00  0.00     0.002 A 
ENDROOT
BRANCH   1   7
ATOM      7  C2  UNL d   1      -4.552  -0.156   6.000  0.00  0.00     0.056 C 
BRANCH   7   8
ATOM      8  C1  UNL d   1      -3.918   1.209   5.716  0.00  0.00     0.007 C 
ATOM      9  C   UNL d   1      -4.857   2.377   5.990  0.00  0.00     0.009 C 
ENDBRANCH   7   8
ENDBRANCH   1   7
TORSDOF 2
ENDMDL
