MODEL 1
REMARK minimizedAffinity 10.5744181
REMARK minimizedRMSD -1
REMARK  2 active torsions:
REMARK  status: ('A' for Active; 'I' for Inactive)
REMARK    1  A    between atoms: C1_2  and  C2_3 
REMARK    2  A    between atoms: C2_3  and  C3_4 
ROOT
ATOM      1  C3  UNL d   1      -0.789  -3.789  -0.340  0.00  0.00    -0.075 A 
ATOM      2  C4  UNL d   1      -0.728  -3.780  -1.741  0.00  0.00     0.002 A 
ATOM      3  C5  UNL d   1      -1.042  -2.624  -2.456  0.00  0.00     0.002 A 
ATOM      4  C6  UNL d   1      -1.431  -1.468  -1.782  0.00  0.00    -0.004 A 
ATOM      5  C7  UNL d   1      -1.511  -1.471  -0.392  0.00  0.00     0.002 A 
ATOM      6  C8  UNL d   1      -1.193  -2.624   0.327  0.00  0.00     0.002 A 
ENDROOT
BRANCH   1   7
ATOM      7  C2  UNL d   1      -0.422  -5.028   0.442  0.00  0.00     0.056 C 
BRANCH   7   8
ATOM      8  C1  UNL d   1      -0.024  -4.753   1.896  0.00  0.00     0.007 C 
ATOM      9  C   UNL d   1      -0.053  -5.998   2.772  0.00  0.00     0.009 C 
ENDBRANCH   7   8
ENDBRANCH   1   7
TORSDOF 2
ENDMDL
