MODEL 1
REMARK minimizedAffinity 14.8294601
REMARK minimizedRMSD -1
REMARK  2 active torsions:
REMARK  status: ('A' for Active; 'I' for Inactive)
REMARK    1  A    between atoms: C1_2  and  C2_3 
REMARK    2  A    between atoms: C2_3  and  C3_4 
ROOT
ATOM      1  C3  UNL d   1      -0.333  -1.420   5.559  0.00  0.00    -0.075 A 
ATOM      2  C4  UNL d   1      -1.296  -0.797   4.751  0.00  0.00     0.002 A 
ATOM      3  C5  UNL d   1      -2.464  -1.471   4.394  0.00  0.00     0.002 A 
ATOM      4  C6  UNL d   1      -2.680  -2.776   4.831  0.00  0.00    -0.004 A 
ATOM      5  C7  UNL d   1      -1.723  -3.411   5.619  0.00  0.00     0.002 A 
ATOM      6  C8  UNL d   1      -0.555  -2.737   5.982  0.00  0.00     0.002 A 
ENDROOT
BRANCH   1   7
ATOM      7  C2  UNL d   1       0.920  -0.686   5.973  0.00  0.00     0.056 C 
BRANCH   7   8
ATOM      8  C1  UNL d   1       2.177  -1.561   5.994  0.00  0.00     0.007 C 
ATOM      9  C   UNL d   1       3.383  -0.897   5.342  0.00  0.00     0.009 C 
ENDBRANCH   7   8
ENDBRANCH   1   7
TORSDOF 2
ENDMDL
