MODEL 1
REMARK minimizedAffinity 10.0864201
REMARK minimizedRMSD -1
REMARK  2 active torsions:
REMARK  status: ('A' for Active; 'I' for Inactive)
REMARK    1  A    between atoms: C1_2  and  C2_3 
REMARK    2  A    between atoms: C2_3  and  C3_4 
ROOT
ATOM      1  C3  UNL d   1      -2.984  -1.256   5.991  0.00  0.00    -0.075 A 
ATOM      2  C4  UNL d   1      -4.155  -0.484   5.999  0.00  0.00     0.002 A 
ATOM      3  C5  UNL d   1      -4.086   0.909   5.994  0.00  0.00     0.002 A 
ATOM      4  C6  UNL d   1      -2.848   1.548   5.991  0.00  0.00    -0.004 A 
ATOM      5  C7  UNL d   1      -1.678   0.792   5.999  0.00  0.00     0.002 A 
ATOM      6  C8  UNL d   1      -1.744  -0.603   6.000  0.00  0.00     0.002 A 
ENDROOT
BRANCH   1   7
ATOM      7  C2  UNL d   1      -3.053  -2.764   5.967  0.00  0.00     0.056 C 
BRANCH   7   8
ATOM      8  C1  UNL d   1      -1.732  -3.442   5.586  0.00  0.00     0.007 C 
ATOM      9  C   UNL d   1      -1.668  -4.907   6.000  0.00  0.00     0.009 C 
ENDBRANCH   7   8
ENDBRANCH   1   7
TORSDOF 2
ENDMDL
