MODEL 1
REMARK minimizedAffinity 21.5758896
REMARK minimizedRMSD -1
REMARK  2 active torsions:
REMARK  status: ('A' for Active; 'I' for Inactive)
REMARK    1  A    between atoms: C1_2  and  C2_3 
REMARK    2  A    between atoms: C2_3  and  C3_4 
ROOT
ATOM      1  C3  UNL d   1       4.811   2.178  -2.510  0.00  0.00    -0.075 A 
ATOM      2  C4  UNL d   1       5.142   2.884  -1.345  0.00  0.00     0.002 A 
ATOM      3  C5  UNL d   1       4.282   2.880  -0.246  0.00  0.00     0.002 A 
ATOM      4  C6  UNL d   1       3.079   2.180  -0.302  0.00  0.00    -0.004 A 
ATOM      5  C7  UNL d   1       2.733   1.489  -1.461  0.00  0.00     0.002 A 
ATOM      6  C8  UNL d   1       3.593   1.488  -2.560  0.00  0.00     0.002 A 
ENDROOT
BRANCH   1   7
ATOM      7  C2  UNL d   1       5.751   2.155  -3.692  0.00  0.00     0.056 C 
BRANCH   7   8
ATOM      8  C1  UNL d   1       5.995   3.530  -4.323  0.00  0.00     0.007 C 
ATOM      9  C   UNL d   1       5.990   3.501  -5.846  0.00  0.00     0.009 C 
ENDBRANCH   7   8
ENDBRANCH   1   7
TORSDOF 2
ENDMDL
