MODEL 1
REMARK minimizedAffinity 13.0660915
REMARK minimizedRMSD -1
REMARK  2 active torsions:
REMARK  status: ('A' for Active; 'I' for Inactive)
REMARK    1  A    between atoms: C1_2  and  C2_3 
REMARK    2  A    between atoms: C2_3  and  C3_4 
ROOT
ATOM      1  C3  UNL d   1      -4.271   3.655  -0.905  0.00  0.00    -0.075 A 
ATOM      2  C4  UNL d   1      -4.762   4.909  -1.295  0.00  0.00     0.002 A 
ATOM      3  C5  UNL d   1      -5.315   5.777  -0.353  0.00  0.00     0.002 A 
ATOM      4  C6  UNL d   1      -5.393   5.399   0.986  0.00  0.00    -0.004 A 
ATOM      5  C7  UNL d   1      -4.924   4.148   1.381  0.00  0.00     0.002 A 
ATOM      6  C8  UNL d   1      -4.366   3.280   0.442  0.00  0.00     0.002 A 
ENDROOT
BRANCH   1   7
ATOM      7  C2  UNL d   1      -3.644   2.723  -1.915  0.00  0.00     0.056 C 
BRANCH   7   8
ATOM      8  C1  UNL d   1      -3.389   3.365  -3.282  0.00  0.00     0.007 C 
ATOM      9  C   UNL d   1      -2.095   2.897  -3.934  0.00  0.00     0.009 C 
ENDBRANCH   7   8
ENDBRANCH   1   7
TORSDOF 2
ENDMDL
