MODEL 1
REMARK minimizedAffinity -1.91090226
REMARK minimizedRMSD -1
REMARK  0 active torsions:
REMARK  status: ('A' for Active; 'I' for Inactive)
ROOT
ATOM      1  C   UNL d   1      -0.755   1.996   0.379  0.00  0.00     0.172 C 
ATOM      2  N   UNL d   1      -0.880   0.563   0.250  0.00  0.00    -0.070 N 
ATOM      3  C1  UNL d   1      -2.050  -0.123   0.060  0.00  0.00    -0.004 A 
ATOM      4  C2  UNL d   1      -1.745  -1.465  -0.012  0.00  0.00    -0.047 A 
ATOM      5  C3  UNL d   1      -0.344  -1.590   0.142  0.00  0.00    -0.047 A 
ATOM      6  C4  UNL d   1       0.167  -0.320   0.303  0.00  0.00    -0.004 A 
ENDROOT
TORSDOF 0
ENDMDL
