MODEL 1
REMARK minimizedAffinity -3.68772578
REMARK minimizedRMSD -1
REMARK  0 active torsions:
REMARK  status: ('A' for Active; 'I' for Inactive)
ROOT
ATOM      1  C   UNL d   1       1.715  -0.855   0.781  0.00  0.00     0.172 C 
ATOM      2  N   UNL d   1       0.307  -1.130   0.940  0.00  0.00    -0.070 N 
ATOM      3  C1  UNL d   1      -0.715  -0.280   0.608  0.00  0.00    -0.004 A 
ATOM      4  C2  UNL d   1      -1.903  -0.910   0.910  0.00  0.00    -0.047 A 
ATOM      5  C3  UNL d   1      -1.584  -2.181   1.444  0.00  0.00    -0.047 A 
ATOM      6  C4  UNL d   1      -0.210  -2.291   1.451  0.00  0.00    -0.004 A 
ENDROOT
TORSDOF 0
ENDMDL
