MODEL 1
REMARK minimizedAffinity -3.94825792
REMARK minimizedRMSD -1
REMARK  0 active torsions:
REMARK  status: ('A' for Active; 'I' for Inactive)
ROOT
ATOM      1  C   UNL d   1      -0.093   0.657   0.060  0.00  0.00     0.172 C 
ATOM      2  N   UNL d   1      -0.678  -0.613   0.420  0.00  0.00    -0.070 N 
ATOM      3  C1  UNL d   1      -2.018  -0.891   0.467  0.00  0.00    -0.004 A 
ATOM      4  C2  UNL d   1      -2.163  -2.206   0.852  0.00  0.00    -0.047 A 
ATOM      5  C3  UNL d   1      -0.865  -2.737   1.044  0.00  0.00    -0.047 A 
ATOM      6  C4  UNL d   1       0.035  -1.729   0.770  0.00  0.00    -0.004 A 
ENDROOT
TORSDOF 0
ENDMDL
