MODEL 1
REMARK minimizedAffinity -3.73834467
REMARK minimizedRMSD -1
REMARK  0 active torsions:
REMARK  status: ('A' for Active; 'I' for Inactive)
ROOT
ATOM      1  C   UNL d   1      -1.768   0.746   1.114  0.00  0.00     0.172 C 
ATOM      2  N   UNL d   1      -1.028  -0.445   0.769  0.00  0.00    -0.070 N 
ATOM      3  C1  UNL d   1       0.255  -0.477   0.291  0.00  0.00    -0.004 A 
ATOM      4  C2  UNL d   1       0.597  -1.796   0.087  0.00  0.00    -0.047 A 
ATOM      5  C3  UNL d   1      -0.520  -2.584   0.454  0.00  0.00    -0.047 A 
ATOM      6  C4  UNL d   1      -1.512  -1.722   0.872  0.00  0.00    -0.004 A 
ENDROOT
TORSDOF 0
ENDMDL
