MODEL 1
REMARK minimizedAffinity -3.1709497
REMARK minimizedRMSD -1
REMARK  0 active torsions:
REMARK  status: ('A' for Active; 'I' for Inactive)
ROOT
ATOM      1  C   UNL d   1      -1.410   0.904   1.180  0.00  0.00     0.172 C 
ATOM      2  N   UNL d   1      -0.700  -0.327   0.922  0.00  0.00    -0.070 N 
ATOM      3  C1  UNL d   1      -1.087  -1.574   1.334  0.00  0.00    -0.004 A 
ATOM      4  C2  UNL d   1      -0.146  -2.477   0.889  0.00  0.00    -0.047 A 
ATOM      5  C3  UNL d   1       0.841  -1.747   0.185  0.00  0.00    -0.047 A 
ATOM      6  C4  UNL d   1       0.474  -0.418   0.221  0.00  0.00    -0.004 A 
ENDROOT
TORSDOF 0
ENDMDL
