MODEL 1
REMARK minimizedAffinity -2.45239639
REMARK minimizedRMSD -1
REMARK  0 active torsions:
REMARK  status: ('A' for Active; 'I' for Inactive)
ROOT
ATOM      1  C   UNL d   1      -2.042   0.860   0.115  0.00  0.00     0.172 C 
ATOM      2  N   UNL d   1      -1.573  -0.325   0.794  0.00  0.00    -0.070 N 
ATOM      3  C1  UNL d   1      -1.882  -0.685   2.078  0.00  0.00    -0.004 A 
ATOM      4  C2  UNL d   1      -1.240  -1.874   2.349  0.00  0.00    -0.047 A 
ATOM      5  C3  UNL d   1      -0.518  -2.240   1.188  0.00  0.00    -0.047 A 
ATOM      6  C4  UNL d   1      -0.742  -1.263   0.241  0.00  0.00    -0.004 A 
ENDROOT
TORSDOF 0
ENDMDL
