MODEL 1
REMARK minimizedAffinity -2.0654006
REMARK minimizedRMSD -1
REMARK  0 active torsions:
REMARK  status: ('A' for Active; 'I' for Inactive)
ROOT
ATOM      1  C   UNL d   1      -0.190  -4.995  -4.873  0.00  0.00     0.172 C 
ATOM      2  N   UNL d   1      -1.582  -4.953  -5.256  0.00  0.00    -0.070 N 
ATOM      3  C1  UNL d   1      -2.462  -6.000  -5.182  0.00  0.00    -0.004 A 
ATOM      4  C2  UNL d   1      -3.684  -5.556  -5.637  0.00  0.00    -0.047 A 
ATOM      5  C3  UNL d   1      -3.534  -4.196  -5.998  0.00  0.00    -0.047 A 
ATOM      6  C4  UNL d   1      -2.223  -3.848  -5.751  0.00  0.00    -0.004 A 
ENDROOT
TORSDOF 0
ENDMDL
