MODEL 1
REMARK minimizedAffinity -3.11994767
REMARK minimizedRMSD -1
REMARK  0 active torsions:
REMARK  status: ('A' for Active; 'I' for Inactive)
ROOT
ATOM      1  C   UNL d   1       0.074  -0.228   0.937  0.00  0.00     0.172 C 
ATOM      2  N   UNL d   1      -0.199  -1.314   1.849  0.00  0.00    -0.070 N 
ATOM      3  C1  UNL d   1      -0.931  -1.223   3.003  0.00  0.00    -0.004 A 
ATOM      4  C2  UNL d   1      -0.960  -2.472   3.584  0.00  0.00    -0.047 A 
ATOM      5  C3  UNL d   1      -0.219  -3.344   2.751  0.00  0.00    -0.047 A 
ATOM      6  C4  UNL d   1       0.240  -2.601   1.684  0.00  0.00    -0.004 A 
ENDROOT
TORSDOF 0
ENDMDL
