MODEL 1
REMARK minimizedAffinity -0.307260096
REMARK minimizedRMSD -1
REMARK  0 active torsions:
REMARK  status: ('A' for Active; 'I' for Inactive)
ROOT
ATOM      1  C   UNL d   1       0.003   4.826  -4.130  0.00  0.00     0.172 C 
ATOM      2  N   UNL d   1      -1.121   4.076  -3.620  0.00  0.00    -0.070 N 
ATOM      3  C1  UNL d   1      -1.088   2.772  -3.203  0.00  0.00    -0.004 A 
ATOM      4  C2  UNL d   1      -2.357   2.428  -2.791  0.00  0.00    -0.047 A 
ATOM      5  C3  UNL d   1      -3.182   3.564  -2.968  0.00  0.00    -0.047 A 
ATOM      6  C4  UNL d   1      -2.392   4.569  -3.483  0.00  0.00    -0.004 A 
ENDROOT
TORSDOF 0
ENDMDL
