MODEL 1
REMARK minimizedAffinity -2.61820555
REMARK minimizedRMSD -1
REMARK  0 active torsions:
REMARK  status: ('A' for Active; 'I' for Inactive)
ROOT
ATOM      1  C   UNL d   1       0.371  -1.198   0.826  0.00  0.00     0.172 C 
ATOM      2  N   UNL d   1      -0.394  -1.546   2.001  0.00  0.00    -0.070 N 
ATOM      3  C1  UNL d   1      -0.823  -2.804   2.330  0.00  0.00    -0.004 A 
ATOM      4  C2  UNL d   1      -1.515  -2.716   3.519  0.00  0.00    -0.047 A 
ATOM      5  C3  UNL d   1      -1.503  -1.358   3.916  0.00  0.00    -0.047 A 
ATOM      6  C4  UNL d   1      -0.802  -0.656   2.959  0.00  0.00    -0.004 A 
ENDROOT
TORSDOF 0
ENDMDL
