MODEL 1
REMARK minimizedAffinity 1.89618814
REMARK minimizedRMSD -1
REMARK  0 active torsions:
REMARK  status: ('A' for Active; 'I' for Inactive)
ROOT
ATOM      1  C   UNL d   1       2.405  -3.860   4.134  0.00  0.00     0.172 C 
ATOM      2  N   UNL d   1       1.024  -3.463   3.990  0.00  0.00    -0.070 N 
ATOM      3  C1  UNL d   1       0.090  -3.444   4.991  0.00  0.00    -0.004 A 
ATOM      4  C2  UNL d   1      -1.099  -3.006   4.450  0.00  0.00    -0.047 A 
ATOM      5  C3  UNL d   1      -0.872  -2.754   3.076  0.00  0.00    -0.047 A 
ATOM      6  C4  UNL d   1       0.451  -3.045   2.818  0.00  0.00    -0.004 A 
ENDROOT
TORSDOF 0
ENDMDL
