MODEL 1
REMARK minimizedAffinity 3.73879409
REMARK minimizedRMSD -1
REMARK  0 active torsions:
REMARK  status: ('A' for Active; 'I' for Inactive)
ROOT
ATOM      1  C   UNL d   1      -0.063   0.366   0.651  0.00  0.00     0.172 C 
ATOM      2  N   UNL d   1       0.463  -0.949   0.928  0.00  0.00    -0.070 N 
ATOM      3  C1  UNL d   1       1.445  -1.583   0.213  0.00  0.00    -0.004 A 
ATOM      4  C2  UNL d   1       1.662  -2.814   0.794  0.00  0.00    -0.047 A 
ATOM      5  C3  UNL d   1       0.780  -2.924   1.895  0.00  0.00    -0.047 A 
ATOM      6  C4  UNL d   1       0.049  -1.756   1.954  0.00  0.00    -0.004 A 
ENDROOT
TORSDOF 0
ENDMDL
