MODEL 1
REMARK minimizedAffinity -2.79655504
REMARK minimizedRMSD -1
REMARK  0 active torsions:
REMARK  status: ('A' for Active; 'I' for Inactive)
ROOT
ATOM      1  C   UNL d   1      -2.642  -5.995  -5.405  0.00  0.00     0.172 C 
ATOM      2  N   UNL d   1      -3.139  -4.657  -5.630  0.00  0.00    -0.070 N 
ATOM      3  C1  UNL d   1      -4.450  -4.315  -5.823  0.00  0.00    -0.004 A 
ATOM      4  C2  UNL d   1      -4.508  -2.949  -6.000  0.00  0.00    -0.047 A 
ATOM      5  C3  UNL d   1      -3.185  -2.454  -5.910  0.00  0.00    -0.047 A 
ATOM      6  C4  UNL d   1      -2.358  -3.533  -5.681  0.00  0.00    -0.004 A 
ENDROOT
TORSDOF 0
ENDMDL
