MODEL 1
REMARK minimizedAffinity 1.8008647
REMARK minimizedRMSD -1
REMARK  0 active torsions:
REMARK  status: ('A' for Active; 'I' for Inactive)
ROOT
ATOM      1  C   UNL d   1       0.809  -2.917   2.145  0.00  0.00     0.172 C 
ATOM      2  N   UNL d   1       0.401  -1.981   1.124  0.00  0.00    -0.070 N 
ATOM      3  C1  UNL d   1       0.670  -2.091  -0.214  0.00  0.00    -0.004 A 
ATOM      4  C2  UNL d   1       0.111  -1.002  -0.848  0.00  0.00    -0.047 A 
ATOM      5  C3  UNL d   1      -0.515  -0.210   0.144  0.00  0.00    -0.047 A 
ATOM      6  C4  UNL d   1      -0.320  -0.839   1.355  0.00  0.00    -0.004 A 
ENDROOT
TORSDOF 0
ENDMDL
