MODEL 1
REMARK minimizedAffinity 0.345342338
REMARK minimizedRMSD -1
REMARK  0 active torsions:
REMARK  status: ('A' for Active; 'I' for Inactive)
ROOT
ATOM      1  C   UNL d   1       1.127  -3.029   1.485  0.00  0.00     0.172 C 
ATOM      2  N   UNL d   1       0.497  -2.771   2.759  0.00  0.00    -0.070 N 
ATOM      3  C1  UNL d   1       1.022  -3.077   3.986  0.00  0.00    -0.004 A 
ATOM      4  C2  UNL d   1       0.118  -2.673   4.944  0.00  0.00    -0.047 A 
ATOM      5  C3  UNL d   1      -0.989  -2.106   4.270  0.00  0.00    -0.047 A 
ATOM      6  C4  UNL d   1      -0.728  -2.179   2.918  0.00  0.00    -0.004 A 
ENDROOT
TORSDOF 0
ENDMDL
