MODEL 1
REMARK minimizedAffinity 4.00889826
REMARK minimizedRMSD -1
REMARK  0 active torsions:
REMARK  status: ('A' for Active; 'I' for Inactive)
ROOT
ATOM      1  C2' OXE d   1       2.632  -0.742   1.008  0.00  0.00     0.078 C 
ATOM      2  C1' OXE d   1       2.500   1.467  -0.720  0.00  0.00     0.078 C 
ATOM      3  C1  OXE d   1       1.217   0.735  -0.414  0.00  0.00    -0.078 A 
ATOM      4  C2  OXE d   1       1.298  -0.372   0.395  0.00  0.00    -0.078 A 
ATOM      5  C3  OXE d   1       0.137  -1.051   0.753  0.00  0.00     0.003 A 
ATOM      6  C4  OXE d   1      -1.091  -0.709   0.173  0.00  0.00    -0.002 A 
ATOM      7  C5  OXE d   1      -1.189   0.391  -0.685  0.00  0.00    -0.002 A 
ATOM      8  C6  OXE d   1      -0.054   1.148  -0.955  0.00  0.00     0.003 A 
ENDROOT
TORSDOF 0
ENDMDL
