MODEL 1
REMARK minimizedAffinity 2.18999004
REMARK minimizedRMSD -1
REMARK  0 active torsions:
REMARK  status: ('A' for Active; 'I' for Inactive)
ROOT
ATOM      1  C2' OXE d   1      -2.786   0.784  -0.398  0.00  0.00     0.078 C 
ATOM      2  C1' OXE d   1      -1.600   0.857   2.146  0.00  0.00     0.078 C 
ATOM      3  C1  OXE d   1      -0.763   0.361   0.993  0.00  0.00    -0.078 A 
ATOM      4  C2  OXE d   1      -1.366   0.285  -0.239  0.00  0.00    -0.078 A 
ATOM      5  C3  OXE d   1      -0.623  -0.114  -1.347  0.00  0.00     0.003 A 
ATOM      6  C4  OXE d   1       0.687  -0.584  -1.190  0.00  0.00    -0.002 A 
ATOM      7  C5  OXE d   1       1.307  -0.552   0.064  0.00  0.00    -0.002 A 
ATOM      8  C6  OXE d   1       0.612  -0.044   1.155  0.00  0.00     0.003 A 
ENDROOT
TORSDOF 0
ENDMDL
