MODEL 1
REMARK minimizedAffinity -6.01257896
REMARK minimizedRMSD -1
REMARK  0 active torsions:
REMARK  status: ('A' for Active; 'I' for Inactive)
ROOT
ATOM      1  C2' OXE d   1       0.461  -0.200  -0.599  0.00  0.00     0.078 C 
ATOM      2  C1' OXE d   1      -1.969   0.767   0.421  0.00  0.00     0.078 C 
ATOM      3  C1  OXE d   1      -0.807   0.639   1.374  0.00  0.00    -0.078 A 
ATOM      4  C2  OXE d   1       0.364   0.121   0.877  0.00  0.00    -0.078 A 
ATOM      5  C3  OXE d   1       1.483   0.032   1.700  0.00  0.00     0.003 A 
ATOM      6  C4  OXE d   1       1.383   0.321   3.066  0.00  0.00    -0.002 A 
ATOM      7  C5  OXE d   1       0.187   0.812   3.602  0.00  0.00    -0.002 A 
ATOM      8  C6  OXE d   1      -0.902   1.017   2.763  0.00  0.00     0.003 A 
ENDROOT
TORSDOF 0
ENDMDL
