MODEL 1
REMARK minimizedAffinity -3.23894191
REMARK minimizedRMSD -1
REMARK  0 active torsions:
REMARK  status: ('A' for Active; 'I' for Inactive)
ROOT
ATOM      1  C2' OXE d   1       0.702  -0.562  -1.127  0.00  0.00     0.078 C 
ATOM      2  C1' OXE d   1       1.578  -0.388   1.534  0.00  0.00     0.078 C 
ATOM      3  C1  OXE d   1       0.108  -0.186   1.263  0.00  0.00    -0.078 A 
ATOM      4  C2  OXE d   1      -0.304  -0.226  -0.047  0.00  0.00    -0.078 A 
ATOM      5  C3  OXE d   1      -1.657  -0.100  -0.348  0.00  0.00     0.003 A 
ATOM      6  C4  OXE d   1      -2.580   0.221   0.656  0.00  0.00    -0.002 A 
ATOM      7  C5  OXE d   1      -2.174   0.306   1.992  0.00  0.00    -0.002 A 
ATOM      8  C6  OXE d   1      -0.844   0.064   2.317  0.00  0.00     0.003 A 
ENDROOT
TORSDOF 0
ENDMDL
