MODEL 1
REMARK minimizedAffinity -5.41897869
REMARK minimizedRMSD -1
REMARK  0 active torsions:
REMARK  status: ('A' for Active; 'I' for Inactive)
ROOT
ATOM      1  C2' OXE d   1       0.630   0.458  -0.649  0.00  0.00     0.078 C 
ATOM      2  C1' OXE d   1       2.436  -0.026   1.445  0.00  0.00     0.078 C 
ATOM      3  C1  OXE d   1       0.995   0.238   1.806  0.00  0.00    -0.078 A 
ATOM      4  C2  OXE d   1       0.128   0.520   0.778  0.00  0.00    -0.078 A 
ATOM      5  C3  OXE d   1      -1.223   0.717   1.050  0.00  0.00     0.003 A 
ATOM      6  C4  OXE d   1      -1.677   0.783   2.373  0.00  0.00    -0.002 A 
ATOM      7  C5  OXE d   1      -0.802   0.538   3.437  0.00  0.00    -0.002 A 
ATOM      8  C6  OXE d   1       0.525   0.223   3.169  0.00  0.00     0.003 A 
ENDROOT
TORSDOF 0
ENDMDL
