MODEL 1
REMARK minimizedAffinity -4.96756887
REMARK minimizedRMSD -1
REMARK  0 active torsions:
REMARK  status: ('A' for Active; 'I' for Inactive)
ROOT
ATOM      1  C2' OXE d   1      -1.964   0.463  -0.036  0.00  0.00     0.078 C 
ATOM      2  C1' OXE d   1       0.636  -0.336  -0.730  0.00  0.00     0.078 C 
ATOM      3  C1  OXE d   1       0.407   0.174   0.670  0.00  0.00    -0.078 A 
ATOM      4  C2  OXE d   1      -0.858   0.607   0.987  0.00  0.00    -0.078 A 
ATOM      5  C3  OXE d   1      -1.136   1.035   2.282  0.00  0.00     0.003 A 
ATOM      6  C4  OXE d   1      -0.105   1.174   3.219  0.00  0.00    -0.002 A 
ATOM      7  C5  OXE d   1       1.199   0.777   2.905  0.00  0.00    -0.002 A 
ATOM      8  C6  OXE d   1       1.463   0.236   1.651  0.00  0.00     0.003 A 
ENDROOT
TORSDOF 0
ENDMDL
