MODEL 1
REMARK minimizedAffinity -3.89114547
REMARK minimizedRMSD -1
REMARK  0 active torsions:
REMARK  status: ('A' for Active; 'I' for Inactive)
ROOT
ATOM      1  C2' OXE d   1       1.028  -0.404   3.803  0.00  0.00     0.078 C 
ATOM      2  C1' OXE d   1       2.194  -1.248   1.393  0.00  0.00     0.078 C 
ATOM      3  C1  OXE d   1       0.815  -0.640   1.332  0.00  0.00    -0.078 A 
ATOM      4  C2  OXE d   1       0.233  -0.273   2.522  0.00  0.00    -0.078 A 
ATOM      5  C3  OXE d   1      -1.016   0.342   2.517  0.00  0.00     0.003 A 
ATOM      6  C4  OXE d   1      -1.749   0.450   1.329  0.00  0.00    -0.002 A 
ATOM      7  C5  OXE d   1      -1.191   0.046   0.112  0.00  0.00    -0.002 A 
ATOM      8  C6  OXE d   1       0.104  -0.461   0.090  0.00  0.00     0.003 A 
ENDROOT
TORSDOF 0
ENDMDL
