MODEL 1
REMARK minimizedAffinity 8.88353443
REMARK minimizedRMSD -1
REMARK  1 active torsions:
REMARK  status: ('A' for Active; 'I' for Inactive)
REMARK    1  A    between atoms: C3_4  and  O_7 
ROOT
ATOM      1  C   UNL d   1      -5.293   2.845  -1.930  0.00  0.00    -0.033 A 
ATOM      2  C1  UNL d   1      -5.751   3.429  -3.113  0.00  0.00     0.039 A 
ATOM      3  C2  UNL d   1      -5.996   2.637  -4.236  0.00  0.00    -0.080 A 
ATOM      4  C3  UNL d   1      -5.780   1.263  -4.163  0.00  0.00     0.150 A 
ATOM      5  C4  UNL d   1      -5.327   0.674  -2.987  0.00  0.00    -0.007 A 
ATOM      6  C5  UNL d   1      -5.082   1.468  -1.867  0.00  0.00     0.039 A 
ENDROOT
BRANCH   4   7
ATOM      7  O   UNL d   1      -6.000   0.449  -5.234  0.00  0.00    -0.526 OA
ATOM      8  H5  UNL d   1      -6.283   0.998  -5.984  0.00  0.00     0.418 HD
ENDBRANCH   4   7
TORSDOF 1
ENDMDL
