MODEL 1
REMARK minimizedAffinity -0.597681761
REMARK minimizedRMSD -1
REMARK  1 active torsions:
REMARK  status: ('A' for Active; 'I' for Inactive)
REMARK    1  A    between atoms: C3_4  and  O_7 
ROOT
ATOM      1  C   UNL d   1       3.948   1.353  -0.787  0.00  0.00    -0.033 A 
ATOM      2  C1  UNL d   1       2.726   1.439  -0.116  0.00  0.00     0.039 A 
ATOM      3  C2  UNL d   1       2.003   0.279   0.172  0.00  0.00    -0.080 A 
ATOM      4  C3  UNL d   1       2.512  -0.957  -0.216  0.00  0.00     0.150 A 
ATOM      5  C4  UNL d   1       3.730  -1.050  -0.881  0.00  0.00    -0.007 A 
ATOM      6  C5  UNL d   1       4.450   0.108  -1.168  0.00  0.00     0.039 A 
ENDROOT
BRANCH   4   7
ATOM      7  O   UNL d   1       1.840  -2.116   0.039  0.00  0.00    -0.526 OA
ATOM      8  H5  UNL d   1       1.001  -1.895   0.478  0.00  0.00     0.418 HD
ENDBRANCH   4   7
TORSDOF 1
ENDMDL
