MODEL 1
REMARK minimizedAffinity 3.12286663
REMARK minimizedRMSD -1
REMARK  1 active torsions:
REMARK  status: ('A' for Active; 'I' for Inactive)
REMARK    1  A    between atoms: C3_4  and  O_7 
ROOT
ATOM      1  C   UNL d   1       2.609  -2.577  -0.154  0.00  0.00    -0.033 A 
ATOM      2  C1  UNL d   1       3.037  -1.609  -1.066  0.00  0.00     0.039 A 
ATOM      3  C2  UNL d   1       2.677  -0.272  -0.888  0.00  0.00    -0.080 A 
ATOM      4  C3  UNL d   1       1.892   0.085   0.205  0.00  0.00     0.150 A 
ATOM      5  C4  UNL d   1       1.466  -0.873   1.120  0.00  0.00    -0.007 A 
ATOM      6  C5  UNL d   1       1.825  -2.208   0.939  0.00  0.00     0.039 A 
ENDROOT
BRANCH   4   7
ATOM      7  O   UNL d   1       1.512   1.376   0.419  0.00  0.00    -0.526 OA
ATOM      8  H5  UNL d   1       1.855   1.922  -0.308  0.00  0.00     0.418 HD
ENDBRANCH   4   7
TORSDOF 1
ENDMDL
