MODEL 1
REMARK minimizedAffinity -3.89367557
REMARK minimizedRMSD -1
REMARK  1 active torsions:
REMARK  status: ('A' for Active; 'I' for Inactive)
REMARK    1  A    between atoms: C3_4  and  O_7 
ROOT
ATOM      1  C   UNL d   1       0.333  -1.673  -0.234  0.00  0.00    -0.033 A 
ATOM      2  C1  UNL d   1       1.661  -1.317   0.010  0.00  0.00     0.039 A 
ATOM      3  C2  UNL d   1       2.015   0.029   0.123  0.00  0.00    -0.080 A 
ATOM      4  C3  UNL d   1       1.033   1.007  -0.008  0.00  0.00     0.150 A 
ATOM      5  C4  UNL d   1      -0.292   0.659  -0.248  0.00  0.00    -0.007 A 
ATOM      6  C5  UNL d   1      -0.644  -0.686  -0.362  0.00  0.00     0.039 A 
ENDROOT
BRANCH   4   7
ATOM      7  O   UNL d   1       1.331   2.334   0.090  0.00  0.00    -0.526 OA
ATOM      8  H5  UNL d   1       2.288   2.425   0.227  0.00  0.00     0.418 HD
ENDBRANCH   4   7
TORSDOF 1
ENDMDL
