MODEL 1
REMARK minimizedAffinity 2.39664984
REMARK minimizedRMSD -1
REMARK  1 active torsions:
REMARK  status: ('A' for Active; 'I' for Inactive)
REMARK    1  A    between atoms: C3_4  and  O_7 
ROOT
ATOM      1  C   UNL d   1       2.829  -1.694   0.607  0.00  0.00    -0.033 A 
ATOM      2  C1  UNL d   1       2.616  -1.295  -0.714  0.00  0.00     0.039 A 
ATOM      3  C2  UNL d   1       2.246   0.021  -0.997  0.00  0.00    -0.080 A 
ATOM      4  C3  UNL d   1       2.093   0.928   0.049  0.00  0.00     0.150 A 
ATOM      5  C4  UNL d   1       2.308   0.538   1.367  0.00  0.00    -0.007 A 
ATOM      6  C5  UNL d   1       2.676  -0.777   1.647  0.00  0.00     0.039 A 
ENDROOT
BRANCH   4   7
ATOM      7  O   UNL d   1       1.728   2.222  -0.178  0.00  0.00    -0.526 OA
ATOM      8  H5  UNL d   1       1.587   2.339  -1.132  0.00  0.00     0.418 HD
ENDBRANCH   4   7
TORSDOF 1
ENDMDL
