MODEL 1
REMARK minimizedAffinity -0.463883609
REMARK minimizedRMSD -1
REMARK  1 active torsions:
REMARK  status: ('A' for Active; 'I' for Inactive)
REMARK    1  A    between atoms: C3_4  and  O_7 
ROOT
ATOM      1  C   UNL d   1      -0.033   2.182   0.057  0.00  0.00    -0.033 A 
ATOM      2  C1  UNL d   1      -1.282   2.254   0.677  0.00  0.00     0.039 A 
ATOM      3  C2  UNL d   1      -1.429   1.846   2.005  0.00  0.00    -0.080 A 
ATOM      4  C3  UNL d   1      -0.320   1.370   2.700  0.00  0.00     0.150 A 
ATOM      5  C4  UNL d   1       0.927   1.300   2.089  0.00  0.00    -0.007 A 
ATOM      6  C5  UNL d   1       1.072   1.706   0.763  0.00  0.00     0.039 A 
ENDROOT
BRANCH   4   7
ATOM      7  O   UNL d   1      -0.415   0.957   3.995  0.00  0.00    -0.526 OA
ATOM      8  H5  UNL d   1      -1.342   1.035   4.276  0.00  0.00     0.418 HD
ENDBRANCH   4   7
TORSDOF 1
ENDMDL
