MODEL 1
REMARK minimizedAffinity -3.10522389
REMARK minimizedRMSD -1
REMARK  1 active torsions:
REMARK  status: ('A' for Active; 'I' for Inactive)
REMARK    1  A    between atoms: C3_4  and  O_7 
ROOT
ATOM      1  C   UNL d   1       1.256  -2.400  -1.077  0.00  0.00    -0.033 A 
ATOM      2  C1  UNL d   1       2.236  -1.464  -0.742  0.00  0.00     0.039 A 
ATOM      3  C2  UNL d   1       1.915  -0.107  -0.676  0.00  0.00    -0.080 A 
ATOM      4  C3  UNL d   1       0.611   0.300  -0.946  0.00  0.00     0.150 A 
ATOM      5  C4  UNL d   1      -0.371  -0.627  -1.276  0.00  0.00    -0.007 A 
ATOM      6  C5  UNL d   1      -0.048  -1.982  -1.343  0.00  0.00     0.039 A 
ENDROOT
BRANCH   4   7
ATOM      7  O   UNL d   1       0.251   1.614  -0.898  0.00  0.00    -0.526 OA
ATOM      8  H5  UNL d   1       1.039   2.142  -0.686  0.00  0.00     0.418 HD
ENDBRANCH   4   7
TORSDOF 1
ENDMDL
