MODEL 1
REMARK minimizedAffinity 0.979821682
REMARK minimizedRMSD -1
REMARK  1 active torsions:
REMARK  status: ('A' for Active; 'I' for Inactive)
REMARK    1  A    between atoms: C3_4  and  O_7 
ROOT
ATOM      1  C   UNL d   1      -1.257  -5.065   5.994  0.00  0.00    -0.033 A 
ATOM      2  C1  UNL d   1      -0.410  -5.999   5.395  0.00  0.00     0.039 A 
ATOM      3  C2  UNL d   1       0.780  -5.582   4.797  0.00  0.00    -0.080 A 
ATOM      4  C3  UNL d   1       1.112  -4.230   4.805  0.00  0.00     0.150 A 
ATOM      5  C4  UNL d   1       0.275  -3.294   5.404  0.00  0.00    -0.007 A 
ATOM      6  C5  UNL d   1      -0.914  -3.713   6.000  0.00  0.00     0.039 A 
ENDROOT
BRANCH   4   7
ATOM      7  O   UNL d   1       2.261  -3.775   4.230  0.00  0.00    -0.526 OA
ATOM      8  H5  UNL d   1       2.726  -4.530   3.831  0.00  0.00     0.418 HD
ENDBRANCH   4   7
TORSDOF 1
ENDMDL
