MODEL 1
REMARK minimizedAffinity 0.932482481
REMARK minimizedRMSD -1
REMARK  1 active torsions:
REMARK  status: ('A' for Active; 'I' for Inactive)
REMARK    1  A    between atoms: C3_4  and  O_7 
ROOT
ATOM      1  C   UNL d   1      -0.543  -1.057  -0.058  0.00  0.00    -0.033 A 
ATOM      2  C1  UNL d   1      -0.048  -0.564   1.151  0.00  0.00     0.039 A 
ATOM      3  C2  UNL d   1       0.467   0.732   1.220  0.00  0.00    -0.080 A 
ATOM      4  C3  UNL d   1       0.482   1.524   0.075  0.00  0.00     0.150 A 
ATOM      5  C4  UNL d   1      -0.013   1.040  -1.132  0.00  0.00    -0.007 A 
ATOM      6  C5  UNL d   1      -0.526  -0.254  -1.200  0.00  0.00     0.039 A 
ENDROOT
BRANCH   4   7
ATOM      7  O   UNL d   1       0.979   2.793   0.092  0.00  0.00    -0.526 OA
ATOM      8  H5  UNL d   1       1.312   2.981   0.985  0.00  0.00     0.418 HD
ENDBRANCH   4   7
TORSDOF 1
ENDMDL
