MODEL 1
REMARK minimizedAffinity 5.89914846
REMARK minimizedRMSD -1
REMARK  1 active torsions:
REMARK  status: ('A' for Active; 'I' for Inactive)
REMARK    1  A    between atoms: C1_2  and  C2_3 
ROOT
ATOM      1  C2  UNL d   1      -3.006  -4.136  -4.565  0.00  0.00    -0.076 A 
ATOM      2  C3  UNL d   1      -2.985  -2.787  -4.171  0.00  0.00     0.004 A 
ATOM      3  C4  UNL d   1      -3.902  -1.874  -4.690  0.00  0.00    -0.003 A 
ATOM      4  C5  UNL d   1      -4.854  -2.295  -5.611  0.00  0.00     0.000 A 
ATOM      5  C6  UNL d   1      -4.901  -3.634  -6.000  0.00  0.00     0.000 A 
ATOM      6  C7  UNL d   1      -3.995  -4.570  -5.474  0.00  0.00    -0.073 A 
ATOM      7  C8  UNL d   1      -4.086  -6.000  -5.933  0.00  0.00     0.078 C 
ENDROOT
BRANCH   1   8
ATOM      8  C1  UNL d   1      -1.970  -5.074  -3.989  0.00  0.00     0.053 C 
ATOM      9  C   UNL d   1      -1.806  -4.909  -2.486  0.00  0.00     0.018 C 
ENDBRANCH   1   8
TORSDOF 1
ENDMDL
