MODEL 1
REMARK minimizedAffinity 17.3301258
REMARK minimizedRMSD -1
REMARK  1 active torsions:
REMARK  status: ('A' for Active; 'I' for Inactive)
REMARK    1  A    between atoms: C1_2  and  C2_3 
ROOT
ATOM      1  C2  UNL d   1       2.549  -2.862  -0.768  0.00  0.00    -0.076 A 
ATOM      2  C3  UNL d   1       2.096  -2.018  -1.797  0.00  0.00     0.004 A 
ATOM      3  C4  UNL d   1       1.349  -2.520  -2.861  0.00  0.00    -0.003 A 
ATOM      4  C5  UNL d   1       1.042  -3.875  -2.913  0.00  0.00     0.000 A 
ATOM      5  C6  UNL d   1       1.467  -4.724  -1.892  0.00  0.00     0.000 A 
ATOM      6  C7  UNL d   1       2.208  -4.231  -0.804  0.00  0.00    -0.073 A 
ATOM      7  C8  UNL d   1       2.647  -5.193   0.266  0.00  0.00     0.078 C 
ENDROOT
BRANCH   1   8
ATOM      8  C1  UNL d   1       3.379  -2.265   0.346  0.00  0.00     0.053 C 
ATOM      9  C   UNL d   1       4.867  -2.518   0.164  0.00  0.00     0.018 C 
ENDBRANCH   1   8
TORSDOF 1
ENDMDL
