MODEL 1
REMARK minimizedAffinity 1.95281672
REMARK minimizedRMSD -1
REMARK  1 active torsions:
REMARK  status: ('A' for Active; 'I' for Inactive)
REMARK    1  A    between atoms: C1_2  and  C2_3 
ROOT
ATOM      1  C2  UNL d   1       2.257  -3.120  -1.896  0.00  0.00    -0.076 A 
ATOM      2  C3  UNL d   1       2.996  -3.387  -0.731  0.00  0.00     0.004 A 
ATOM      3  C4  UNL d   1       3.373  -4.688  -0.402  0.00  0.00    -0.003 A 
ATOM      4  C5  UNL d   1       3.018  -5.743  -1.234  0.00  0.00     0.000 A 
ATOM      5  C6  UNL d   1       2.300  -5.495  -2.404  0.00  0.00     0.000 A 
ATOM      6  C7  UNL d   1       1.926  -4.188  -2.758  0.00  0.00    -0.073 A 
ATOM      7  C8  UNL d   1       1.147  -3.978  -4.028  0.00  0.00     0.078 C 
ENDROOT
BRANCH   1   8
ATOM      8  C1  UNL d   1       1.853  -1.692  -2.187  0.00  0.00     0.053 C 
ATOM      9  C   UNL d   1       2.168  -0.751  -1.034  0.00  0.00     0.018 C 
ENDBRANCH   1   8
TORSDOF 1
ENDMDL
