MODEL 1
REMARK minimizedAffinity 11.0026817
REMARK minimizedRMSD -1
REMARK  1 active torsions:
REMARK  status: ('A' for Active; 'I' for Inactive)
REMARK    1  A    between atoms: C1_2  and  C2_3 
ROOT
ATOM      1  C2  UNL d   1       2.233  -1.295  -3.723  0.00  0.00    -0.076 A 
ATOM      2  C3  UNL d   1       2.612  -2.450  -3.017  0.00  0.00     0.004 A 
ATOM      3  C4  UNL d   1       2.377  -2.563  -1.648  0.00  0.00    -0.003 A 
ATOM      4  C5  UNL d   1       1.758  -1.524  -0.962  0.00  0.00     0.000 A 
ATOM      5  C6  UNL d   1       1.360  -0.378  -1.650  0.00  0.00     0.000 A 
ATOM      6  C7  UNL d   1       1.575  -0.254  -3.034  0.00  0.00    -0.073 A 
ATOM      7  C8  UNL d   1       1.130   1.006  -3.724  0.00  0.00     0.078 C 
ENDROOT
BRANCH   1   8
ATOM      8  C1  UNL d   1       2.539  -1.217  -5.202  0.00  0.00     0.053 C 
ATOM      9  C   UNL d   1       3.920  -1.756  -5.541  0.00  0.00     0.018 C 
ENDBRANCH   1   8
TORSDOF 1
ENDMDL
