MODEL 1
REMARK minimizedAffinity 9.29063034
REMARK minimizedRMSD -1
REMARK  1 active torsions:
REMARK  status: ('A' for Active; 'I' for Inactive)
REMARK    1  A    between atoms: C1_2  and  C2_3 
ROOT
ATOM      1  C2  UNL d   1      -3.313   3.294  -4.748  0.00  0.00    -0.076 A 
ATOM      2  C3  UNL d   1      -2.139   3.910  -4.280  0.00  0.00     0.004 A 
ATOM      3  C4  UNL d   1      -1.874   5.250  -4.555  0.00  0.00    -0.003 A 
ATOM      4  C5  UNL d   1      -2.779   5.997  -5.301  0.00  0.00     0.000 A 
ATOM      5  C6  UNL d   1      -3.957   5.408  -5.758  0.00  0.00     0.000 A 
ATOM      6  C7  UNL d   1      -4.247   4.062  -5.476  0.00  0.00    -0.073 A 
ATOM      7  C8  UNL d   1      -5.530   3.475  -5.999  0.00  0.00     0.078 C 
ENDROOT
BRANCH   1   8
ATOM      8  C1  UNL d   1      -3.534   1.830  -4.442  0.00  0.00     0.053 C 
ATOM      9  C   UNL d   1      -2.587   1.309  -3.372  0.00  0.00     0.018 C 
ENDBRANCH   1   8
TORSDOF 1
ENDMDL
