MODEL 1
REMARK minimizedAffinity 15.2951946
REMARK minimizedRMSD -1
REMARK  1 active torsions:
REMARK  status: ('A' for Active; 'I' for Inactive)
REMARK    1  A    between atoms: C1_2  and  C2_3 
ROOT
ATOM      1  C2  UNL d   1       2.619  -0.881  -1.080  0.00  0.00    -0.076 A 
ATOM      2  C3  UNL d   1       2.854   0.505  -1.060  0.00  0.00     0.004 A 
ATOM      3  C4  UNL d   1       3.649   1.083  -0.072  0.00  0.00    -0.003 A 
ATOM      4  C5  UNL d   1       4.223   0.285   0.911  0.00  0.00     0.000 A 
ATOM      5  C6  UNL d   1       4.015  -1.094   0.896  0.00  0.00     0.000 A 
ATOM      6  C7  UNL d   1       3.229  -1.695  -0.102  0.00  0.00    -0.073 A 
ATOM      7  C8  UNL d   1       3.033  -3.186  -0.066  0.00  0.00     0.078 C 
ENDROOT
BRANCH   1   8
ATOM      8  C1  UNL d   1       1.726  -1.448  -2.160  0.00  0.00     0.053 C 
ATOM      9  C   UNL d   1       2.482  -1.743  -3.447  0.00  0.00     0.018 C 
ENDBRANCH   1   8
TORSDOF 1
ENDMDL
