MODEL 1
REMARK minimizedAffinity 8.2947216
REMARK minimizedRMSD -1
REMARK  1 active torsions:
REMARK  status: ('A' for Active; 'I' for Inactive)
REMARK    1  A    between atoms: C1_2  and  C2_3 
ROOT
ATOM      1  C2  UNL d   1       3.583  -2.402   0.741  0.00  0.00    -0.076 A 
ATOM      2  C3  UNL d   1       4.755  -1.979   1.393  0.00  0.00     0.004 A 
ATOM      3  C4  UNL d   1       5.933  -2.718   1.304  0.00  0.00    -0.003 A 
ATOM      4  C5  UNL d   1       5.959  -3.893   0.560  0.00  0.00     0.000 A 
ATOM      5  C6  UNL d   1       4.811  -4.319  -0.108  0.00  0.00     0.000 A 
ATOM      6  C7  UNL d   1       3.620  -3.577  -0.041  0.00  0.00    -0.073 A 
ATOM      7  C8  UNL d   1       2.410  -4.086  -0.776  0.00  0.00     0.078 C 
ENDROOT
BRANCH   1   8
ATOM      8  C1  UNL d   1       2.328  -1.574   0.896  0.00  0.00     0.053 C 
ATOM      9  C   UNL d   1       2.601  -0.080   0.808  0.00  0.00     0.018 C 
ENDBRANCH   1   8
TORSDOF 1
ENDMDL
