MODEL 1
REMARK minimizedAffinity 17.5324345
REMARK minimizedRMSD -1
REMARK  1 active torsions:
REMARK  status: ('A' for Active; 'I' for Inactive)
REMARK    1  A    between atoms: C1_2  and  C2_3 
ROOT
ATOM      1  C2  UNL d   1      -3.608  -4.647  -4.468  0.00  0.00    -0.076 A 
ATOM      2  C3  UNL d   1      -4.447  -5.526  -5.176  0.00  0.00     0.004 A 
ATOM      3  C4  UNL d   1      -5.513  -5.046  -5.934  0.00  0.00    -0.003 A 
ATOM      4  C5  UNL d   1      -5.758  -3.679  -5.998  0.00  0.00     0.000 A 
ATOM      5  C6  UNL d   1      -4.926  -2.791  -5.317  0.00  0.00     0.000 A 
ATOM      6  C7  UNL d   1      -3.837  -3.258  -4.561  0.00  0.00    -0.073 A 
ATOM      7  C8  UNL d   1      -2.975  -2.256  -3.841  0.00  0.00     0.078 C 
ENDROOT
BRANCH   1   8
ATOM      8  C1  UNL d   1      -2.484  -5.228  -3.640  0.00  0.00     0.053 C 
ATOM      9  C   UNL d   1      -2.909  -5.531  -2.212  0.00  0.00     0.018 C 
ENDBRANCH   1   8
TORSDOF 1
ENDMDL
