MODEL 1
REMARK minimizedAffinity 26.1044044
REMARK minimizedRMSD -1
REMARK  1 active torsions:
REMARK  status: ('A' for Active; 'I' for Inactive)
REMARK    1  A    between atoms: C1_2  and  C2_3 
ROOT
ATOM      1  C2  UNL d   1      -4.833   2.306   3.772  0.00  0.00    -0.076 A 
ATOM      2  C3  UNL d   1      -4.149   1.356   2.995  0.00  0.00     0.004 A 
ATOM      3  C4  UNL d   1      -3.054   0.662   3.509  0.00  0.00    -0.003 A 
ATOM      4  C5  UNL d   1      -2.627   0.908   4.809  0.00  0.00     0.000 A 
ATOM      5  C6  UNL d   1      -3.305   1.835   5.600  0.00  0.00     0.000 A 
ATOM      6  C7  UNL d   1      -4.420   2.530   5.103  0.00  0.00    -0.073 A 
ATOM      7  C8  UNL d   1      -5.110   3.523   5.998  0.00  0.00     0.078 C 
ENDROOT
BRANCH   1   8
ATOM      8  C1  UNL d   1      -5.996   3.047   3.151  0.00  0.00     0.053 C 
ATOM      9  C   UNL d   1      -5.677   4.509   2.879  0.00  0.00     0.018 C 
ENDBRANCH   1   8
TORSDOF 1
ENDMDL
