MODEL 1
REMARK minimizedAffinity 9.90549469
REMARK minimizedRMSD -1
REMARK  0 active torsions:
REMARK  status: ('A' for Active; 'I' for Inactive)
ROOT
ATOM      1  C   UNL d   1      -0.018  -0.112   5.550  0.00  0.00     0.020 A 
ATOM      2  C1  UNL d   1      -1.230  -0.731   5.852  0.00  0.00     0.020 A 
ATOM      3  C2  UNL d   1      -1.798  -1.632   4.949  0.00  0.00     0.034 A 
ATOM      4  C3  UNL d   1      -1.154  -1.915   3.739  0.00  0.00     0.017 A 
ATOM      5  C4  UNL d   1       0.062  -1.293   3.436  0.00  0.00     0.017 A 
ATOM      6  C5  UNL d   1       0.627  -0.392   4.344  0.00  0.00     0.034 A 
ATOM      7 Cl   UNL d   1       0.915  -1.593   1.963  0.00  0.00    -0.070 Cl
ATOM      8 Cl1  UNL d   1      -1.914  -3.039   2.669  0.00  0.00    -0.070 Cl
ENDROOT
TORSDOF 0
ENDMDL
