MODEL 1
REMARK minimizedAffinity 19.0237484
REMARK minimizedRMSD -1
REMARK  0 active torsions:
REMARK  status: ('A' for Active; 'I' for Inactive)
ROOT
ATOM      1  C   UNL d   1      -4.658   5.121  -0.811  0.00  0.00     0.020 A 
ATOM      2  C1  UNL d   1      -4.670   3.729  -0.741  0.00  0.00     0.020 A 
ATOM      3  C2  UNL d   1      -3.721   2.986  -1.446  0.00  0.00     0.034 A 
ATOM      4  C3  UNL d   1      -2.756   3.636  -2.224  0.00  0.00     0.017 A 
ATOM      5  C4  UNL d   1      -2.745   5.033  -2.294  0.00  0.00     0.017 A 
ATOM      6  C5  UNL d   1      -3.697   5.772  -1.586  0.00  0.00     0.034 A 
ATOM      7 Cl   UNL d   1      -1.585   5.905  -3.233  0.00  0.00    -0.070 Cl
ATOM      8 Cl1  UNL d   1      -1.612   2.654  -3.070  0.00  0.00    -0.070 Cl
ENDROOT
TORSDOF 0
ENDMDL
