MODEL 1
REMARK minimizedAffinity 10.4456291
REMARK minimizedRMSD -1
REMARK  0 active torsions:
REMARK  status: ('A' for Active; 'I' for Inactive)
ROOT
ATOM      1  C   UNL d   1      -0.895  -0.093   4.783  0.00  0.00     0.020 A 
ATOM      2  C1  UNL d   1      -0.792  -0.116   3.393  0.00  0.00     0.020 A 
ATOM      3  C2  UNL d   1       0.460  -0.009   2.784  0.00  0.00     0.034 A 
ATOM      4  C3  UNL d   1       1.614   0.121   3.565  0.00  0.00     0.017 A 
ATOM      5  C4  UNL d   1       1.510   0.143   4.960  0.00  0.00     0.017 A 
ATOM      6  C5  UNL d   1       0.254   0.036   5.565  0.00  0.00     0.034 A 
ATOM      7 Cl   UNL d   1       2.889   0.301   5.990  0.00  0.00    -0.070 Cl
ATOM      8 Cl1  UNL d   1       3.130   0.247   2.744  0.00  0.00    -0.070 Cl
ENDROOT
TORSDOF 0
ENDMDL
