MODEL 1
REMARK minimizedAffinity 17.4035568
REMARK minimizedRMSD -1
REMARK  0 active torsions:
REMARK  status: ('A' for Active; 'I' for Inactive)
ROOT
ATOM      1  C   UNL d   1      -2.143   4.702  -2.513  0.00  0.00     0.020 A 
ATOM      2  C1  UNL d   1      -2.147   3.596  -3.362  0.00  0.00     0.020 A 
ATOM      3  C2  UNL d   1      -3.181   2.661  -3.285  0.00  0.00     0.034 A 
ATOM      4  C3  UNL d   1      -4.216   2.830  -2.358  0.00  0.00     0.017 A 
ATOM      5  C4  UNL d   1      -4.211   3.941  -1.507  0.00  0.00     0.017 A 
ATOM      6  C5  UNL d   1      -3.173   4.874  -1.588  0.00  0.00     0.034 A 
ATOM      7 Cl   UNL d   1      -5.454   4.218  -0.338  0.00  0.00    -0.070 Cl
ATOM      8 Cl1  UNL d   1      -5.463   1.635  -2.319  0.00  0.00    -0.070 Cl
ENDROOT
TORSDOF 0
ENDMDL
