MODEL 1
REMARK minimizedAffinity 23.3781643
REMARK minimizedRMSD -1
REMARK  0 active torsions:
REMARK  status: ('A' for Active; 'I' for Inactive)
ROOT
ATOM      1  C   UNL d   1       1.923  -1.628   1.236  0.00  0.00     0.020 A 
ATOM      2  C1  UNL d   1       1.989  -0.354   1.799  0.00  0.00     0.020 A 
ATOM      3  C2  UNL d   1       1.015   0.058   2.711  0.00  0.00     0.034 A 
ATOM      4  C3  UNL d   1      -0.029  -0.805   3.063  0.00  0.00     0.017 A 
ATOM      5  C4  UNL d   1      -0.095  -2.084   2.498  0.00  0.00     0.017 A 
ATOM      6  C5  UNL d   1       0.883  -2.491   1.585  0.00  0.00     0.034 A 
ATOM      7 Cl   UNL d   1      -1.353  -3.204   2.883  0.00  0.00    -0.070 Cl
ATOM      8 Cl1  UNL d   1      -1.199  -0.230   4.197  0.00  0.00    -0.070 Cl
ENDROOT
TORSDOF 0
ENDMDL
