MODEL 1
REMARK minimizedAffinity 6.00422668
REMARK minimizedRMSD -1
REMARK  0 active torsions:
REMARK  status: ('A' for Active; 'I' for Inactive)
ROOT
ATOM      1  C   UNL d   1      -2.167   5.311  -3.169  0.00  0.00     0.020 A 
ATOM      2  C1  UNL d   1      -3.257   5.861  -2.495  0.00  0.00     0.020 A 
ATOM      3  C2  UNL d   1      -4.016   5.068  -1.632  0.00  0.00     0.034 A 
ATOM      4  C3  UNL d   1      -3.687   3.721  -1.440  0.00  0.00     0.017 A 
ATOM      5  C4  UNL d   1      -2.593   3.170  -2.117  0.00  0.00     0.017 A 
ATOM      6  C5  UNL d   1      -1.836   3.969  -2.981  0.00  0.00     0.034 A 
ATOM      7 Cl   UNL d   1      -2.125   1.517  -1.932  0.00  0.00    -0.070 Cl
ATOM      8 Cl1  UNL d   1      -4.669   2.800  -0.357  0.00  0.00    -0.070 Cl
ENDROOT
TORSDOF 0
ENDMDL
