MODEL 1
REMARK minimizedAffinity 4.60517883
REMARK minimizedRMSD -1
REMARK  0 active torsions:
REMARK  status: ('A' for Active; 'I' for Inactive)
ROOT
ATOM      1  C   UNL d   1      -1.873  -2.585   6.000  0.00  0.00     0.020 A 
ATOM      2  C1  UNL d   1      -1.951  -3.580   5.026  0.00  0.00     0.020 A 
ATOM      3  C2  UNL d   1      -1.071  -3.566   3.941  0.00  0.00     0.034 A 
ATOM      4  C3  UNL d   1      -0.109  -2.555   3.829  0.00  0.00     0.017 A 
ATOM      5  C4  UNL d   1      -0.031  -1.558   4.807  0.00  0.00     0.017 A 
ATOM      6  C5  UNL d   1      -0.915  -1.577   5.891  0.00  0.00     0.034 A 
ATOM      7 Cl   UNL d   1       1.129  -0.279   4.737  0.00  0.00    -0.070 Cl
ATOM      8 Cl1  UNL d   1       0.947  -2.600   2.462  0.00  0.00    -0.070 Cl
ENDROOT
TORSDOF 0
ENDMDL
