MODEL 1
REMARK minimizedAffinity 16.5390644
REMARK minimizedRMSD -1
REMARK  0 active torsions:
REMARK  status: ('A' for Active; 'I' for Inactive)
ROOT
ATOM      1  C   UNL d   1       3.829  -0.044   1.758  0.00  0.00     0.020 A 
ATOM      2  C1  UNL d   1       3.735   0.723   2.919  0.00  0.00     0.020 A 
ATOM      3  C2  UNL d   1       2.593   0.643   3.718  0.00  0.00     0.034 A 
ATOM      4  C3  UNL d   1       1.539  -0.205   3.357  0.00  0.00     0.017 A 
ATOM      5  C4  UNL d   1       1.634  -0.974   2.192  0.00  0.00     0.017 A 
ATOM      6  C5  UNL d   1       2.781  -0.891   1.396  0.00  0.00     0.034 A 
ATOM      7 Cl   UNL d   1       0.375  -2.043   1.682  0.00  0.00    -0.070 Cl
ATOM      8 Cl1  UNL d   1       0.156  -0.253   4.392  0.00  0.00    -0.070 Cl
ENDROOT
TORSDOF 0
ENDMDL
