MODEL 1
REMARK minimizedAffinity 5.53921413
REMARK minimizedRMSD -1
REMARK  0 active torsions:
REMARK  status: ('A' for Active; 'I' for Inactive)
ROOT
ATOM      1  C   UNL d   1       0.376  -1.829   1.482  0.00  0.00     0.020 A 
ATOM      2  C1  UNL d   1      -0.564  -2.826   1.226  0.00  0.00     0.020 A 
ATOM      3  C2  UNL d   1      -1.560  -3.105   2.165  0.00  0.00     0.034 A 
ATOM      4  C3  UNL d   1      -1.617  -2.385   3.364  0.00  0.00     0.017 A 
ATOM      5  C4  UNL d   1      -0.673  -1.384   3.620  0.00  0.00     0.017 A 
ATOM      6  C5  UNL d   1       0.322  -1.110   2.677  0.00  0.00     0.034 A 
ATOM      7 Cl   UNL d   1      -0.680  -0.454   5.077  0.00  0.00    -0.070 Cl
ATOM      8 Cl1  UNL d   1      -2.876  -2.782   4.480  0.00  0.00    -0.070 Cl
ENDROOT
TORSDOF 0
ENDMDL
