MODEL 1
REMARK minimizedAffinity 13.2532959
REMARK minimizedRMSD -1
REMARK  0 active torsions:
REMARK  status: ('A' for Active; 'I' for Inactive)
ROOT
ATOM      1  C   UNL d   1       3.643  -0.036   1.872  0.00  0.00     0.020 A 
ATOM      2  C1  UNL d   1       3.562   0.740   3.028  0.00  0.00     0.020 A 
ATOM      3  C2  UNL d   1       2.441   0.646   3.854  0.00  0.00     0.034 A 
ATOM      4  C3  UNL d   1       1.395  -0.225   3.526  0.00  0.00     0.017 A 
ATOM      5  C4  UNL d   1       1.477  -1.003   2.366  0.00  0.00     0.017 A 
ATOM      6  C5  UNL d   1       2.602  -0.905   1.542  0.00  0.00     0.034 A 
ATOM      7 Cl   UNL d   1       0.227  -2.100   1.895  0.00  0.00    -0.070 Cl
ATOM      8 Cl1  UNL d   1       0.039  -0.290   4.595  0.00  0.00    -0.070 Cl
ENDROOT
TORSDOF 0
ENDMDL
