MODEL 1
REMARK minimizedAffinity 15.523077
REMARK minimizedRMSD -1
REMARK  0 active torsions:
REMARK  status: ('A' for Active; 'I' for Inactive)
ROOT
ATOM      1  C   UNL d   1      -0.695  -1.960   1.670  0.00  0.00     0.020 A 
ATOM      2  C1  UNL d   1      -1.297  -1.709   2.902  0.00  0.00     0.020 A 
ATOM      3  C2  UNL d   1      -0.576  -1.072   3.915  0.00  0.00     0.034 A 
ATOM      4  C3  UNL d   1       0.751  -0.685   3.697  0.00  0.00     0.017 A 
ATOM      5  C4  UNL d   1       1.354  -0.937   2.459  0.00  0.00     0.017 A 
ATOM      6  C5  UNL d   1       0.627  -1.575   1.449  0.00  0.00     0.034 A 
ATOM      7 Cl   UNL d   1       2.988  -0.489   2.116  0.00  0.00    -0.070 Cl
ATOM      8 Cl1  UNL d   1       1.583   0.098   4.993  0.00  0.00    -0.070 Cl
ENDROOT
TORSDOF 0
ENDMDL
