MODEL 1
REMARK minimizedAffinity 5.5813036
REMARK minimizedRMSD -1
REMARK  0 active torsions:
REMARK  status: ('A' for Active; 'I' for Inactive)
ROOT
ATOM      1  C   UNL d   1       0.108   5.528   0.807  0.00  0.00     0.020 A 
ATOM      2  C1  UNL d   1       1.151   6.000   0.011  0.00  0.00     0.020 A 
ATOM      3  C2  UNL d   1       1.752   5.156  -0.925  0.00  0.00     0.034 A 
ATOM      4  C3  UNL d   1       1.311   3.835  -1.067  0.00  0.00     0.017 A 
ATOM      5  C4  UNL d   1       0.264   3.362  -0.268  0.00  0.00     0.017 A 
ATOM      6  C5  UNL d   1      -0.335   4.212   0.667  0.00  0.00     0.034 A 
ATOM      7 Cl   UNL d   1      -0.336   1.745  -0.387  0.00  0.00    -0.070 Cl
ATOM      8 Cl1  UNL d   1       2.100   2.847  -2.245  0.00  0.00    -0.070 Cl
ENDROOT
TORSDOF 0
ENDMDL
