MODEL 1
REMARK minimizedAffinity 10.4561996
REMARK minimizedRMSD -1
REMARK  0 active torsions:
REMARK  status: ('A' for Active; 'I' for Inactive)
ROOT
ATOM      1  C   UNL d   1      -1.948  -3.291   2.752  0.00  0.00     0.020 A 
ATOM      2  C1  UNL d   1      -1.237  -3.285   1.553  0.00  0.00     0.020 A 
ATOM      3  C2  UNL d   1      -0.175  -2.395   1.376  0.00  0.00     0.034 A 
ATOM      4  C3  UNL d   1       0.178  -1.508   2.399  0.00  0.00     0.017 A 
ATOM      5  C4  UNL d   1      -0.536  -1.516   3.603  0.00  0.00     0.017 A 
ATOM      6  C5  UNL d   1      -1.598  -2.409   3.775  0.00  0.00     0.034 A 
ATOM      7 Cl   UNL d   1      -0.159  -0.451   4.911  0.00  0.00    -0.070 Cl
ATOM      8 Cl1  UNL d   1       1.502  -0.436   2.112  0.00  0.00    -0.070 Cl
ENDROOT
TORSDOF 0
ENDMDL
