MODEL 1
REMARK minimizedAffinity 6.02826452
REMARK minimizedRMSD -1
REMARK  0 active torsions:
REMARK  status: ('A' for Active; 'I' for Inactive)
ROOT
ATOM      1  C   UNL d   1      -0.080   2.213  -0.176  0.00  0.00     0.020 A 
ATOM      2  C1  UNL d   1       0.381   2.213  -1.492  0.00  0.00     0.020 A 
ATOM      3  C2  UNL d   1       0.861   3.393  -2.063  0.00  0.00     0.034 A 
ATOM      4  C3  UNL d   1       0.882   4.578  -1.319  0.00  0.00     0.017 A 
ATOM      5  C4  UNL d   1       0.419   4.577   0.002  0.00  0.00     0.017 A 
ATOM      6  C5  UNL d   1      -0.060   3.392   0.569  0.00  0.00     0.034 A 
ATOM      7 Cl   UNL d   1       0.414   6.000   0.983  0.00  0.00    -0.070 Cl
ATOM      8 Cl1  UNL d   1       1.490   6.000  -2.090  0.00  0.00    -0.070 Cl
ENDROOT
TORSDOF 0
ENDMDL
