MODEL 1
REMARK minimizedAffinity 9.22396851
REMARK minimizedRMSD -1
REMARK  0 active torsions:
REMARK  status: ('A' for Active; 'I' for Inactive)
ROOT
ATOM      1  C   UNL d   1       0.385  -0.452   2.744  0.00  0.00     0.020 A 
ATOM      2  C1  UNL d   1       1.760  -0.682   2.752  0.00  0.00     0.020 A 
ATOM      3  C2  UNL d   1       2.303  -1.696   1.961  0.00  0.00     0.034 A 
ATOM      4  C3  UNL d   1       1.470  -2.485   1.158  0.00  0.00     0.017 A 
ATOM      5  C4  UNL d   1       0.090  -2.254   1.151  0.00  0.00     0.017 A 
ATOM      6  C5  UNL d   1      -0.448  -1.237   1.945  0.00  0.00     0.034 A 
ATOM      7 Cl   UNL d   1      -1.001  -3.185   0.187  0.00  0.00    -0.070 Cl
ATOM      8 Cl1  UNL d   1       2.210  -3.721   0.205  0.00  0.00    -0.070 Cl
ENDROOT
TORSDOF 0
ENDMDL
