MODEL 1
REMARK minimizedAffinity 7.52385902
REMARK minimizedRMSD -1
REMARK  0 active torsions:
REMARK  status: ('A' for Active; 'I' for Inactive)
ROOT
ATOM      1  C   UNL d   1       1.752   5.944   0.003  0.00  0.00     0.020 A 
ATOM      2  C1  UNL d   1       1.740   6.000  -1.390  0.00  0.00     0.020 A 
ATOM      3  C2  UNL d   1       1.065   5.020  -2.122  0.00  0.00     0.034 A 
ATOM      4  C3  UNL d   1       0.399   3.981  -1.461  0.00  0.00     0.017 A 
ATOM      5  C4  UNL d   1       0.412   3.927  -0.062  0.00  0.00     0.017 A 
ATOM      6  C5  UNL d   1       1.090   4.910   0.666  0.00  0.00     0.034 A 
ATOM      7 Cl   UNL d   1      -0.386   2.676   0.824  0.00  0.00    -0.070 Cl
ATOM      8 Cl1  UNL d   1      -0.415   2.805  -2.429  0.00  0.00    -0.070 Cl
ENDROOT
TORSDOF 0
ENDMDL
