MODEL 1
REMARK minimizedAffinity -1.79129112
REMARK minimizedRMSD -1
REMARK  0 active torsions:
REMARK  status: ('A' for Active; 'I' for Inactive)
ROOT
ATOM      1  C   UNL d   1       1.915   1.271   1.043  0.00  0.00     0.124 A 
ATOM      2  C1  UNL d   1       0.630   1.775   0.902  0.00  0.00     0.062 A 
ATOM      3  C2  UNL d   1      -0.325   1.067   0.177  0.00  0.00     0.162 A 
ATOM      4  C3  UNL d   1       0.003  -0.154  -0.412  0.00  0.00    -0.034 A 
ATOM      5  C4  UNL d   1       1.298  -0.655  -0.266  0.00  0.00     0.162 A 
ATOM      6  C5  UNL d   1       2.248   0.057   0.459  0.00  0.00     0.062 A 
ATOM      7  F   UNL d   1       3.489  -0.432   0.594  0.00  0.00    -0.097 F 
ATOM      8  F1  UNL d   1       1.646  -1.826  -0.819  0.00  0.00    -0.096 F 
ATOM      9  I   UNL d   1      -1.422  -1.216  -1.496  0.00  0.00    -0.060 I 
ATOM     10  F2  UNL d   1      -1.559   1.579   0.057  0.00  0.00    -0.096 F 
ATOM     11  F3  UNL d   1       0.306   2.949   1.465  0.00  0.00    -0.097 F 
ATOM     12  F4  UNL d   1       2.832   1.955   1.740  0.00  0.00    -0.092 F 
ENDROOT
TORSDOF 0
ENDMDL
