MODEL 1
REMARK minimizedAffinity -3.24875832
REMARK minimizedRMSD -1
REMARK  0 active torsions:
REMARK  status: ('A' for Active; 'I' for Inactive)
ROOT
ATOM      1  C   UNL d   1       3.109  -0.063   1.127  0.00  0.00     0.124 A 
ATOM      2  C1  UNL d   1       2.448  -1.277   0.996  0.00  0.00     0.062 A 
ATOM      3  C2  UNL d   1       1.102  -1.307   0.644  0.00  0.00     0.162 A 
ATOM      4  C3  UNL d   1       0.407  -0.118   0.421  0.00  0.00    -0.034 A 
ATOM      5  C4  UNL d   1       1.078   1.099   0.556  0.00  0.00     0.162 A 
ATOM      6  C5  UNL d   1       2.423   1.123   0.907  0.00  0.00     0.062 A 
ATOM      7  F   UNL d   1       3.060   2.296   1.034  0.00  0.00    -0.097 F 
ATOM      8  F1  UNL d   1       0.439   2.260   0.348  0.00  0.00    -0.096 F 
ATOM      9  I   UNL d   1      -1.607  -0.158  -0.105  0.00  0.00    -0.060 I 
ATOM     10  F2  UNL d   1       0.489  -2.494   0.525  0.00  0.00    -0.096 F 
ATOM     11  F3  UNL d   1       3.108  -2.424   1.209  0.00  0.00    -0.097 F 
ATOM     12  F4  UNL d   1       4.404  -0.038   1.467  0.00  0.00    -0.092 F 
ENDROOT
TORSDOF 0
ENDMDL
