MODEL 1
REMARK minimizedAffinity 2.09184313
REMARK minimizedRMSD -1
REMARK  0 active torsions:
REMARK  status: ('A' for Active; 'I' for Inactive)
ROOT
ATOM      1  C   UNL d   1       2.268   1.391   0.498  0.00  0.00     0.124 A 
ATOM      2  C1  UNL d   1       2.488   0.021   0.446  0.00  0.00     0.062 A 
ATOM      3  C2  UNL d   1       1.412  -0.857   0.346  0.00  0.00     0.162 A 
ATOM      4  C3  UNL d   1       0.107  -0.367   0.296  0.00  0.00    -0.034 A 
ATOM      5  C4  UNL d   1      -0.106   1.011   0.350  0.00  0.00     0.162 A 
ATOM      6  C5  UNL d   1       0.972   1.884   0.450  0.00  0.00     0.062 A 
ATOM      7  F   UNL d   1       0.759   3.207   0.501  0.00  0.00    -0.097 F 
ATOM      8  F1  UNL d   1      -1.348   1.516   0.305  0.00  0.00    -0.096 F 
ATOM      9  I   UNL d   1      -1.504  -1.676   0.146  0.00  0.00    -0.060 I 
ATOM     10  F2  UNL d   1       1.653  -2.175   0.297  0.00  0.00    -0.096 F 
ATOM     11  F3  UNL d   1       3.739  -0.459   0.493  0.00  0.00    -0.097 F 
ATOM     12  F4  UNL d   1       3.305   2.233   0.596  0.00  0.00    -0.092 F 
ENDROOT
TORSDOF 0
ENDMDL
