MODEL 1
REMARK minimizedAffinity 0.39087227
REMARK minimizedRMSD -1
REMARK  0 active torsions:
REMARK  status: ('A' for Active; 'I' for Inactive)
ROOT
ATOM      1  C   UNL d   1       2.186   0.553   1.338  0.00  0.00     0.124 A 
ATOM      2  C1  UNL d   1       2.088  -0.499   0.438  0.00  0.00     0.062 A 
ATOM      3  C2  UNL d   1       0.936  -0.660  -0.328  0.00  0.00     0.162 A 
ATOM      4  C3  UNL d   1      -0.126   0.235  -0.197  0.00  0.00    -0.034 A 
ATOM      5  C4  UNL d   1      -0.020   1.290   0.711  0.00  0.00     0.162 A 
ATOM      6  C5  UNL d   1       1.133   1.446   1.474  0.00  0.00     0.062 A 
ATOM      7  F   UNL d   1       1.227   2.463   2.343  0.00  0.00    -0.097 F 
ATOM      8  F1  UNL d   1      -1.022   2.168   0.862  0.00  0.00    -0.096 F 
ATOM      9  I   UNL d   1      -1.849  -0.002  -1.340  0.00  0.00    -0.060 I 
ATOM     10  F2  UNL d   1       0.868  -1.685  -1.190  0.00  0.00    -0.096 F 
ATOM     11  F3  UNL d   1       3.104  -1.364   0.305  0.00  0.00    -0.097 F 
ATOM     12  F4  UNL d   1       3.295   0.704   2.074  0.00  0.00    -0.092 F 
ENDROOT
TORSDOF 0
ENDMDL
