MODEL 1
REMARK minimizedAffinity -1.50864518
REMARK minimizedRMSD -1
REMARK  0 active torsions:
REMARK  status: ('A' for Active; 'I' for Inactive)
ROOT
ATOM      1  C   UNL d   1      -0.697   0.639   0.171  0.00  0.00     0.124 A 
ATOM      2  C1  UNL d   1      -0.431  -0.720   0.080  0.00  0.00     0.062 A 
ATOM      3  C2  UNL d   1       0.869  -1.190   0.242  0.00  0.00     0.162 A 
ATOM      4  C3  UNL d   1       1.913  -0.301   0.496  0.00  0.00    -0.034 A 
ATOM      5  C4  UNL d   1       1.637   1.065   0.585  0.00  0.00     0.162 A 
ATOM      6  C5  UNL d   1       0.337   1.530   0.423  0.00  0.00     0.062 A 
ATOM      7  F   UNL d   1       0.081   2.844   0.510  0.00  0.00    -0.097 F 
ATOM      8  F1  UNL d   1       2.618   1.947   0.828  0.00  0.00    -0.096 F 
ATOM      9  I   UNL d   1       3.858  -1.001   0.738  0.00  0.00    -0.060 I 
ATOM     10  F2  UNL d   1       1.097  -2.509   0.149  0.00  0.00    -0.096 F 
ATOM     11  F3  UNL d   1      -1.428  -1.582  -0.164  0.00  0.00    -0.097 F 
ATOM     12  F4  UNL d   1      -1.949   1.090   0.014  0.00  0.00    -0.092 F 
ENDROOT
TORSDOF 0
ENDMDL
