MODEL 1
REMARK minimizedAffinity -5.57930422
REMARK minimizedRMSD -1
REMARK  0 active torsions:
REMARK  status: ('A' for Active; 'I' for Inactive)
ROOT
ATOM      1  C   UNL d   1       2.679  -0.607   1.400  0.00  0.00     0.124 A 
ATOM      2  C1  UNL d   1       1.823  -1.699   1.412  0.00  0.00     0.062 A 
ATOM      3  C2  UNL d   1       0.493  -1.550   1.028  0.00  0.00     0.162 A 
ATOM      4  C3  UNL d   1       0.012  -0.304   0.627  0.00  0.00    -0.034 A 
ATOM      5  C4  UNL d   1       0.879   0.790   0.618  0.00  0.00     0.162 A 
ATOM      6  C5  UNL d   1       2.207   0.636   1.003  0.00  0.00     0.062 A 
ATOM      7  F   UNL d   1       3.033   1.692   0.990  0.00  0.00    -0.097 F 
ATOM      8  F1  UNL d   1       0.449   2.003   0.238  0.00  0.00    -0.096 F 
ATOM      9  I   UNL d   1      -1.976  -0.077   0.053  0.00  0.00    -0.060 I 
ATOM     10  F2  UNL d   1      -0.312  -2.622   1.050  0.00  0.00    -0.096 F 
ATOM     11  F3  UNL d   1       2.276  -2.901   1.796  0.00  0.00    -0.097 F 
ATOM     12  F4  UNL d   1       3.958  -0.753   1.770  0.00  0.00    -0.092 F 
ENDROOT
TORSDOF 0
ENDMDL
