MODEL 1
REMARK minimizedAffinity -4.84640026
REMARK minimizedRMSD -1
REMARK  0 active torsions:
REMARK  status: ('A' for Active; 'I' for Inactive)
ROOT
ATOM      1  C   UNL d   1       2.181  -1.669   1.764  0.00  0.00     0.124 A 
ATOM      2  C1  UNL d   1       2.935  -0.509   1.652  0.00  0.00     0.062 A 
ATOM      3  C2  UNL d   1       2.402   0.615   1.028  0.00  0.00     0.162 A 
ATOM      4  C3  UNL d   1       1.106   0.586   0.513  0.00  0.00    -0.034 A 
ATOM      5  C4  UNL d   1       0.354  -0.584   0.629  0.00  0.00     0.162 A 
ATOM      6  C5  UNL d   1       0.891  -1.705   1.253  0.00  0.00     0.062 A 
ATOM      7  F   UNL d   1       0.160  -2.824   1.361  0.00  0.00    -0.097 F 
ATOM      8  F1  UNL d   1      -0.896  -0.646   0.145  0.00  0.00    -0.096 F 
ATOM      9  I   UNL d   1       0.305   2.265  -0.421  0.00  0.00    -0.060 I 
ATOM     10  F2  UNL d   1       3.154   1.722   0.933  0.00  0.00    -0.096 F 
ATOM     11  F3  UNL d   1       4.182  -0.472   2.144  0.00  0.00    -0.097 F 
ATOM     12  F4  UNL d   1       2.696  -2.749   2.364  0.00  0.00    -0.092 F 
ENDROOT
TORSDOF 0
ENDMDL
