MODEL 1
REMARK minimizedAffinity -0.127676338
REMARK minimizedRMSD -1
REMARK  0 active torsions:
REMARK  status: ('A' for Active; 'I' for Inactive)
ROOT
ATOM      1  C   UNL d   1       1.549   0.503   1.317  0.00  0.00     0.124 A 
ATOM      2  C1  UNL d   1       1.171  -0.646   0.635  0.00  0.00     0.062 A 
ATOM      3  C2  UNL d   1       0.020  -0.649  -0.147  0.00  0.00     0.162 A 
ATOM      4  C3  UNL d   1      -0.762   0.501  -0.252  0.00  0.00    -0.034 A 
ATOM      5  C4  UNL d   1      -0.376   1.652   0.437  0.00  0.00     0.162 A 
ATOM      6  C5  UNL d   1       0.776   1.650   1.217  0.00  0.00     0.062 A 
ATOM      7  F   UNL d   1       1.139   2.761   1.875  0.00  0.00    -0.097 F 
ATOM      8  F1  UNL d   1      -1.105   2.776   0.358  0.00  0.00    -0.096 F 
ATOM      9  I   UNL d   1      -2.485   0.501  -1.420  0.00  0.00    -0.060 I 
ATOM     10  F2  UNL d   1      -0.322  -1.773  -0.794  0.00  0.00    -0.096 F 
ATOM     11  F3  UNL d   1       1.917  -1.756   0.730  0.00  0.00    -0.097 F 
ATOM     12  F4  UNL d   1       2.657   0.502   2.069  0.00  0.00    -0.092 F 
ENDROOT
TORSDOF 0
ENDMDL
