MODEL 1
REMARK minimizedAffinity -1.13215661
REMARK minimizedRMSD -1
REMARK  0 active torsions:
REMARK  status: ('A' for Active; 'I' for Inactive)
ROOT
ATOM      1  C   UNL d   1       2.179  -1.152   0.354  0.00  0.00     0.124 A 
ATOM      2  C1  UNL d   1       0.898  -1.554   0.708  0.00  0.00     0.062 A 
ATOM      3  C2  UNL d   1      -0.206  -0.806   0.310  0.00  0.00     0.162 A 
ATOM      4  C3  UNL d   1      -0.035   0.352  -0.447  0.00  0.00    -0.034 A 
ATOM      5  C4  UNL d   1       1.256   0.752  -0.799  0.00  0.00     0.162 A 
ATOM      6  C5  UNL d   1       2.356   0.000  -0.398  0.00  0.00     0.062 A 
ATOM      7  F   UNL d   1       3.592   0.391  -0.741  0.00  0.00    -0.097 F 
ATOM      8  F1  UNL d   1       1.456   1.860  -1.526  0.00  0.00    -0.096 F 
ATOM      9  I   UNL d   1      -1.683   1.474  -1.045  0.00  0.00    -0.060 I 
ATOM     10  F2  UNL d   1      -1.431  -1.219   0.666  0.00  0.00    -0.096 F 
ATOM     11  F3  UNL d   1       0.724  -2.667   1.436  0.00  0.00    -0.097 F 
ATOM     12  F4  UNL d   1       3.239  -1.873   0.739  0.00  0.00    -0.092 F 
ENDROOT
TORSDOF 0
ENDMDL
