MODEL 1
REMARK minimizedAffinity -4.85314274
REMARK minimizedRMSD -1
REMARK  0 active torsions:
REMARK  status: ('A' for Active; 'I' for Inactive)
ROOT
ATOM      1  C   UNL d   1       2.783   0.497   0.686  0.00  0.00     0.124 A 
ATOM      2  C1  UNL d   1       1.743   1.398   0.512  0.00  0.00     0.062 A 
ATOM      3  C2  UNL d   1       0.435   0.940   0.376  0.00  0.00     0.162 A 
ATOM      4  C3  UNL d   1       0.161  -0.427   0.415  0.00  0.00    -0.034 A 
ATOM      5  C4  UNL d   1       1.213  -1.327   0.590  0.00  0.00     0.162 A 
ATOM      6  C5  UNL d   1       2.518  -0.865   0.725  0.00  0.00     0.062 A 
ATOM      7  F   UNL d   1       3.522  -1.737   0.894  0.00  0.00    -0.097 F 
ATOM      8  F1  UNL d   1       0.984  -2.648   0.633  0.00  0.00    -0.096 F 
ATOM      9  I   UNL d   1      -1.793  -1.115   0.213  0.00  0.00    -0.060 I 
ATOM     10  F2  UNL d   1      -0.551   1.834   0.209  0.00  0.00    -0.096 F 
ATOM     11  F3  UNL d   1       1.997   2.714   0.473  0.00  0.00    -0.097 F 
ATOM     12  F4  UNL d   1       4.041   0.940   0.815  0.00  0.00    -0.092 F 
ENDROOT
TORSDOF 0
ENDMDL
