MODEL 1
REMARK minimizedAffinity -5.75056219
REMARK minimizedRMSD -1
REMARK  0 active torsions:
REMARK  status: ('A' for Active; 'I' for Inactive)
ROOT
ATOM      1  C   UNL d   1       2.802  -0.263   1.421  0.00  0.00     0.124 A 
ATOM      2  C1  UNL d   1       1.982  -1.382   1.379  0.00  0.00     0.062 A 
ATOM      3  C2  UNL d   1       0.735  -1.313   0.764  0.00  0.00     0.162 A 
ATOM      4  C3  UNL d   1       0.301  -0.120   0.184  0.00  0.00    -0.034 A 
ATOM      5  C4  UNL d   1       1.131   1.001   0.231  0.00  0.00     0.162 A 
ATOM      6  C5  UNL d   1       2.376   0.927   0.847  0.00  0.00     0.062 A 
ATOM      7  F   UNL d   1       3.168   2.009   0.887  0.00  0.00    -0.097 F 
ATOM      8  F1  UNL d   1       0.745   2.163  -0.316  0.00  0.00    -0.096 F 
ATOM      9  I   UNL d   1      -1.563  -0.013  -0.736  0.00  0.00    -0.060 I 
ATOM     10  F2  UNL d   1      -0.037  -2.409   0.738  0.00  0.00    -0.096 F 
ATOM     11  F3  UNL d   1       2.390  -2.532   1.933  0.00  0.00    -0.097 F 
ATOM     12  F4  UNL d   1       4.001  -0.332   2.014  0.00  0.00    -0.092 F 
ENDROOT
TORSDOF 0
ENDMDL
