MODEL 1
REMARK minimizedAffinity 5.09501505
REMARK minimizedRMSD -1
REMARK  0 active torsions:
REMARK  status: ('A' for Active; 'I' for Inactive)
ROOT
ATOM      1  C   UNL d   1       1.711   2.059   0.613  0.00  0.00     0.124 A 
ATOM      2  C1  UNL d   1       2.032   1.269   1.708  0.00  0.00     0.062 A 
ATOM      3  C2  UNL d   1       1.400   0.043   1.895  0.00  0.00     0.162 A 
ATOM      4  C3  UNL d   1       0.442  -0.402   0.984  0.00  0.00    -0.034 A 
ATOM      5  C4  UNL d   1       0.124   0.399  -0.114  0.00  0.00     0.162 A 
ATOM      6  C5  UNL d   1       0.758   1.624  -0.297  0.00  0.00     0.062 A 
ATOM      7  F   UNL d   1       0.447   2.386  -1.356  0.00  0.00    -0.097 F 
ATOM      8  F1  UNL d   1      -0.793   0.002  -1.009  0.00  0.00    -0.096 F 
ATOM      9  I   UNL d   1      -0.505  -2.234   1.261  0.00  0.00    -0.060 I 
ATOM     10  F2  UNL d   1       1.729  -0.700   2.963  0.00  0.00    -0.096 F 
ATOM     11  F3  UNL d   1       2.951   1.688   2.589  0.00  0.00    -0.097 F 
ATOM     12  F4  UNL d   1       2.320   3.239   0.436  0.00  0.00    -0.092 F 
ENDROOT
TORSDOF 0
ENDMDL
