MODEL 1
REMARK minimizedAffinity 2.84075284
REMARK minimizedRMSD -1
REMARK  1 active torsions:
REMARK  status: ('A' for Active; 'I' for Inactive)
REMARK    1  A    between atoms: N_2  and  C1_3 
ROOT
ATOM      1  C1  UNL d   1       4.031   2.170  -4.762  0.00  0.00     0.143 A 
ATOM      2  C2  UNL d   1       5.367   1.843  -4.508  0.00  0.00    -0.057 A 
ATOM      3  C3  UNL d   1       6.000   2.241  -3.325  0.00  0.00     0.033 A 
ATOM      4  C4  UNL d   1       5.313   3.001  -2.383  0.00  0.00    -0.042 A 
ATOM      5  C5  UNL d   1       3.992   3.359  -2.626  0.00  0.00     0.033 A 
ATOM      6  C6  UNL d   1       3.363   2.953  -3.807  0.00  0.00    -0.057 A 
ENDROOT
BRANCH   1   7
ATOM      7  N   UNL d   1       3.376   1.888  -5.963  0.00  0.00    -0.732 N 
ATOM      8  C   UNL d   1       2.260   0.967  -5.996  0.00  0.00     0.284 C 
ATOM      9  H3  UNL d   1       3.247   2.717  -6.540  0.00  0.00     0.395 HD
ENDBRANCH   1   7
TORSDOF 1
ENDMDL
