MODEL 1
REMARK minimizedAffinity 0.0627104044
REMARK minimizedRMSD -1
REMARK  1 active torsions:
REMARK  status: ('A' for Active; 'I' for Inactive)
REMARK    1  A    between atoms: N_2  and  C1_3 
ROOT
ATOM      1  C1  UNL d   1      -0.802   3.556  -5.972  0.00  0.00     0.143 A 
ATOM      2  C2  UNL d   1      -2.201   3.539  -5.942  0.00  0.00    -0.057 A 
ATOM      3  C3  UNL d   1      -2.943   4.726  -5.968  0.00  0.00     0.033 A 
ATOM      4  C4  UNL d   1      -2.296   5.957  -5.995  0.00  0.00    -0.042 A 
ATOM      5  C5  UNL d   1      -0.906   5.999  -6.000  0.00  0.00     0.033 A 
ATOM      6  C6  UNL d   1      -0.171   4.810  -5.981  0.00  0.00    -0.057 A 
ENDROOT
BRANCH   1   7
ATOM      7  N   UNL d   1      -0.007   2.414  -5.849  0.00  0.00    -0.732 N 
ATOM      8  C   UNL d   1       1.430   2.497  -5.998  0.00  0.00     0.284 C 
ATOM      9  H3  UNL d   1      -0.312   1.809  -5.091  0.00  0.00     0.395 HD
ENDBRANCH   1   7
TORSDOF 1
ENDMDL
