MODEL 1
REMARK minimizedAffinity -2.29615378
REMARK minimizedRMSD -1
REMARK  1 active torsions:
REMARK  status: ('A' for Active; 'I' for Inactive)
REMARK    1  A    between atoms: N_2  and  C1_3 
ROOT
ATOM      1  C1  UNL d   1      -0.654   4.982  -5.999  0.00  0.00     0.143 A 
ATOM      2  C2  UNL d   1       0.725   5.214  -5.979  0.00  0.00    -0.057 A 
ATOM      3  C3  UNL d   1       1.640   4.155  -5.992  0.00  0.00     0.033 A 
ATOM      4  C4  UNL d   1       1.190   2.839  -5.996  0.00  0.00    -0.042 A 
ATOM      5  C5  UNL d   1      -0.177   2.584  -5.991  0.00  0.00     0.033 A 
ATOM      6  C6  UNL d   1      -1.086   3.647  -5.985  0.00  0.00    -0.057 A 
ENDROOT
BRANCH   1   7
ATOM      7  N   UNL d   1      -1.614   5.991  -5.888  0.00  0.00    -0.732 N 
ATOM      8  C   UNL d   1      -3.024   5.666  -5.856  0.00  0.00     0.284 C 
ATOM      9  H3  UNL d   1      -1.340   6.717  -5.230  0.00  0.00     0.395 HD
ENDBRANCH   1   7
TORSDOF 1
ENDMDL
