MODEL 1
REMARK minimizedAffinity -1.34967148
REMARK minimizedRMSD -1
REMARK  1 active torsions:
REMARK  status: ('A' for Active; 'I' for Inactive)
REMARK    1  A    between atoms: N_2  and  C1_3 
ROOT
ATOM      1  C1  UNL d   1      -1.833   3.617  -6.000  0.00  0.00     0.143 A 
ATOM      2  C2  UNL d   1      -3.197   3.336  -5.859  0.00  0.00    -0.057 A 
ATOM      3  C3  UNL d   1      -4.144   4.363  -5.766  0.00  0.00     0.033 A 
ATOM      4  C4  UNL d   1      -3.740   5.694  -5.783  0.00  0.00    -0.042 A 
ATOM      5  C5  UNL d   1      -2.388   5.996  -5.897  0.00  0.00     0.033 A 
ATOM      6  C6  UNL d   1      -1.447   4.967  -5.996  0.00  0.00    -0.057 A 
ENDROOT
BRANCH   1   7
ATOM      7  N   UNL d   1      -0.834   2.641  -5.998  0.00  0.00    -0.732 N 
ATOM      8  C   UNL d   1       0.564   3.017  -5.999  0.00  0.00     0.284 C 
ATOM      9  H3  UNL d   1      -1.054   1.861  -5.384  0.00  0.00     0.395 HD
ENDBRANCH   1   7
TORSDOF 1
ENDMDL
