MODEL 1
REMARK minimizedAffinity -2.46374035
REMARK minimizedRMSD -1
REMARK  1 active torsions:
REMARK  status: ('A' for Active; 'I' for Inactive)
REMARK    1  A    between atoms: N_2  and  C1_3 
ROOT
ATOM      1  C1  UNL d   1      -3.038   4.732  -5.922  0.00  0.00     0.143 A 
ATOM      2  C2  UNL d   1      -2.694   3.376  -5.957  0.00  0.00    -0.057 A 
ATOM      3  C3  UNL d   1      -1.355   2.967  -5.977  0.00  0.00     0.033 A 
ATOM      4  C4  UNL d   1      -0.333   3.910  -5.993  0.00  0.00    -0.042 A 
ATOM      5  C5  UNL d   1      -0.652   5.263  -5.984  0.00  0.00     0.033 A 
ATOM      6  C6  UNL d   1      -1.990   5.666  -5.956  0.00  0.00    -0.057 A 
ENDROOT
BRANCH   1   7
ATOM      7  N   UNL d   1      -4.350   5.204  -5.999  0.00  0.00    -0.732 N 
ATOM      8  C   UNL d   1      -5.467   4.285  -5.962  0.00  0.00     0.284 C 
ATOM      9  H3  UNL d   1      -4.491   6.052  -5.455  0.00  0.00     0.395 HD
ENDBRANCH   1   7
TORSDOF 1
ENDMDL
