MODEL 1
REMARK minimizedAffinity -1.22821355
REMARK minimizedRMSD -1
REMARK  1 active torsions:
REMARK  status: ('A' for Active; 'I' for Inactive)
REMARK    1  A    between atoms: N_2  and  C1_3 
ROOT
ATOM      1  C1  UNL d   1      -1.718   4.354  -5.999  0.00  0.00     0.143 A 
ATOM      2  C2  UNL d   1      -0.652   5.259  -5.973  0.00  0.00    -0.057 A 
ATOM      3  C3  UNL d   1       0.676   4.817  -5.987  0.00  0.00     0.033 A 
ATOM      4  C4  UNL d   1       0.963   3.456  -5.998  0.00  0.00    -0.042 A 
ATOM      5  C5  UNL d   1      -0.081   2.537  -5.999  0.00  0.00     0.033 A 
ATOM      6  C6  UNL d   1      -1.406   2.985  -5.991  0.00  0.00    -0.057 A 
ENDROOT
BRANCH   1   7
ATOM      7  N   UNL d   1      -3.060   4.728  -5.887  0.00  0.00    -0.732 N 
ATOM      8  C   UNL d   1      -4.110   3.734  -5.948  0.00  0.00     0.284 C 
ATOM      9  H3  UNL d   1      -3.205   5.444  -5.179  0.00  0.00     0.395 HD
ENDBRANCH   1   7
TORSDOF 1
ENDMDL
