MODEL 1
REMARK minimizedAffinity -2.61419487
REMARK minimizedRMSD -1
REMARK  1 active torsions:
REMARK  status: ('A' for Active; 'I' for Inactive)
REMARK    1  A    between atoms: N_2  and  C1_3 
ROOT
ATOM      1  C1  UNL d   1      -1.616   3.553  -5.991  0.00  0.00     0.143 A 
ATOM      2  C2  UNL d   1      -1.268   4.908  -5.978  0.00  0.00    -0.057 A 
ATOM      3  C3  UNL d   1       0.072   5.313  -5.996  0.00  0.00     0.033 A 
ATOM      4  C4  UNL d   1       1.092   4.367  -5.999  0.00  0.00    -0.042 A 
ATOM      5  C5  UNL d   1       0.770   3.015  -5.988  0.00  0.00     0.033 A 
ATOM      6  C6  UNL d   1      -0.570   2.616  -5.976  0.00  0.00    -0.057 A 
ENDROOT
BRANCH   1   7
ATOM      7  N   UNL d   1      -2.927   3.085  -5.874  0.00  0.00    -0.732 N 
ATOM      8  C   UNL d   1      -4.047   3.993  -6.000  0.00  0.00     0.284 C 
ATOM      9  H3  UNL d   1      -3.063   2.190  -6.338  0.00  0.00     0.395 HD
ENDBRANCH   1   7
TORSDOF 1
ENDMDL
