MODEL 1
REMARK minimizedAffinity 0.707098961
REMARK minimizedRMSD -1
REMARK  1 active torsions:
REMARK  status: ('A' for Active; 'I' for Inactive)
REMARK    1  A    between atoms: N_2  and  C1_3 
ROOT
ATOM      1  C1  UNL d   1      -1.927   4.946  -5.846  0.00  0.00     0.143 A 
ATOM      2  C2  UNL d   1      -2.840   5.999  -5.976  0.00  0.00    -0.057 A 
ATOM      3  C3  UNL d   1      -4.220   5.765  -5.999  0.00  0.00     0.033 A 
ATOM      4  C4  UNL d   1      -4.713   4.466  -5.923  0.00  0.00    -0.042 A 
ATOM      5  C5  UNL d   1      -3.823   3.402  -5.819  0.00  0.00     0.033 A 
ATOM      6  C6  UNL d   1      -2.446   3.643  -5.789  0.00  0.00    -0.057 A 
ENDROOT
BRANCH   1   7
ATOM      7  N   UNL d   1      -0.541   5.105  -5.916  0.00  0.00    -0.732 N 
ATOM      8  C   UNL d   1       0.330   3.953  -5.999  0.00  0.00     0.284 C 
ATOM      9  H3  UNL d   1      -0.269   5.877  -6.520  0.00  0.00     0.395 HD
ENDBRANCH   1   7
TORSDOF 1
ENDMDL
