MODEL 1
REMARK minimizedAffinity 0.650493681
REMARK minimizedRMSD -1
REMARK  1 active torsions:
REMARK  status: ('A' for Active; 'I' for Inactive)
REMARK    1  A    between atoms: N_2  and  C1_3 
ROOT
ATOM      1  C1  UNL d   1      -0.401   4.184  -5.920  0.00  0.00     0.143 A 
ATOM      2  C2  UNL d   1      -0.944   5.472  -5.980  0.00  0.00    -0.057 A 
ATOM      3  C3  UNL d   1      -2.330   5.675  -5.998  0.00  0.00     0.033 A 
ATOM      4  C4  UNL d   1      -3.198   4.589  -5.986  0.00  0.00    -0.042 A 
ATOM      5  C5  UNL d   1      -2.680   3.299  -5.952  0.00  0.00     0.033 A 
ATOM      6  C6  UNL d   1      -1.296   3.103  -5.928  0.00  0.00    -0.057 A 
ENDROOT
BRANCH   1   7
ATOM      7  N   UNL d   1       0.967   3.913  -6.000  0.00  0.00    -0.732 N 
ATOM      8  C   UNL d   1       1.934   4.990  -6.000  0.00  0.00     0.284 C 
ATOM      9  H3  UNL d   1       1.238   3.112  -5.434  0.00  0.00     0.395 HD
ENDBRANCH   1   7
TORSDOF 1
ENDMDL
