MODEL 1
REMARK minimizedAffinity 2.42483974
REMARK minimizedRMSD -1
REMARK  1 active torsions:
REMARK  status: ('A' for Active; 'I' for Inactive)
REMARK    1  A    between atoms: N_2  and  C1_3 
ROOT
ATOM      1  C1  UNL d   1      -0.819   3.209  -5.925  0.00  0.00     0.143 A 
ATOM      2  C2  UNL d   1      -0.426   4.551  -5.964  0.00  0.00    -0.057 A 
ATOM      3  C3  UNL d   1      -1.371   5.584  -5.986  0.00  0.00     0.033 A 
ATOM      4  C4  UNL d   1      -2.731   5.290  -6.000  0.00  0.00    -0.042 A 
ATOM      5  C5  UNL d   1      -3.144   3.963  -5.987  0.00  0.00     0.033 A 
ATOM      6  C6  UNL d   1      -2.196   2.936  -5.957  0.00  0.00    -0.057 A 
ENDROOT
BRANCH   1   7
ATOM      7  N   UNL d   1       0.071   2.135  -6.000  0.00  0.00    -0.732 N 
ATOM      8  C   UNL d   1       1.501   2.361  -5.999  0.00  0.00     0.284 C 
ATOM      9  H3  UNL d   1      -0.225   1.344  -5.432  0.00  0.00     0.395 HD
ENDBRANCH   1   7
TORSDOF 1
ENDMDL
