MODEL 1
REMARK minimizedAffinity -2.62457895
REMARK minimizedRMSD -1
REMARK  1 active torsions:
REMARK  status: ('A' for Active; 'I' for Inactive)
REMARK    1  A    between atoms: N_2  and  C1_3 
ROOT
ATOM      1  C1  UNL d   1      -2.753   4.140  -5.907  0.00  0.00     0.143 A 
ATOM      2  C2  UNL d   1      -2.317   2.811  -5.932  0.00  0.00    -0.057 A 
ATOM      3  C3  UNL d   1      -0.954   2.494  -5.962  0.00  0.00     0.033 A 
ATOM      4  C4  UNL d   1       0.000   3.505  -5.998  0.00  0.00    -0.042 A 
ATOM      5  C5  UNL d   1      -0.410   4.834  -5.999  0.00  0.00     0.033 A 
ATOM      6  C6  UNL d   1      -1.773   5.144  -5.962  0.00  0.00    -0.057 A 
ENDROOT
BRANCH   1   7
ATOM      7  N   UNL d   1      -4.096   4.520  -5.976  0.00  0.00    -0.732 N 
ATOM      8  C   UNL d   1      -4.474   5.913  -5.872  0.00  0.00     0.284 C 
ATOM      9  H3  UNL d   1      -4.610   4.001  -6.684  0.00  0.00     0.395 HD
ENDBRANCH   1   7
TORSDOF 1
ENDMDL
