MODEL 1
REMARK minimizedAffinity -2.48592567
REMARK minimizedRMSD -1
REMARK  1 active torsions:
REMARK  status: ('A' for Active; 'I' for Inactive)
REMARK    1  A    between atoms: N_2  and  C1_3 
ROOT
ATOM      1  C1  UNL d   1      -1.585   3.556  -6.000  0.00  0.00     0.143 A 
ATOM      2  C2  UNL d   1      -2.983   3.534  -5.984  0.00  0.00    -0.057 A 
ATOM      3  C3  UNL d   1      -3.729   4.719  -5.998  0.00  0.00     0.033 A 
ATOM      4  C4  UNL d   1      -3.085   5.953  -5.997  0.00  0.00    -0.042 A 
ATOM      5  C5  UNL d   1      -1.695   5.999  -5.987  0.00  0.00     0.033 A 
ATOM      6  C6  UNL d   1      -0.957   4.812  -5.981  0.00  0.00    -0.057 A 
ENDROOT
BRANCH   1   7
ATOM      7  N   UNL d   1      -0.787   2.414  -5.888  0.00  0.00    -0.732 N 
ATOM      8  C   UNL d   1       0.655   2.512  -5.959  0.00  0.00     0.284 C 
ATOM      9  H3  UNL d   1      -1.126   1.773  -5.174  0.00  0.00     0.395 HD
ENDBRANCH   1   7
TORSDOF 1
ENDMDL
