MODEL 1
REMARK minimizedAffinity -2.60258436
REMARK minimizedRMSD -1
REMARK  1 active torsions:
REMARK  status: ('A' for Active; 'I' for Inactive)
REMARK    1  A    between atoms: N_2  and  C1_3 
ROOT
ATOM      1  C1  UNL d   1      -2.910   3.789  -5.702  0.00  0.00     0.143 A 
ATOM      2  C2  UNL d   1      -2.926   5.156  -5.997  0.00  0.00    -0.057 A 
ATOM      3  C3  UNL d   1      -1.881   5.997  -5.597  0.00  0.00     0.033 A 
ATOM      4  C4  UNL d   1      -0.811   5.489  -4.867  0.00  0.00    -0.042 A 
ATOM      5  C5  UNL d   1      -0.786   4.138  -4.541  0.00  0.00     0.033 A 
ATOM      6  C6  UNL d   1      -1.830   3.301  -4.950  0.00  0.00    -0.057 A 
ENDROOT
BRANCH   1   7
ATOM      7  N   UNL d   1      -3.966   2.919  -5.987  0.00  0.00    -0.732 N 
ATOM      8  C   UNL d   1      -5.332   3.396  -5.993  0.00  0.00     0.284 C 
ATOM      9  H3  UNL d   1      -3.746   2.276  -6.745  0.00  0.00     0.395 HD
ENDBRANCH   1   7
TORSDOF 1
ENDMDL
