MODEL 1
REMARK minimizedAffinity 9.27626896
REMARK minimizedRMSD -1
REMARK  0 active torsions:
REMARK  status: ('A' for Active; 'I' for Inactive)
ROOT
ATOM      1  N1  IND d   1      -0.638  -4.171  -4.313  0.00  0.00    -0.196 N 
ATOM      2  C2  IND d   1      -1.573  -4.487  -5.258  0.00  0.00     0.054 A 
ATOM      3  C3  IND d   1      -1.879  -3.399  -5.999  0.00  0.00    -0.031 A 
ATOM      4  C4  IND d   1      -0.893  -1.023  -5.901  0.00  0.00     0.051 A 
ATOM      5  C5  IND d   1      -0.036  -0.242  -5.178  0.00  0.00    -0.031 A 
ATOM      6  C6  IND d   1       0.681  -0.741  -4.110  0.00  0.00     0.015 A 
ATOM      7  C7  IND d   1       0.575  -2.049  -3.730  0.00  0.00    -0.016 A 
ATOM      8  C8  IND d   1      -0.299  -2.844  -4.458  0.00  0.00    -0.047 A 
ATOM      9  C9  IND d   1      -1.061  -2.332  -5.516  0.00  0.00    -0.096 A 
ATOM     10  HN1 IND d   1      -0.315  -4.711  -3.726  0.00  0.00     0.298 HD
ENDROOT
TORSDOF 0
ENDMDL
