MODEL 1
REMARK minimizedAffinity 21.0992908
REMARK minimizedRMSD -1
REMARK  0 active torsions:
REMARK  status: ('A' for Active; 'I' for Inactive)
ROOT
ATOM      1  N1  IND d   1       0.861   2.603  -0.164  0.00  0.00    -0.196 N 
ATOM      2  C2  IND d   1      -0.273   2.813  -0.897  0.00  0.00     0.054 A 
ATOM      3  C3  IND d   1      -1.367   2.482  -0.176  0.00  0.00    -0.031 A 
ATOM      4  C4  IND d   1      -1.535   1.670   2.261  0.00  0.00     0.051 A 
ATOM      5  C5  IND d   1      -0.766   1.291   3.326  0.00  0.00    -0.031 A 
ATOM      6  C6  IND d   1       0.612   1.333   3.281  0.00  0.00     0.015 A 
ATOM      7  C7  IND d   1       1.276   1.769   2.170  0.00  0.00    -0.016 A 
ATOM      8  C8  IND d   1       0.499   2.148   1.084  0.00  0.00    -0.047 A 
ATOM      9  C9  IND d   1      -0.900   2.067   1.109  0.00  0.00    -0.096 A 
ATOM     10  HN1 IND d   1       1.666   2.732  -0.437  0.00  0.00     0.298 HD
ENDROOT
TORSDOF 0
ENDMDL
