MODEL 1
REMARK minimizedAffinity 11.9770222
REMARK minimizedRMSD -1
REMARK  0 active torsions:
REMARK  status: ('A' for Active; 'I' for Inactive)
ROOT
ATOM      1  N1  IND d   1      -3.681  -4.299  -5.980  0.00  0.00    -0.196 N 
ATOM      2  C2  IND d   1      -3.739  -2.933  -5.948  0.00  0.00     0.054 A 
ATOM      3  C3  IND d   1      -2.492  -2.411  -5.909  0.00  0.00    -0.031 A 
ATOM      4  C4  IND d   1      -0.214  -3.607  -5.994  0.00  0.00     0.051 A 
ATOM      5  C5  IND d   1       0.349  -4.852  -5.991  0.00  0.00    -0.031 A 
ATOM      6  C6  IND d   1      -0.417  -5.999  -5.987  0.00  0.00     0.015 A 
ATOM      7  C7  IND d   1      -1.782  -5.944  -5.997  0.00  0.00    -0.016 A 
ATOM      8  C8  IND d   1      -2.358  -4.682  -5.993  0.00  0.00    -0.047 A 
ATOM      9  C9  IND d   1      -1.586  -3.514  -5.955  0.00  0.00    -0.096 A 
ATOM     10  HN1 IND d   1      -4.358  -4.829  -5.991  0.00  0.00     0.298 HD
ENDROOT
TORSDOF 0
ENDMDL
