MODEL 1
REMARK minimizedAffinity 8.67873383
REMARK minimizedRMSD -1
REMARK  0 active torsions:
REMARK  status: ('A' for Active; 'I' for Inactive)
ROOT
ATOM      1  N1  IND d   1      -0.042   0.355  -4.852  0.00  0.00    -0.196 N 
ATOM      2  C2  IND d   1      -1.030  -0.104  -5.677  0.00  0.00     0.054 A 
ATOM      3  C3  IND d   1      -2.230   0.385  -5.291  0.00  0.00    -0.031 A 
ATOM      4  C4  IND d   1      -2.790   2.037  -3.397  0.00  0.00     0.051 A 
ATOM      5  C5  IND d   1      -2.223   2.707  -2.349  0.00  0.00    -0.031 A 
ATOM      6  C6  IND d   1      -0.873   2.627  -2.078  0.00  0.00     0.015 A 
ATOM      7  C7  IND d   1      -0.033   1.880  -2.855  0.00  0.00    -0.016 A 
ATOM      8  C8  IND d   1      -0.606   1.194  -3.916  0.00  0.00    -0.047 A 
ATOM      9  C9  IND d   1      -1.983   1.237  -4.171  0.00  0.00    -0.096 A 
ATOM     10  HN1 IND d   1       0.793   0.153  -4.908  0.00  0.00     0.298 HD
ENDROOT
TORSDOF 0
ENDMDL
