MODEL 1
REMARK minimizedAffinity 4.6497283
REMARK minimizedRMSD -1
REMARK  0 active torsions:
REMARK  status: ('A' for Active; 'I' for Inactive)
ROOT
ATOM      1  N1  IND d   1       0.646   0.238  -3.947  0.00  0.00    -0.196 N 
ATOM      2  C2  IND d   1      -0.089   1.366  -4.188  0.00  0.00     0.054 A 
ATOM      3  C3  IND d   1      -0.755   1.740  -3.073  0.00  0.00    -0.031 A 
ATOM      4  C4  IND d   1      -0.705   0.709  -0.714  0.00  0.00     0.051 A 
ATOM      5  C5  IND d   1      -0.208  -0.354  -0.014  0.00  0.00    -0.031 A 
ATOM      6  C6  IND d   1       0.618  -1.291  -0.600  0.00  0.00     0.015 A 
ATOM      7  C7  IND d   1       0.989  -1.194  -1.911  0.00  0.00    -0.016 A 
ATOM      8  C8  IND d   1       0.480  -0.119  -2.627  0.00  0.00    -0.047 A 
ATOM      9  C9  IND d   1      -0.393   0.811  -2.050  0.00  0.00    -0.096 A 
ATOM     10  HN1 IND d   1       1.130  -0.177  -4.523  0.00  0.00     0.298 HD
ENDROOT
TORSDOF 0
ENDMDL
