MODEL 1
REMARK minimizedAffinity 2.56454754
REMARK minimizedRMSD -1
REMARK  0 active torsions:
REMARK  status: ('A' for Active; 'I' for Inactive)
ROOT
ATOM      1  N1  IND d   1       0.295  -5.562   1.856  0.00  0.00    -0.196 N 
ATOM      2  C2  IND d   1       1.589  -5.498   2.292  0.00  0.00     0.054 A 
ATOM      3  C3  IND d   1       2.443  -5.629   1.252  0.00  0.00    -0.031 A 
ATOM      4  C4  IND d   1       1.936  -5.856  -1.262  0.00  0.00     0.051 A 
ATOM      5  C5  IND d   1       0.902  -5.998  -2.144  0.00  0.00    -0.031 A 
ATOM      6  C6  IND d   1      -0.414  -6.000  -1.730  0.00  0.00     0.015 A 
ATOM      7  C7  IND d   1      -0.747  -5.847  -0.413  0.00  0.00    -0.016 A 
ATOM      8  C8  IND d   1       0.301  -5.709   0.486  0.00  0.00    -0.047 A 
ATOM      9  C9  IND d   1       1.640  -5.749   0.077  0.00  0.00    -0.096 A 
ATOM     10  HN1 IND d   1      -0.405  -5.518   2.353  0.00  0.00     0.298 HD
ENDROOT
TORSDOF 0
ENDMDL
