MODEL 1
REMARK minimizedAffinity -2.27784753
REMARK minimizedRMSD -1
REMARK  0 active torsions:
REMARK  status: ('A' for Active; 'I' for Inactive)
ROOT
ATOM      1  N1  IND d   1       0.546   2.231   0.029  0.00  0.00    -0.196 N 
ATOM      2  C2  IND d   1       0.333   3.398   0.709  0.00  0.00     0.054 A 
ATOM      3  C3  IND d   1       0.574   3.224   2.028  0.00  0.00    -0.031 A 
ATOM      4  C4  IND d   1       1.425   1.138   3.274  0.00  0.00     0.051 A 
ATOM      5  C5  IND d   1       1.728  -0.181   3.084  0.00  0.00    -0.031 A 
ATOM      6  C6  IND d   1       1.654  -0.775   1.840  0.00  0.00     0.015 A 
ATOM      7  C7  IND d   1       1.283  -0.065   0.733  0.00  0.00    -0.016 A 
ATOM      8  C8  IND d   1       0.967   1.272   0.923  0.00  0.00    -0.047 A 
ATOM      9  C9  IND d   1       1.000   1.870   2.190  0.00  0.00    -0.096 A 
ATOM     10  HN1 IND d   1       0.435   2.116  -0.816  0.00  0.00     0.298 HD
ENDROOT
TORSDOF 0
ENDMDL
