MODEL 1
REMARK minimizedAffinity -3.33771491
REMARK minimizedRMSD -1
REMARK  0 active torsions:
REMARK  status: ('A' for Active; 'I' for Inactive)
ROOT
ATOM      1  C   UNL d   1       1.069  -2.461   2.137  0.00  0.00     0.172 C 
ATOM      2  N   UNL d   1       1.443  -1.234   1.473  0.00  0.00    -0.070 N 
ATOM      3  C1  UNL d   1       0.618  -0.463   0.698  0.00  0.00    -0.004 A 
ATOM      4  C2  UNL d   1       1.348   0.617   0.250  0.00  0.00    -0.047 A 
ATOM      5  C3  UNL d   1       2.657   0.489   0.772  0.00  0.00    -0.047 A 
ATOM      6  C4  UNL d   1       2.688  -0.666   1.525  0.00  0.00    -0.004 A 
ENDROOT
TORSDOF 0
ENDMDL
