MODEL 1
REMARK minimizedAffinity -3.76507998
REMARK minimizedRMSD -1
REMARK  0 active torsions:
REMARK  status: ('A' for Active; 'I' for Inactive)
ROOT
ATOM      1  C   UNL d   1      -1.152  -0.276  -0.017  0.00  0.00     0.172 C 
ATOM      2  N   UNL d   1       0.258  -0.013   0.148  0.00  0.00    -0.070 N 
ATOM      3  C1  UNL d   1       0.832   1.226   0.248  0.00  0.00    -0.004 A 
ATOM      4  C2  UNL d   1       2.191   1.051   0.395  0.00  0.00    -0.047 A 
ATOM      5  C3  UNL d   1       2.443  -0.341   0.381  0.00  0.00    -0.047 A 
ATOM      6  C4  UNL d   1       1.229  -0.976   0.227  0.00  0.00    -0.004 A 
ENDROOT
TORSDOF 0
ENDMDL
