MODEL 1
REMARK minimizedAffinity -3.8587935
REMARK minimizedRMSD -1
REMARK  0 active torsions:
REMARK  status: ('A' for Active; 'I' for Inactive)
ROOT
ATOM      1  C   UNL d   1      -0.294   0.051  -0.022  0.00  0.00     0.172 C 
ATOM      2  N   UNL d   1       1.026  -0.278   0.462  0.00  0.00    -0.070 N 
ATOM      3  C1  UNL d   1       1.330  -1.297   1.324  0.00  0.00    -0.004 A 
ATOM      4  C2  UNL d   1       2.691  -1.279   1.537  0.00  0.00    -0.047 A 
ATOM      5  C3  UNL d   1       3.225  -0.211   0.776  0.00  0.00    -0.047 A 
ATOM      6  C4  UNL d   1       2.172   0.391   0.121  0.00  0.00    -0.004 A 
ENDROOT
TORSDOF 0
ENDMDL
