MODEL 1
REMARK minimizedAffinity -2.43275881
REMARK minimizedRMSD -1
REMARK  0 active torsions:
REMARK  status: ('A' for Active; 'I' for Inactive)
ROOT
ATOM      1  C   UNL d   1       0.014   0.342   0.108  0.00  0.00     0.172 C 
ATOM      2  N   UNL d   1       0.731  -0.702   0.801  0.00  0.00    -0.070 N 
ATOM      3  C1  UNL d   1       0.164  -1.786   1.417  0.00  0.00    -0.004 A 
ATOM      4  C2  UNL d   1       1.180  -2.544   1.958  0.00  0.00    -0.047 A 
ATOM      5  C3  UNL d   1       2.400  -1.892   1.658  0.00  0.00    -0.047 A 
ATOM      6  C4  UNL d   1       2.093  -0.755   0.941  0.00  0.00    -0.004 A 
ENDROOT
TORSDOF 0
ENDMDL
