MODEL 1
REMARK minimizedAffinity -3.67873716
REMARK minimizedRMSD -1
REMARK  0 active torsions:
REMARK  status: ('A' for Active; 'I' for Inactive)
ROOT
ATOM      1  C   UNL d   1       2.749  -0.080   0.409  0.00  0.00     0.172 C 
ATOM      2  N   UNL d   1       1.321  -0.189   0.592  0.00  0.00    -0.070 N 
ATOM      3  C1  UNL d   1       0.410   0.810   0.376  0.00  0.00    -0.004 A 
ATOM      4  C2  UNL d   1      -0.842   0.309   0.662  0.00  0.00    -0.047 A 
ATOM      5  C3  UNL d   1      -0.676  -1.038   1.066  0.00  0.00    -0.047 A 
ATOM      6  C4  UNL d   1       0.672  -1.320   1.013  0.00  0.00    -0.004 A 
ENDROOT
TORSDOF 0
ENDMDL
