MODEL 1
REMARK minimizedAffinity -3.22109485
REMARK minimizedRMSD -1
REMARK  0 active torsions:
REMARK  status: ('A' for Active; 'I' for Inactive)
ROOT
ATOM      1  C   UNL d   1      -0.546   0.355   0.341  0.00  0.00     0.172 C 
ATOM      2  N   UNL d   1       0.847  -0.024   0.290  0.00  0.00    -0.070 N 
ATOM      3  C1  UNL d   1       1.326  -1.263  -0.043  0.00  0.00    -0.004 A 
ATOM      4  C2  UNL d   1       2.701  -1.216   0.026  0.00  0.00    -0.047 A 
ATOM      5  C3  UNL d   1       3.062   0.096   0.414  0.00  0.00    -0.047 A 
ATOM      6  C4  UNL d   1       1.894   0.813   0.571  0.00  0.00    -0.004 A 
ENDROOT
TORSDOF 0
ENDMDL
