MODEL 1
REMARK minimizedAffinity 1.05393875
REMARK minimizedRMSD -1
REMARK  0 active torsions:
REMARK  status: ('A' for Active; 'I' for Inactive)
ROOT
ATOM      1  C   UNL d   1       2.836   0.544   1.471  0.00  0.00     0.172 C 
ATOM      2  N   UNL d   1       1.489   0.522   0.953  0.00  0.00    -0.070 N 
ATOM      3  C1  UNL d   1       0.885  -0.547   0.346  0.00  0.00    -0.004 A 
ATOM      4  C2  UNL d   1      -0.394  -0.168  -0.003  0.00  0.00    -0.047 A 
ATOM      5  C3  UNL d   1      -0.563   1.176   0.407  0.00  0.00    -0.047 A 
ATOM      6  C4  UNL d   1       0.617   1.578   0.995  0.00  0.00    -0.004 A 
ENDROOT
TORSDOF 0
ENDMDL
