MODEL 1
REMARK minimizedAffinity -2.8975513
REMARK minimizedRMSD -1
REMARK  0 active torsions:
REMARK  status: ('A' for Active; 'I' for Inactive)
ROOT
ATOM      1  C   UNL d   1       2.984   0.545   1.263  0.00  0.00     0.172 C 
ATOM      2  N   UNL d   1       1.658   0.261   0.768  0.00  0.00    -0.070 N 
ATOM      3  C1  UNL d   1       0.621   1.153   0.706  0.00  0.00    -0.004 A 
ATOM      4  C2  UNL d   1      -0.469   0.496   0.176  0.00  0.00    -0.047 A 
ATOM      5  C3  UNL d   1      -0.073  -0.836  -0.089  0.00  0.00    -0.047 A 
ATOM      6  C4  UNL d   1       1.248  -0.955   0.287  0.00  0.00    -0.004 A 
ENDROOT
TORSDOF 0
ENDMDL
