MODEL 1
REMARK minimizedAffinity -3.34343743
REMARK minimizedRMSD -1
REMARK  0 active torsions:
REMARK  status: ('A' for Active; 'I' for Inactive)
ROOT
ATOM      1  C   UNL d   1      -1.402  -0.024  -0.581  0.00  0.00     0.172 C 
ATOM      2  N   UNL d   1      -0.028   0.130  -0.164  0.00  0.00    -0.070 N 
ATOM      3  C1  UNL d   1       0.590   1.316   0.129  0.00  0.00    -0.004 A 
ATOM      4  C2  UNL d   1       1.892   1.037   0.484  0.00  0.00    -0.047 A 
ATOM      5  C3  UNL d   1       2.063  -0.365   0.400  0.00  0.00    -0.047 A 
ATOM      6  C4  UNL d   1       0.859  -0.902  -0.003  0.00  0.00    -0.004 A 
ENDROOT
TORSDOF 0
ENDMDL
