MODEL 1
REMARK minimizedAffinity 11.5738535
REMARK minimizedRMSD -1
REMARK  3 active torsions:
REMARK  status: ('A' for Active; 'I' for Inactive)
REMARK    1  A    between atoms: C3'_2  and  C2'_3 
REMARK    2  A    between atoms: C2'_3  and  C1'_4 
REMARK    3  A    between atoms: C1'_4  and  C1_5 
ROOT
ATOM      1  C1  N4B d   1       1.697  -2.425  -1.940  0.00  0.00    -0.075 A 
ATOM      2  C2  N4B d   1       2.104  -1.241  -2.593  0.00  0.00     0.002 A 
ATOM      3  C3  N4B d   1       2.086  -0.045  -1.920  0.00  0.00     0.002 A 
ATOM      4  C4  N4B d   1       1.648  -0.005  -0.604  0.00  0.00    -0.004 A 
ATOM      5  C5  N4B d   1       1.281  -1.157   0.027  0.00  0.00     0.002 A 
ATOM      6  C6  N4B d   1       1.298  -2.367  -0.636  0.00  0.00     0.002 A 
ENDROOT
BRANCH   1   7
ATOM      7  C1' N4B d   1       1.618  -3.743  -2.661  0.00  0.00     0.057 C 
BRANCH   7   8
ATOM      8  C2' N4B d   1       0.153  -4.106  -2.883  0.00  0.00     0.009 C 
BRANCH   8   9
ATOM      9  C3' N4B d   1      -0.002  -5.321  -3.782  0.00  0.00     0.004 C 
ATOM     10  C4' N4B d   1       0.030  -4.972  -5.240  0.00  0.00     0.003 C 
ENDBRANCH   8   9
ENDBRANCH   7   8
ENDBRANCH   1   7
TORSDOF 3
ENDMDL
