MODEL 1
REMARK minimizedAffinity 1.17758751
REMARK minimizedRMSD -1
REMARK  3 active torsions:
REMARK  status: ('A' for Active; 'I' for Inactive)
REMARK    1  A    between atoms: C3'_2  and  C2'_3 
REMARK    2  A    between atoms: C2'_3  and  C1'_4 
REMARK    3  A    between atoms: C1'_4  and  C1_5 
ROOT
ATOM      1  C1  N4B d   1      -3.244  -4.276  -5.904  0.00  0.00    -0.075 A 
ATOM      2  C2  N4B d   1      -3.397  -2.876  -5.790  0.00  0.00     0.002 A 
ATOM      3  C3  N4B d   1      -4.654  -2.322  -5.787  0.00  0.00     0.002 A 
ATOM      4  C4  N4B d   1      -5.765  -3.141  -5.915  0.00  0.00    -0.004 A 
ATOM      5  C5  N4B d   1      -5.609  -4.494  -6.000  0.00  0.00     0.002 A 
ATOM      6  C6  N4B d   1      -4.353  -5.065  -6.000  0.00  0.00     0.002 A 
ENDROOT
BRANCH   1   7
ATOM      7  C1' N4B d   1      -1.888  -4.920  -5.998  0.00  0.00     0.057 C 
BRANCH   7   8
ATOM      8  C2' N4B d   1      -1.765  -5.989  -4.917  0.00  0.00     0.009 C 
BRANCH   8   9
ATOM      9  C3' N4B d   1      -1.241  -5.418  -3.610  0.00  0.00     0.004 C 
ATOM     10  C4' N4B d   1       0.251  -5.275  -3.596  0.00  0.00     0.003 C 
ENDBRANCH   8   9
ENDBRANCH   7   8
ENDBRANCH   1   7
TORSDOF 3
ENDMDL
