MODEL 1
REMARK minimizedAffinity 5.49145317
REMARK minimizedRMSD -1
REMARK  3 active torsions:
REMARK  status: ('A' for Active; 'I' for Inactive)
REMARK    1  A    between atoms: C3'_2  and  C2'_3 
REMARK    2  A    between atoms: C2'_3  and  C1'_4 
REMARK    3  A    between atoms: C1'_4  and  C1_5 
ROOT
ATOM      1  C1  N4B d   1      -3.320  -4.587  -5.488  0.00  0.00    -0.075 A 
ATOM      2  C2  N4B d   1      -4.670  -4.916  -5.739  0.00  0.00     0.002 A 
ATOM      3  C3  N4B d   1      -5.582  -3.923  -6.000  0.00  0.00     0.002 A 
ATOM      4  C4  N4B d   1      -5.172  -2.598  -5.996  0.00  0.00    -0.004 A 
ATOM      5  C5  N4B d   1      -3.861  -2.290  -5.777  0.00  0.00     0.002 A 
ATOM      6  C6  N4B d   1      -2.933  -3.278  -5.518  0.00  0.00     0.002 A 
ENDROOT
BRANCH   1   7
ATOM      7  C1' N4B d   1      -2.304  -5.632  -5.114  0.00  0.00     0.057 C 
BRANCH   7   8
ATOM      8  C2' N4B d   1      -2.326  -5.832  -3.601  0.00  0.00     0.009 C 
BRANCH   8   9
ATOM      9  C3' N4B d   1      -0.960  -5.599  -2.978  0.00  0.00     0.004 C 
ATOM     10  C4' N4B d   1      -0.395  -4.248  -3.303  0.00  0.00     0.003 C 
ENDBRANCH   8   9
ENDBRANCH   7   8
ENDBRANCH   1   7
TORSDOF 3
ENDMDL
