MODEL 1
REMARK minimizedAffinity 8.91215324
REMARK minimizedRMSD -1
REMARK  3 active torsions:
REMARK  status: ('A' for Active; 'I' for Inactive)
REMARK    1  A    between atoms: C3'_2  and  C2'_3 
REMARK    2  A    between atoms: C2'_3  and  C1'_4 
REMARK    3  A    between atoms: C1'_4  and  C1_5 
ROOT
ATOM      1  C1  N4B d   1      -2.567  -3.914  -4.172  0.00  0.00    -0.075 A 
ATOM      2  C2  N4B d   1      -3.109  -4.861  -5.067  0.00  0.00     0.002 A 
ATOM      3  C3  N4B d   1      -4.062  -4.478  -5.979  0.00  0.00     0.002 A 
ATOM      4  C4  N4B d   1      -4.500  -3.162  -6.000  0.00  0.00    -0.004 A 
ATOM      5  C5  N4B d   1      -3.953  -2.247  -5.148  0.00  0.00     0.002 A 
ATOM      6  C6  N4B d   1      -2.991  -2.618  -4.230  0.00  0.00     0.002 A 
ENDROOT
BRANCH   1   7
ATOM      7  C1' N4B d   1      -1.585  -4.305  -3.101  0.00  0.00     0.057 C 
BRANCH   7   8
ATOM      8  C2' N4B d   1      -0.669  -5.401  -3.637  0.00  0.00     0.009 C 
BRANCH   8   9
ATOM      9  C3' N4B d   1       0.709  -5.352  -3.000  0.00  0.00     0.004 C 
ATOM     10  C4' N4B d   1       0.974  -4.059  -2.288  0.00  0.00     0.003 C 
ENDBRANCH   8   9
ENDBRANCH   7   8
ENDBRANCH   1   7
TORSDOF 3
ENDMDL
