MODEL 1
REMARK minimizedAffinity 7.05156517
REMARK minimizedRMSD -1
REMARK  3 active torsions:
REMARK  status: ('A' for Active; 'I' for Inactive)
REMARK    1  A    between atoms: C3'_2  and  C2'_3 
REMARK    2  A    between atoms: C2'_3  and  C1'_4 
REMARK    3  A    between atoms: C1'_4  and  C1_5 
ROOT
ATOM      1  C1  N4B d   1      -2.676  -4.311  -4.956  0.00  0.00    -0.075 A 
ATOM      2  C2  N4B d   1      -2.755  -2.969  -4.522  0.00  0.00     0.002 A 
ATOM      3  C3  N4B d   1      -3.855  -2.210  -4.838  0.00  0.00     0.002 A 
ATOM      4  C4  N4B d   1      -4.874  -2.762  -5.598  0.00  0.00    -0.004 A 
ATOM      5  C5  N4B d   1      -4.802  -4.066  -5.991  0.00  0.00     0.002 A 
ATOM      6  C6  N4B d   1      -3.704  -4.843  -5.678  0.00  0.00     0.002 A 
ENDROOT
BRANCH   1   7
ATOM      7  C1' N4B d   1      -1.455  -5.154  -4.709  0.00  0.00     0.057 C 
BRANCH   7   8
ATOM      8  C2' N4B d   1      -0.784  -4.698  -3.417  0.00  0.00     0.009 C 
BRANCH   8   9
ATOM      9  C3' N4B d   1      -1.126  -5.605  -2.248  0.00  0.00     0.004 C 
ATOM     10  C4' N4B d   1      -2.379  -5.188  -1.536  0.00  0.00     0.003 C 
ENDBRANCH   8   9
ENDBRANCH   7   8
ENDBRANCH   1   7
TORSDOF 3
ENDMDL
