MODEL 1
REMARK minimizedAffinity 5.48103094
REMARK minimizedRMSD -1
REMARK  3 active torsions:
REMARK  status: ('A' for Active; 'I' for Inactive)
REMARK    1  A    between atoms: C3'_2  and  C2'_3 
REMARK    2  A    between atoms: C2'_3  and  C1'_4 
REMARK    3  A    between atoms: C1'_4  and  C1_5 
ROOT
ATOM      1  C1  N4B d   1      -2.234  -4.727  -4.013  0.00  0.00    -0.075 A 
ATOM      2  C2  N4B d   1      -2.908  -3.486  -4.012  0.00  0.00     0.002 A 
ATOM      3  C3  N4B d   1      -2.284  -2.366  -3.519  0.00  0.00     0.002 A 
ATOM      4  C4  N4B d   1      -0.999  -2.466  -3.007  0.00  0.00    -0.004 A 
ATOM      5  C5  N4B d   1      -0.346  -3.664  -3.034  0.00  0.00     0.002 A 
ATOM      6  C6  N4B d   1      -0.960  -4.797  -3.530  0.00  0.00     0.002 A 
ENDROOT
BRANCH   1   7
ATOM      7  C1' N4B d   1      -2.907  -5.995  -4.462  0.00  0.00     0.057 C 
BRANCH   7   8
ATOM      8  C2' N4B d   1      -3.404  -5.818  -5.894  0.00  0.00     0.009 C 
BRANCH   8   9
ATOM      9  C3' N4B d   1      -4.908  -5.999  -6.000  0.00  0.00     0.004 C 
ATOM     10  C4' N4B d   1      -5.652  -4.696  -5.990  0.00  0.00     0.003 C 
ENDBRANCH   8   9
ENDBRANCH   7   8
ENDBRANCH   1   7
TORSDOF 3
ENDMDL
