MODEL 1
REMARK minimizedAffinity 0.921315014
REMARK minimizedRMSD -1
REMARK  3 active torsions:
REMARK  status: ('A' for Active; 'I' for Inactive)
REMARK    1  A    between atoms: C3'_2  and  C2'_3 
REMARK    2  A    between atoms: C2'_3  and  C1'_4 
REMARK    3  A    between atoms: C1'_4  and  C1_5 
ROOT
ATOM      1  C1  N4B d   1      -1.962  -4.055  -5.930  0.00  0.00    -0.075 A 
ATOM      2  C2  N4B d   1      -2.766  -5.216  -5.956  0.00  0.00     0.002 A 
ATOM      3  C3  N4B d   1      -4.134  -5.103  -5.999  0.00  0.00     0.002 A 
ATOM      4  C4  N4B d   1      -4.719  -3.846  -5.999  0.00  0.00    -0.004 A 
ATOM      5  C5  N4B d   1      -3.935  -2.729  -6.000  0.00  0.00     0.002 A 
ATOM      6  C6  N4B d   1      -2.558  -2.828  -5.960  0.00  0.00     0.002 A 
ENDROOT
BRANCH   1   7
ATOM      7  C1' N4B d   1      -0.466  -4.128  -5.796  0.00  0.00     0.057 C 
BRANCH   7   8
ATOM      8  C2' N4B d   1      -0.072  -3.755  -4.370  0.00  0.00     0.009 C 
BRANCH   8   9
ATOM      9  C3' N4B d   1      -0.357  -4.880  -3.389  0.00  0.00     0.004 C 
ATOM     10  C4' N4B d   1      -1.710  -4.768  -2.753  0.00  0.00     0.003 C 
ENDBRANCH   8   9
ENDBRANCH   7   8
ENDBRANCH   1   7
TORSDOF 3
ENDMDL
