MODEL 1
REMARK minimizedAffinity 5.39428043
REMARK minimizedRMSD -1
REMARK  3 active torsions:
REMARK  status: ('A' for Active; 'I' for Inactive)
REMARK    1  A    between atoms: C3'_2  and  C2'_3 
REMARK    2  A    between atoms: C2'_3  and  C1'_4 
REMARK    3  A    between atoms: C1'_4  and  C1_5 
ROOT
ATOM      1  C1  N4B d   1      -2.015  -5.278  -4.598  0.00  0.00    -0.075 A 
ATOM      2  C2  N4B d   1      -0.872  -5.969  -4.139  0.00  0.00     0.002 A 
ATOM      3  C3  N4B d   1      -0.248  -5.570  -2.982  0.00  0.00     0.002 A 
ATOM      4  C4  N4B d   1      -0.735  -4.476  -2.282  0.00  0.00    -0.004 A 
ATOM      5  C5  N4B d   1      -1.855  -3.831  -2.719  0.00  0.00     0.002 A 
ATOM      6  C6  N4B d   1      -2.495  -4.223  -3.877  0.00  0.00     0.002 A 
ENDROOT
BRANCH   1   7
ATOM      7  C1' N4B d   1      -2.681  -5.624  -5.902  0.00  0.00     0.057 C 
BRANCH   7   8
ATOM      8  C2' N4B d   1      -4.008  -4.877  -6.000  0.00  0.00     0.009 C 
BRANCH   8   9
ATOM      9  C3' N4B d   1      -3.814  -3.370  -6.000  0.00  0.00     0.004 C 
ATOM     10  C4' N4B d   1      -5.111  -2.618  -5.993  0.00  0.00     0.003 C 
ENDBRANCH   8   9
ENDBRANCH   7   8
ENDBRANCH   1   7
TORSDOF 3
ENDMDL
