MODEL 1
REMARK minimizedAffinity 4.23266125
REMARK minimizedRMSD -1
REMARK  3 active torsions:
REMARK  status: ('A' for Active; 'I' for Inactive)
REMARK    1  A    between atoms: C3'_2  and  C2'_3 
REMARK    2  A    between atoms: C2'_3  and  C1'_4 
REMARK    3  A    between atoms: C1'_4  and  C1_5 
ROOT
ATOM      1  C1  N4B d   1      -1.916  -4.842  -3.746  0.00  0.00    -0.075 A 
ATOM      2  C2  N4B d   1      -1.914  -5.592  -4.943  0.00  0.00     0.002 A 
ATOM      3  C3  N4B d   1      -2.699  -5.201  -6.000  0.00  0.00     0.002 A 
ATOM      4  C4  N4B d   1      -3.504  -4.078  -5.877  0.00  0.00    -0.004 A 
ATOM      5  C5  N4B d   1      -3.480  -3.344  -4.727  0.00  0.00     0.002 A 
ATOM      6  C6  N4B d   1      -2.694  -3.724  -3.658  0.00  0.00     0.002 A 
ENDROOT
BRANCH   1   7
ATOM      7  C1' N4B d   1      -1.141  -5.280  -2.534  0.00  0.00     0.057 C 
BRANCH   7   8
ATOM      8  C2' N4B d   1       0.345  -5.023  -2.770  0.00  0.00     0.009 C 
BRANCH   8   9
ATOM      9  C3' N4B d   1       0.734  -3.594  -2.434  0.00  0.00     0.004 C 
ATOM     10  C4' N4B d   1       1.343  -3.462  -1.070  0.00  0.00     0.003 C 
ENDBRANCH   8   9
ENDBRANCH   7   8
ENDBRANCH   1   7
TORSDOF 3
ENDMDL
