MODEL 1
REMARK minimizedAffinity -3.71438622
REMARK minimizedRMSD -1
REMARK  0 active torsions:
REMARK  status: ('A' for Active; 'I' for Inactive)
ROOT
ATOM      1  C   UNL d   1      -1.099   1.441   1.510  0.00  0.00     0.020 A 
ATOM      2  C1  UNL d   1      -1.509   0.113   1.620  0.00  0.00     0.020 A 
ATOM      3  C2  UNL d   1      -0.879  -0.877   0.865  0.00  0.00     0.034 A 
ATOM      4  C3  UNL d   1       0.166  -0.542  -0.004  0.00  0.00     0.017 A 
ATOM      5  C4  UNL d   1       0.577   0.792  -0.114  0.00  0.00     0.017 A 
ATOM      6  C5  UNL d   1      -0.058   1.780   0.645  0.00  0.00     0.034 A 
ATOM      7 Cl   UNL d   1       1.859   1.283  -1.165  0.00  0.00    -0.070 Cl
ATOM      8 Cl1  UNL d   1       0.901  -1.818  -0.908  0.00  0.00    -0.070 Cl
ENDROOT
TORSDOF 0
ENDMDL
