MODEL 1
REMARK minimizedAffinity -1.29958773
REMARK minimizedRMSD -1
REMARK  0 active torsions:
REMARK  status: ('A' for Active; 'I' for Inactive)
ROOT
ATOM      1  C   UNL d   1      -0.756  -0.768   2.686  0.00  0.00     0.020 A 
ATOM      2  C1  UNL d   1      -1.355   0.491   2.666  0.00  0.00     0.020 A 
ATOM      3  C2  UNL d   1      -1.109   1.364   1.604  0.00  0.00     0.034 A 
ATOM      4  C3  UNL d   1      -0.262   0.979   0.558  0.00  0.00     0.017 A 
ATOM      5  C4  UNL d   1       0.339  -0.285   0.579  0.00  0.00     0.017 A 
ATOM      6  C5  UNL d   1       0.089  -1.155   1.645  0.00  0.00     0.034 A 
ATOM      7 Cl   UNL d   1       1.396  -0.830  -0.675  0.00  0.00    -0.070 Cl
ATOM      8 Cl1  UNL d   1      -0.003   2.109  -0.723  0.00  0.00    -0.070 Cl
ENDROOT
TORSDOF 0
ENDMDL
