MODEL 1
REMARK minimizedAffinity -0.0514527708
REMARK minimizedRMSD -1
REMARK  0 active torsions:
REMARK  status: ('A' for Active; 'I' for Inactive)
ROOT
ATOM      1  C   UNL d   1      -0.904   1.234   2.285  0.00  0.00     0.020 A 
ATOM      2  C1  UNL d   1      -0.777  -0.150   2.396  0.00  0.00     0.020 A 
ATOM      3  C2  UNL d   1      -0.273  -0.893   1.326  0.00  0.00     0.034 A 
ATOM      4  C3  UNL d   1       0.105  -0.253   0.141  0.00  0.00     0.017 A 
ATOM      5  C4  UNL d   1      -0.023   1.137   0.030  0.00  0.00     0.017 A 
ATOM      6  C5  UNL d   1      -0.528   1.876   1.104  0.00  0.00     0.034 A 
ATOM      7 Cl   UNL d   1       0.423   1.998  -1.401  0.00  0.00    -0.070 Cl
ATOM      8 Cl1  UNL d   1       0.721  -1.234  -1.141  0.00  0.00    -0.070 Cl
ENDROOT
TORSDOF 0
ENDMDL
