MODEL 1
REMARK minimizedAffinity -1.50069928
REMARK minimizedRMSD -1
REMARK  0 active torsions:
REMARK  status: ('A' for Active; 'I' for Inactive)
ROOT
ATOM      1  C   UNL d   1       0.884  -1.196  -0.011  0.00  0.00     0.020 A 
ATOM      2  C1  UNL d   1       0.320  -1.320   1.258  0.00  0.00     0.020 A 
ATOM      3  C2  UNL d   1      -0.340  -0.235   1.837  0.00  0.00     0.034 A 
ATOM      4  C3  UNL d   1      -0.439   0.979   1.147  0.00  0.00     0.017 A 
ATOM      5  C4  UNL d   1       0.127   1.102  -0.127  0.00  0.00     0.017 A 
ATOM      6  C5  UNL d   1       0.787   0.012  -0.702  0.00  0.00     0.034 A 
ATOM      7 Cl   UNL d   1       0.046   2.568  -1.039  0.00  0.00    -0.070 Cl
ATOM      8 Cl1  UNL d   1      -1.271   2.280   1.924  0.00  0.00    -0.070 Cl
ENDROOT
TORSDOF 0
ENDMDL
