MODEL 1
REMARK minimizedAffinity -2.80694985
REMARK minimizedRMSD -1
REMARK  0 active torsions:
REMARK  status: ('A' for Active; 'I' for Inactive)
ROOT
ATOM      1  C   UNL d   1       0.654  -0.451   0.836  0.00  0.00     0.020 A 
ATOM      2  C1  UNL d   1      -0.450  -0.202   0.022  0.00  0.00     0.020 A 
ATOM      3  C2  UNL d   1      -0.631  -0.937  -1.152  0.00  0.00     0.034 A 
ATOM      4  C3  UNL d   1       0.293  -1.924  -1.514  0.00  0.00     0.017 A 
ATOM      5  C4  UNL d   1       1.401  -2.173  -0.695  0.00  0.00     0.017 A 
ATOM      6  C5  UNL d   1       1.577  -1.434   0.478  0.00  0.00     0.034 A 
ATOM      7 Cl   UNL d   1       2.583  -3.375  -1.076  0.00  0.00    -0.070 Cl
ATOM      8 Cl1  UNL d   1       0.006  -2.795  -2.978  0.00  0.00    -0.070 Cl
ENDROOT
TORSDOF 0
ENDMDL
