MODEL 1
REMARK minimizedAffinity -2.66877365
REMARK minimizedRMSD -1
REMARK  0 active torsions:
REMARK  status: ('A' for Active; 'I' for Inactive)
ROOT
ATOM      1  C   UNL d   1      -1.234   1.564   2.029  0.00  0.00     0.020 A 
ATOM      2  C1  UNL d   1      -1.199   0.182   2.213  0.00  0.00     0.020 A 
ATOM      3  C2  UNL d   1      -0.595  -0.635   1.255  0.00  0.00     0.034 A 
ATOM      4  C3  UNL d   1      -0.023  -0.071   0.109  0.00  0.00     0.017 A 
ATOM      5  C4  UNL d   1      -0.058   1.316  -0.075  0.00  0.00     0.017 A 
ATOM      6  C5  UNL d   1      -0.664   2.130   0.888  0.00  0.00     0.034 A 
ATOM      7 Cl   UNL d   1       0.627   2.085  -1.463  0.00  0.00    -0.070 Cl
ATOM      8 Cl1  UNL d   1       0.708  -1.141  -1.034  0.00  0.00    -0.070 Cl
ENDROOT
TORSDOF 0
ENDMDL
