MODEL 1
REMARK minimizedAffinity -2.68151522
REMARK minimizedRMSD -1
REMARK  0 active torsions:
REMARK  status: ('A' for Active; 'I' for Inactive)
ROOT
ATOM      1  C   UNL d   1      -1.139  -0.056   2.205  0.00  0.00     0.020 A 
ATOM      2  C1  UNL d   1      -1.318   1.322   2.091  0.00  0.00     0.020 A 
ATOM      3  C2  UNL d   1      -0.843   1.997   0.965  0.00  0.00     0.034 A 
ATOM      4  C3  UNL d   1      -0.186   1.295  -0.052  0.00  0.00     0.017 A 
ATOM      5  C4  UNL d   1      -0.007  -0.089   0.063  0.00  0.00     0.017 A 
ATOM      6  C5  UNL d   1      -0.485  -0.760   1.193  0.00  0.00     0.034 A 
ATOM      7 Cl   UNL d   1       0.793  -1.024  -1.150  0.00  0.00    -0.070 Cl
ATOM      8 Cl1  UNL d   1       0.375   2.193  -1.417  0.00  0.00    -0.070 Cl
ENDROOT
TORSDOF 0
ENDMDL
