MODEL 1
REMARK minimizedAffinity 1.728719
REMARK minimizedRMSD -1
REMARK  0 active torsions:
REMARK  status: ('A' for Active; 'I' for Inactive)
ROOT
ATOM      1  C   UNL d   1       0.887  -4.742  -1.776  0.00  0.00     0.020 A 
ATOM      2  C1  UNL d   1       1.468  -4.139  -0.662  0.00  0.00     0.020 A 
ATOM      3  C2  UNL d   1       1.573  -2.748  -0.596  0.00  0.00     0.034 A 
ATOM      4  C3  UNL d   1       1.096  -1.956  -1.647  0.00  0.00     0.017 A 
ATOM      5  C4  UNL d   1       0.513  -2.562  -2.766  0.00  0.00     0.017 A 
ATOM      6  C5  UNL d   1       0.411  -3.956  -2.826  0.00  0.00     0.034 A 
ATOM      7 Cl   UNL d   1      -0.098  -1.652  -4.101  0.00  0.00    -0.070 Cl
ATOM      8 Cl1  UNL d   1       1.259  -0.242  -1.499  0.00  0.00    -0.070 Cl
ENDROOT
TORSDOF 0
ENDMDL
