MODEL 1
REMARK minimizedAffinity -2.38354802
REMARK minimizedRMSD -1
REMARK  0 active torsions:
REMARK  status: ('A' for Active; 'I' for Inactive)
ROOT
ATOM      1  C   UNL d   1      -1.284  -0.037   1.526  0.00  0.00     0.020 A 
ATOM      2  C1  UNL d   1      -0.838   1.266   1.312  0.00  0.00     0.020 A 
ATOM      3  C2  UNL d   1       0.033   1.542   0.256  0.00  0.00     0.034 A 
ATOM      4  C3  UNL d   1       0.462   0.513  -0.590  0.00  0.00     0.017 A 
ATOM      5  C4  UNL d   1       0.014  -0.796  -0.374  0.00  0.00     0.017 A 
ATOM      6  C5  UNL d   1      -0.858  -1.066   0.685  0.00  0.00     0.034 A 
ATOM      7 Cl   UNL d   1       0.500  -2.118  -1.375  0.00  0.00    -0.070 Cl
ATOM      8 Cl1  UNL d   1       1.540   0.925  -1.875  0.00  0.00    -0.070 Cl
ENDROOT
TORSDOF 0
ENDMDL
