MODEL 1
REMARK minimizedAffinity -2.3005662
REMARK minimizedRMSD -1
REMARK  0 active torsions:
REMARK  status: ('A' for Active; 'I' for Inactive)
ROOT
ATOM      1  C   UNL d   1       0.526   0.227  -0.144  0.00  0.00     0.020 A 
ATOM      2  C1  UNL d   1      -0.780   0.201  -0.632  0.00  0.00     0.020 A 
ATOM      3  C2  UNL d   1      -1.221  -0.886  -1.389  0.00  0.00     0.034 A 
ATOM      4  C3  UNL d   1      -0.356  -1.952  -1.661  0.00  0.00     0.017 A 
ATOM      5  C4  UNL d   1       0.955  -1.925  -1.171  0.00  0.00     0.017 A 
ATOM      6  C5  UNL d   1       1.391  -0.834  -0.413  0.00  0.00     0.034 A 
ATOM      7 Cl   UNL d   1       2.081  -3.203  -1.464  0.00  0.00    -0.070 Cl
ATOM      8 Cl1  UNL d   1      -0.968  -3.264  -2.604  0.00  0.00    -0.070 Cl
ENDROOT
TORSDOF 0
ENDMDL
