MODEL 1
REMARK minimizedAffinity -4.52529001
REMARK minimizedRMSD -1
REMARK  0 active torsions:
REMARK  status: ('A' for Active; 'I' for Inactive)
ROOT
ATOM      1  C   UNL d   1      -1.446   2.626   1.975  0.00  0.00     0.020 A 
ATOM      2  C1  UNL d   1      -1.855   1.320   2.244  0.00  0.00     0.020 A 
ATOM      3  C2  UNL d   1      -1.394   0.267   1.451  0.00  0.00     0.034 A 
ATOM      4  C3  UNL d   1      -0.523   0.518   0.385  0.00  0.00     0.017 A 
ATOM      5  C4  UNL d   1      -0.113   1.829   0.116  0.00  0.00     0.017 A 
ATOM      6  C5  UNL d   1      -0.577   2.879   0.913  0.00  0.00     0.034 A 
ATOM      7 Cl   UNL d   1       0.960   2.216  -1.182  0.00  0.00    -0.070 Cl
ATOM      8 Cl1  UNL d   1       0.007  -0.832  -0.554  0.00  0.00    -0.070 Cl
ENDROOT
TORSDOF 0
ENDMDL
