MODEL 1
REMARK minimizedAffinity -2.82696986
REMARK minimizedRMSD -1
REMARK  0 active torsions:
REMARK  status: ('A' for Active; 'I' for Inactive)
ROOT
ATOM      1  C   UNL d   1      -1.153   0.030   2.222  0.00  0.00     0.020 A 
ATOM      2  C1  UNL d   1      -1.374   1.405   2.173  0.00  0.00     0.020 A 
ATOM      3  C2  UNL d   1      -0.811   2.166   1.146  0.00  0.00     0.034 A 
ATOM      4  C3  UNL d   1      -0.025   1.552   0.165  0.00  0.00     0.017 A 
ATOM      5  C4  UNL d   1       0.196   0.171   0.215  0.00  0.00     0.017 A 
ATOM      6  C5  UNL d   1      -0.370  -0.586   1.245  0.00  0.00     0.034 A 
ATOM      7 Cl   UNL d   1       1.155  -0.658  -0.960  0.00  0.00    -0.070 Cl
ATOM      8 Cl1  UNL d   1       0.640   2.555  -1.076  0.00  0.00    -0.070 Cl
ENDROOT
TORSDOF 0
ENDMDL
