MODEL 1
REMARK minimizedAffinity -2.08217812
REMARK minimizedRMSD -1
REMARK  0 active torsions:
REMARK  status: ('A' for Active; 'I' for Inactive)
ROOT
ATOM      1  C   UNL d   1      -0.607   0.033   1.756  0.00  0.00     0.020 A 
ATOM      2  C1  UNL d   1      -1.509  -0.908   1.261  0.00  0.00     0.020 A 
ATOM      3  C2  UNL d   1      -1.169  -1.683   0.150  0.00  0.00     0.034 A 
ATOM      4  C3  UNL d   1       0.075  -1.519  -0.469  0.00  0.00     0.017 A 
ATOM      5  C4  UNL d   1       0.979  -0.574   0.029  0.00  0.00     0.017 A 
ATOM      6  C5  UNL d   1       0.634   0.199   1.141  0.00  0.00     0.034 A 
ATOM      7 Cl   UNL d   1       2.533  -0.314  -0.682  0.00  0.00    -0.070 Cl
ATOM      8 Cl1  UNL d   1       0.428  -2.512  -1.838  0.00  0.00    -0.070 Cl
ENDROOT
TORSDOF 0
ENDMDL
