MODEL 1
REMARK minimizedAffinity -3.74842787
REMARK minimizedRMSD -1
REMARK  0 active torsions:
REMARK  status: ('A' for Active; 'I' for Inactive)
ROOT
ATOM      1  C   UNL d   1       1.566  -0.382  -0.576  0.00  0.00     0.020 A 
ATOM      2  C1  UNL d   1       0.806  -0.903   0.471  0.00  0.00     0.020 A 
ATOM      3  C2  UNL d   1      -0.195  -0.127   1.060  0.00  0.00     0.034 A 
ATOM      4  C3  UNL d   1      -0.438   1.173   0.602  0.00  0.00     0.017 A 
ATOM      5  C4  UNL d   1       0.326   1.695  -0.448  0.00  0.00     0.017 A 
ATOM      6  C5  UNL d   1       1.326   0.914  -1.034  0.00  0.00     0.034 A 
ATOM      7 Cl   UNL d   1       0.084   3.291  -1.067  0.00  0.00    -0.070 Cl
ATOM      8 Cl1  UNL d   1      -1.691   2.076   1.377  0.00  0.00    -0.070 Cl
ENDROOT
TORSDOF 0
ENDMDL
