MODEL 1
REMARK minimizedAffinity -2.08801079
REMARK minimizedRMSD -1
REMARK  0 active torsions:
REMARK  status: ('A' for Active; 'I' for Inactive)
ROOT
ATOM      1  C   UNL d   1       1.513   1.388  -1.493  0.00  0.00     0.020 A 
ATOM      2  C1  UNL d   1       0.554   1.888  -0.613  0.00  0.00     0.020 A 
ATOM      3  C2  UNL d   1      -0.402   1.033  -0.062  0.00  0.00     0.034 A 
ATOM      4  C3  UNL d   1      -0.402  -0.328  -0.390  0.00  0.00     0.017 A 
ATOM      5  C4  UNL d   1       0.561  -0.830  -1.273  0.00  0.00     0.017 A 
ATOM      6  C5  UNL d   1       1.516   0.032  -1.822  0.00  0.00     0.034 A 
ATOM      7 Cl   UNL d   1       0.625  -2.497  -1.726  0.00  0.00    -0.070 Cl
ATOM      8 Cl1  UNL d   1      -1.613  -1.328   0.329  0.00  0.00    -0.070 Cl
ENDROOT
TORSDOF 0
ENDMDL
