MODEL 1
REMARK minimizedAffinity -3.72864509
REMARK minimizedRMSD -1
REMARK  2 active torsions:
REMARK  status: ('A' for Active; 'I' for Inactive)
REMARK    1  A    between atoms: C1_2  and  C2_3 
REMARK    2  A    between atoms: C2_3  and  C3_4 
ROOT
ATOM      1  C3  UNL d   1       0.386  -0.097  -0.233  0.00  0.00    -0.075 A 
ATOM      2  C4  UNL d   1       0.203  -0.621   1.055  0.00  0.00     0.002 A 
ATOM      3  C5  UNL d   1      -0.619   0.031   1.974  0.00  0.00     0.002 A 
ATOM      4  C6  UNL d   1      -1.259   1.218   1.622  0.00  0.00    -0.004 A 
ATOM      5  C7  UNL d   1      -1.071   1.756   0.351  0.00  0.00     0.002 A 
ATOM      6  C8  UNL d   1      -0.253   1.103  -0.573  0.00  0.00     0.002 A 
ENDROOT
BRANCH   1   7
ATOM      7  C2  UNL d   1       1.251  -0.814  -1.243  0.00  0.00     0.056 C 
BRANCH   7   8
ATOM      8  C1  UNL d   1       1.157  -2.342  -1.172  0.00  0.00     0.007 C 
ATOM      9  C   UNL d   1       0.691  -2.976  -2.475  0.00  0.00     0.009 C 
ENDBRANCH   7   8
ENDBRANCH   1   7
TORSDOF 2
ENDMDL
