MODEL 1
REMARK minimizedAffinity -3.77192664
REMARK minimizedRMSD -1
REMARK  2 active torsions:
REMARK  status: ('A' for Active; 'I' for Inactive)
REMARK    1  A    between atoms: C1_2  and  C2_3 
REMARK    2  A    between atoms: C2_3  and  C3_4 
ROOT
ATOM      1  C3  UNL d   1       0.218  -0.597  -0.485  0.00  0.00    -0.075 A 
ATOM      2  C4  UNL d   1      -0.116  -0.993   0.818  0.00  0.00     0.002 A 
ATOM      3  C5  UNL d   1      -0.949  -0.200   1.608  0.00  0.00     0.002 A 
ATOM      4  C6  UNL d   1      -1.449   1.001   1.110  0.00  0.00    -0.004 A 
ATOM      5  C7  UNL d   1      -1.111   1.413  -0.177  0.00  0.00     0.002 A 
ATOM      6  C8  UNL d   1      -0.281   0.619  -0.971  0.00  0.00     0.002 A 
ENDROOT
BRANCH   1   7
ATOM      7  C2  UNL d   1       1.095  -1.464  -1.356  0.00  0.00     0.056 C 
BRANCH   7   8
ATOM      8  C1  UNL d   1       0.505  -2.846  -1.655  0.00  0.00     0.007 C 
ATOM      9  C   UNL d   1      -0.141  -2.938  -3.031  0.00  0.00     0.009 C 
ENDBRANCH   7   8
ENDBRANCH   1   7
TORSDOF 2
ENDMDL
