MODEL 1
REMARK minimizedAffinity -2.52709126
REMARK minimizedRMSD -1
REMARK  2 active torsions:
REMARK  status: ('A' for Active; 'I' for Inactive)
REMARK    1  A    between atoms: C1_2  and  C2_3 
REMARK    2  A    between atoms: C2_3  and  C3_4 
ROOT
ATOM      1  C3  UNL d   1       0.503  -0.161  -0.228  0.00  0.00    -0.075 A 
ATOM      2  C4  UNL d   1       0.139  -0.688   1.019  0.00  0.00     0.002 A 
ATOM      3  C5  UNL d   1      -0.762  -0.010   1.840  0.00  0.00     0.002 A 
ATOM      4  C6  UNL d   1      -1.303   1.207   1.429  0.00  0.00    -0.004 A 
ATOM      5  C7  UNL d   1      -0.936   1.748   0.199  0.00  0.00     0.002 A 
ATOM      6  C8  UNL d   1      -0.037   1.069  -0.626  0.00  0.00     0.002 A 
ENDROOT
BRANCH   1   7
ATOM      7  C2  UNL d   1       1.456  -0.905  -1.133  0.00  0.00     0.056 C 
BRANCH   7   8
ATOM      8  C1  UNL d   1       1.276  -2.426  -1.113  0.00  0.00     0.007 C 
ATOM      9  C   UNL d   1       0.336  -2.934  -2.198  0.00  0.00     0.009 C 
ENDBRANCH   7   8
ENDBRANCH   1   7
TORSDOF 2
ENDMDL
