MODEL 1
REMARK minimizedAffinity -2.97570968
REMARK minimizedRMSD -1
REMARK  2 active torsions:
REMARK  status: ('A' for Active; 'I' for Inactive)
REMARK    1  A    between atoms: C1_2  and  C2_3 
REMARK    2  A    between atoms: C2_3  and  C3_4 
ROOT
ATOM      1  C3  UNL d   1      -0.138  -0.159  -0.221  0.00  0.00    -0.075 A 
ATOM      2  C4  UNL d   1      -0.991   0.551  -1.079  0.00  0.00     0.002 A 
ATOM      3  C5  UNL d   1      -1.870   1.508  -0.572  0.00  0.00     0.002 A 
ATOM      4  C6  UNL d   1      -1.914   1.761   0.798  0.00  0.00    -0.004 A 
ATOM      5  C7  UNL d   1      -1.083   1.050   1.661  0.00  0.00     0.002 A 
ATOM      6  C8  UNL d   1      -0.200   0.094   1.155  0.00  0.00     0.002 A 
ENDROOT
BRANCH   1   7
ATOM      7  C2  UNL d   1       0.836  -1.176  -0.768  0.00  0.00     0.056 C 
BRANCH   7   8
ATOM      8  C1  UNL d   1       0.301  -1.974  -1.961  0.00  0.00     0.007 C 
ATOM      9  C   UNL d   1       0.615  -3.462  -1.878  0.00  0.00     0.009 C 
ENDBRANCH   7   8
ENDBRANCH   1   7
TORSDOF 2
ENDMDL
