MODEL 1
REMARK minimizedAffinity -5.48386002
REMARK minimizedRMSD -1
REMARK  2 active torsions:
REMARK  status: ('A' for Active; 'I' for Inactive)
REMARK    1  A    between atoms: C1_2  and  C2_3 
REMARK    2  A    between atoms: C2_3  and  C3_4 
ROOT
ATOM      1  C3  UNL d   1       0.253  -0.009   0.095  0.00  0.00    -0.075 A 
ATOM      2  C4  UNL d   1      -0.921   0.589  -0.386  0.00  0.00     0.002 A 
ATOM      3  C5  UNL d   1      -1.898   1.044   0.499  0.00  0.00     0.002 A 
ATOM      4  C6  UNL d   1      -1.720   0.898   1.873  0.00  0.00    -0.004 A 
ATOM      5  C7  UNL d   1      -0.565   0.290   2.362  0.00  0.00     0.002 A 
ATOM      6  C8  UNL d   1       0.416  -0.162   1.478  0.00  0.00     0.002 A 
ENDROOT
BRANCH   1   7
ATOM      7  C2  UNL d   1       1.328  -0.477  -0.857  0.00  0.00     0.056 C 
BRANCH   7   8
ATOM      8  C1  UNL d   1       1.383  -1.998  -1.036  0.00  0.00     0.007 C 
ATOM      9  C   UNL d   1       0.549  -2.494  -2.209  0.00  0.00     0.009 C 
ENDBRANCH   7   8
ENDBRANCH   1   7
TORSDOF 2
ENDMDL
