MODEL 1
REMARK minimizedAffinity -3.20980692
REMARK minimizedRMSD -1
REMARK  2 active torsions:
REMARK  status: ('A' for Active; 'I' for Inactive)
REMARK    1  A    between atoms: C1_2  and  C2_3 
REMARK    2  A    between atoms: C2_3  and  C3_4 
ROOT
ATOM      1  C3  UNL d   1      -0.909   1.271  -0.291  0.00  0.00    -0.075 A 
ATOM      2  C4  UNL d   1      -0.474  -0.017   0.051  0.00  0.00     0.002 A 
ATOM      3  C5  UNL d   1       0.706  -0.533  -0.486  0.00  0.00     0.002 A 
ATOM      4  C6  UNL d   1       1.459   0.227  -1.378  0.00  0.00    -0.004 A 
ATOM      5  C7  UNL d   1       1.028   1.502  -1.738  0.00  0.00     0.002 A 
ATOM      6  C8  UNL d   1      -0.150   2.022  -1.199  0.00  0.00     0.002 A 
ENDROOT
BRANCH   1   7
ATOM      7  C2  UNL d   1      -2.169   1.846   0.310  0.00  0.00     0.056 C 
BRANCH   7   8
ATOM      8  C1  UNL d   1      -1.966   2.495   1.683  0.00  0.00     0.007 C 
ATOM      9  C   UNL d   1      -0.730   1.985   2.411  0.00  0.00     0.009 C 
ENDBRANCH   7   8
ENDBRANCH   1   7
TORSDOF 2
ENDMDL
