MODEL 1
REMARK minimizedAffinity -4.9590044
REMARK minimizedRMSD -1
REMARK  2 active torsions:
REMARK  status: ('A' for Active; 'I' for Inactive)
REMARK    1  A    between atoms: C1_2  and  C2_3 
REMARK    2  A    between atoms: C2_3  and  C3_4 
ROOT
ATOM      1  C3  UNL d   1      -0.058  -0.077  -0.073  0.00  0.00    -0.075 A 
ATOM      2  C4  UNL d   1      -0.328  -0.025   1.302  0.00  0.00     0.002 A 
ATOM      3  C5  UNL d   1      -1.156   0.969   1.825  0.00  0.00     0.002 A 
ATOM      4  C6  UNL d   1      -1.715   1.928   0.982  0.00  0.00    -0.004 A 
ATOM      5  C7  UNL d   1      -1.440   1.896  -0.383  0.00  0.00     0.002 A 
ATOM      6  C8  UNL d   1      -0.615   0.900  -0.909  0.00  0.00     0.002 A 
ENDROOT
BRANCH   1   7
ATOM      7  C2  UNL d   1       0.814  -1.167  -0.648  0.00  0.00     0.056 C 
BRANCH   7   8
ATOM      8  C1  UNL d   1       0.236  -1.831  -1.903  0.00  0.00     0.007 C 
ATOM      9  C   UNL d   1       0.660  -3.285  -2.062  0.00  0.00     0.009 C 
ENDBRANCH   7   8
ENDBRANCH   1   7
TORSDOF 2
ENDMDL
