MODEL 1
REMARK minimizedAffinity -1.52687335
REMARK minimizedRMSD -1
REMARK  2 active torsions:
REMARK  status: ('A' for Active; 'I' for Inactive)
REMARK    1  A    between atoms: C1_2  and  C2_3 
REMARK    2  A    between atoms: C2_3  and  C3_4 
ROOT
ATOM      1  C3  UNL d   1       0.706  -0.498  -0.845  0.00  0.00    -0.075 A 
ATOM      2  C4  UNL d   1      -0.427  -0.534  -0.020  0.00  0.00     0.002 A 
ATOM      3  C5  UNL d   1      -1.209   0.607   0.160  0.00  0.00     0.002 A 
ATOM      4  C6  UNL d   1      -0.863   1.799  -0.473  0.00  0.00    -0.004 A 
ATOM      5  C7  UNL d   1       0.269   1.851  -1.282  0.00  0.00     0.002 A 
ATOM      6  C8  UNL d   1       1.051   0.709  -1.467  0.00  0.00     0.002 A 
ENDROOT
BRANCH   1   7
ATOM      7  C2  UNL d   1       1.540  -1.737  -1.068  0.00  0.00     0.056 C 
BRANCH   7   8
ATOM      8  C1  UNL d   1       0.825  -2.836  -1.861  0.00  0.00     0.007 C 
ATOM      9  C   UNL d   1       0.362  -2.378  -3.238  0.00  0.00     0.009 C 
ENDBRANCH   7   8
ENDBRANCH   1   7
TORSDOF 2
ENDMDL
