MODEL 1
REMARK minimizedAffinity -4.64075851
REMARK minimizedRMSD -1
REMARK  2 active torsions:
REMARK  status: ('A' for Active; 'I' for Inactive)
REMARK    1  A    between atoms: C1_2  and  C2_3 
REMARK    2  A    between atoms: C2_3  and  C3_4 
ROOT
ATOM      1  C3  UNL d   1      -0.160  -0.203  -0.714  0.00  0.00    -0.075 A 
ATOM      2  C4  UNL d   1       0.091  -0.745   0.554  0.00  0.00     0.002 A 
ATOM      3  C5  UNL d   1      -0.561  -0.243   1.681  0.00  0.00     0.002 A 
ATOM      4  C6  UNL d   1      -1.462   0.812   1.555  0.00  0.00    -0.004 A 
ATOM      5  C7  UNL d   1      -1.706   1.369   0.302  0.00  0.00     0.002 A 
ATOM      6  C8  UNL d   1      -1.059   0.866  -0.828  0.00  0.00     0.002 A 
ENDROOT
BRANCH   1   7
ATOM      7  C2  UNL d   1       0.521  -0.762  -1.941  0.00  0.00     0.056 C 
BRANCH   7   8
ATOM      8  C1  UNL d   1      -0.336  -1.757  -2.731  0.00  0.00     0.007 C 
ATOM      9  C   UNL d   1      -0.078  -3.208  -2.347  0.00  0.00     0.009 C 
ENDBRANCH   7   8
ENDBRANCH   1   7
TORSDOF 2
ENDMDL
