MODEL 1
REMARK minimizedAffinity -2.031286
REMARK minimizedRMSD -1
REMARK  2 active torsions:
REMARK  status: ('A' for Active; 'I' for Inactive)
REMARK    1  A    between atoms: C1_2  and  C2_3 
REMARK    2  A    between atoms: C2_3  and  C3_4 
ROOT
ATOM      1  C3  UNL d   1      -0.368   0.174   0.077  0.00  0.00    -0.075 A 
ATOM      2  C4  UNL d   1      -1.180   1.243  -0.329  0.00  0.00     0.002 A 
ATOM      3  C5  UNL d   1      -1.821   2.044   0.616  0.00  0.00     0.002 A 
ATOM      4  C6  UNL d   1      -1.668   1.781   1.975  0.00  0.00    -0.004 A 
ATOM      5  C7  UNL d   1      -0.878   0.712   2.390  0.00  0.00     0.002 A 
ATOM      6  C8  UNL d   1      -0.231  -0.089   1.446  0.00  0.00     0.002 A 
ENDROOT
BRANCH   1   7
ATOM      7  C2  UNL d   1       0.352  -0.679  -0.940  0.00  0.00     0.056 C 
BRANCH   7   8
ATOM      8  C1  UNL d   1       1.594  -1.390  -0.391  0.00  0.00     0.007 C 
ATOM      9  C   UNL d   1       1.825  -2.760  -1.013  0.00  0.00     0.009 C 
ENDBRANCH   7   8
ENDBRANCH   1   7
TORSDOF 2
ENDMDL
