MODEL 1
REMARK minimizedAffinity -5.92644548
REMARK minimizedRMSD -1
REMARK  2 active torsions:
REMARK  status: ('A' for Active; 'I' for Inactive)
REMARK    1  A    between atoms: C1_2  and  C2_3 
REMARK    2  A    between atoms: C2_3  and  C3_4 
ROOT
ATOM      1  C3  UNL d   1      -0.497  -0.453   0.277  0.00  0.00    -0.075 A 
ATOM      2  C4  UNL d   1      -0.241  -0.146   1.621  0.00  0.00     0.002 A 
ATOM      3  C5  UNL d   1      -0.867   0.942   2.231  0.00  0.00     0.002 A 
ATOM      4  C6  UNL d   1      -1.747   1.740   1.504  0.00  0.00    -0.004 A 
ATOM      5  C7  UNL d   1      -1.996   1.454   0.163  0.00  0.00     0.002 A 
ATOM      6  C8  UNL d   1      -1.375   0.364  -0.448  0.00  0.00     0.002 A 
ENDROOT
BRANCH   1   7
ATOM      7  C2  UNL d   1       0.154  -1.647  -0.380  0.00  0.00     0.056 C 
BRANCH   7   8
ATOM      8  C1  UNL d   1      -0.835  -2.721  -0.844  0.00  0.00     0.007 C 
ATOM      9  C   UNL d   1      -0.459  -3.347  -2.180  0.00  0.00     0.009 C 
ENDBRANCH   7   8
ENDBRANCH   1   7
TORSDOF 2
ENDMDL
