MODEL 1
REMARK minimizedAffinity -1.83992112
REMARK minimizedRMSD -1
REMARK  2 active torsions:
REMARK  status: ('A' for Active; 'I' for Inactive)
REMARK    1  A    between atoms: C1_2  and  C2_3 
REMARK    2  A    between atoms: C2_3  and  C3_4 
ROOT
ATOM      1  C3  UNL d   1      -0.596   0.513  -0.018  0.00  0.00    -0.075 A 
ATOM      2  C4  UNL d   1      -1.205   1.587   0.647  0.00  0.00     0.002 A 
ATOM      3  C5  UNL d   1      -1.003   2.897   0.210  0.00  0.00     0.002 A 
ATOM      4  C6  UNL d   1      -0.183   3.149  -0.887  0.00  0.00    -0.004 A 
ATOM      5  C7  UNL d   1       0.441   2.091  -1.545  0.00  0.00     0.002 A 
ATOM      6  C8  UNL d   1       0.236   0.779  -1.113  0.00  0.00     0.002 A 
ENDROOT
BRANCH   1   7
ATOM      7  C2  UNL d   1      -0.835  -0.909   0.432  0.00  0.00     0.056 C 
BRANCH   7   8
ATOM      8  C1  UNL d   1       0.251  -1.459   1.363  0.00  0.00     0.007 C 
ATOM      9  C   UNL d   1       0.192  -0.872   2.767  0.00  0.00     0.009 C 
ENDBRANCH   7   8
ENDBRANCH   1   7
TORSDOF 2
ENDMDL
