MODEL 1
REMARK minimizedAffinity 7.69382572
REMARK minimizedRMSD -1
REMARK  0 active torsions:
REMARK  status: ('A' for Active; 'I' for Inactive)
ROOT
ATOM      1  C1  DEN d   1       0.405  -5.993  -2.998  0.00  0.00     0.130 A 
ATOM      2  C2  DEN d   1       1.510  -5.966  -3.953  0.00  0.00    -0.031 A 
ATOM      3  C3  DEN d   1       2.774  -5.955  -3.189  0.00  0.00     0.027 A 
ATOM      4  C4  DEN d   1       3.125  -5.982  -0.634  0.00  0.00     0.027 A 
ATOM      5  C5  DEN d   1       2.488  -5.994   0.587  0.00  0.00    -0.003 A 
ATOM      6  C6  DEN d   1       1.123  -5.973   0.698  0.00  0.00     0.001 A 
ATOM      7  C7  DEN d   1       0.350  -5.984  -0.433  0.00  0.00     0.017 A 
ATOM      8  C8  DEN d   1       0.985  -5.964  -1.667  0.00  0.00    -0.094 A 
ATOM      9  C9  DEN d   1       2.366  -5.998  -1.759  0.00  0.00    -0.072 A 
ENDROOT
TORSDOF 0
ENDMDL
