MODEL 1
REMARK minimizedAffinity 11.7055149
REMARK minimizedRMSD -1
REMARK  0 active torsions:
REMARK  status: ('A' for Active; 'I' for Inactive)
ROOT
ATOM      1  C1  DEN d   1      -4.112   1.918  -3.793  0.00  0.00     0.130 A 
ATOM      2  C2  DEN d   1      -5.098   2.888  -3.323  0.00  0.00    -0.031 A 
ATOM      3  C3  DEN d   1      -5.993   2.203  -2.368  0.00  0.00     0.027 A 
ATOM      4  C4  DEN d   1      -5.946  -0.250  -1.573  0.00  0.00     0.027 A 
ATOM      5  C5  DEN d   1      -5.300  -1.459  -1.702  0.00  0.00    -0.003 A 
ATOM      6  C6  DEN d   1      -4.243  -1.636  -2.555  0.00  0.00     0.001 A 
ATOM      7  C7  DEN d   1      -3.771  -0.573  -3.280  0.00  0.00     0.017 A 
ATOM      8  C8  DEN d   1      -4.422   0.648  -3.161  0.00  0.00    -0.094 A 
ATOM      9  C9  DEN d   1      -5.481   0.809  -2.283  0.00  0.00    -0.072 A 
ENDROOT
TORSDOF 0
ENDMDL
