MODEL 1
REMARK minimizedAffinity 2.48799467
REMARK minimizedRMSD -1
REMARK  0 active torsions:
REMARK  status: ('A' for Active; 'I' for Inactive)
ROOT
ATOM      1  C1  DEN d   1       1.402  -1.110   4.117  0.00  0.00     0.130 A 
ATOM      2  C2  DEN d   1       2.249  -0.600   3.042  0.00  0.00    -0.031 A 
ATOM      3  C3  DEN d   1       2.753  -1.754   2.271  0.00  0.00     0.027 A 
ATOM      4  C4  DEN d   1       2.301  -4.267   2.630  0.00  0.00     0.027 A 
ATOM      5  C5  DEN d   1       1.653  -5.189   3.422  0.00  0.00    -0.003 A 
ATOM      6  C6  DEN d   1       0.910  -4.822   4.512  0.00  0.00     0.001 A 
ATOM      7  C7  DEN d   1       0.759  -3.494   4.814  0.00  0.00     0.017 A 
ATOM      8  C8  DEN d   1       1.416  -2.559   4.025  0.00  0.00    -0.094 A 
ATOM      9  C9  DEN d   1       2.152  -2.950   2.920  0.00  0.00    -0.072 A 
ENDROOT
TORSDOF 0
ENDMDL
