MODEL 1
REMARK minimizedAffinity 5.54694319
REMARK minimizedRMSD -1
REMARK  0 active torsions:
REMARK  status: ('A' for Active; 'I' for Inactive)
ROOT
ATOM      1  C1  DEN d   1       2.056  -5.932  -4.596  0.00  0.00     0.130 A 
ATOM      2  C2  DEN d   1       3.005  -5.934  -5.706  0.00  0.00    -0.031 A 
ATOM      3  C3  DEN d   1       4.369  -5.959  -5.141  0.00  0.00     0.027 A 
ATOM      4  C4  DEN d   1       5.100  -5.999  -2.668  0.00  0.00     0.027 A 
ATOM      5  C5  DEN d   1       4.653  -5.995  -1.365  0.00  0.00    -0.003 A 
ATOM      6  C6  DEN d   1       3.322  -5.936  -1.050  0.00  0.00     0.001 A 
ATOM      7  C7  DEN d   1       2.387  -5.924  -2.051  0.00  0.00     0.017 A 
ATOM      8  C8  DEN d   1       2.830  -5.920  -3.368  0.00  0.00    -0.094 A 
ATOM      9  C9  DEN d   1       4.180  -5.993  -3.666  0.00  0.00    -0.072 A 
ENDROOT
TORSDOF 0
ENDMDL
