MODEL 1
REMARK minimizedAffinity 14.7547646
REMARK minimizedRMSD -1
REMARK  0 active torsions:
REMARK  status: ('A' for Active; 'I' for Inactive)
ROOT
ATOM      1  C1  DEN d   1       2.581  -2.334  -1.233  0.00  0.00     0.130 A 
ATOM      2  C2  DEN d   1       3.252  -1.528  -2.249  0.00  0.00    -0.031 A 
ATOM      3  C3  DEN d   1       4.220  -2.393  -2.953  0.00  0.00     0.027 A 
ATOM      4  C4  DEN d   1       4.740  -4.891  -2.572  0.00  0.00     0.027 A 
ATOM      5  C5  DEN d   1       4.433  -5.998  -1.813  0.00  0.00    -0.003 A 
ATOM      6  C6  DEN d   1       3.519  -5.954  -0.793  0.00  0.00     0.001 A 
ATOM      7  C7  DEN d   1       2.847  -4.789  -0.534  0.00  0.00     0.017 A 
ATOM      8  C8  DEN d   1       3.157  -3.666  -1.291  0.00  0.00    -0.094 A 
ATOM      9  C9  DEN d   1       4.074  -3.734  -2.325  0.00  0.00    -0.072 A 
ENDROOT
TORSDOF 0
ENDMDL
