MODEL 1
REMARK minimizedAffinity 12.3412914
REMARK minimizedRMSD -1
REMARK  0 active torsions:
REMARK  status: ('A' for Active; 'I' for Inactive)
ROOT
ATOM      1  C1  DEN d   1      -5.987   1.500  -2.439  0.00  0.00     0.130 A 
ATOM      2  C2  DEN d   1      -5.993   2.444  -3.554  0.00  0.00    -0.031 A 
ATOM      3  C3  DEN d   1      -5.974   3.811  -2.996  0.00  0.00     0.027 A 
ATOM      4  C4  DEN d   1      -5.931   4.554  -0.526  0.00  0.00     0.027 A 
ATOM      5  C5  DEN d   1      -5.929   4.113   0.779  0.00  0.00    -0.003 A 
ATOM      6  C6  DEN d   1      -5.980   2.783   1.100  0.00  0.00     0.001 A 
ATOM      7  C7  DEN d   1      -5.990   1.844   0.103  0.00  0.00     0.017 A 
ATOM      8  C8  DEN d   1      -6.000   2.280  -1.215  0.00  0.00    -0.094 A 
ATOM      9  C9  DEN d   1      -5.935   3.629  -1.519  0.00  0.00    -0.072 A 
ENDROOT
TORSDOF 0
ENDMDL
