MODEL 1
REMARK minimizedAffinity -1.73919868
REMARK minimizedRMSD -1
REMARK  0 active torsions:
REMARK  status: ('A' for Active; 'I' for Inactive)
ROOT
ATOM      1  C1  DEN d   1       3.820  -0.107   1.829  0.00  0.00     0.130 A 
ATOM      2  C2  DEN d   1       4.914  -0.829   1.185  0.00  0.00    -0.031 A 
ATOM      3  C3  DEN d   1       4.627  -2.274   1.282  0.00  0.00     0.027 A 
ATOM      4  C4  DEN d   1       2.603  -3.457   2.358  0.00  0.00     0.027 A 
ATOM      5  C5  DEN d   1       1.422  -3.264   3.040  0.00  0.00    -0.003 A 
ATOM      6  C6  DEN d   1       0.978  -2.018   3.393  0.00  0.00     0.001 A 
ATOM      7  C7  DEN d   1       1.698  -0.912   3.026  0.00  0.00     0.017 A 
ATOM      8  C8  DEN d   1       2.893  -1.098   2.344  0.00  0.00    -0.094 A 
ATOM      9  C9  DEN d   1       3.319  -2.366   1.986  0.00  0.00    -0.072 A 
ENDROOT
TORSDOF 0
ENDMDL
