MODEL 1
REMARK minimizedAffinity 15.5286808
REMARK minimizedRMSD -1
REMARK  0 active torsions:
REMARK  status: ('A' for Active; 'I' for Inactive)
ROOT
ATOM      1  C4' PXY d   1      -6.000   2.442   3.219  0.00  0.00     0.077 C 
ATOM      2  C1' PXY d   1      -1.011  -0.462   3.528  0.00  0.00     0.077 C 
ATOM      3  C1  PXY d   1      -2.320   0.300   3.460  0.00  0.00    -0.082 A 
ATOM      4  C2  PXY d   1      -3.118   0.139   2.417  0.00  0.00     0.003 A 
ATOM      5  C3  PXY d   1      -4.289   0.845   2.324  0.00  0.00     0.003 A 
ATOM      6  C4  PXY d   1      -4.674   1.685   3.334  0.00  0.00    -0.082 A 
ATOM      7  C5  PXY d   1      -3.871   1.847   4.407  0.00  0.00     0.003 A 
ATOM      8  C6  PXY d   1      -2.666   1.152   4.463  0.00  0.00     0.003 A 
ENDROOT
TORSDOF 0
ENDMDL
