MODEL 1
REMARK minimizedAffinity 6.47001982
REMARK minimizedRMSD -1
REMARK  0 active torsions:
REMARK  status: ('A' for Active; 'I' for Inactive)
ROOT
ATOM      1  C4' PXY d   1      -3.664  -1.187  -2.171  0.00  0.00     0.077 C 
ATOM      2  C1' PXY d   1      -3.946   4.326  -3.886  0.00  0.00     0.077 C 
ATOM      3  C1  PXY d   1      -3.882   2.877  -3.444  0.00  0.00    -0.082 A 
ATOM      4  C2  PXY d   1      -3.311   2.570  -2.291  0.00  0.00     0.003 A 
ATOM      5  C3  PXY d   1      -3.216   1.262  -1.891  0.00  0.00     0.003 A 
ATOM      6  C4  PXY d   1      -3.759   0.263  -2.653  0.00  0.00    -0.082 A 
ATOM      7  C5  PXY d   1      -4.354   0.569  -3.826  0.00  0.00     0.003 A 
ATOM      8  C6  PXY d   1      -4.403   1.899  -4.234  0.00  0.00     0.003 A 
ENDROOT
TORSDOF 0
ENDMDL
