MODEL 1
REMARK minimizedAffinity 12.8552723
REMARK minimizedRMSD -1
REMARK  0 active torsions:
REMARK  status: ('A' for Active; 'I' for Inactive)
ROOT
ATOM      1  C4' PXY d   1       1.504   2.381   1.494  0.00  0.00     0.077 C 
ATOM      2  C1' PXY d   1       1.394   6.000   6.000  0.00  0.00     0.077 C 
ATOM      3  C1  PXY d   1       1.410   5.050   4.818  0.00  0.00    -0.082 A 
ATOM      4  C2  PXY d   1       2.492   4.330   4.573  0.00  0.00     0.003 A 
ATOM      5  C3  PXY d   1       2.535   3.490   3.490  0.00  0.00     0.003 A 
ATOM      6  C4  PXY d   1       1.440   3.346   2.681  0.00  0.00    -0.082 A 
ATOM      7  C5  PXY d   1       0.328   4.069   2.931  0.00  0.00     0.003 A 
ATOM      8  C6  PXY d   1       0.319   4.947   4.011  0.00  0.00     0.003 A 
ENDROOT
TORSDOF 0
ENDMDL
