MODEL 1
REMARK minimizedAffinity 10.3307066
REMARK minimizedRMSD -1
REMARK  0 active torsions:
REMARK  status: ('A' for Active; 'I' for Inactive)
ROOT
ATOM      1  C4' PXY d   1       1.561  -0.447   3.090  0.00  0.00     0.077 C 
ATOM      2  C1' PXY d   1       3.124  -5.007  -0.101  0.00  0.00     0.077 C 
ATOM      3  C1  PXY d   1       2.725  -3.812   0.743  0.00  0.00    -0.082 A 
ATOM      4  C2  PXY d   1       1.444  -3.522   0.902  0.00  0.00     0.003 A 
ATOM      5  C3  PXY d   1       1.067  -2.426   1.635  0.00  0.00     0.003 A 
ATOM      6  C4  PXY d   1       2.009  -1.649   2.255  0.00  0.00    -0.082 A 
ATOM      7  C5  PXY d   1       3.318  -1.945   2.105  0.00  0.00     0.003 A 
ATOM      8  C6  PXY d   1       3.681  -3.037   1.324  0.00  0.00     0.003 A 
ENDROOT
TORSDOF 0
ENDMDL
