MODEL 1
REMARK minimizedAffinity 10.5842857
REMARK minimizedRMSD -1
REMARK  0 active torsions:
REMARK  status: ('A' for Active; 'I' for Inactive)
ROOT
ATOM      1  C4' PXY d   1       4.353  -3.336   3.721  0.00  0.00     0.077 C 
ATOM      2  C1' PXY d   1       0.572  -1.210  -0.101  0.00  0.00     0.077 C 
ATOM      3  C1  PXY d   1       1.566  -1.778   0.894  0.00  0.00    -0.082 A 
ATOM      4  C2  PXY d   1       1.500  -1.414   2.164  0.00  0.00     0.003 A 
ATOM      5  C3  PXY d   1       2.410  -1.893   3.071  0.00  0.00     0.003 A 
ATOM      6  C4  PXY d   1       3.365  -2.795   2.684  0.00  0.00    -0.082 A 
ATOM      7  C5  PXY d   1       3.431  -3.180   1.392  0.00  0.00     0.003 A 
ATOM      8  C6  PXY d   1       2.524  -2.650   0.479  0.00  0.00     0.003 A 
ENDROOT
TORSDOF 0
ENDMDL
