MODEL 1
REMARK minimizedAffinity 6.57948065
REMARK minimizedRMSD -1
REMARK  0 active torsions:
REMARK  status: ('A' for Active; 'I' for Inactive)
ROOT
ATOM      1  C4' PXY d   1       4.916  -3.183   4.829  0.00  0.00     0.077 C 
ATOM      2  C1' PXY d   1       2.366  -2.968  -0.354  0.00  0.00     0.077 C 
ATOM      3  C1  PXY d   1       3.040  -3.036   1.002  0.00  0.00    -0.082 A 
ATOM      4  C2  PXY d   1       2.545  -2.342   2.014  0.00  0.00     0.003 A 
ATOM      5  C3  PXY d   1       3.160  -2.367   3.239  0.00  0.00     0.003 A 
ATOM      6  C4  PXY d   1       4.263  -3.152   3.445  0.00  0.00    -0.082 A 
ATOM      7  C5  PXY d   1       4.768  -3.872   2.420  0.00  0.00     0.003 A 
ATOM      8  C6  PXY d   1       4.153  -3.800   1.174  0.00  0.00     0.003 A 
ENDROOT
TORSDOF 0
ENDMDL
