MODEL 1
REMARK minimizedAffinity 1.90713775
REMARK minimizedRMSD -1
REMARK  0 active torsions:
REMARK  status: ('A' for Active; 'I' for Inactive)
ROOT
ATOM      1  C4' PXY d   1       3.646  -4.099   0.455  0.00  0.00     0.077 C 
ATOM      2  C1' PXY d   1       5.148  -2.844   5.894  0.00  0.00     0.077 C 
ATOM      3  C1  PXY d   1       4.759  -3.185   4.470  0.00  0.00    -0.082 A 
ATOM      4  C2  PXY d   1       4.624  -2.216   3.578  0.00  0.00     0.003 A 
ATOM      5  C3  PXY d   1       4.242  -2.504   2.293  0.00  0.00     0.003 A 
ATOM      6  C4  PXY d   1       4.047  -3.802   1.903  0.00  0.00    -0.082 A 
ATOM      7  C5  PXY d   1       4.193  -4.797   2.803  0.00  0.00     0.003 A 
ATOM      8  C6  PXY d   1       4.541  -4.480   4.113  0.00  0.00     0.003 A 
ENDROOT
TORSDOF 0
ENDMDL
