MODEL 1
REMARK minimizedAffinity 7.91996622
REMARK minimizedRMSD -1
REMARK  0 active torsions:
REMARK  status: ('A' for Active; 'I' for Inactive)
ROOT
ATOM      1  C4' PXY d   1       1.869  -2.702   0.551  0.00  0.00     0.077 C 
ATOM      2  C1' PXY d   1       5.165  -2.446   5.293  0.00  0.00     0.077 C 
ATOM      3  C1  PXY d   1       4.311  -2.518   4.043  0.00  0.00    -0.082 A 
ATOM      4  C2  PXY d   1       3.245  -1.741   3.933  0.00  0.00     0.003 A 
ATOM      5  C3  PXY d   1       2.444  -1.816   2.823  0.00  0.00     0.003 A 
ATOM      6  C4  PXY d   1       2.766  -2.656   1.791  0.00  0.00    -0.082 A 
ATOM      7  C5  PXY d   1       3.857  -3.444   1.891  0.00  0.00     0.003 A 
ATOM      8  C6  PXY d   1       4.635  -3.383   3.044  0.00  0.00     0.003 A 
ENDROOT
TORSDOF 0
ENDMDL
