MODEL 1
REMARK minimizedAffinity 7.88186502
REMARK minimizedRMSD -1
REMARK  0 active torsions:
REMARK  status: ('A' for Active; 'I' for Inactive)
ROOT
ATOM      1  C4' PXY d   1       1.353  -0.527   2.340  0.00  0.00     0.077 C 
ATOM      2  C1' PXY d   1       3.269  -5.356  -0.197  0.00  0.00     0.077 C 
ATOM      3  C1  PXY d   1       2.773  -4.092   0.479  0.00  0.00    -0.082 A 
ATOM      4  C2  PXY d   1       1.647  -3.530   0.070  0.00  0.00     0.003 A 
ATOM      5  C3  PXY d   1       1.201  -2.370   0.649  0.00  0.00     0.003 A 
ATOM      6  C4  PXY d   1       1.887  -1.808   1.693  0.00  0.00    -0.082 A 
ATOM      7  C5  PXY d   1       3.031  -2.382   2.123  0.00  0.00     0.003 A 
ATOM      8  C6  PXY d   1       3.488  -3.537   1.495  0.00  0.00     0.003 A 
ENDROOT
TORSDOF 0
ENDMDL
