MODEL 1
REMARK minimizedAffinity -0.997657835
REMARK minimizedRMSD -1
REMARK  0 active torsions:
REMARK  status: ('A' for Active; 'I' for Inactive)
ROOT
ATOM      1  C4' PXY d   1       6.000   2.425  -5.946  0.00  0.00     0.077 C 
ATOM      2  C1' PXY d   1       1.453   5.995  -5.993  0.00  0.00     0.077 C 
ATOM      3  C1  PXY d   1       2.653   5.068  -5.986  0.00  0.00    -0.082 A 
ATOM      4  C2  PXY d   1       2.467   3.758  -5.965  0.00  0.00     0.003 A 
ATOM      5  C3  PXY d   1       3.541   2.906  -5.926  0.00  0.00     0.003 A 
ATOM      6  C4  PXY d   1       4.818   3.399  -5.963  0.00  0.00    -0.082 A 
ATOM      7  C5  PXY d   1       5.015   4.734  -5.996  0.00  0.00     0.003 A 
ATOM      8  C6  PXY d   1       3.912   5.583  -5.993  0.00  0.00     0.003 A 
ENDROOT
TORSDOF 0
ENDMDL
