MODEL 1
REMARK minimizedAffinity 10.3417263
REMARK minimizedRMSD -1
REMARK  0 active torsions:
REMARK  status: ('A' for Active; 'I' for Inactive)
ROOT
ATOM      1  C4' PXY d   1       5.025  -5.229  -0.020  0.00  0.00     0.077 C 
ATOM      2  C1' PXY d   1       0.853  -1.577   1.614  0.00  0.00     0.077 C 
ATOM      3  C1  PXY d   1       1.939  -2.544   1.186  0.00  0.00    -0.082 A 
ATOM      4  C2  PXY d   1       3.206  -2.257   1.433  0.00  0.00     0.003 A 
ATOM      5  C3  PXY d   1       4.203  -3.105   1.024  0.00  0.00     0.003 A 
ATOM      6  C4  PXY d   1       3.895  -4.286   0.403  0.00  0.00    -0.082 A 
ATOM      7  C5  PXY d   1       2.604  -4.592   0.157  0.00  0.00     0.003 A 
ATOM      8  C6  PXY d   1       1.610  -3.698   0.544  0.00  0.00     0.003 A 
ENDROOT
TORSDOF 0
ENDMDL
