MODEL 1
REMARK minimizedAffinity 3.35394263
REMARK minimizedRMSD -1
REMARK  0 active torsions:
REMARK  status: ('A' for Active; 'I' for Inactive)
ROOT
ATOM      1  C4' PXY d   1       5.172  -3.777   4.687  0.00  0.00     0.077 C 
ATOM      2  C1' PXY d   1       3.336  -3.086  -0.750  0.00  0.00     0.077 C 
ATOM      3  C1  PXY d   1       3.828  -3.274   0.672  0.00  0.00    -0.082 A 
ATOM      4  C2  PXY d   1       2.975  -3.167   1.678  0.00  0.00     0.003 A 
ATOM      5  C3  PXY d   1       3.409  -3.303   2.972  0.00  0.00     0.003 A 
ATOM      6  C4  PXY d   1       4.719  -3.604   3.235  0.00  0.00    -0.082 A 
ATOM      7  C5  PXY d   1       5.592  -3.725   2.213  0.00  0.00     0.003 A 
ATOM      8  C6  PXY d   1       5.140  -3.543   0.910  0.00  0.00     0.003 A 
ENDROOT
TORSDOF 0
ENDMDL
