MODEL 1
REMARK minimizedAffinity -3.81464839
REMARK minimizedRMSD -1
REMARK  1 active torsions:
REMARK  status: ('A' for Active; 'I' for Inactive)
REMARK    1  A    between atoms: C1_2  and  C2_3 
ROOT
ATOM      1  C2  UNL d   1       4.917  -4.365   4.859  0.00  0.00    -0.081 A 
ATOM      2  C3  UNL d   1       4.627  -2.995   4.875  0.00  0.00     0.006 A 
ATOM      3  C4  UNL d   1       4.986  -2.183   3.797  0.00  0.00     0.002 A 
ATOM      4  C5  UNL d   1       5.635  -2.727   2.684  0.00  0.00    -0.080 A 
ATOM      5  C6  UNL d   1       6.000  -1.871   1.507  0.00  0.00     0.076 C 
ATOM      6  C7  UNL d   1       5.941  -4.092   2.675  0.00  0.00     0.002 A 
ATOM      7  C8  UNL d   1       5.582  -4.905   3.753  0.00  0.00     0.006 A 
ENDROOT
BRANCH   1   8
ATOM      8  C1  UNL d   1       4.473  -5.256   5.991  0.00  0.00     0.054 C 
ATOM      9  C   UNL d   1       2.961  -5.428   5.999  0.00  0.00     0.018 C 
ENDBRANCH   1   8
TORSDOF 1
ENDMDL
