MODEL 1
REMARK minimizedAffinity 0.541176975
REMARK minimizedRMSD -1
REMARK  1 active torsions:
REMARK  status: ('A' for Active; 'I' for Inactive)
REMARK    1  A    between atoms: C1_2  and  C2_3 
ROOT
ATOM      1  C2  UNL d   1       5.815  -3.260   4.536  0.00  0.00    -0.081 A 
ATOM      2  C3  UNL d   1       5.784  -1.888   4.260  0.00  0.00     0.006 A 
ATOM      3  C4  UNL d   1       5.855  -1.429   2.943  0.00  0.00     0.002 A 
ATOM      4  C5  UNL d   1       5.950  -2.334   1.880  0.00  0.00    -0.080 A 
ATOM      5  C6  UNL d   1       5.997  -1.856   0.459  0.00  0.00     0.076 C 
ATOM      6  C7  UNL d   1       5.999  -3.704   2.157  0.00  0.00     0.002 A 
ATOM      7  C8  UNL d   1       5.928  -4.164   3.474  0.00  0.00     0.006 A 
ENDROOT
BRANCH   1   8
ATOM      8  C1  UNL d   1       5.673  -3.761   5.951  0.00  0.00     0.054 C 
ATOM      9  C   UNL d   1       5.640  -5.281   6.000  0.00  0.00     0.018 C 
ENDBRANCH   1   8
TORSDOF 1
ENDMDL
