MODEL 1
REMARK minimizedAffinity -1.9578948
REMARK minimizedRMSD -1
REMARK  1 active torsions:
REMARK  status: ('A' for Active; 'I' for Inactive)
REMARK    1  A    between atoms: C1_2  and  C2_3 
ROOT
ATOM      1  C2  UNL d   1       5.941  -3.199   2.698  0.00  0.00    -0.081 A 
ATOM      2  C3  UNL d   1       5.971  -2.730   4.017  0.00  0.00     0.006 A 
ATOM      3  C4  UNL d   1       5.977  -3.628   5.088  0.00  0.00     0.002 A 
ATOM      4  C5  UNL d   1       5.961  -5.007   4.858  0.00  0.00    -0.080 A 
ATOM      5  C6  UNL d   1       5.998  -5.982   5.997  0.00  0.00     0.076 C 
ATOM      6  C7  UNL d   1       5.914  -5.476   3.540  0.00  0.00     0.002 A 
ATOM      7  C8  UNL d   1       5.907  -4.579   2.469  0.00  0.00     0.006 A 
ENDROOT
BRANCH   1   8
ATOM      8  C1  UNL d   1       6.000  -2.235   1.541  0.00  0.00     0.054 C 
ATOM      9  C   UNL d   1       5.993  -0.791   2.022  0.00  0.00     0.018 C 
ENDBRANCH   1   8
TORSDOF 1
ENDMDL
