MODEL 1
REMARK minimizedAffinity 1.23683679
REMARK minimizedRMSD -1
REMARK  1 active torsions:
REMARK  status: ('A' for Active; 'I' for Inactive)
REMARK    1  A    between atoms: C1_2  and  C2_3 
ROOT
ATOM      1  C2  UNL d   1       5.721  -4.214   4.241  0.00  0.00    -0.081 A 
ATOM      2  C3  UNL d   1       5.673  -5.242   3.291  0.00  0.00     0.006 A 
ATOM      3  C4  UNL d   1       5.750  -4.951   1.927  0.00  0.00     0.002 A 
ATOM      4  C5  UNL d   1       5.883  -3.628   1.490  0.00  0.00    -0.080 A 
ATOM      5  C6  UNL d   1       5.997  -3.304   0.030  0.00  0.00     0.076 C 
ATOM      6  C7  UNL d   1       5.914  -2.600   2.438  0.00  0.00     0.002 A 
ATOM      7  C8  UNL d   1       5.837  -2.890   3.802  0.00  0.00     0.006 A 
ENDROOT
BRANCH   1   8
ATOM      8  C1  UNL d   1       5.704  -4.530   5.714  0.00  0.00     0.054 C 
ATOM      9  C   UNL d   1       5.352  -5.990   5.963  0.00  0.00     0.018 C 
ENDBRANCH   1   8
TORSDOF 1
ENDMDL
