MODEL 1
REMARK minimizedAffinity 3.29274392
REMARK minimizedRMSD -1
REMARK  1 active torsions:
REMARK  status: ('A' for Active; 'I' for Inactive)
REMARK    1  A    between atoms: C1_2  and  C2_3 
ROOT
ATOM      1  C2  UNL d   1      -0.790   4.127   0.802  0.00  0.00    -0.081 A 
ATOM      2  C3  UNL d   1      -0.782   5.292   1.578  0.00  0.00     0.006 A 
ATOM      3  C4  UNL d   1       0.426   5.894   1.939  0.00  0.00     0.002 A 
ATOM      4  C5  UNL d   1       1.644   5.346   1.525  0.00  0.00    -0.080 A 
ATOM      5  C6  UNL d   1       2.947   5.999   1.880  0.00  0.00     0.076 C 
ATOM      6  C7  UNL d   1       1.637   4.172   0.764  0.00  0.00     0.002 A 
ATOM      7  C8  UNL d   1       0.430   3.569   0.403  0.00  0.00     0.006 A 
ENDROOT
BRANCH   1   8
ATOM      8  C1  UNL d   1      -2.092   3.512   0.356  0.00  0.00     0.054 C 
ATOM      9  C   UNL d   1      -1.860   2.202  -0.384  0.00  0.00     0.018 C 
ENDBRANCH   1   8
TORSDOF 1
ENDMDL
