MODEL 1
REMARK minimizedAffinity 0.327777922
REMARK minimizedRMSD -1
REMARK  1 active torsions:
REMARK  status: ('A' for Active; 'I' for Inactive)
REMARK    1  A    between atoms: C1_2  and  C2_3 
ROOT
ATOM      1  C2  UNL d   1       5.880  -2.737   3.839  0.00  0.00    -0.081 A 
ATOM      2  C3  UNL d   1       5.803  -4.126   3.676  0.00  0.00     0.006 A 
ATOM      3  C4  UNL d   1       5.829  -4.691   2.399  0.00  0.00     0.002 A 
ATOM      4  C5  UNL d   1       5.940  -3.879   1.265  0.00  0.00    -0.080 A 
ATOM      5  C6  UNL d   1       6.000  -4.475  -0.110  0.00  0.00     0.076 C 
ATOM      6  C7  UNL d   1       6.000  -2.491   1.427  0.00  0.00     0.002 A 
ATOM      7  C8  UNL d   1       5.973  -1.925   2.704  0.00  0.00     0.006 A 
ENDROOT
BRANCH   1   8
ATOM      8  C1  UNL d   1       5.917  -2.128   5.218  0.00  0.00     0.054 C 
ATOM      9  C   UNL d   1       4.652  -2.450   5.999  0.00  0.00     0.018 C 
ENDBRANCH   1   8
TORSDOF 1
ENDMDL
