MODEL 1
REMARK minimizedAffinity -0.367652386
REMARK minimizedRMSD -1
REMARK  1 active torsions:
REMARK  status: ('A' for Active; 'I' for Inactive)
REMARK    1  A    between atoms: C1_2  and  C2_3 
ROOT
ATOM      1  C2  UNL d   1       5.240  -4.602   4.212  0.00  0.00    -0.081 A 
ATOM      2  C3  UNL d   1       4.999  -3.247   4.472  0.00  0.00     0.006 A 
ATOM      3  C4  UNL d   1       5.252  -2.283   3.493  0.00  0.00     0.002 A 
ATOM      4  C5  UNL d   1       5.742  -2.657   2.238  0.00  0.00    -0.080 A 
ATOM      5  C6  UNL d   1       5.989  -1.635   1.168  0.00  0.00     0.076 C 
ATOM      6  C7  UNL d   1       5.999  -4.009   1.984  0.00  0.00     0.002 A 
ATOM      7  C8  UNL d   1       5.748  -4.973   2.962  0.00  0.00     0.006 A 
ENDROOT
BRANCH   1   8
ATOM      8  C1  UNL d   1       4.908  -5.651   5.243  0.00  0.00     0.054 C 
ATOM      9  C   UNL d   1       3.419  -5.966   5.251  0.00  0.00     0.018 C 
ENDBRANCH   1   8
TORSDOF 1
ENDMDL
