MODEL 1
REMARK minimizedAffinity -0.380097508
REMARK minimizedRMSD -1
REMARK  1 active torsions:
REMARK  status: ('A' for Active; 'I' for Inactive)
REMARK    1  A    between atoms: C1_2  and  C2_3 
ROOT
ATOM      1  C2  UNL d   1       3.394  -3.177   2.477  0.00  0.00    -0.081 A 
ATOM      2  C3  UNL d   1       4.674  -2.615   2.409  0.00  0.00     0.006 A 
ATOM      3  C4  UNL d   1       5.516  -2.634   3.524  0.00  0.00     0.002 A 
ATOM      4  C5  UNL d   1       5.095  -3.221   4.722  0.00  0.00    -0.080 A 
ATOM      5  C6  UNL d   1       6.000  -3.274   5.916  0.00  0.00     0.076 C 
ATOM      6  C7  UNL d   1       3.809  -3.767   4.795  0.00  0.00     0.002 A 
ATOM      7  C8  UNL d   1       2.966  -3.748   3.681  0.00  0.00     0.006 A 
ENDROOT
BRANCH   1   8
ATOM      8  C1  UNL d   1       2.508  -3.217   1.258  0.00  0.00     0.054 C 
ATOM      9  C   UNL d   1       3.313  -3.013  -0.017  0.00  0.00     0.018 C 
ENDBRANCH   1   8
TORSDOF 1
ENDMDL
