MODEL 1
REMARK minimizedAffinity -0.969338
REMARK minimizedRMSD -1
REMARK  1 active torsions:
REMARK  status: ('A' for Active; 'I' for Inactive)
REMARK    1  A    between atoms: C1_2  and  C2_3 
ROOT
ATOM      1  C2  UNL d   1       5.617  -3.960   1.690  0.00  0.00    -0.081 A 
ATOM      2  C3  UNL d   1       5.223  -2.858   2.459  0.00  0.00     0.006 A 
ATOM      3  C4  UNL d   1       5.221  -2.933   3.854  0.00  0.00     0.002 A 
ATOM      4  C5  UNL d   1       5.621  -4.106   4.503  0.00  0.00    -0.080 A 
ATOM      5  C6  UNL d   1       5.652  -4.189   6.000  0.00  0.00     0.076 C 
ATOM      6  C7  UNL d   1       5.998  -5.212   3.734  0.00  0.00     0.002 A 
ATOM      7  C8  UNL d   1       6.000  -5.138   2.339  0.00  0.00     0.006 A 
ENDROOT
BRANCH   1   8
ATOM      8  C1  UNL d   1       5.682  -3.861   0.187  0.00  0.00     0.054 C 
ATOM      9  C   UNL d   1       5.998  -5.210  -0.443  0.00  0.00     0.018 C 
ENDBRANCH   1   8
TORSDOF 1
ENDMDL
