MODEL 1
REMARK minimizedAffinity -1.64990878
REMARK minimizedRMSD -1
REMARK  1 active torsions:
REMARK  status: ('A' for Active; 'I' for Inactive)
REMARK    1  A    between atoms: C1_2  and  C2_3 
ROOT
ATOM      1  C2  UNL d   1       4.009  -3.499   4.647  0.00  0.00    -0.081 A 
ATOM      2  C3  UNL d   1       3.320  -3.738   3.451  0.00  0.00     0.006 A 
ATOM      3  C4  UNL d   1       3.958  -3.565   2.220  0.00  0.00     0.002 A 
ATOM      4  C5  UNL d   1       5.295  -3.158   2.164  0.00  0.00    -0.080 A 
ATOM      5  C6  UNL d   1       6.000  -2.998   0.850  0.00  0.00     0.076 C 
ATOM      6  C7  UNL d   1       5.978  -2.902   3.358  0.00  0.00     0.002 A 
ATOM      7  C8  UNL d   1       5.341  -3.074   4.589  0.00  0.00     0.006 A 
ENDROOT
BRANCH   1   8
ATOM      8  C1  UNL d   1       3.344  -3.747   5.977  0.00  0.00     0.054 C 
ATOM      9  C   UNL d   1       2.637  -5.094   5.999  0.00  0.00     0.018 C 
ENDBRANCH   1   8
TORSDOF 1
ENDMDL
