MODEL 1
REMARK minimizedAffinity -0.671809554
REMARK minimizedRMSD -1
REMARK  1 active torsions:
REMARK  status: ('A' for Active; 'I' for Inactive)
REMARK    1  A    between atoms: C1_2  and  C2_3 
ROOT
ATOM      1  C2  UNL d   1       5.551  -2.940   2.919  0.00  0.00    -0.081 A 
ATOM      2  C3  UNL d   1       5.992  -4.269   2.951  0.00  0.00     0.006 A 
ATOM      3  C4  UNL d   1       5.550  -5.137   3.952  0.00  0.00     0.002 A 
ATOM      4  C5  UNL d   1       4.654  -4.695   4.931  0.00  0.00    -0.080 A 
ATOM      5  C6  UNL d   1       4.148  -5.625   5.993  0.00  0.00     0.076 C 
ATOM      6  C7  UNL d   1       4.227  -3.363   4.909  0.00  0.00     0.002 A 
ATOM      7  C8  UNL d   1       4.669  -2.494   3.909  0.00  0.00     0.006 A 
ENDROOT
BRANCH   1   8
ATOM      8  C1  UNL d   1       5.976  -2.019   1.804  0.00  0.00     0.054 C 
ATOM      9  C   UNL d   1       5.996  -2.743   0.465  0.00  0.00     0.018 C 
ENDBRANCH   1   8
TORSDOF 1
ENDMDL
