MODEL 1
REMARK minimizedAffinity -3.25439167
REMARK minimizedRMSD -1
REMARK  1 active torsions:
REMARK  status: ('A' for Active; 'I' for Inactive)
REMARK    1  A    between atoms: C1_2  and  C2_3 
ROOT
ATOM      1  C2  UNL d   1       5.939  -2.864   3.805  0.00  0.00    -0.081 A 
ATOM      2  C3  UNL d   1       5.960  -2.144   2.604  0.00  0.00     0.006 A 
ATOM      3  C4  UNL d   1       5.992  -2.812   1.378  0.00  0.00     0.002 A 
ATOM      4  C5  UNL d   1       5.996  -4.210   1.331  0.00  0.00    -0.080 A 
ATOM      5  C6  UNL d   1       5.999  -4.940   0.021  0.00  0.00     0.076 C 
ATOM      6  C7  UNL d   1       5.992  -4.930   2.531  0.00  0.00     0.002 A 
ATOM      7  C8  UNL d   1       5.961  -4.263   3.757  0.00  0.00     0.006 A 
ENDROOT
BRANCH   1   8
ATOM      8  C1  UNL d   1       5.839  -2.147   5.127  0.00  0.00     0.054 C 
ATOM      9  C   UNL d   1       4.689  -2.689   5.964  0.00  0.00     0.018 C 
ENDBRANCH   1   8
TORSDOF 1
ENDMDL
