MODEL 1
REMARK minimizedAffinity -1.91520917
REMARK minimizedRMSD -1
REMARK  1 active torsions:
REMARK  status: ('A' for Active; 'I' for Inactive)
REMARK    1  A    between atoms: C1_2  and  C2_3 
ROOT
ATOM      1  C2  UNL d   1       5.491  -3.471   1.914  0.00  0.00    -0.081 A 
ATOM      2  C3  UNL d   1       5.992  -2.419   2.691  0.00  0.00     0.006 A 
ATOM      3  C4  UNL d   1       5.563  -2.247   4.010  0.00  0.00     0.002 A 
ATOM      4  C5  UNL d   1       4.635  -3.127   4.575  0.00  0.00    -0.080 A 
ATOM      5  C6  UNL d   1       4.190  -2.971   5.999  0.00  0.00     0.076 C 
ATOM      6  C7  UNL d   1       4.122  -4.168   3.794  0.00  0.00     0.002 A 
ATOM      7  C8  UNL d   1       4.549  -4.340   2.475  0.00  0.00     0.006 A 
ENDROOT
BRANCH   1   8
ATOM      8  C1  UNL d   1       5.999  -3.699   0.513  0.00  0.00     0.054 C 
ATOM      9  C   UNL d   1       5.999  -5.179   0.158  0.00  0.00     0.018 C 
ENDBRANCH   1   8
TORSDOF 1
ENDMDL
