MODEL 1
REMARK minimizedAffinity -1.82736301
REMARK minimizedRMSD -1
REMARK  1 active torsions:
REMARK  status: ('A' for Active; 'I' for Inactive)
REMARK    1  A    between atoms: C1_2  and  C2_3 
ROOT
ATOM      1  C2  UNL d   1       5.532  -3.685   4.087  0.00  0.00    -0.081 A 
ATOM      2  C3  UNL d   1       5.856  -4.942   3.562  0.00  0.00     0.006 A 
ATOM      3  C4  UNL d   1       5.996  -5.119   2.184  0.00  0.00     0.002 A 
ATOM      4  C5  UNL d   1       5.822  -4.042   1.308  0.00  0.00    -0.080 A 
ATOM      5  C6  UNL d   1       5.999  -4.212  -0.171  0.00  0.00     0.076 C 
ATOM      6  C7  UNL d   1       5.481  -2.790   1.831  0.00  0.00     0.002 A 
ATOM      7  C8  UNL d   1       5.340  -2.612   3.209  0.00  0.00     0.006 A 
ENDROOT
BRANCH   1   8
ATOM      8  C1  UNL d   1       5.444  -3.476   5.577  0.00  0.00     0.054 C 
ATOM      9  C   UNL d   1       5.945  -2.094   5.973  0.00  0.00     0.018 C 
ENDBRANCH   1   8
TORSDOF 1
ENDMDL
