MODEL 1
REMARK minimizedAffinity 0.839968681
REMARK minimizedRMSD -1
REMARK  1 active torsions:
REMARK  status: ('A' for Active; 'I' for Inactive)
REMARK    1  A    between atoms: C1_2  and  C2_3 
ROOT
ATOM      1  C2  UNL d   1       5.846  -3.943   4.572  0.00  0.00    -0.081 A 
ATOM      2  C3  UNL d   1       5.965  -4.807   3.476  0.00  0.00     0.006 A 
ATOM      3  C4  UNL d   1       5.994  -4.300   2.175  0.00  0.00     0.002 A 
ATOM      4  C5  UNL d   1       5.914  -2.922   1.947  0.00  0.00    -0.080 A 
ATOM      5  C6  UNL d   1       5.974  -2.364   0.557  0.00  0.00     0.076 C 
ATOM      6  C7  UNL d   1       5.777  -2.060   3.041  0.00  0.00     0.002 A 
ATOM      7  C8  UNL d   1       5.747  -2.566   4.342  0.00  0.00     0.006 A 
ENDROOT
BRANCH   1   8
ATOM      8  C1  UNL d   1       5.880  -4.481   5.979  0.00  0.00     0.054 C 
ATOM      9  C   UNL d   1       5.998  -5.999   5.989  0.00  0.00     0.018 C 
ENDBRANCH   1   8
TORSDOF 1
ENDMDL
