MODEL 1
REMARK minimizedAffinity -3.07492304
REMARK minimizedRMSD -1
REMARK  0 active torsions:
REMARK  status: ('A' for Active; 'I' for Inactive)
ROOT
ATOM      1  O1  BZF d   1      -4.008  -4.247  -4.815  0.00  0.00    -0.204 OA
ATOM      2  C2  BZF d   1      -4.140  -5.620  -4.743  0.00  0.00     0.174 A 
ATOM      3  C3  BZF d   1      -4.529  -5.998  -3.508  0.00  0.00    -0.012 A 
ATOM      4  C3A BZF d   1      -4.736  -4.779  -2.788  0.00  0.00    -0.107 A 
ATOM      5  C4  BZF d   1      -5.142  -4.498  -1.515  0.00  0.00     0.055 A 
ATOM      6  C5  BZF d   1      -5.170  -3.204  -1.101  0.00  0.00    -0.016 A 
ATOM      7  C6  BZF d   1      -4.793  -2.168  -1.931  0.00  0.00     0.022 A 
ATOM      8  C7  BZF d   1      -4.387  -2.397  -3.204  0.00  0.00     0.029 A 
ATOM      9  C7A BZF d   1      -4.390  -3.701  -3.635  0.00  0.00     0.058 A 
ENDROOT
TORSDOF 0
ENDMDL
