MODEL 1
REMARK minimizedAffinity 0.102729104
REMARK minimizedRMSD -1
REMARK  0 active torsions:
REMARK  status: ('A' for Active; 'I' for Inactive)
ROOT
ATOM      1  O1  BZF d   1      -4.984  -5.998  -2.490  0.00  0.00    -0.204 OA
ATOM      2  C2  BZF d   1      -5.710  -5.101  -1.731  0.00  0.00     0.174 A 
ATOM      3  C3  BZF d   1      -5.990  -3.989  -2.441  0.00  0.00    -0.012 A 
ATOM      4  C3A BZF d   1      -5.481  -4.243  -3.754  0.00  0.00    -0.107 A 
ATOM      5  C4  BZF d   1      -5.470  -3.520  -4.912  0.00  0.00     0.055 A 
ATOM      6  C5  BZF d   1      -4.827  -4.024  -5.999  0.00  0.00    -0.016 A 
ATOM      7  C6  BZF d   1      -4.183  -5.243  -5.961  0.00  0.00     0.022 A 
ATOM      8  C7  BZF d   1      -4.171  -5.999  -4.836  0.00  0.00     0.029 A 
ATOM      9  C7A BZF d   1      -4.848  -5.507  -3.746  0.00  0.00     0.058 A 
ENDROOT
TORSDOF 0
ENDMDL
