MODEL 1
REMARK minimizedAffinity 0.435073793
REMARK minimizedRMSD -1
REMARK  0 active torsions:
REMARK  status: ('A' for Active; 'I' for Inactive)
ROOT
ATOM      1  O1  BZF d   1      -5.618  -3.409  -2.560  0.00  0.00    -0.204 OA
ATOM      2  C2  BZF d   1      -6.000  -4.486  -1.784  0.00  0.00     0.174 A 
ATOM      3  C3  BZF d   1      -5.945  -5.631  -2.495  0.00  0.00    -0.012 A 
ATOM      4  C3A BZF d   1      -5.414  -5.257  -3.769  0.00  0.00    -0.107 A 
ATOM      5  C4  BZF d   1      -5.110  -5.957  -4.902  0.00  0.00     0.055 A 
ATOM      6  C5  BZF d   1      -4.675  -5.283  -5.999  0.00  0.00    -0.016 A 
ATOM      7  C6  BZF d   1      -4.538  -3.911  -6.000  0.00  0.00     0.022 A 
ATOM      8  C7  BZF d   1      -4.822  -3.173  -4.899  0.00  0.00     0.029 A 
ATOM      9  C7A BZF d   1      -5.230  -3.855  -3.778  0.00  0.00     0.058 A 
ENDROOT
TORSDOF 0
ENDMDL
