MODEL 1
REMARK minimizedAffinity -1.02380705
REMARK minimizedRMSD -1
REMARK  0 active torsions:
REMARK  status: ('A' for Active; 'I' for Inactive)
ROOT
ATOM      1  O1  BZF d   1      -5.978  -5.210  -2.640  0.00  0.00    -0.204 OA
ATOM      2  C2  BZF d   1      -5.999  -4.062  -1.872  0.00  0.00     0.174 A 
ATOM      3  C3  BZF d   1      -5.414  -3.038  -2.527  0.00  0.00    -0.012 A 
ATOM      4  C3A BZF d   1      -5.084  -3.557  -3.819  0.00  0.00    -0.107 A 
ATOM      5  C4  BZF d   1      -4.497  -3.015  -4.926  0.00  0.00     0.055 A 
ATOM      6  C5  BZF d   1      -4.251  -3.811  -6.000  0.00  0.00    -0.016 A 
ATOM      7  C6  BZF d   1      -4.575  -5.152  -5.999  0.00  0.00     0.022 A 
ATOM      8  C7  BZF d   1      -5.163  -5.733  -4.925  0.00  0.00     0.029 A 
ATOM      9  C7A BZF d   1      -5.442  -4.925  -3.851  0.00  0.00     0.058 A 
ENDROOT
TORSDOF 0
ENDMDL
