MODEL 1
REMARK minimizedAffinity -0.907962024
REMARK minimizedRMSD -1
REMARK  0 active torsions:
REMARK  status: ('A' for Active; 'I' for Inactive)
ROOT
ATOM      1  O1  BZF d   1      -5.377  -3.821  -2.522  0.00  0.00    -0.204 OA
ATOM      2  C2  BZF d   1      -4.426  -4.391  -1.698  0.00  0.00     0.174 A 
ATOM      3  C3  BZF d   1      -3.731  -5.342  -2.355  0.00  0.00    -0.012 A 
ATOM      4  C3A BZF d   1      -4.220  -5.303  -3.699  0.00  0.00    -0.107 A 
ATOM      5  C4  BZF d   1      -3.908  -6.000  -4.832  0.00  0.00     0.055 A 
ATOM      6  C5  BZF d   1      -4.623  -5.772  -5.965  0.00  0.00    -0.016 A 
ATOM      7  C6  BZF d   1      -5.657  -4.860  -6.000  0.00  0.00     0.022 A 
ATOM      8  C7  BZF d   1      -6.000  -4.141  -4.903  0.00  0.00     0.029 A 
ATOM      9  C7A BZF d   1      -5.258  -4.346  -3.765  0.00  0.00     0.058 A 
ENDROOT
TORSDOF 0
ENDMDL
