MODEL 1
REMARK minimizedAffinity 4.94948626
REMARK minimizedRMSD -1
REMARK  0 active torsions:
REMARK  status: ('A' for Active; 'I' for Inactive)
ROOT
ATOM      1  O1  BZF d   1       4.861   5.134  -1.965  0.00  0.00    -0.204 OA
ATOM      2  C2  BZF d   1       3.760   4.326  -1.758  0.00  0.00     0.174 A 
ATOM      3  C3  BZF d   1       3.192   3.981  -2.931  0.00  0.00    -0.012 A 
ATOM      4  C3A BZF d   1       4.041   4.539  -3.939  0.00  0.00    -0.107 A 
ATOM      5  C4  BZF d   1       4.013   4.524  -5.304  0.00  0.00     0.055 A 
ATOM      6  C5  BZF d   1       4.951   5.228  -5.992  0.00  0.00    -0.016 A 
ATOM      7  C6  BZF d   1       5.926   5.959  -5.347  0.00  0.00     0.022 A 
ATOM      8  C7  BZF d   1       5.998   6.000  -3.994  0.00  0.00     0.029 A 
ATOM      9  C7A BZF d   1       5.072   5.264  -3.297  0.00  0.00     0.058 A 
ENDROOT
TORSDOF 0
ENDMDL
