MODEL 1
REMARK minimizedAffinity 3.03864336
REMARK minimizedRMSD -1
REMARK  0 active torsions:
REMARK  status: ('A' for Active; 'I' for Inactive)
ROOT
ATOM      1  O1  BZF d   1      -4.815  -3.936  -1.709  0.00  0.00    -0.204 OA
ATOM      2  C2  BZF d   1      -4.313  -5.190  -1.417  0.00  0.00     0.174 A 
ATOM      3  C3  BZF d   1      -4.387  -5.998  -2.494  0.00  0.00    -0.012 A 
ATOM      4  C3A BZF d   1      -4.888  -5.172  -3.550  0.00  0.00    -0.107 A 
ATOM      5  C4  BZF d   1      -5.164  -5.398  -4.868  0.00  0.00     0.055 A 
ATOM      6  C5  BZF d   1      -5.711  -4.399  -5.609  0.00  0.00    -0.016 A 
ATOM      7  C6  BZF d   1      -5.999  -3.164  -5.064  0.00  0.00     0.022 A 
ATOM      8  C7  BZF d   1      -5.738  -2.891  -3.762  0.00  0.00     0.029 A 
ATOM      9  C7A BZF d   1      -5.154  -3.888  -3.019  0.00  0.00     0.058 A 
ENDROOT
TORSDOF 0
ENDMDL
