MODEL 1
REMARK minimizedAffinity -4.60140085
REMARK minimizedRMSD -1
REMARK  0 active torsions:
REMARK  status: ('A' for Active; 'I' for Inactive)
ROOT
ATOM      1  C   UNL d   1      -0.775   1.724   2.966  0.00  0.00     0.077 C 
ATOM      2  C1  UNL d   1      -0.873   0.902   1.715  0.00  0.00    -0.074 A 
ATOM      3  C2  UNL d   1      -2.117   0.527   1.197  0.00  0.00    -0.005 A 
ATOM      4  C3  UNL d   1      -2.193  -0.230   0.028  0.00  0.00     0.006 A 
ATOM      5  C4  UNL d   1      -1.027  -0.619  -0.634  0.00  0.00    -0.005 A 
ATOM      6  C5  UNL d   1       0.225  -0.252  -0.132  0.00  0.00    -0.074 A 
ATOM      7  C6  UNL d   1       1.487  -0.654  -0.836  0.00  0.00     0.077 C 
ATOM      8  C7  UNL d   1       0.293   0.514   1.040  0.00  0.00    -0.001 A 
ENDROOT
TORSDOF 0
ENDMDL
