MODEL 1
REMARK minimizedAffinity -2.25543547
REMARK minimizedRMSD -1
REMARK  0 active torsions:
REMARK  status: ('A' for Active; 'I' for Inactive)
ROOT
ATOM      1  C   UNL d   1      -0.499   1.659   2.712  0.00  0.00     0.077 C 
ATOM      2  C1  UNL d   1       0.171   0.791   1.689  0.00  0.00    -0.074 A 
ATOM      3  C2  UNL d   1       1.364   0.123   1.984  0.00  0.00    -0.005 A 
ATOM      4  C3  UNL d   1       1.971  -0.688   1.025  0.00  0.00     0.006 A 
ATOM      5  C4  UNL d   1       1.393  -0.839  -0.236  0.00  0.00    -0.005 A 
ATOM      6  C5  UNL d   1       0.200  -0.179  -0.548  0.00  0.00    -0.074 A 
ATOM      7  C6  UNL d   1      -0.439  -0.338  -1.896  0.00  0.00     0.077 C 
ATOM      8  C7  UNL d   1      -0.407   0.628   0.423  0.00  0.00    -0.001 A 
ENDROOT
TORSDOF 0
ENDMDL
