MODEL 1
REMARK minimizedAffinity -1.89577556
REMARK minimizedRMSD -1
REMARK  0 active torsions:
REMARK  status: ('A' for Active; 'I' for Inactive)
ROOT
ATOM      1  C   UNL d   1      -2.959  -0.975   2.937  0.00  0.00     0.077 C 
ATOM      2  C1  UNL d   1      -1.823  -0.275   2.252  0.00  0.00    -0.074 A 
ATOM      3  C2  UNL d   1      -1.131   0.761   2.886  0.00  0.00    -0.005 A 
ATOM      4  C3  UNL d   1      -0.070   1.397   2.241  0.00  0.00     0.006 A 
ATOM      5  C4  UNL d   1       0.308   1.004   0.956  0.00  0.00    -0.005 A 
ATOM      6  C5  UNL d   1      -0.372  -0.031   0.307  0.00  0.00    -0.074 A 
ATOM      7  C6  UNL d   1       0.027  -0.473  -1.070  0.00  0.00     0.077 C 
ATOM      8  C7  UNL d   1      -1.433  -0.670   0.965  0.00  0.00    -0.001 A 
ENDROOT
TORSDOF 0
ENDMDL
