MODEL 1
REMARK minimizedAffinity -2.32638335
REMARK minimizedRMSD -1
REMARK  0 active torsions:
REMARK  status: ('A' for Active; 'I' for Inactive)
ROOT
ATOM      1  C   UNL d   1      -0.760   1.551   2.878  0.00  0.00     0.077 C 
ATOM      2  C1  UNL d   1      -0.536   0.804   1.597  0.00  0.00    -0.074 A 
ATOM      3  C2  UNL d   1       0.737   0.728   1.023  0.00  0.00    -0.005 A 
ATOM      4  C3  UNL d   1       0.932   0.021  -0.164  0.00  0.00     0.006 A 
ATOM      5  C4  UNL d   1      -0.143  -0.614  -0.787  0.00  0.00    -0.005 A 
ATOM      6  C5  UNL d   1      -1.423  -0.549  -0.228  0.00  0.00    -0.074 A 
ATOM      7  C6  UNL d   1      -2.586  -1.235  -0.880  0.00  0.00     0.077 C 
ATOM      8  C7  UNL d   1      -1.609   0.156   0.969  0.00  0.00    -0.001 A 
ENDROOT
TORSDOF 0
ENDMDL
