MODEL 1
REMARK minimizedAffinity 0.530701697
REMARK minimizedRMSD -1
REMARK  0 active torsions:
REMARK  status: ('A' for Active; 'I' for Inactive)
ROOT
ATOM      1  C   UNL d   1       0.080  -0.026  -2.420  0.00  0.00     0.077 C 
ATOM      2  C1  UNL d   1       0.118  -0.258  -0.939  0.00  0.00    -0.074 A 
ATOM      3  C2  UNL d   1       1.240  -0.828  -0.329  0.00  0.00    -0.005 A 
ATOM      4  C3  UNL d   1       1.264  -1.029   1.051  0.00  0.00     0.006 A 
ATOM      5  C4  UNL d   1       0.169  -0.662   1.834  0.00  0.00    -0.005 A 
ATOM      6  C5  UNL d   1      -0.961  -0.090   1.242  0.00  0.00    -0.074 A 
ATOM      7  C6  UNL d   1      -2.143   0.319   2.070  0.00  0.00     0.077 C 
ATOM      8  C7  UNL d   1      -0.976   0.115  -0.145  0.00  0.00    -0.001 A 
ENDROOT
TORSDOF 0
ENDMDL
