MODEL 1
REMARK minimizedAffinity -3.19202542
REMARK minimizedRMSD -1
REMARK  0 active torsions:
REMARK  status: ('A' for Active; 'I' for Inactive)
ROOT
ATOM      1  C   UNL d   1      -2.886  -0.534   2.930  0.00  0.00     0.077 C 
ATOM      2  C1  UNL d   1      -1.769   0.303   2.382  0.00  0.00    -0.074 A 
ATOM      3  C2  UNL d   1      -1.288   1.411   3.088  0.00  0.00    -0.005 A 
ATOM      4  C3  UNL d   1      -0.242   2.175   2.570  0.00  0.00     0.006 A 
ATOM      5  C4  UNL d   1       0.332   1.840   1.343  0.00  0.00    -0.005 A 
ATOM      6  C5  UNL d   1      -0.136   0.736   0.623  0.00  0.00    -0.074 A 
ATOM      7  C6  UNL d   1       0.476   0.357  -0.693  0.00  0.00     0.077 C 
ATOM      8  C7  UNL d   1      -1.182  -0.031   1.154  0.00  0.00    -0.001 A 
ENDROOT
TORSDOF 0
ENDMDL
