MODEL 1
REMARK minimizedAffinity 0.645793617
REMARK minimizedRMSD -1
REMARK  0 active torsions:
REMARK  status: ('A' for Active; 'I' for Inactive)
ROOT
ATOM      1  C1  BNZ d   1      -1.898   1.957  -1.879  0.00  0.00     0.000 A 
ATOM      2  C2  BNZ d   1      -0.801   1.559  -2.596  0.00  0.00     0.000 A 
ATOM      3  C3  BNZ d   1      -0.422   0.246  -2.625  0.00  0.00     0.000 A 
ATOM      4  C4  BNZ d   1      -1.116  -0.660  -1.907  0.00  0.00     0.000 A 
ATOM      5  C5  BNZ d   1      -2.219  -0.274  -1.172  0.00  0.00     0.000 A 
ATOM      6  C6  BNZ d   1      -2.620   1.043  -1.176  0.00  0.00     0.000 A 
ENDROOT
TORSDOF 0
ENDMDL
