MODEL 1
REMARK minimizedAffinity 2.5050199
REMARK minimizedRMSD -1
REMARK  0 active torsions:
REMARK  status: ('A' for Active; 'I' for Inactive)
ROOT
ATOM      1  C1  BNZ d   1       1.526  -0.967   1.124  0.00  0.00     0.000 A 
ATOM      2  C2  BNZ d   1       1.322  -0.103   2.167  0.00  0.00     0.000 A 
ATOM      3  C3  BNZ d   1       1.938   1.117   2.196  0.00  0.00     0.000 A 
ATOM      4  C4  BNZ d   1       2.787   1.455   1.204  0.00  0.00     0.000 A 
ATOM      5  C5  BNZ d   1       3.010   0.591   0.151  0.00  0.00     0.000 A 
ATOM      6  C6  BNZ d   1       2.358  -0.620   0.105  0.00  0.00     0.000 A 
ENDROOT
TORSDOF 0
ENDMDL
