MODEL 1
REMARK minimizedAffinity -3.48023582
REMARK minimizedRMSD -1
REMARK  0 active torsions:
REMARK  status: ('A' for Active; 'I' for Inactive)
ROOT
ATOM      1  C1  BNZ d   1      -3.363  -0.878  -4.357  0.00  0.00     0.000 A 
ATOM      2  C2  BNZ d   1      -3.413  -0.195  -5.543  0.00  0.00     0.000 A 
ATOM      3  C3  BNZ d   1      -4.508   0.552  -5.875  0.00  0.00     0.000 A 
ATOM      4  C4  BNZ d   1      -5.567   0.584  -5.040  0.00  0.00     0.000 A 
ATOM      5  C5  BNZ d   1      -5.536  -0.107  -3.845  0.00  0.00     0.000 A 
ATOM      6  C6  BNZ d   1      -4.416  -0.827  -3.496  0.00  0.00     0.000 A 
ENDROOT
TORSDOF 0
ENDMDL
