MODEL 1
REMARK minimizedAffinity 3.07965088
REMARK minimizedRMSD -1
REMARK  0 active torsions:
REMARK  status: ('A' for Active; 'I' for Inactive)
ROOT
ATOM      1  C1  BNZ d   1       2.928  -4.511   0.702  0.00  0.00     0.000 A 
ATOM      2  C2  BNZ d   1       2.045  -3.627   0.140  0.00  0.00     0.000 A 
ATOM      3  C3  BNZ d   1       1.671  -2.493   0.805  0.00  0.00     0.000 A 
ATOM      4  C4  BNZ d   1       2.148  -2.264   2.045  0.00  0.00     0.000 A 
ATOM      5  C5  BNZ d   1       3.031  -3.150   2.630  0.00  0.00     0.000 A 
ATOM      6  C6  BNZ d   1       3.436  -4.271   1.941  0.00  0.00     0.000 A 
ENDROOT
TORSDOF 0
ENDMDL
