MODEL 1
REMARK minimizedAffinity -2.55663109
REMARK minimizedRMSD -1
REMARK  0 active torsions:
REMARK  status: ('A' for Active; 'I' for Inactive)
ROOT
ATOM      1  C1  BNZ d   1      -5.795   0.329  -4.667  0.00  0.00     0.000 A 
ATOM      2  C2  BNZ d   1      -5.235  -0.388  -3.642  0.00  0.00     0.000 A 
ATOM      3  C3  BNZ d   1      -3.921  -0.761  -3.685  0.00  0.00     0.000 A 
ATOM      4  C4  BNZ d   1      -3.179  -0.452  -4.769  0.00  0.00     0.000 A 
ATOM      5  C5  BNZ d   1      -3.732   0.262  -5.814  0.00  0.00     0.000 A 
ATOM      6  C6  BNZ d   1      -5.044   0.669  -5.750  0.00  0.00     0.000 A 
ENDROOT
TORSDOF 0
ENDMDL
