MODEL 1
REMARK minimizedAffinity 1.08022082
REMARK minimizedRMSD -1
REMARK  0 active torsions:
REMARK  status: ('A' for Active; 'I' for Inactive)
ROOT
ATOM      1  C1  BNZ d   1      -3.474  -0.600  -4.867  0.00  0.00     0.000 A 
ATOM      2  C2  BNZ d   1      -3.474  -1.473  -3.813  0.00  0.00     0.000 A 
ATOM      3  C3  BNZ d   1      -4.160  -1.186  -2.665  0.00  0.00     0.000 A 
ATOM      4  C4  BNZ d   1      -4.810  -0.009  -2.559  0.00  0.00     0.000 A 
ATOM      5  C5  BNZ d   1      -4.811   0.887  -3.610  0.00  0.00     0.000 A 
ATOM      6  C6  BNZ d   1      -4.152   0.577  -4.777  0.00  0.00     0.000 A 
ENDROOT
TORSDOF 0
ENDMDL
