MODEL 1
REMARK minimizedAffinity -2.10670376
REMARK minimizedRMSD -1
REMARK  0 active torsions:
REMARK  status: ('A' for Active; 'I' for Inactive)
ROOT
ATOM      1  C1  BNZ d   1       3.223   5.918   6.000  0.00  0.00     0.000 A 
ATOM      2  C2  BNZ d   1       4.034   5.921   4.897  0.00  0.00     0.000 A 
ATOM      3  C3  BNZ d   1       3.504   5.982   3.638  0.00  0.00     0.000 A 
ATOM      4  C4  BNZ d   1       2.165   6.000   3.483  0.00  0.00     0.000 A 
ATOM      5  C5  BNZ d   1       1.333   5.988   4.585  0.00  0.00     0.000 A 
ATOM      6  C6  BNZ d   1       1.871   5.966   5.851  0.00  0.00     0.000 A 
ENDROOT
TORSDOF 0
ENDMDL
