MODEL 1
REMARK minimizedAffinity 29.492548
REMARK minimizedRMSD -1
REMARK  0 active torsions:
REMARK  status: ('A' for Active; 'I' for Inactive)
ROOT
ATOM      1  C   UNL d   1      -2.515   0.337  -0.934  0.00  0.00     0.124 A 
ATOM      2  C1  UNL d   1      -3.847   0.690  -0.763  0.00  0.00     0.062 A 
ATOM      3  C2  UNL d   1      -4.718   0.678  -1.848  0.00  0.00     0.162 A 
ATOM      4  C3  UNL d   1      -4.262   0.311  -3.114  0.00  0.00    -0.034 A 
ATOM      5  C4  UNL d   1      -2.921  -0.042  -3.278  0.00  0.00     0.162 A 
ATOM      6  C5  UNL d   1      -2.054  -0.028  -2.190  0.00  0.00     0.062 A 
ATOM      7  F   UNL d   1      -0.767  -0.370  -2.357  0.00  0.00    -0.097 F 
ATOM      8  F1  UNL d   1      -2.448  -0.400  -4.481  0.00  0.00    -0.096 F 
ATOM      9  I   UNL d   1      -5.562   0.292  -4.739  0.00  0.00    -0.060 I 
ATOM     10  F2  UNL d   1      -6.000   1.024  -1.654  0.00  0.00    -0.096 F 
ATOM     11  F3  UNL d   1      -4.295   1.044   0.450  0.00  0.00    -0.097 F 
ATOM     12  F4  UNL d   1      -1.678   0.350   0.112  0.00  0.00    -0.092 F 
ENDROOT
TORSDOF 0
ENDMDL
