MODEL 1
REMARK minimizedAffinity 28.5353317
REMARK minimizedRMSD -1
REMARK  0 active torsions:
REMARK  status: ('A' for Active; 'I' for Inactive)
ROOT
ATOM      1  C   UNL d   1      -5.486   4.907   2.038  0.00  0.00     0.124 A 
ATOM      2  C1  UNL d   1      -5.211   3.776   2.794  0.00  0.00     0.062 A 
ATOM      3  C2  UNL d   1      -4.679   2.642   2.189  0.00  0.00     0.162 A 
ATOM      4  C3  UNL d   1      -4.417   2.633   0.819  0.00  0.00    -0.034 A 
ATOM      5  C4  UNL d   1      -4.697   3.774   0.065  0.00  0.00     0.162 A 
ATOM      6  C5  UNL d   1      -5.229   4.905   0.674  0.00  0.00     0.062 A 
ATOM      7  F   UNL d   1      -5.495   5.997  -0.058  0.00  0.00    -0.097 F 
ATOM      8  F1  UNL d   1      -4.458   3.799  -1.255  0.00  0.00    -0.096 F 
ATOM      9  I   UNL d   1      -3.621   0.938  -0.091  0.00  0.00    -0.060 I 
ATOM     10  F2  UNL d   1      -4.423   1.563   2.944  0.00  0.00    -0.096 F 
ATOM     11  F3  UNL d   1      -5.459   3.776   4.112  0.00  0.00    -0.097 F 
ATOM     12  F4  UNL d   1      -5.999   5.997   2.623  0.00  0.00    -0.092 F 
ENDROOT
TORSDOF 0
ENDMDL
