MODEL 1
REMARK minimizedAffinity 20.9242706
REMARK minimizedRMSD -1
REMARK  0 active torsions:
REMARK  status: ('A' for Active; 'I' for Inactive)
ROOT
ATOM      1  C   UNL d   1       3.313   0.130  -2.238  0.00  0.00     0.124 A 
ATOM      2  C1  UNL d   1       2.470  -0.090  -1.158  0.00  0.00     0.062 A 
ATOM      3  C2  UNL d   1       2.603   0.670   0.001  0.00  0.00     0.162 A 
ATOM      4  C3  UNL d   1       3.584   1.658   0.086  0.00  0.00    -0.034 A 
ATOM      5  C4  UNL d   1       4.429   1.873  -1.004  0.00  0.00     0.162 A 
ATOM      6  C5  UNL d   1       4.292   1.111  -2.160  0.00  0.00     0.062 A 
ATOM      7  F   UNL d   1       5.108   1.325  -3.202  0.00  0.00    -0.097 F 
ATOM      8  F1  UNL d   1       5.383   2.815  -0.957  0.00  0.00    -0.096 F 
ATOM      9  I   UNL d   1       3.786   2.796   1.816  0.00  0.00    -0.060 I 
ATOM     10  F2  UNL d   1       1.774   0.436   1.029  0.00  0.00    -0.096 F 
ATOM     11  F3  UNL d   1       1.524  -1.037  -1.230  0.00  0.00    -0.097 F 
ATOM     12  F4  UNL d   1       3.184  -0.603  -3.351  0.00  0.00    -0.092 F 
ENDROOT
TORSDOF 0
ENDMDL
