MODEL 1
REMARK minimizedAffinity 13.5536394
REMARK minimizedRMSD -1
REMARK  0 active torsions:
REMARK  status: ('A' for Active; 'I' for Inactive)
ROOT
ATOM      1  C   UNL d   1       3.345   0.707   0.415  0.00  0.00     0.124 A 
ATOM      2  C1  UNL d   1       3.636  -0.465   1.099  0.00  0.00     0.062 A 
ATOM      3  C2  UNL d   1       3.054  -1.667   0.707  0.00  0.00     0.162 A 
ATOM      4  C3  UNL d   1       2.175  -1.703  -0.376  0.00  0.00    -0.034 A 
ATOM      5  C4  UNL d   1       1.887  -0.520  -1.058  0.00  0.00     0.162 A 
ATOM      6  C5  UNL d   1       2.471   0.679  -0.663  0.00  0.00     0.062 A 
ATOM      7  F   UNL d   1       2.189   1.810  -1.325  0.00  0.00    -0.097 F 
ATOM      8  F1  UNL d   1       1.046  -0.519  -2.104  0.00  0.00    -0.096 F 
ATOM      9  I   UNL d   1       1.302  -3.498  -0.965  0.00  0.00    -0.060 I 
ATOM     10  F2  UNL d   1       3.352  -2.784   1.386  0.00  0.00    -0.096 F 
ATOM     11  F3  UNL d   1       4.480  -0.440   2.141  0.00  0.00    -0.097 F 
ATOM     12  F4  UNL d   1       3.907   1.862   0.794  0.00  0.00    -0.092 F 
ENDROOT
TORSDOF 0
ENDMDL
