MODEL 1
REMARK minimizedAffinity 17.4920921
REMARK minimizedRMSD -1
REMARK  0 active torsions:
REMARK  status: ('A' for Active; 'I' for Inactive)
ROOT
ATOM      1  C   UNL d   1       2.363  -1.433  -0.128  0.00  0.00     0.124 A 
ATOM      2  C1  UNL d   1       2.176  -0.324  -0.942  0.00  0.00     0.062 A 
ATOM      3  C2  UNL d   1       2.722   0.905  -0.585  0.00  0.00     0.162 A 
ATOM      4  C3  UNL d   1       3.460   1.033   0.592  0.00  0.00    -0.034 A 
ATOM      5  C4  UNL d   1       3.643  -0.087   1.405  0.00  0.00     0.162 A 
ATOM      6  C5  UNL d   1       3.096  -1.314   1.044  0.00  0.00     0.062 A 
ATOM      7  F   UNL d   1       3.277  -2.384   1.831  0.00  0.00    -0.097 F 
ATOM      8  F1  UNL d   1       4.348   0.000   2.543  0.00  0.00    -0.096 F 
ATOM      9  I   UNL d   1       4.278   2.870   1.129  0.00  0.00    -0.060 I 
ATOM     10  F2  UNL d   1       2.526   1.960  -1.390  0.00  0.00    -0.096 F 
ATOM     11  F3  UNL d   1       1.468  -0.437  -2.075  0.00  0.00    -0.097 F 
ATOM     12  F4  UNL d   1       1.836  -2.615  -0.474  0.00  0.00    -0.092 F 
ENDROOT
TORSDOF 0
ENDMDL
