MODEL 1
REMARK minimizedAffinity 23.4931507
REMARK minimizedRMSD -1
REMARK  0 active torsions:
REMARK  status: ('A' for Active; 'I' for Inactive)
ROOT
ATOM      1  C   UNL d   1      -5.482   4.936   2.460  0.00  0.00     0.124 A 
ATOM      2  C1  UNL d   1      -5.029   3.848   3.192  0.00  0.00     0.062 A 
ATOM      3  C2  UNL d   1      -4.492   2.741   2.542  0.00  0.00     0.162 A 
ATOM      4  C3  UNL d   1      -4.403   2.717   1.150  0.00  0.00    -0.034 A 
ATOM      5  C4  UNL d   1      -4.862   3.815   0.420  0.00  0.00     0.162 A 
ATOM      6  C5  UNL d   1      -5.398   4.919   1.074  0.00  0.00     0.062 A 
ATOM      7  F   UNL d   1      -5.835   5.970   0.365  0.00  0.00    -0.097 F 
ATOM      8  F1  UNL d   1      -4.791   3.825  -0.920  0.00  0.00    -0.096 F 
ATOM      9  I   UNL d   1      -3.600   1.064   0.173  0.00  0.00    -0.060 I 
ATOM     10  F2  UNL d   1      -4.062   1.703   3.275  0.00  0.00    -0.096 F 
ATOM     11  F3  UNL d   1      -5.110   3.862   4.530  0.00  0.00    -0.097 F 
ATOM     12  F4  UNL d   1      -6.000   6.000   3.088  0.00  0.00    -0.092 F 
ENDROOT
TORSDOF 0
ENDMDL
