MODEL 1
REMARK minimizedAffinity 19.5204124
REMARK minimizedRMSD -1
REMARK  0 active torsions:
REMARK  status: ('A' for Active; 'I' for Inactive)
ROOT
ATOM      1  C   UNL d   1       1.631   0.833  -0.809  0.00  0.00     0.124 A 
ATOM      2  C1  UNL d   1       2.900   0.720  -1.360  0.00  0.00     0.062 A 
ATOM      3  C2  UNL d   1       3.910   0.064  -0.662  0.00  0.00     0.162 A 
ATOM      4  C3  UNL d   1       3.656  -0.484   0.595  0.00  0.00    -0.034 A 
ATOM      5  C4  UNL d   1       2.377  -0.365   1.143  0.00  0.00     0.162 A 
ATOM      6  C5  UNL d   1       1.371   0.291   0.442  0.00  0.00     0.062 A 
ATOM      7  F   UNL d   1       0.146   0.400   0.976  0.00  0.00    -0.097 F 
ATOM      8  F1  UNL d   1       2.098  -0.881   2.349  0.00  0.00    -0.096 F 
ATOM      9  I   UNL d   1       5.164  -1.465   1.642  0.00  0.00    -0.060 I 
ATOM     10  F2  UNL d   1       5.127  -0.031  -1.219  0.00  0.00    -0.096 F 
ATOM     11  F3  UNL d   1       3.154   1.244  -2.568  0.00  0.00    -0.097 F 
ATOM     12  F4  UNL d   1       0.661   1.465  -1.482  0.00  0.00    -0.092 F 
ENDROOT
TORSDOF 0
ENDMDL
