MODEL 1
REMARK minimizedAffinity 17.7806892
REMARK minimizedRMSD -1
REMARK  0 active torsions:
REMARK  status: ('A' for Active; 'I' for Inactive)
ROOT
ATOM      1  C   UNL d   1       3.531  -0.663   1.322  0.00  0.00     0.124 A 
ATOM      2  C1  UNL d   1       3.288   0.445   0.522  0.00  0.00     0.062 A 
ATOM      3  C2  UNL d   1       2.367   0.368  -0.519  0.00  0.00     0.162 A 
ATOM      4  C3  UNL d   1       1.680  -0.821  -0.765  0.00  0.00    -0.034 A 
ATOM      5  C4  UNL d   1       1.931  -1.931   0.044  0.00  0.00     0.162 A 
ATOM      6  C5  UNL d   1       2.852  -1.850   1.082  0.00  0.00     0.062 A 
ATOM      7  F   UNL d   1       3.086  -2.921   1.854  0.00  0.00    -0.097 F 
ATOM      8  F1  UNL d   1       1.288  -3.090  -0.165  0.00  0.00    -0.096 F 
ATOM      9  I   UNL d   1       0.302  -0.940  -2.320  0.00  0.00    -0.060 I 
ATOM     10  F2  UNL d   1       2.152   1.454  -1.276  0.00  0.00    -0.096 F 
ATOM     11  F3  UNL d   1       3.943   1.592   0.751  0.00  0.00    -0.097 F 
ATOM     12  F4  UNL d   1       4.418  -0.587   2.322  0.00  0.00    -0.092 F 
ENDROOT
TORSDOF 0
ENDMDL
