MODEL 1
REMARK minimizedAffinity 3.44341445
REMARK minimizedRMSD -1
REMARK  1 active torsions:
REMARK  status: ('A' for Active; 'I' for Inactive)
REMARK    1  A    between atoms: C1_2  and  C2_3 
ROOT
ATOM      1  C2  UNL d   1       2.546  -1.678  -2.813  0.00  0.00    -0.081 A 
ATOM      2  C3  UNL d   1       3.744  -0.954  -2.864  0.00  0.00     0.006 A 
ATOM      3  C4  UNL d   1       4.262  -0.361  -1.710  0.00  0.00     0.002 A 
ATOM      4  C5  UNL d   1       3.597  -0.490  -0.486  0.00  0.00    -0.080 A 
ATOM      5  C6  UNL d   1       4.159   0.116   0.766  0.00  0.00     0.076 C 
ATOM      6  C7  UNL d   1       2.392  -1.198  -0.439  0.00  0.00     0.002 A 
ATOM      7  C8  UNL d   1       1.873  -1.790  -1.592  0.00  0.00     0.006 A 
ENDROOT
BRANCH   1   8
ATOM      8  C1  UNL d   1       2.018  -2.373  -4.042  0.00  0.00     0.054 C 
ATOM      9  C   UNL d   1       1.517  -1.370  -5.072  0.00  0.00     0.018 C 
ENDBRANCH   1   8
TORSDOF 1
ENDMDL
