MODEL 1
REMARK minimizedAffinity -3.22746062
REMARK minimizedRMSD -1
REMARK  1 active torsions:
REMARK  status: ('A' for Active; 'I' for Inactive)
REMARK    1  A    between atoms: C1_2  and  C2_3 
ROOT
ATOM      1  C2  UNL d   1      -0.402   0.543   1.362  0.00  0.00    -0.081 A 
ATOM      2  C3  UNL d   1       0.182  -0.730   1.370  0.00  0.00     0.006 A 
ATOM      3  C4  UNL d   1       0.767  -1.247   0.212  0.00  0.00     0.002 A 
ATOM      4  C5  UNL d   1       0.785  -0.499  -0.969  0.00  0.00    -0.080 A 
ATOM      5  C6  UNL d   1       1.437  -1.031  -2.211  0.00  0.00     0.076 C 
ATOM      6  C7  UNL d   1       0.185   0.765  -0.982  0.00  0.00     0.002 A 
ATOM      7  C8  UNL d   1      -0.400   1.283   0.175  0.00  0.00     0.006 A 
ENDROOT
BRANCH   1   8
ATOM      8  C1  UNL d   1      -0.977   1.130   2.626  0.00  0.00     0.054 C 
ATOM      9  C   UNL d   1      -2.288   0.455   3.004  0.00  0.00     0.018 C 
ENDBRANCH   1   8
TORSDOF 1
ENDMDL
