MODEL 1
REMARK minimizedAffinity 7.37707186
REMARK minimizedRMSD -1
REMARK  1 active torsions:
REMARK  status: ('A' for Active; 'I' for Inactive)
REMARK    1  A    between atoms: C1_2  and  C2_3 
ROOT
ATOM      1  C2  UNL d   1       2.128   0.108  -1.688  0.00  0.00    -0.081 A 
ATOM      2  C3  UNL d   1       2.956   0.528  -2.736  0.00  0.00     0.006 A 
ATOM      3  C4  UNL d   1       2.809   1.804  -3.286  0.00  0.00     0.002 A 
ATOM      4  C5  UNL d   1       1.839   2.682  -2.793  0.00  0.00    -0.080 A 
ATOM      5  C6  UNL d   1       1.691   4.065  -3.354  0.00  0.00     0.076 C 
ATOM      6  C7  UNL d   1       1.000   2.256  -1.758  0.00  0.00     0.002 A 
ATOM      7  C8  UNL d   1       1.145   0.980  -1.208  0.00  0.00     0.006 A 
ENDROOT
BRANCH   1   8
ATOM      8  C1  UNL d   1       2.326  -1.244  -1.050  0.00  0.00     0.054 C 
ATOM      9  C   UNL d   1       3.374  -1.186   0.052  0.00  0.00     0.018 C 
ENDBRANCH   1   8
TORSDOF 1
ENDMDL
