MODEL 1
REMARK minimizedAffinity -1.67346323
REMARK minimizedRMSD -1
REMARK  1 active torsions:
REMARK  status: ('A' for Active; 'I' for Inactive)
REMARK    1  A    between atoms: C1_2  and  C2_3 
ROOT
ATOM      1  C2  UNL d   1      -1.245  -1.772  -1.159  0.00  0.00    -0.081 A 
ATOM      2  C3  UNL d   1      -1.320  -0.399  -0.898  0.00  0.00     0.006 A 
ATOM      3  C4  UNL d   1      -0.184   0.406  -1.005  0.00  0.00     0.002 A 
ATOM      4  C5  UNL d   1       1.045  -0.147  -1.382  0.00  0.00    -0.080 A 
ATOM      5  C6  UNL d   1       2.266   0.711  -1.530  0.00  0.00     0.076 C 
ATOM      6  C7  UNL d   1       1.124  -1.522  -1.626  0.00  0.00     0.002 A 
ATOM      7  C8  UNL d   1      -0.012  -2.328  -1.519  0.00  0.00     0.006 A 
ENDROOT
BRANCH   1   8
ATOM      8  C1  UNL d   1      -2.482  -2.632  -1.108  0.00  0.00     0.054 C 
ATOM      9  C   UNL d   1      -3.702  -1.876  -1.616  0.00  0.00     0.018 C 
ENDBRANCH   1   8
TORSDOF 1
ENDMDL
