MODEL 1
REMARK minimizedAffinity 5.78113651
REMARK minimizedRMSD -1
REMARK  1 active torsions:
REMARK  status: ('A' for Active; 'I' for Inactive)
REMARK    1  A    between atoms: C1_2  and  C2_3 
ROOT
ATOM      1  C2  UNL d   1      -4.265  -3.192  -1.411  0.00  0.00    -0.081 A 
ATOM      2  C3  UNL d   1      -3.019  -3.546  -0.879  0.00  0.00     0.006 A 
ATOM      3  C4  UNL d   1      -2.090  -2.561  -0.534  0.00  0.00     0.002 A 
ATOM      4  C5  UNL d   1      -2.395  -1.207  -0.709  0.00  0.00    -0.080 A 
ATOM      5  C6  UNL d   1      -1.419  -0.138  -0.315  0.00  0.00     0.076 C 
ATOM      6  C7  UNL d   1      -3.633  -0.854  -1.257  0.00  0.00     0.002 A 
ATOM      7  C8  UNL d   1      -4.561  -1.838  -1.602  0.00  0.00     0.006 A 
ENDROOT
BRANCH   1   8
ATOM      8  C1  UNL d   1      -5.293  -4.250  -1.723  0.00  0.00     0.054 C 
ATOM      9  C   UNL d   1      -5.614  -5.089  -0.495  0.00  0.00     0.018 C 
ENDBRANCH   1   8
TORSDOF 1
ENDMDL
