MODEL 1
REMARK minimizedAffinity 4.76634789
REMARK minimizedRMSD -1
REMARK  1 active torsions:
REMARK  status: ('A' for Active; 'I' for Inactive)
REMARK    1  A    between atoms: C1_2  and  C2_3 
ROOT
ATOM      1  C2  UNL d   1      -0.795  -0.340  -0.778  0.00  0.00    -0.081 A 
ATOM      2  C3  UNL d   1      -0.737   1.055  -0.889  0.00  0.00     0.006 A 
ATOM      3  C4  UNL d   1       0.353   1.672  -1.507  0.00  0.00     0.002 A 
ATOM      4  C5  UNL d   1       1.400   0.905  -2.030  0.00  0.00    -0.080 A 
ATOM      5  C6  UNL d   1       2.562   1.553  -2.723  0.00  0.00     0.076 C 
ATOM      6  C7  UNL d   1       1.351  -0.487  -1.904  0.00  0.00     0.002 A 
ATOM      7  C8  UNL d   1       0.261  -1.105  -1.286  0.00  0.00     0.006 A 
ENDROOT
BRANCH   1   8
ATOM      8  C1  UNL d   1      -2.000  -1.011  -0.170  0.00  0.00     0.054 C 
ATOM      9  C   UNL d   1      -2.499  -2.150  -1.047  0.00  0.00     0.018 C 
ENDBRANCH   1   8
TORSDOF 1
ENDMDL
