MODEL 1
REMARK minimizedAffinity 5.52340221
REMARK minimizedRMSD -1
REMARK  1 active torsions:
REMARK  status: ('A' for Active; 'I' for Inactive)
REMARK    1  A    between atoms: C1_2  and  C2_3 
ROOT
ATOM      1  C2  UNL d   1       1.836   2.454  -2.953  0.00  0.00    -0.081 A 
ATOM      2  C3  UNL d   1       0.955   1.974  -1.976  0.00  0.00     0.006 A 
ATOM      3  C4  UNL d   1       1.128   0.699  -1.431  0.00  0.00     0.002 A 
ATOM      4  C5  UNL d   1       2.190  -0.112  -1.845  0.00  0.00    -0.080 A 
ATOM      5  C6  UNL d   1       2.405  -1.470  -1.246  0.00  0.00     0.076 C 
ATOM      6  C7  UNL d   1       3.060   0.361  -2.833  0.00  0.00     0.002 A 
ATOM      7  C8  UNL d   1       2.887   1.634  -3.380  0.00  0.00     0.006 A 
ENDROOT
BRANCH   1   8
ATOM      8  C1  UNL d   1       1.690   3.852  -3.496  0.00  0.00     0.054 C 
ATOM      9  C   UNL d   1       2.851   4.737  -3.066  0.00  0.00     0.018 C 
ENDBRANCH   1   8
TORSDOF 1
ENDMDL
