MODEL 1
REMARK minimizedAffinity 3.47093987
REMARK minimizedRMSD -1
REMARK  1 active torsions:
REMARK  status: ('A' for Active; 'I' for Inactive)
REMARK    1  A    between atoms: C1_2  and  C2_3 
ROOT
ATOM      1  C2  UNL d   1       1.632   2.060  -2.585  0.00  0.00    -0.081 A 
ATOM      2  C3  UNL d   1       0.853   1.692  -1.481  0.00  0.00     0.006 A 
ATOM      3  C4  UNL d   1       1.144   0.528  -0.765  0.00  0.00     0.002 A 
ATOM      4  C5  UNL d   1       2.222  -0.282  -1.136  0.00  0.00    -0.080 A 
ATOM      5  C6  UNL d   1       2.564  -1.518  -0.357  0.00  0.00     0.076 C 
ATOM      6  C7  UNL d   1       2.990   0.076  -2.249  0.00  0.00     0.002 A 
ATOM      7  C8  UNL d   1       2.699   1.239  -2.965  0.00  0.00     0.006 A 
ENDROOT
BRANCH   1   8
ATOM      8  C1  UNL d   1       1.361   3.348  -3.319  0.00  0.00     0.054 C 
ATOM      9  C   UNL d   1       2.531   4.312  -3.196  0.00  0.00     0.018 C 
ENDBRANCH   1   8
TORSDOF 1
ENDMDL
