MODEL 1
REMARK minimizedAffinity 4.74191713
REMARK minimizedRMSD -1
REMARK  1 active torsions:
REMARK  status: ('A' for Active; 'I' for Inactive)
REMARK    1  A    between atoms: C1_2  and  C2_3 
ROOT
ATOM      1  C2  UNL d   1       0.401  -0.617  -1.025  0.00  0.00    -0.081 A 
ATOM      2  C3  UNL d   1       0.444  -1.990  -1.299  0.00  0.00     0.006 A 
ATOM      3  C4  UNL d   1      -0.707  -2.772  -1.180  0.00  0.00     0.002 A 
ATOM      4  C5  UNL d   1      -1.921  -2.195  -0.794  0.00  0.00    -0.080 A 
ATOM      5  C6  UNL d   1      -3.171  -3.018  -0.692  0.00  0.00     0.076 C 
ATOM      6  C7  UNL d   1      -1.961  -0.827  -0.503  0.00  0.00     0.002 A 
ATOM      7  C8  UNL d   1      -0.810  -0.044  -0.621  0.00  0.00     0.006 A 
ENDROOT
BRANCH   1   8
ATOM      8  C1  UNL d   1       1.625   0.241  -1.214  0.00  0.00     0.054 C 
ATOM      9  C   UNL d   1       2.784  -0.565  -1.782  0.00  0.00     0.018 C 
ENDBRANCH   1   8
TORSDOF 1
ENDMDL
