MODEL 1
REMARK minimizedAffinity 9.11699677
REMARK minimizedRMSD -1
REMARK  1 active torsions:
REMARK  status: ('A' for Active; 'I' for Inactive)
REMARK    1  A    between atoms: C1_2  and  C2_3 
ROOT
ATOM      1  C2  UNL d   1       1.807   2.659  -2.786  0.00  0.00    -0.081 A 
ATOM      2  C3  UNL d   1       2.886   1.885  -3.229  0.00  0.00     0.006 A 
ATOM      3  C4  UNL d   1       3.148   0.639  -2.652  0.00  0.00     0.002 A 
ATOM      4  C5  UNL d   1       2.331   0.145  -1.630  0.00  0.00    -0.080 A 
ATOM      5  C6  UNL d   1       2.583  -1.204  -1.024  0.00  0.00     0.076 C 
ATOM      6  C7  UNL d   1       1.263   0.926  -1.176  0.00  0.00     0.002 A 
ATOM      7  C8  UNL d   1       1.001   2.171  -1.751  0.00  0.00     0.006 A 
ENDROOT
BRANCH   1   8
ATOM      8  C1  UNL d   1       1.483   3.973  -3.450  0.00  0.00     0.054 C 
ATOM      9  C   UNL d   1       2.500   5.044  -3.082  0.00  0.00     0.018 C 
ENDBRANCH   1   8
TORSDOF 1
ENDMDL
