MODEL 1
REMARK minimizedAffinity 11.8839893
REMARK minimizedRMSD -1
REMARK  1 active torsions:
REMARK  status: ('A' for Active; 'I' for Inactive)
REMARK    1  A    between atoms: C1_2  and  C2_3 
ROOT
ATOM      1  C2  UNL d   1      -1.466  -0.405  -0.471  0.00  0.00    -0.081 A 
ATOM      2  C3  UNL d   1      -1.326   0.787   0.251  0.00  0.00     0.006 A 
ATOM      3  C4  UNL d   1      -0.155   1.542   0.150  0.00  0.00     0.002 A 
ATOM      4  C5  UNL d   1       0.891   1.123  -0.679  0.00  0.00    -0.080 A 
ATOM      5  C6  UNL d   1       2.141   1.941  -0.820  0.00  0.00     0.076 C 
ATOM      6  C7  UNL d   1       0.758  -0.076  -1.387  0.00  0.00     0.002 A 
ATOM      7  C8  UNL d   1      -0.412  -0.832  -1.286  0.00  0.00     0.006 A 
ENDROOT
BRANCH   1   8
ATOM      8  C1  UNL d   1      -2.753  -1.188  -0.415  0.00  0.00     0.054 C 
ATOM      9  C   UNL d   1      -2.652  -2.475  -1.220  0.00  0.00     0.018 C 
ENDBRANCH   1   8
TORSDOF 1
ENDMDL
