MODEL 1
REMARK minimizedAffinity 5.24411297
REMARK minimizedRMSD -1
REMARK  1 active torsions:
REMARK  status: ('A' for Active; 'I' for Inactive)
REMARK    1  A    between atoms: C1_2  and  C2_3 
ROOT
ATOM      1  C2  UNL d   1      -0.582   0.607  -0.030  0.00  0.00    -0.081 A 
ATOM      2  C3  UNL d   1       0.242   1.600   0.513  0.00  0.00     0.006 A 
ATOM      3  C4  UNL d   1       1.537   1.790   0.025  0.00  0.00     0.002 A 
ATOM      4  C5  UNL d   1       2.026   0.996  -1.018  0.00  0.00    -0.080 A 
ATOM      5  C6  UNL d   1       3.403   1.210  -1.572  0.00  0.00     0.076 C 
ATOM      6  C7  UNL d   1       1.208  -0.007  -1.549  0.00  0.00     0.002 A 
ATOM      7  C8  UNL d   1      -0.086  -0.198  -1.061  0.00  0.00     0.006 A 
ENDROOT
BRANCH   1   8
ATOM      8  C1  UNL d   1      -2.002   0.442   0.451  0.00  0.00     0.054 C 
ATOM      9  C   UNL d   1      -2.549  -0.933   0.097  0.00  0.00     0.018 C 
ENDBRANCH   1   8
TORSDOF 1
ENDMDL
