MODEL 1
REMARK minimizedAffinity 4.35424137
REMARK minimizedRMSD -1
REMARK  1 active torsions:
REMARK  status: ('A' for Active; 'I' for Inactive)
REMARK    1  A    between atoms: C1_2  and  C2_3 
ROOT
ATOM      1  C2  UNL d   1       1.886  -4.718   1.880  0.00  0.00    -0.081 A 
ATOM      2  C3  UNL d   1       2.744  -5.591   1.200  0.00  0.00     0.006 A 
ATOM      3  C4  UNL d   1       3.948  -5.996   1.781  0.00  0.00     0.002 A 
ATOM      4  C5  UNL d   1       4.310  -5.542   3.054  0.00  0.00    -0.080 A 
ATOM      5  C6  UNL d   1       5.585  -5.993   3.702  0.00  0.00     0.076 C 
ATOM      6  C7  UNL d   1       3.461  -4.656   3.726  0.00  0.00     0.002 A 
ATOM      7  C8  UNL d   1       2.257  -4.250   3.145  0.00  0.00     0.006 A 
ENDROOT
BRANCH   1   8
ATOM      8  C1  UNL d   1       0.557  -4.330   1.283  0.00  0.00     0.054 C 
ATOM      9  C   UNL d   1      -0.594  -5.023   1.999  0.00  0.00     0.018 C 
ENDBRANCH   1   8
TORSDOF 1
ENDMDL
