MODEL 1
REMARK minimizedAffinity 5.37487078
REMARK minimizedRMSD -1
REMARK  1 active torsions:
REMARK  status: ('A' for Active; 'I' for Inactive)
REMARK    1  A    between atoms: C1_2  and  C2_3 
ROOT
ATOM      1  C2  UNL d   1       0.347   1.308  -1.382  0.00  0.00    -0.081 A 
ATOM      2  C3  UNL d   1       1.179   0.195  -1.215  0.00  0.00     0.006 A 
ATOM      3  C4  UNL d   1       2.390   0.107  -1.906  0.00  0.00     0.002 A 
ATOM      4  C5  UNL d   1       2.792   1.133  -2.767  0.00  0.00    -0.080 A 
ATOM      5  C6  UNL d   1       4.104   1.065  -3.491  0.00  0.00     0.076 C 
ATOM      6  C7  UNL d   1       1.953   2.237  -2.947  0.00  0.00     0.002 A 
ATOM      7  C8  UNL d   1       0.741   2.326  -2.258  0.00  0.00     0.006 A 
ENDROOT
BRANCH   1   8
ATOM      8  C1  UNL d   1      -0.929   1.436  -0.589  0.00  0.00     0.054 C 
ATOM      9  C   UNL d   1      -1.654   0.102  -0.488  0.00  0.00     0.018 C 
ENDBRANCH   1   8
TORSDOF 1
ENDMDL
