MODEL 1
REMARK minimizedAffinity 0.824952245
REMARK minimizedRMSD -1
REMARK  0 active torsions:
REMARK  status: ('A' for Active; 'I' for Inactive)
ROOT
ATOM      1  C1  BNZ d   1      -1.357   1.188   1.157  0.00  0.00     0.000 A 
ATOM      2  C2  BNZ d   1      -0.085   1.391   1.621  0.00  0.00     0.000 A 
ATOM      3  C3  BNZ d   1       0.573   0.414   2.314  0.00  0.00     0.000 A 
ATOM      4  C4  BNZ d   1      -0.057  -0.749   2.577  0.00  0.00     0.000 A 
ATOM      5  C5  BNZ d   1      -1.343  -0.967   2.125  0.00  0.00     0.000 A 
ATOM      6  C6  BNZ d   1      -1.987   0.005   1.393  0.00  0.00     0.000 A 
ENDROOT
TORSDOF 0
ENDMDL
