MODEL 1
REMARK minimizedAffinity -1.84235322
REMARK minimizedRMSD -1
REMARK  0 active torsions:
REMARK  status: ('A' for Active; 'I' for Inactive)
ROOT
ATOM      1  C1  BNZ d   1      -0.815   0.122   1.924  0.00  0.00     0.000 A 
ATOM      2  C2  BNZ d   1      -0.846  -0.639   3.062  0.00  0.00     0.000 A 
ATOM      3  C3  BNZ d   1       0.275  -1.285   3.502  0.00  0.00     0.000 A 
ATOM      4  C4  BNZ d   1       1.413  -1.203   2.784  0.00  0.00     0.000 A 
ATOM      5  C5  BNZ d   1       1.458  -0.447   1.630  0.00  0.00     0.000 A 
ATOM      6  C6  BNZ d   1       0.338   0.234   1.210  0.00  0.00     0.000 A 
ENDROOT
TORSDOF 0
ENDMDL
