MODEL 1
REMARK minimizedAffinity -2.6076901
REMARK minimizedRMSD -1
REMARK  0 active torsions:
REMARK  status: ('A' for Active; 'I' for Inactive)
ROOT
ATOM      1  C1  BNZ d   1       1.634  -0.867   1.899  0.00  0.00     0.000 A 
ATOM      2  C2  BNZ d   1       1.808  -1.447   3.127  0.00  0.00     0.000 A 
ATOM      3  C3  BNZ d   1       0.785  -1.488   4.033  0.00  0.00     0.000 A 
ATOM      4  C4  BNZ d   1      -0.396  -0.914   3.727  0.00  0.00     0.000 A 
ATOM      5  C5  BNZ d   1      -0.584  -0.317   2.496  0.00  0.00     0.000 A 
ATOM      6  C6  BNZ d   1       0.435  -0.312   1.572  0.00  0.00     0.000 A 
ENDROOT
TORSDOF 0
ENDMDL
