MODEL 1
REMARK minimizedAffinity -4.67380476
REMARK minimizedRMSD -1
REMARK  0 active torsions:
REMARK  status: ('A' for Active; 'I' for Inactive)
ROOT
ATOM      1  C1  BNZ d   1      -0.148   0.371   1.809  0.00  0.00     0.000 A 
ATOM      2  C2  BNZ d   1       0.838  -0.175   2.587  0.00  0.00     0.000 A 
ATOM      3  C3  BNZ d   1       0.535  -1.074   3.572  0.00  0.00     0.000 A 
ATOM      4  C4  BNZ d   1      -0.755  -1.395   3.803  0.00  0.00     0.000 A 
ATOM      5  C5  BNZ d   1      -1.760  -0.846   3.032  0.00  0.00     0.000 A 
ATOM      6  C6  BNZ d   1      -1.449   0.029   2.017  0.00  0.00     0.000 A 
ENDROOT
TORSDOF 0
ENDMDL
