MODEL 1
REMARK minimizedAffinity 2.35154414
REMARK minimizedRMSD -1
REMARK  0 active torsions:
REMARK  status: ('A' for Active; 'I' for Inactive)
ROOT
ATOM      1  C1  BNZ d   1       0.870  -0.610   1.761  0.00  0.00     0.000 A 
ATOM      2  C2  BNZ d   1       1.809  -1.425   2.334  0.00  0.00     0.000 A 
ATOM      3  C3  BNZ d   1       1.908  -1.533   3.693  0.00  0.00     0.000 A 
ATOM      4  C4  BNZ d   1       1.095  -0.795   4.477  0.00  0.00     0.000 A 
ATOM      5  C5  BNZ d   1       0.149   0.038   3.915  0.00  0.00     0.000 A 
ATOM      6  C6  BNZ d   1       0.027   0.114   2.546  0.00  0.00     0.000 A 
ENDROOT
TORSDOF 0
ENDMDL
