MODEL 1
REMARK minimizedAffinity 1.14624703
REMARK minimizedRMSD -1
REMARK  0 active torsions:
REMARK  status: ('A' for Active; 'I' for Inactive)
ROOT
ATOM      1  C1  BNZ d   1      -2.030  -1.136   2.540  0.00  0.00     0.000 A 
ATOM      2  C2  BNZ d   1      -2.286  -0.073   1.716  0.00  0.00     0.000 A 
ATOM      3  C3  BNZ d   1      -1.267   0.706   1.243  0.00  0.00     0.000 A 
ATOM      4  C4  BNZ d   1      -0.001   0.447   1.626  0.00  0.00     0.000 A 
ATOM      5  C5  BNZ d   1       0.272  -0.615   2.465  0.00  0.00     0.000 A 
ATOM      6  C6  BNZ d   1      -0.751  -1.422   2.908  0.00  0.00     0.000 A 
ENDROOT
TORSDOF 0
ENDMDL
