MODEL 1
REMARK minimizedAffinity -3.34505534
REMARK minimizedRMSD -1
REMARK  0 active torsions:
REMARK  status: ('A' for Active; 'I' for Inactive)
ROOT
ATOM      1  C1  BNZ d   1       0.380  -1.386   3.624  0.00  0.00     0.000 A 
ATOM      2  C2  BNZ d   1      -0.706  -0.670   3.193  0.00  0.00     0.000 A 
ATOM      3  C3  BNZ d   1      -0.581   0.260   2.199  0.00  0.00     0.000 A 
ATOM      4  C4  BNZ d   1       0.634   0.501   1.665  0.00  0.00     0.000 A 
ATOM      5  C5  BNZ d   1       1.739  -0.206   2.095  0.00  0.00     0.000 A 
ATOM      6  C6  BNZ d   1       1.603  -1.168   3.069  0.00  0.00     0.000 A 
ENDROOT
TORSDOF 0
ENDMDL
