MODEL 1
REMARK minimizedAffinity -2.83677149
REMARK minimizedRMSD -1
REMARK  0 active torsions:
REMARK  status: ('A' for Active; 'I' for Inactive)
ROOT
ATOM      1  C1  BNZ d   1      -1.534  -0.646   2.678  0.00  0.00     0.000 A 
ATOM      2  C2  BNZ d   1      -0.917  -0.865   3.881  0.00  0.00     0.000 A 
ATOM      3  C3  BNZ d   1       0.446  -0.906   3.971  0.00  0.00     0.000 A 
ATOM      4  C4  BNZ d   1       1.189  -0.768   2.854  0.00  0.00     0.000 A 
ATOM      5  C5  BNZ d   1       0.582  -0.556   1.633  0.00  0.00     0.000 A 
ATOM      6  C6  BNZ d   1      -0.790  -0.477   1.552  0.00  0.00     0.000 A 
ENDROOT
TORSDOF 0
ENDMDL
