MODEL 1
REMARK minimizedAffinity -0.248365268
REMARK minimizedRMSD -1
REMARK  0 active torsions:
REMARK  status: ('A' for Active; 'I' for Inactive)
ROOT
ATOM      1  C   UNL d   1      -1.429   0.726   1.336  0.00  0.00     0.124 A 
ATOM      2  C1  UNL d   1      -0.073   0.472   1.488  0.00  0.00     0.062 A 
ATOM      3  C2  UNL d   1       0.738   0.307   0.369  0.00  0.00     0.162 A 
ATOM      4  C3  UNL d   1       0.195   0.396  -0.913  0.00  0.00    -0.034 A 
ATOM      5  C4  UNL d   1      -1.170   0.651  -1.058  0.00  0.00     0.162 A 
ATOM      6  C5  UNL d   1      -1.977   0.815   0.064  0.00  0.00     0.062 A 
ATOM      7  F   UNL d   1      -3.287   1.060  -0.085  0.00  0.00    -0.097 F 
ATOM      8  F1  UNL d   1      -1.725   0.743  -2.276  0.00  0.00    -0.096 F 
ATOM      9  I   UNL d   1       1.404   0.150  -2.589  0.00  0.00    -0.060 I 
ATOM     10  F2  UNL d   1       2.045   0.063   0.545  0.00  0.00    -0.096 F 
ATOM     11  F3  UNL d   1       0.458   0.385   2.716  0.00  0.00    -0.097 F 
ATOM     12  F4  UNL d   1      -2.208   0.883   2.414  0.00  0.00    -0.092 F 
ENDROOT
TORSDOF 0
ENDMDL
