MODEL 1
REMARK minimizedAffinity -0.00693009328
REMARK minimizedRMSD -1
REMARK  0 active torsions:
REMARK  status: ('A' for Active; 'I' for Inactive)
ROOT
ATOM      1  C   UNL d   1       0.633   0.609   0.105  0.00  0.00     0.124 A 
ATOM      2  C1  UNL d   1       1.620  -0.362   0.204  0.00  0.00     0.062 A 
ATOM      3  C2  UNL d   1       2.002  -1.088  -0.920  0.00  0.00     0.162 A 
ATOM      4  C3  UNL d   1       1.399  -0.846  -2.154  0.00  0.00    -0.034 A 
ATOM      5  C4  UNL d   1       0.406   0.132  -2.246  0.00  0.00     0.162 A 
ATOM      6  C5  UNL d   1       0.028   0.855  -1.120  0.00  0.00     0.062 A 
ATOM      7  F   UNL d   1      -0.926   1.793  -1.217  0.00  0.00    -0.097 F 
ATOM      8  F1  UNL d   1      -0.195   0.391  -3.417  0.00  0.00    -0.096 F 
ATOM      9  I   UNL d   1       1.968  -1.930  -3.837  0.00  0.00    -0.060 I 
ATOM     10  F2  UNL d   1       2.959  -2.021  -0.795  0.00  0.00    -0.096 F 
ATOM     11  F3  UNL d   1       2.206  -0.602   1.386  0.00  0.00    -0.097 F 
ATOM     12  F4  UNL d   1       0.266   1.306   1.188  0.00  0.00    -0.092 F 
ENDROOT
TORSDOF 0
ENDMDL
