MODEL 1
REMARK minimizedAffinity -4.252316
REMARK minimizedRMSD -1
REMARK  0 active torsions:
REMARK  status: ('A' for Active; 'I' for Inactive)
ROOT
ATOM      1  C   UNL d   1      -1.293  -0.001   3.165  0.00  0.00     0.124 A 
ATOM      2  C1  UNL d   1      -2.279  -0.184   2.205  0.00  0.00     0.062 A 
ATOM      3  C2  UNL d   1      -1.966  -0.080   0.853  0.00  0.00     0.162 A 
ATOM      4  C3  UNL d   1      -0.661   0.207   0.452  0.00  0.00    -0.034 A 
ATOM      5  C4  UNL d   1       0.324   0.391   1.424  0.00  0.00     0.162 A 
ATOM      6  C5  UNL d   1       0.007   0.286   2.774  0.00  0.00     0.062 A 
ATOM      7  F   UNL d   1       0.960   0.463   3.700  0.00  0.00    -0.097 F 
ATOM      8  F1  UNL d   1       1.589   0.668   1.073  0.00  0.00    -0.096 F 
ATOM      9  I   UNL d   1      -0.190   0.364  -1.569  0.00  0.00    -0.060 I 
ATOM     10  F2  UNL d   1      -2.938  -0.261  -0.053  0.00  0.00    -0.096 F 
ATOM     11  F3  UNL d   1      -3.536  -0.460   2.581  0.00  0.00    -0.097 F 
ATOM     12  F4  UNL d   1      -1.597  -0.101   4.466  0.00  0.00    -0.092 F 
ENDROOT
TORSDOF 0
ENDMDL
