MODEL 1
REMARK minimizedAffinity -3.37611651
REMARK minimizedRMSD -1
REMARK  0 active torsions:
REMARK  status: ('A' for Active; 'I' for Inactive)
ROOT
ATOM      1  C   UNL d   1       0.606   0.420  -0.824  0.00  0.00     0.124 A 
ATOM      2  C1  UNL d   1       1.184   0.681   0.411  0.00  0.00     0.062 A 
ATOM      3  C2  UNL d   1       0.471   0.443   1.582  0.00  0.00     0.162 A 
ATOM      4  C3  UNL d   1      -0.830  -0.059   1.525  0.00  0.00    -0.034 A 
ATOM      5  C4  UNL d   1      -1.405  -0.317   0.279  0.00  0.00     0.162 A 
ATOM      6  C5  UNL d   1      -0.688  -0.079  -0.888  0.00  0.00     0.062 A 
ATOM      7  F   UNL d   1      -1.248  -0.331  -2.080  0.00  0.00    -0.097 F 
ATOM      8  F1  UNL d   1      -2.653  -0.800   0.188  0.00  0.00    -0.096 F 
ATOM      9  I   UNL d   1      -1.900  -0.415   3.274  0.00  0.00    -0.060 I 
ATOM     10  F2  UNL d   1       1.054   0.704   2.761  0.00  0.00    -0.096 F 
ATOM     11  F3  UNL d   1       2.433   1.163   0.476  0.00  0.00    -0.097 F 
ATOM     12  F4  UNL d   1       1.294   0.650  -1.949  0.00  0.00    -0.092 F 
ENDROOT
TORSDOF 0
ENDMDL
