MODEL 1
REMARK minimizedAffinity 0.514838159
REMARK minimizedRMSD -1
REMARK  0 active torsions:
REMARK  status: ('A' for Active; 'I' for Inactive)
ROOT
ATOM      1  C   UNL d   1      -0.622   0.039   2.156  0.00  0.00     0.124 A 
ATOM      2  C1  UNL d   1       0.553   0.726   1.884  0.00  0.00     0.062 A 
ATOM      3  C2  UNL d   1       1.066   0.752   0.591  0.00  0.00     0.162 A 
ATOM      4  C3  UNL d   1       0.404   0.089  -0.442  0.00  0.00    -0.034 A 
ATOM      5  C4  UNL d   1      -0.777  -0.601  -0.161  0.00  0.00     0.162 A 
ATOM      6  C5  UNL d   1      -1.286  -0.623   1.133  0.00  0.00     0.062 A 
ATOM      7  F   UNL d   1      -2.421  -1.287   1.394  0.00  0.00    -0.097 F 
ATOM      8  F1  UNL d   1      -1.440  -1.249  -1.131  0.00  0.00    -0.096 F 
ATOM      9  I   UNL d   1       1.167   0.124  -2.378  0.00  0.00    -0.060 I 
ATOM     10  F2  UNL d   1       2.204   1.423   0.357  0.00  0.00    -0.096 F 
ATOM     11  F3  UNL d   1       1.197   1.367   2.871  0.00  0.00    -0.097 F 
ATOM     12  F4  UNL d   1      -1.113   0.016   3.402  0.00  0.00    -0.092 F 
ENDROOT
TORSDOF 0
ENDMDL
