MODEL 1
REMARK minimizedAffinity 1.52478445
REMARK minimizedRMSD -1
REMARK  0 active torsions:
REMARK  status: ('A' for Active; 'I' for Inactive)
ROOT
ATOM      1  C   UNL d   1       0.816   0.538   2.239  0.00  0.00     0.124 A 
ATOM      2  C1  UNL d   1      -0.432  -0.053   2.385  0.00  0.00     0.062 A 
ATOM      3  C2  UNL d   1      -1.195  -0.364   1.263  0.00  0.00     0.162 A 
ATOM      4  C3  UNL d   1      -0.712  -0.087  -0.015  0.00  0.00    -0.034 A 
ATOM      5  C4  UNL d   1       0.544   0.508  -0.155  0.00  0.00     0.162 A 
ATOM      6  C5  UNL d   1       1.302   0.818   0.970  0.00  0.00     0.062 A 
ATOM      7  F   UNL d   1       2.507   1.389   0.826  0.00  0.00    -0.097 F 
ATOM      8  F1  UNL d   1       1.038   0.789  -1.369  0.00  0.00    -0.096 F 
ATOM      9  I   UNL d   1      -1.849  -0.551  -1.695  0.00  0.00    -0.060 I 
ATOM     10  F2  UNL d   1      -2.396  -0.935   1.435  0.00  0.00    -0.096 F 
ATOM     11  F3  UNL d   1      -0.904  -0.323   3.610  0.00  0.00    -0.097 F 
ATOM     12  F4  UNL d   1       1.547   0.838   3.320  0.00  0.00    -0.092 F 
ENDROOT
TORSDOF 0
ENDMDL
