MODEL 1
REMARK minimizedAffinity -3.22076559
REMARK minimizedRMSD -1
REMARK  0 active torsions:
REMARK  status: ('A' for Active; 'I' for Inactive)
ROOT
ATOM      1  C   UNL d   1      -1.045   0.565   1.836  0.00  0.00     0.124 A 
ATOM      2  C1  UNL d   1      -1.760   0.404   0.657  0.00  0.00     0.062 A 
ATOM      3  C2  UNL d   1      -1.097   0.377  -0.566  0.00  0.00     0.162 A 
ATOM      4  C3  UNL d   1       0.290   0.511  -0.618  0.00  0.00    -0.034 A 
ATOM      5  C4  UNL d   1       1.003   0.674   0.572  0.00  0.00     0.162 A 
ATOM      6  C5  UNL d   1       0.336   0.699   1.792  0.00  0.00     0.062 A 
ATOM      7  F   UNL d   1       1.029   0.855   2.929  0.00  0.00    -0.097 F 
ATOM      8  F1  UNL d   1       2.338   0.805   0.558  0.00  0.00    -0.096 F 
ATOM      9  I   UNL d   1       1.286   0.472  -2.445  0.00  0.00    -0.060 I 
ATOM     10  F2  UNL d   1      -1.814   0.220  -1.689  0.00  0.00    -0.096 F 
ATOM     11  F3  UNL d   1      -3.094   0.274   0.697  0.00  0.00    -0.097 F 
ATOM     12  F4  UNL d   1      -1.685   0.591   3.012  0.00  0.00    -0.092 F 
ENDROOT
TORSDOF 0
ENDMDL
