MODEL 1
REMARK minimizedAffinity -3.21361423
REMARK minimizedRMSD -1
REMARK  0 active torsions:
REMARK  status: ('A' for Active; 'I' for Inactive)
ROOT
ATOM      1  C   UNL d   1       1.179  -0.272   1.533  0.00  0.00     0.124 A 
ATOM      2  C1  UNL d   1       0.371  -0.532   2.632  0.00  0.00     0.062 A 
ATOM      3  C2  UNL d   1      -0.985  -0.221   2.594  0.00  0.00     0.162 A 
ATOM      4  C3  UNL d   1      -1.543   0.353   1.452  0.00  0.00    -0.034 A 
ATOM      5  C4  UNL d   1      -0.724   0.613   0.351  0.00  0.00     0.162 A 
ATOM      6  C5  UNL d   1       0.630   0.301   0.394  0.00  0.00     0.062 A 
ATOM      7  F   UNL d   1       1.409   0.553  -0.668  0.00  0.00    -0.097 F 
ATOM      8  F1  UNL d   1      -1.228   1.165  -0.763  0.00  0.00    -0.096 F 
ATOM      9  I   UNL d   1      -3.570   0.820   1.390  0.00  0.00    -0.060 I 
ATOM     10  F2  UNL d   1      -1.741  -0.484   3.670  0.00  0.00    -0.096 F 
ATOM     11  F3  UNL d   1       0.899  -1.085   3.734  0.00  0.00    -0.097 F 
ATOM     12  F4  UNL d   1       2.483  -0.571   1.573  0.00  0.00    -0.092 F 
ENDROOT
TORSDOF 0
ENDMDL
