MODEL 1
REMARK minimizedAffinity -1.32185173
REMARK minimizedRMSD -1
REMARK  0 active torsions:
REMARK  status: ('A' for Active; 'I' for Inactive)
ROOT
ATOM      1  C   UNL d   1      -0.490   0.529   1.627  0.00  0.00     0.124 A 
ATOM      2  C1  UNL d   1       0.787  -0.011   1.566  0.00  0.00     0.062 A 
ATOM      3  C2  UNL d   1       1.313  -0.430   0.347  0.00  0.00     0.162 A 
ATOM      4  C3  UNL d   1       0.561  -0.309  -0.822  0.00  0.00    -0.034 A 
ATOM      5  C4  UNL d   1      -0.723   0.234  -0.752  0.00  0.00     0.162 A 
ATOM      6  C5  UNL d   1      -1.244   0.651   0.469  0.00  0.00     0.062 A 
ATOM      7  F   UNL d   1      -2.478   1.172   0.526  0.00  0.00    -0.097 F 
ATOM      8  F1  UNL d   1      -1.473   0.364  -1.857  0.00  0.00    -0.096 F 
ATOM      9  I   UNL d   1       1.342  -0.934  -2.647  0.00  0.00    -0.060 I 
ATOM     10  F2  UNL d   1       2.549  -0.948   0.317  0.00  0.00    -0.096 F 
ATOM     11  F3  UNL d   1       1.518  -0.131   2.684  0.00  0.00    -0.097 F 
ATOM     12  F4  UNL d   1      -0.993   0.930   2.802  0.00  0.00    -0.092 F 
ENDROOT
TORSDOF 0
ENDMDL
