MODEL 1
REMARK minimizedAffinity -2.87468243
REMARK minimizedRMSD -1
REMARK  0 active torsions:
REMARK  status: ('A' for Active; 'I' for Inactive)
ROOT
ATOM      1  C   UNL d   1      -1.400  -0.138   2.187  0.00  0.00     0.124 A 
ATOM      2  C1  UNL d   1      -0.043  -0.428   2.216  0.00  0.00     0.062 A 
ATOM      3  C2  UNL d   1       0.696  -0.439   1.036  0.00  0.00     0.162 A 
ATOM      4  C3  UNL d   1       0.079  -0.158  -0.183  0.00  0.00    -0.034 A 
ATOM      5  C4  UNL d   1      -1.286   0.133  -0.204  0.00  0.00     0.162 A 
ATOM      6  C5  UNL d   1      -2.020   0.142   0.978  0.00  0.00     0.062 A 
ATOM      7  F   UNL d   1      -3.331   0.423   0.948  0.00  0.00    -0.097 F 
ATOM      8  F1  UNL d   1      -1.911   0.408  -1.359  0.00  0.00    -0.096 F 
ATOM      9  I   UNL d   1       1.180  -0.173  -1.949  0.00  0.00    -0.060 I 
ATOM     10  F2  UNL d   1       2.005  -0.724   1.094  0.00  0.00    -0.096 F 
ATOM     11  F3  UNL d   1       0.559  -0.700   3.383  0.00  0.00    -0.097 F 
ATOM     12  F4  UNL d   1      -2.108  -0.129   3.324  0.00  0.00    -0.092 F 
ENDROOT
TORSDOF 0
ENDMDL
