MODEL 1
REMARK minimizedAffinity 1.97516251
REMARK minimizedRMSD -1
REMARK  0 active torsions:
REMARK  status: ('A' for Active; 'I' for Inactive)
ROOT
ATOM      1  C   UNL d   1      -1.180   0.137   1.534  0.00  0.00     0.124 A 
ATOM      2  C1  UNL d   1      -1.817   0.517   0.362  0.00  0.00     0.062 A 
ATOM      3  C2  UNL d   1      -1.117   0.539  -0.841  0.00  0.00     0.162 A 
ATOM      4  C3  UNL d   1       0.230   0.177  -0.877  0.00  0.00    -0.034 A 
ATOM      5  C4  UNL d   1       0.865  -0.203   0.307  0.00  0.00     0.162 A 
ATOM      6  C5  UNL d   1       0.160  -0.223   1.506  0.00  0.00     0.062 A 
ATOM      7  F   UNL d   1       0.778  -0.591   2.638  0.00  0.00    -0.097 F 
ATOM      8  F1  UNL d   1       2.159  -0.556   0.308  0.00  0.00    -0.096 F 
ATOM      9  I   UNL d   1       1.281   0.208  -2.673  0.00  0.00    -0.060 I 
ATOM     10  F2  UNL d   1      -1.758   0.910  -1.958  0.00  0.00    -0.096 F 
ATOM     11  F3  UNL d   1      -3.112   0.866   0.387  0.00  0.00    -0.097 F 
ATOM     12  F4  UNL d   1      -1.856   0.118   2.690  0.00  0.00    -0.092 F 
ENDROOT
TORSDOF 0
ENDMDL
