MODEL 1
REMARK minimizedAffinity -4.28031349
REMARK minimizedRMSD -1
REMARK  0 active torsions:
REMARK  status: ('A' for Active; 'I' for Inactive)
ROOT
ATOM      1  C   UNL d   1      -1.794  -0.068   2.692  0.00  0.00     0.124 A 
ATOM      2  C1  UNL d   1      -0.422  -0.198   2.519  0.00  0.00     0.062 A 
ATOM      3  C2  UNL d   1       0.135  -0.107   1.247  0.00  0.00     0.162 A 
ATOM      4  C3  UNL d   1      -0.679   0.116   0.136  0.00  0.00    -0.034 A 
ATOM      5  C4  UNL d   1      -2.057   0.245   0.317  0.00  0.00     0.162 A 
ATOM      6  C5  UNL d   1      -2.609   0.153   1.591  0.00  0.00     0.062 A 
ATOM      7  F   UNL d   1      -3.934   0.279   1.756  0.00  0.00    -0.097 F 
ATOM      8  F1  UNL d   1      -2.869   0.459  -0.728  0.00  0.00    -0.096 F 
ATOM      9  I   UNL d   1       0.150   0.252  -1.768  0.00  0.00    -0.060 I 
ATOM     10  F2  UNL d   1       1.463  -0.236   1.110  0.00  0.00    -0.096 F 
ATOM     11  F3  UNL d   1       0.368  -0.412   3.581  0.00  0.00    -0.097 F 
ATOM     12  F4  UNL d   1      -2.327  -0.157   3.917  0.00  0.00    -0.092 F 
ENDROOT
TORSDOF 0
ENDMDL
