MODEL 1
REMARK minimizedAffinity -3.41109443
REMARK minimizedRMSD -1
REMARK  0 active torsions:
REMARK  status: ('A' for Active; 'I' for Inactive)
ROOT
ATOM      1  C   UNL d   1      -1.548   0.706  -1.163  0.00  0.00     0.124 A 
ATOM      2  C1  UNL d   1      -0.286   0.436  -0.651  0.00  0.00     0.062 A 
ATOM      3  C2  UNL d   1      -0.136   0.067   0.682  0.00  0.00     0.162 A 
ATOM      4  C3  UNL d   1      -1.251  -0.036   1.514  0.00  0.00    -0.034 A 
ATOM      5  C4  UNL d   1      -2.517   0.238   0.992  0.00  0.00     0.162 A 
ATOM      6  C5  UNL d   1      -2.662   0.607  -0.341  0.00  0.00     0.062 A 
ATOM      7  F   UNL d   1      -3.881   0.867  -0.834  0.00  0.00    -0.097 F 
ATOM      8  F1  UNL d   1      -3.610   0.149   1.764  0.00  0.00    -0.096 F 
ATOM      9  I   UNL d   1      -1.031  -0.588   3.509  0.00  0.00    -0.060 I 
ATOM     10  F2  UNL d   1       1.095  -0.188   1.150  0.00  0.00    -0.096 F 
ATOM     11  F3  UNL d   1       0.792   0.533  -1.443  0.00  0.00    -0.097 F 
ATOM     12  F4  UNL d   1      -1.689   1.062  -2.446  0.00  0.00    -0.092 F 
ENDROOT
TORSDOF 0
ENDMDL
