MODEL 1
REMARK minimizedAffinity 0.024313733
REMARK minimizedRMSD -1
REMARK  0 active torsions:
REMARK  status: ('A' for Active; 'I' for Inactive)
ROOT
ATOM      1  C   UNL d   1       0.409   0.391   1.201  0.00  0.00     0.124 A 
ATOM      2  C1  UNL d   1       1.169   0.931   0.172  0.00  0.00     0.062 A 
ATOM      3  C2  UNL d   1       1.068   0.417  -1.117  0.00  0.00     0.162 A 
ATOM      4  C3  UNL d   1       0.203  -0.643  -1.386  0.00  0.00    -0.034 A 
ATOM      5  C4  UNL d   1      -0.557  -1.182  -0.347  0.00  0.00     0.162 A 
ATOM      6  C5  UNL d   1      -0.453  -0.665   0.940  0.00  0.00     0.062 A 
ATOM      7  F   UNL d   1      -1.188  -1.188   1.933  0.00  0.00    -0.097 F 
ATOM      8  F1  UNL d   1      -1.399  -2.202  -0.570  0.00  0.00    -0.096 F 
ATOM      9  I   UNL d   1       0.049  -1.415  -3.313  0.00  0.00    -0.060 I 
ATOM     10  F2  UNL d   1       1.814   0.959  -2.091  0.00  0.00    -0.096 F 
ATOM     11  F3  UNL d   1       2.004   1.951   0.422  0.00  0.00    -0.097 F 
ATOM     12  F4  UNL d   1       0.509   0.887   2.441  0.00  0.00    -0.092 F 
ENDROOT
TORSDOF 0
ENDMDL
