MODEL 1
REMARK minimizedAffinity -0.914206445
REMARK minimizedRMSD -1
REMARK  0 active torsions:
REMARK  status: ('A' for Active; 'I' for Inactive)
ROOT
ATOM      1  C   UNL d   1      -1.299  -0.085   2.698  0.00  0.00     0.124 A 
ATOM      2  C1  UNL d   1      -2.178   0.007   1.628  0.00  0.00     0.062 A 
ATOM      3  C2  UNL d   1      -1.690   0.119   0.329  0.00  0.00     0.162 A 
ATOM      4  C3  UNL d   1      -0.316   0.138   0.093  0.00  0.00    -0.034 A 
ATOM      5  C4  UNL d   1       0.562   0.047   1.175  0.00  0.00     0.162 A 
ATOM      6  C5  UNL d   1       0.069  -0.065   2.471  0.00  0.00     0.062 A 
ATOM      7  F   UNL d   1       0.920  -0.153   3.504  0.00  0.00    -0.097 F 
ATOM      8  F1  UNL d   1       1.890   0.063   0.984  0.00  0.00    -0.096 F 
ATOM      9  I   UNL d   1       0.418   0.305  -1.847  0.00  0.00    -0.060 I 
ATOM     10  F2  UNL d   1      -2.562   0.206  -0.686  0.00  0.00    -0.096 F 
ATOM     11  F3  UNL d   1      -3.501  -0.011   1.845  0.00  0.00    -0.097 F 
ATOM     12  F4  UNL d   1      -1.772  -0.191   3.947  0.00  0.00    -0.092 F 
ENDROOT
TORSDOF 0
ENDMDL
