MODEL 1
REMARK minimizedAffinity -2.19579911
REMARK minimizedRMSD -1
REMARK  0 active torsions:
REMARK  status: ('A' for Active; 'I' for Inactive)
ROOT
ATOM      1  C   UNL d   1      -1.794   0.190   2.264  0.00  0.00     0.124 A 
ATOM      2  C1  UNL d   1      -0.427  -0.049   2.260  0.00  0.00     0.062 A 
ATOM      3  C2  UNL d   1       0.272  -0.098   1.057  0.00  0.00     0.162 A 
ATOM      4  C3  UNL d   1      -0.395   0.093  -0.153  0.00  0.00    -0.034 A 
ATOM      5  C4  UNL d   1      -1.771   0.331  -0.141  0.00  0.00     0.162 A 
ATOM      6  C5  UNL d   1      -2.465   0.380   1.064  0.00  0.00     0.062 A 
ATOM      7  F   UNL d   1      -3.786   0.611   1.065  0.00  0.00    -0.097 F 
ATOM      8  F1  UNL d   1      -2.444   0.519  -1.286  0.00  0.00    -0.096 F 
ATOM      9  I   UNL d   1       0.646   0.019  -1.953  0.00  0.00    -0.060 I 
ATOM     10  F2  UNL d   1       1.593  -0.331   1.084  0.00  0.00    -0.096 F 
ATOM     11  F3  UNL d   1       0.223  -0.233   3.418  0.00  0.00    -0.097 F 
ATOM     12  F4  UNL d   1      -2.464   0.237   3.423  0.00  0.00    -0.092 F 
ENDROOT
TORSDOF 0
ENDMDL
