MODEL 1
REMARK minimizedAffinity -3.74308681
REMARK minimizedRMSD -1
REMARK  2 active torsions:
REMARK  status: ('A' for Active; 'I' for Inactive)
REMARK    1  A    between atoms: C1_2  and  C2_3 
REMARK    2  A    between atoms: C2_3  and  C3_4 
ROOT
ATOM      1  C3  UNL d   1       0.329  -0.071   0.384  0.00  0.00    -0.075 A 
ATOM      2  C4  UNL d   1       0.940  -0.060   1.646  0.00  0.00     0.002 A 
ATOM      3  C5  UNL d   1       0.226   0.339   2.776  0.00  0.00     0.002 A 
ATOM      4  C6  UNL d   1      -1.102   0.743   2.657  0.00  0.00    -0.004 A 
ATOM      5  C7  UNL d   1      -1.715   0.752   1.406  0.00  0.00     0.002 A 
ATOM      6  C8  UNL d   1      -1.003   0.348   0.275  0.00  0.00     0.002 A 
ENDROOT
BRANCH   1   7
ATOM      7  C2  UNL d   1       1.088  -0.531  -0.838  0.00  0.00     0.056 C 
BRANCH   7   8
ATOM      8  C1  UNL d   1       0.197  -1.097  -1.949  0.00  0.00     0.007 C 
ATOM      9  C   UNL d   1       0.748  -0.847  -3.346  0.00  0.00     0.009 C 
ENDBRANCH   7   8
ENDBRANCH   1   7
TORSDOF 2
ENDMDL
