MODEL 1
REMARK minimizedAffinity -4.98163128
REMARK minimizedRMSD -1
REMARK  2 active torsions:
REMARK  status: ('A' for Active; 'I' for Inactive)
REMARK    1  A    between atoms: C1_2  and  C2_3 
REMARK    2  A    between atoms: C2_3  and  C3_4 
ROOT
ATOM      1  C3  UNL d   1       0.175  -0.070  -0.232  0.00  0.00    -0.075 A 
ATOM      2  C4  UNL d   1       0.746   0.629   0.842  0.00  0.00     0.002 A 
ATOM      3  C5  UNL d   1      -0.038   1.026   1.926  0.00  0.00     0.002 A 
ATOM      4  C6  UNL d   1      -1.401   0.738   1.946  0.00  0.00    -0.004 A 
ATOM      5  C7  UNL d   1      -1.981   0.058   0.878  0.00  0.00     0.002 A 
ATOM      6  C8  UNL d   1      -1.199  -0.343  -0.206  0.00  0.00     0.002 A 
ENDROOT
BRANCH   1   7
ATOM      7  C2  UNL d   1       1.023  -0.528  -1.394  0.00  0.00     0.056 C 
BRANCH   7   8
ATOM      8  C1  UNL d   1       0.364  -0.330  -2.763  0.00  0.00     0.007 C 
ATOM      9  C   UNL d   1       1.354   0.043  -3.859  0.00  0.00     0.009 C 
ENDBRANCH   7   8
ENDBRANCH   1   7
TORSDOF 2
ENDMDL
