MODEL 1
REMARK minimizedAffinity -3.47674584
REMARK minimizedRMSD -1
REMARK  2 active torsions:
REMARK  status: ('A' for Active; 'I' for Inactive)
REMARK    1  A    between atoms: C1_2  and  C2_3 
REMARK    2  A    between atoms: C2_3  and  C3_4 
ROOT
ATOM      1  C3  UNL d   1       0.846  -0.352   0.820  0.00  0.00    -0.075 A 
ATOM      2  C4  UNL d   1       1.665  -0.586   1.935  0.00  0.00     0.002 A 
ATOM      3  C5  UNL d   1       1.193  -0.340   3.224  0.00  0.00     0.002 A 
ATOM      4  C6  UNL d   1      -0.097   0.152   3.415  0.00  0.00    -0.004 A 
ATOM      5  C7  UNL d   1      -0.913   0.404   2.315  0.00  0.00     0.002 A 
ATOM      6  C8  UNL d   1      -0.445   0.155   1.023  0.00  0.00     0.002 A 
ENDROOT
BRANCH   1   7
ATOM      7  C2  UNL d   1       1.341  -0.644  -0.576  0.00  0.00     0.056 C 
BRANCH   7   8
ATOM      8  C1  UNL d   1       0.317  -1.361  -1.463  0.00  0.00     0.007 C 
ATOM      9  C   UNL d   1       0.405  -0.957  -2.929  0.00  0.00     0.009 C 
ENDBRANCH   7   8
ENDBRANCH   1   7
TORSDOF 2
ENDMDL
