MODEL 1
REMARK minimizedAffinity -4.2722888
REMARK minimizedRMSD -1
REMARK  2 active torsions:
REMARK  status: ('A' for Active; 'I' for Inactive)
REMARK    1  A    between atoms: C1_2  and  C2_3 
REMARK    2  A    between atoms: C2_3  and  C3_4 
ROOT
ATOM      1  C3  UNL d   1       0.318  -0.493   0.055  0.00  0.00    -0.075 A 
ATOM      2  C4  UNL d   1       0.785  -0.480   1.377  0.00  0.00     0.002 A 
ATOM      3  C5  UNL d   1      -0.049  -0.071   2.419  0.00  0.00     0.002 A 
ATOM      4  C6  UNL d   1      -1.353   0.338   2.151  0.00  0.00    -0.004 A 
ATOM      5  C7  UNL d   1      -1.822   0.345   0.839  0.00  0.00     0.002 A 
ATOM      6  C8  UNL d   1      -0.991  -0.067  -0.204  0.00  0.00     0.002 A 
ENDROOT
BRANCH   1   7
ATOM      7  C2  UNL d   1       1.206  -0.962  -1.073  0.00  0.00     0.056 C 
BRANCH   7   8
ATOM      8  C1  UNL d   1       0.873  -0.334  -2.431  0.00  0.00     0.007 C 
ATOM      9  C   UNL d   1       2.106   0.117  -3.202  0.00  0.00     0.009 C 
ENDBRANCH   7   8
ENDBRANCH   1   7
TORSDOF 2
ENDMDL
