MODEL 1
REMARK minimizedAffinity 2.55408573
REMARK minimizedRMSD -1
REMARK  2 active torsions:
REMARK  status: ('A' for Active; 'I' for Inactive)
REMARK    1  A    between atoms: C1_2  and  C2_3 
REMARK    2  A    between atoms: C2_3  and  C3_4 
ROOT
ATOM      1  C3  UNL d   1      -0.415   0.638   2.367  0.00  0.00    -0.075 A 
ATOM      2  C4  UNL d   1      -1.612  -0.023   2.053  0.00  0.00     0.002 A 
ATOM      3  C5  UNL d   1      -1.843  -0.496   0.761  0.00  0.00     0.002 A 
ATOM      4  C6  UNL d   1      -0.887  -0.305  -0.235  0.00  0.00    -0.004 A 
ATOM      5  C7  UNL d   1       0.298   0.364   0.061  0.00  0.00     0.002 A 
ATOM      6  C8  UNL d   1       0.534   0.835   1.354  0.00  0.00     0.002 A 
ENDROOT
BRANCH   1   7
ATOM      7  C2  UNL d   1      -0.146   1.125   3.770  0.00  0.00     0.056 C 
BRANCH   7   8
ATOM      8  C1  UNL d   1       0.764   0.202   4.588  0.00  0.00     0.007 C 
ATOM      9  C   UNL d   1       0.388  -1.269   4.470  0.00  0.00     0.009 C 
ENDBRANCH   7   8
ENDBRANCH   1   7
TORSDOF 2
ENDMDL
