MODEL 1
REMARK minimizedAffinity -2.5091083
REMARK minimizedRMSD -1
REMARK  2 active torsions:
REMARK  status: ('A' for Active; 'I' for Inactive)
REMARK    1  A    between atoms: C1_2  and  C2_3 
REMARK    2  A    between atoms: C2_3  and  C3_4 
ROOT
ATOM      1  C3  UNL d   1       0.735   0.252   2.975  0.00  0.00    -0.075 A 
ATOM      2  C4  UNL d   1       1.381  -0.797   3.644  0.00  0.00     0.002 A 
ATOM      3  C5  UNL d   1       1.146  -1.022   5.001  0.00  0.00     0.002 A 
ATOM      4  C6  UNL d   1       0.272  -0.197   5.706  0.00  0.00    -0.004 A 
ATOM      5  C7  UNL d   1      -0.362   0.858   5.055  0.00  0.00     0.002 A 
ATOM      6  C8  UNL d   1      -0.132   1.083   3.696  0.00  0.00     0.002 A 
ENDROOT
BRANCH   1   7
ATOM      7  C2  UNL d   1       0.962   0.483   1.500  0.00  0.00     0.056 C 
BRANCH   7   8
ATOM      8  C1  UNL d   1       0.227  -0.509   0.592  0.00  0.00     0.007 C 
ATOM      9  C   UNL d   1      -1.287  -0.350   0.631  0.00  0.00     0.009 C 
ENDBRANCH   7   8
ENDBRANCH   1   7
TORSDOF 2
ENDMDL
