MODEL 1
REMARK minimizedAffinity 4.09585381
REMARK minimizedRMSD -1
REMARK  1 active torsions:
REMARK  status: ('A' for Active; 'I' for Inactive)
REMARK    1  A    between atoms: C1_2  and  C2_3 
ROOT
ATOM      1  C2  UNL d   1       2.188   0.256   2.859  0.00  0.00    -0.077 A 
ATOM      2  C3  UNL d   1       1.765  -0.366   4.042  0.00  0.00     0.002 A 
ATOM      3  C4  UNL d   1       1.715  -1.758   4.129  0.00  0.00     0.002 A 
ATOM      4  C5  UNL d   1       2.090  -2.540   3.039  0.00  0.00    -0.004 A 
ATOM      5  C6  UNL d   1       2.511  -1.931   1.857  0.00  0.00     0.002 A 
ATOM      6  C7  UNL d   1       2.560  -0.539   1.768  0.00  0.00     0.002 A 
ENDROOT
BRANCH   1   7
ATOM      7  C1  UNL d   1       2.290   1.757   2.780  0.00  0.00     0.055 C 
ATOM      8  C   UNL d   1       2.698   2.356   4.118  0.00  0.00     0.019 C 
ENDBRANCH   1   7
TORSDOF 1
ENDMDL
