MODEL 1
REMARK minimizedAffinity 6.07722807
REMARK minimizedRMSD -1
REMARK  1 active torsions:
REMARK  status: ('A' for Active; 'I' for Inactive)
REMARK    1  A    between atoms: C1_2  and  C2_3 
ROOT
ATOM      1  C2  UNL d   1       2.230  -0.516   2.922  0.00  0.00    -0.077 A 
ATOM      2  C3  UNL d   1       2.483  -0.344   1.554  0.00  0.00     0.002 A 
ATOM      3  C4  UNL d   1       2.601   0.938   1.014  0.00  0.00     0.002 A 
ATOM      4  C5  UNL d   1       2.472   2.056   1.835  0.00  0.00    -0.004 A 
ATOM      5  C6  UNL d   1       2.219   1.895   3.196  0.00  0.00     0.002 A 
ATOM      6  C7  UNL d   1       2.099   0.615   3.738  0.00  0.00     0.002 A 
ENDROOT
BRANCH   1   7
ATOM      7  C1  UNL d   1       2.151  -1.899   3.515  0.00  0.00     0.055 C 
ATOM      8  C   UNL d   1       3.522  -2.392   3.954  0.00  0.00     0.019 C 
ENDBRANCH   1   7
TORSDOF 1
ENDMDL
