MODEL 1
REMARK minimizedAffinity 3.41863513
REMARK minimizedRMSD -1
REMARK  1 active torsions:
REMARK  status: ('A' for Active; 'I' for Inactive)
REMARK    1  A    between atoms: C1_2  and  C2_3 
ROOT
ATOM      1  C2  UNL d   1       2.278  -2.028   3.857  0.00  0.00    -0.077 A 
ATOM      2  C3  UNL d   1       2.311  -1.977   5.258  0.00  0.00     0.002 A 
ATOM      3  C4  UNL d   1       2.593  -3.125   6.000  0.00  0.00     0.002 A 
ATOM      4  C5  UNL d   1       2.847  -4.331   5.351  0.00  0.00    -0.004 A 
ATOM      5  C6  UNL d   1       2.815  -4.393   3.958  0.00  0.00     0.002 A 
ATOM      6  C7  UNL d   1       2.532  -3.247   3.215  0.00  0.00     0.002 A 
ENDROOT
BRANCH   1   7
ATOM      7  C1  UNL d   1       2.023  -0.780   3.053  0.00  0.00     0.055 C 
ATOM      8  C   UNL d   1       1.195  -1.080   1.812  0.00  0.00     0.019 C 
ENDBRANCH   1   7
TORSDOF 1
ENDMDL
