MODEL 1
REMARK minimizedAffinity 1.2734791
REMARK minimizedRMSD -1
REMARK  1 active torsions:
REMARK  status: ('A' for Active; 'I' for Inactive)
REMARK    1  A    between atoms: C1_2  and  C2_3 
ROOT
ATOM      1  C2  UNL d   1       1.599   0.251   1.513  0.00  0.00    -0.077 A 
ATOM      2  C3  UNL d   1       2.737   0.777   0.884  0.00  0.00     0.002 A 
ATOM      3  C4  UNL d   1       2.736   2.087   0.403  0.00  0.00     0.002 A 
ATOM      4  C5  UNL d   1       1.602   2.884   0.548  0.00  0.00    -0.004 A 
ATOM      5  C6  UNL d   1       0.465   2.370   1.170  0.00  0.00     0.002 A 
ATOM      6  C7  UNL d   1       0.463   1.060   1.650  0.00  0.00     0.002 A 
ENDROOT
BRANCH   1   7
ATOM      7  C1  UNL d   1       1.615  -1.145   2.076  0.00  0.00     0.055 C 
ATOM      8  C   UNL d   1       2.424  -1.214   3.363  0.00  0.00     0.019 C 
ENDBRANCH   1   7
TORSDOF 1
ENDMDL
