MODEL 1
REMARK minimizedAffinity 6.04591417
REMARK minimizedRMSD -1
REMARK  1 active torsions:
REMARK  status: ('A' for Active; 'I' for Inactive)
REMARK    1  A    between atoms: C1_2  and  C2_3 
ROOT
ATOM      1  C2  UNL d   1      -5.071   2.630  -1.618  0.00  0.00    -0.077 A 
ATOM      2  C3  UNL d   1      -5.998   3.429  -2.301  0.00  0.00     0.002 A 
ATOM      3  C4  UNL d   1      -5.999   3.473  -3.697  0.00  0.00     0.002 A 
ATOM      4  C5  UNL d   1      -5.078   2.718  -4.420  0.00  0.00    -0.004 A 
ATOM      5  C6  UNL d   1      -4.151   1.922  -3.749  0.00  0.00     0.002 A 
ATOM      6  C7  UNL d   1      -4.148   1.877  -2.354  0.00  0.00     0.002 A 
ENDROOT
BRANCH   1   7
ATOM      7  C1  UNL d   1      -5.101   2.543  -0.114  0.00  0.00     0.055 C 
ATOM      8  C   UNL d   1      -3.696   2.430   0.462  0.00  0.00     0.019 C 
ENDBRANCH   1   7
TORSDOF 1
ENDMDL
