MODEL 1
REMARK minimizedAffinity 7.46781206
REMARK minimizedRMSD -1
REMARK  1 active torsions:
REMARK  status: ('A' for Active; 'I' for Inactive)
REMARK    1  A    between atoms: C1_2  and  C2_3 
ROOT
ATOM      1  C2  UNL d   1       2.578  -0.411   2.808  0.00  0.00    -0.077 A 
ATOM      2  C3  UNL d   1       2.360   0.934   3.138  0.00  0.00     0.002 A 
ATOM      3  C4  UNL d   1       2.401   1.919   2.149  0.00  0.00     0.002 A 
ATOM      4  C5  UNL d   1       2.655   1.569   0.824  0.00  0.00    -0.004 A 
ATOM      5  C6  UNL d   1       2.875   0.234   0.487  0.00  0.00     0.002 A 
ATOM      6  C7  UNL d   1       2.835  -0.751   1.474  0.00  0.00     0.002 A 
ENDROOT
BRANCH   1   7
ATOM      7  C1  UNL d   1       2.486  -1.481   3.865  0.00  0.00     0.055 C 
ATOM      8  C   UNL d   1       3.799  -2.236   4.004  0.00  0.00     0.019 C 
ENDBRANCH   1   7
TORSDOF 1
ENDMDL
