MODEL 1
REMARK minimizedAffinity 3.33550048
REMARK minimizedRMSD -1
REMARK  1 active torsions:
REMARK  status: ('A' for Active; 'I' for Inactive)
REMARK    1  A    between atoms: C1_2  and  C2_3 
ROOT
ATOM      1  C2  UNL d   1       1.618   0.078   1.818  0.00  0.00    -0.077 A 
ATOM      2  C3  UNL d   1       0.648   1.085   1.926  0.00  0.00     0.002 A 
ATOM      3  C4  UNL d   1       0.866   2.340   1.355  0.00  0.00     0.002 A 
ATOM      4  C5  UNL d   1       2.051   2.599   0.670  0.00  0.00    -0.004 A 
ATOM      5  C6  UNL d   1       3.023   1.605   0.559  0.00  0.00     0.002 A 
ATOM      6  C7  UNL d   1       2.807   0.350   1.129  0.00  0.00     0.002 A 
ENDROOT
BRANCH   1   7
ATOM      7  C1  UNL d   1       1.363  -1.292   2.390  0.00  0.00     0.055 C 
ATOM      8  C   UNL d   1       2.386  -1.644   3.460  0.00  0.00     0.019 C 
ENDBRANCH   1   7
TORSDOF 1
ENDMDL
