MODEL 1
REMARK minimizedAffinity 6.96588373
REMARK minimizedRMSD -1
REMARK  1 active torsions:
REMARK  status: ('A' for Active; 'I' for Inactive)
REMARK    1  A    between atoms: C1_2  and  C2_3 
ROOT
ATOM      1  C2  UNL d   1      -3.131  -3.262  -1.439  0.00  0.00    -0.077 A 
ATOM      2  C3  UNL d   1      -2.336  -3.561  -0.324  0.00  0.00     0.002 A 
ATOM      3  C4  UNL d   1      -0.995  -3.172  -0.287  0.00  0.00     0.002 A 
ATOM      4  C5  UNL d   1      -0.440  -2.478  -1.360  0.00  0.00    -0.004 A 
ATOM      5  C6  UNL d   1      -1.222  -2.178  -2.475  0.00  0.00     0.002 A 
ATOM      6  C7  UNL d   1      -2.562  -2.567  -2.513  0.00  0.00     0.002 A 
ENDROOT
BRANCH   1   7
ATOM      7  C1  UNL d   1      -4.589  -3.638  -1.459  0.00  0.00     0.055 C 
ATOM      8  C   UNL d   1      -5.344  -2.871  -2.535  0.00  0.00     0.019 C 
ENDBRANCH   1   7
TORSDOF 1
ENDMDL
