MODEL 1
REMARK minimizedAffinity 6.68782806
REMARK minimizedRMSD -1
REMARK  0 active torsions:
REMARK  status: ('A' for Active; 'I' for Inactive)
ROOT
ATOM      1  C1  DEN d   1       0.344   1.966   1.244  0.00  0.00     0.130 A 
ATOM      2  C2  DEN d   1      -1.046   2.209   0.867  0.00  0.00    -0.031 A 
ATOM      3  C3  DEN d   1      -1.776   0.930   0.968  0.00  0.00     0.027 A 
ATOM      4  C4  DEN d   1      -0.896  -1.390   1.673  0.00  0.00     0.027 A 
ATOM      5  C5  DEN d   1       0.218  -2.094   2.072  0.00  0.00    -0.003 A 
ATOM      6  C6  DEN d   1       1.450  -1.506   2.190  0.00  0.00     0.001 A 
ATOM      7  C7  DEN d   1       1.587  -0.165   1.949  0.00  0.00     0.017 A 
ATOM      8  C8  DEN d   1       0.470   0.550   1.538  0.00  0.00    -0.094 A 
ATOM      9  C9  DEN d   1      -0.769  -0.060   1.437  0.00  0.00    -0.072 A 
ENDROOT
TORSDOF 0
ENDMDL
