MODEL 1
REMARK minimizedAffinity 9.9403429
REMARK minimizedRMSD -1
REMARK  0 active torsions:
REMARK  status: ('A' for Active; 'I' for Inactive)
ROOT
ATOM      1  C1  DEN d   1      -3.367  -0.357  -2.131  0.00  0.00     0.130 A 
ATOM      2  C2  DEN d   1      -3.536  -0.327  -3.581  0.00  0.00    -0.031 A 
ATOM      3  C3  DEN d   1      -3.045  -1.609  -4.124  0.00  0.00     0.027 A 
ATOM      4  C4  DEN d   1      -2.049  -3.629  -2.867  0.00  0.00     0.027 A 
ATOM      5  C5  DEN d   1      -1.695  -4.117  -1.629  0.00  0.00    -0.003 A 
ATOM      6  C6  DEN d   1      -1.840  -3.378  -0.484  0.00  0.00     0.001 A 
ATOM      7  C7  DEN d   1      -2.395  -2.128  -0.549  0.00  0.00     0.017 A 
ATOM      8  C8  DEN d   1      -2.748  -1.626  -1.795  0.00  0.00    -0.094 A 
ATOM      9  C9  DEN d   1      -2.605  -2.393  -2.939  0.00  0.00    -0.072 A 
ENDROOT
TORSDOF 0
ENDMDL
