MODEL 1
REMARK minimizedAffinity 7.71897507
REMARK minimizedRMSD -1
REMARK  0 active torsions:
REMARK  status: ('A' for Active; 'I' for Inactive)
ROOT
ATOM      1  C1  DEN d   1      -3.509   0.289  -1.060  0.00  0.00     0.130 A 
ATOM      2  C2  DEN d   1      -3.853  -1.122  -0.908  0.00  0.00    -0.031 A 
ATOM      3  C3  DEN d   1      -2.928  -1.714   0.079  0.00  0.00     0.027 A 
ATOM      4  C4  DEN d   1      -1.009  -0.587   1.384  0.00  0.00     0.027 A 
ATOM      5  C5  DEN d   1      -0.328   0.593   1.582  0.00  0.00    -0.003 A 
ATOM      6  C6  DEN d   1      -0.635   1.738   0.894  0.00  0.00     0.001 A 
ATOM      7  C7  DEN d   1      -1.680   1.737   0.008  0.00  0.00     0.017 A 
ATOM      8  C8  DEN d   1      -2.366   0.549  -0.203  0.00  0.00    -0.094 A 
ATOM      9  C9  DEN d   1      -2.049  -0.594   0.511  0.00  0.00    -0.072 A 
ENDROOT
TORSDOF 0
ENDMDL
