MODEL 1
REMARK minimizedAffinity 8.90261555
REMARK minimizedRMSD -1
REMARK  0 active torsions:
REMARK  status: ('A' for Active; 'I' for Inactive)
ROOT
ATOM      1  C1  DEN d   1       1.071  -0.762   2.921  0.00  0.00     0.130 A 
ATOM      2  C2  DEN d   1       1.817  -0.997   1.687  0.00  0.00    -0.031 A 
ATOM      3  C3  DEN d   1       2.513  -2.293   1.815  0.00  0.00     0.027 A 
ATOM      4  C4  DEN d   1       2.504  -3.952   3.789  0.00  0.00     0.027 A 
ATOM      5  C5  DEN d   1       2.026  -4.182   5.060  0.00  0.00    -0.003 A 
ATOM      6  C6  DEN d   1       1.229  -3.280   5.715  0.00  0.00     0.001 A 
ATOM      7  C7  DEN d   1       0.850  -2.126   5.083  0.00  0.00     0.017 A 
ATOM      8  C8  DEN d   1       1.335  -1.883   3.804  0.00  0.00    -0.094 A 
ATOM      9  C9  DEN d   1       2.129  -2.813   3.155  0.00  0.00    -0.072 A 
ENDROOT
TORSDOF 0
ENDMDL
