MODEL 1
REMARK minimizedAffinity 4.00532103
REMARK minimizedRMSD -1
REMARK  0 active torsions:
REMARK  status: ('A' for Active; 'I' for Inactive)
ROOT
ATOM      1  C1  DEN d   1       0.828  -0.092   4.506  0.00  0.00     0.130 A 
ATOM      2  C2  DEN d   1       1.558  -0.968   5.419  0.00  0.00    -0.031 A 
ATOM      3  C3  DEN d   1       2.043  -2.129   4.646  0.00  0.00     0.027 A 
ATOM      4  C4  DEN d   1       1.740  -2.651   2.138  0.00  0.00     0.027 A 
ATOM      5  C5  DEN d   1       1.183  -2.208   0.959  0.00  0.00    -0.003 A 
ATOM      6  C6  DEN d   1       0.446  -1.056   0.887  0.00  0.00     0.001 A 
ATOM      7  C7  DEN d   1       0.284  -0.282   2.006  0.00  0.00     0.017 A 
ATOM      8  C8  DEN d   1       0.836  -0.726   3.200  0.00  0.00    -0.094 A 
ATOM      9  C9  DEN d   1       1.588  -1.888   3.250  0.00  0.00    -0.072 A 
ENDROOT
TORSDOF 0
ENDMDL
