MODEL 1
REMARK minimizedAffinity 4.78949022
REMARK minimizedRMSD -1
REMARK  0 active torsions:
REMARK  status: ('A' for Active; 'I' for Inactive)
ROOT
ATOM      1  C1  DEN d   1       2.547   1.403   5.016  0.00  0.00     0.130 A 
ATOM      2  C2  DEN d   1       2.893   2.492   4.107  0.00  0.00    -0.031 A 
ATOM      3  C3  DEN d   1       2.782   1.985   2.725  0.00  0.00     0.027 A 
ATOM      4  C4  DEN d   1       2.106  -0.366   1.908  0.00  0.00     0.027 A 
ATOM      5  C5  DEN d   1       1.734  -1.630   2.310  0.00  0.00    -0.003 A 
ATOM      6  C6  DEN d   1       1.641  -1.978   3.631  0.00  0.00     0.001 A 
ATOM      7  C7  DEN d   1       1.879  -1.039   4.599  0.00  0.00     0.017 A 
ATOM      8  C8  DEN d   1       2.262   0.236   4.202  0.00  0.00    -0.094 A 
ATOM      9  C9  DEN d   1       2.339   0.572   2.861  0.00  0.00    -0.072 A 
ENDROOT
TORSDOF 0
ENDMDL
