MODEL 1
REMARK minimizedAffinity -5.31993055
REMARK minimizedRMSD -1
REMARK  2 active torsions:
REMARK  status: ('A' for Active; 'I' for Inactive)
REMARK    1  A    between atoms: C1_2  and  C2_3 
REMARK    2  A    between atoms: C2_3  and  C3_4 
ROOT
ATOM      1  C3  UNL d   1       0.041   0.439   0.921  0.00  0.00    -0.075 A 
ATOM      2  C4  UNL d   1      -1.013   1.232   1.399  0.00  0.00     0.002 A 
ATOM      3  C5  UNL d   1      -1.040   1.646   2.730  0.00  0.00     0.002 A 
ATOM      4  C6  UNL d   1      -0.022   1.266   3.602  0.00  0.00    -0.004 A 
ATOM      5  C7  UNL d   1       1.021   0.465   3.143  0.00  0.00     0.002 A 
ATOM      6  C8  UNL d   1       1.053   0.052   1.810  0.00  0.00     0.002 A 
ENDROOT
BRANCH   1   7
ATOM      7  C2  UNL d   1       0.092   0.012  -0.526  0.00  0.00     0.056 C 
BRANCH   7   8
ATOM      8  C1  UNL d   1       0.128  -1.507  -0.727  0.00  0.00     0.007 C 
ATOM      9  C   UNL d   1      -1.257  -2.133  -0.826  0.00  0.00     0.009 C 
ENDBRANCH   7   8
ENDBRANCH   1   7
TORSDOF 2
ENDMDL
