MODEL 1
REMARK minimizedAffinity 1.29091501
REMARK minimizedRMSD -1
REMARK  2 active torsions:
REMARK  status: ('A' for Active; 'I' for Inactive)
REMARK    1  A    between atoms: C1_2  and  C2_3 
REMARK    2  A    between atoms: C2_3  and  C3_4 
ROOT
ATOM      1  C3  UNL d   1       0.357  -1.100  -0.629  0.00  0.00    -0.075 A 
ATOM      2  C4  UNL d   1       1.740  -1.040  -0.404  0.00  0.00     0.002 A 
ATOM      3  C5  UNL d   1       2.245  -0.413   0.735  0.00  0.00     0.002 A 
ATOM      4  C6  UNL d   1       1.378   0.170   1.656  0.00  0.00    -0.004 A 
ATOM      5  C7  UNL d   1       0.003   0.131   1.434  0.00  0.00     0.002 A 
ATOM      6  C8  UNL d   1      -0.506  -0.500   0.298  0.00  0.00     0.002 A 
ENDROOT
BRANCH   1   7
ATOM      7  C2  UNL d   1      -0.199  -1.803  -1.845  0.00  0.00     0.056 C 
BRANCH   7   8
ATOM      8  C1  UNL d   1      -0.665  -3.238  -1.577  0.00  0.00     0.007 C 
ATOM      9  C   UNL d   1      -2.162  -3.345  -1.318  0.00  0.00     0.009 C 
ENDBRANCH   7   8
ENDBRANCH   1   7
TORSDOF 2
ENDMDL
