MODEL 1
REMARK minimizedAffinity -4.54941082
REMARK minimizedRMSD -1
REMARK  2 active torsions:
REMARK  status: ('A' for Active; 'I' for Inactive)
REMARK    1  A    between atoms: C1_2  and  C2_3 
REMARK    2  A    between atoms: C2_3  and  C3_4 
ROOT
ATOM      1  C3  UNL d   1       0.897   0.236  -0.042  0.00  0.00    -0.075 A 
ATOM      2  C4  UNL d   1      -0.459   0.164   0.308  0.00  0.00     0.002 A 
ATOM      3  C5  UNL d   1      -0.910   0.704   1.513  0.00  0.00     0.002 A 
ATOM      4  C6  UNL d   1      -0.012   1.312   2.386  0.00  0.00    -0.004 A 
ATOM      5  C7  UNL d   1       1.340   1.375   2.057  0.00  0.00     0.002 A 
ATOM      6  C8  UNL d   1       1.794   0.840   0.850  0.00  0.00     0.002 A 
ENDROOT
BRANCH   1   7
ATOM      7  C2  UNL d   1       1.386  -0.320  -1.358  0.00  0.00     0.056 C 
BRANCH   7   8
ATOM      8  C1  UNL d   1       0.838   0.413  -2.587  0.00  0.00     0.007 C 
ATOM      9  C   UNL d   1       1.931   0.944  -3.506  0.00  0.00     0.009 C 
ENDBRANCH   7   8
ENDBRANCH   1   7
TORSDOF 2
ENDMDL
