MODEL 1
REMARK minimizedAffinity -5.66927338
REMARK minimizedRMSD -1
REMARK  2 active torsions:
REMARK  status: ('A' for Active; 'I' for Inactive)
REMARK    1  A    between atoms: C1_2  and  C2_3 
REMARK    2  A    between atoms: C2_3  and  C3_4 
ROOT
ATOM      1  C3  UNL d   1      -1.665   0.108   0.784  0.00  0.00    -0.075 A 
ATOM      2  C4  UNL d   1      -1.960   0.515   2.094  0.00  0.00     0.002 A 
ATOM      3  C5  UNL d   1      -1.017   1.216   2.847  0.00  0.00     0.002 A 
ATOM      4  C6  UNL d   1       0.232   1.509   2.305  0.00  0.00    -0.004 A 
ATOM      5  C7  UNL d   1       0.542   1.096   1.011  0.00  0.00     0.002 A 
ATOM      6  C8  UNL d   1      -0.401   0.398   0.254  0.00  0.00     0.002 A 
ENDROOT
BRANCH   1   7
ATOM      7  C2  UNL d   1      -2.692  -0.625  -0.046  0.00  0.00     0.056 C 
BRANCH   7   8
ATOM      8  C1  UNL d   1      -2.189  -1.948  -0.633  0.00  0.00     0.007 C 
ATOM      9  C   UNL d   1      -3.267  -3.022  -0.705  0.00  0.00     0.009 C 
ENDBRANCH   7   8
ENDBRANCH   1   7
TORSDOF 2
ENDMDL
