MODEL 1
REMARK minimizedAffinity -5.84021139
REMARK minimizedRMSD -1
REMARK  2 active torsions:
REMARK  status: ('A' for Active; 'I' for Inactive)
REMARK    1  A    between atoms: C1_2  and  C2_3 
REMARK    2  A    between atoms: C2_3  and  C3_4 
ROOT
ATOM      1  C3  UNL d   1      -2.043  -0.456   0.382  0.00  0.00    -0.075 A 
ATOM      2  C4  UNL d   1      -2.172   0.137   1.646  0.00  0.00     0.002 A 
ATOM      3  C5  UNL d   1      -1.066   0.703   2.279  0.00  0.00     0.002 A 
ATOM      4  C6  UNL d   1       0.183   0.674   1.663  0.00  0.00    -0.004 A 
ATOM      5  C7  UNL d   1       0.327   0.073   0.414  0.00  0.00     0.002 A 
ATOM      6  C8  UNL d   1      -0.780  -0.490  -0.223  0.00  0.00     0.002 A 
ENDROOT
BRANCH   1   7
ATOM      7  C2  UNL d   1      -3.243  -1.044  -0.322  0.00  0.00     0.056 C 
BRANCH   7   8
ATOM      8  C1  UNL d   1      -2.972  -2.393  -0.995  0.00  0.00     0.007 C 
ATOM      9  C   UNL d   1      -4.173  -3.330  -0.968  0.00  0.00     0.009 C 
ENDBRANCH   7   8
ENDBRANCH   1   7
TORSDOF 2
ENDMDL
