MODEL 1
REMARK minimizedAffinity -5.79785109
REMARK minimizedRMSD -1
REMARK  2 active torsions:
REMARK  status: ('A' for Active; 'I' for Inactive)
REMARK    1  A    between atoms: C1_2  and  C2_3 
REMARK    2  A    between atoms: C2_3  and  C3_4 
ROOT
ATOM      1  C3  UNL d   1      -1.413  -0.174   0.882  0.00  0.00    -0.075 A 
ATOM      2  C4  UNL d   1      -1.668   0.284   2.183  0.00  0.00     0.002 A 
ATOM      3  C5  UNL d   1      -0.667   0.917   2.920  0.00  0.00     0.002 A 
ATOM      4  C6  UNL d   1       0.602   1.091   2.372  0.00  0.00    -0.004 A 
ATOM      5  C7  UNL d   1       0.871   0.625   1.087  0.00  0.00     0.002 A 
ATOM      6  C8  UNL d   1      -0.130  -0.005   0.345  0.00  0.00     0.002 A 
ENDROOT
BRANCH   1   7
ATOM      7  C2  UNL d   1      -2.501  -0.834   0.069  0.00  0.00     0.056 C 
BRANCH   7   8
ATOM      8  C1  UNL d   1      -2.155  -2.250  -0.403  0.00  0.00     0.007 C 
ATOM      9  C   UNL d   1      -3.381  -3.079  -0.762  0.00  0.00     0.009 C 
ENDBRANCH   7   8
ENDBRANCH   1   7
TORSDOF 2
ENDMDL
