MODEL 1
REMARK minimizedAffinity -5.57846737
REMARK minimizedRMSD -1
REMARK  2 active torsions:
REMARK  status: ('A' for Active; 'I' for Inactive)
REMARK    1  A    between atoms: C1_2  and  C2_3 
REMARK    2  A    between atoms: C2_3  and  C3_4 
ROOT
ATOM      1  C3  UNL d   1      -2.105  -1.347  -0.690  0.00  0.00    -0.075 A 
ATOM      2  C4  UNL d   1      -3.502  -1.460  -0.750  0.00  0.00     0.002 A 
ATOM      3  C5  UNL d   1      -4.098  -2.644  -1.186  0.00  0.00     0.002 A 
ATOM      4  C6  UNL d   1      -3.308  -3.723  -1.576  0.00  0.00    -0.004 A 
ATOM      5  C7  UNL d   1      -1.920  -3.615  -1.536  0.00  0.00     0.002 A 
ATOM      6  C8  UNL d   1      -1.320  -2.434  -1.096  0.00  0.00     0.002 A 
ENDROOT
BRANCH   1   7
ATOM      7  C2  UNL d   1      -1.454  -0.079  -0.191  0.00  0.00     0.056 C 
BRANCH   7   8
ATOM      8  C1  UNL d   1       0.077  -0.135  -0.159  0.00  0.00     0.007 C 
ATOM      9  C   UNL d   1       0.678   0.561   1.054  0.00  0.00     0.009 C 
ENDBRANCH   7   8
ENDBRANCH   1   7
TORSDOF 2
ENDMDL
