MODEL 1
REMARK minimizedAffinity -0.137998119
REMARK minimizedRMSD -1
REMARK  2 active torsions:
REMARK  status: ('A' for Active; 'I' for Inactive)
REMARK    1  A    between atoms: C1_2  and  C2_3 
REMARK    2  A    between atoms: C2_3  and  C3_4 
ROOT
ATOM      1  C3  UNL d   1       1.505  -0.819   5.010  0.00  0.00    -0.075 A 
ATOM      2  C4  UNL d   1       0.329  -0.892   5.771  0.00  0.00     0.002 A 
ATOM      3  C5  UNL d   1      -0.446   0.248   5.987  0.00  0.00     0.002 A 
ATOM      4  C6  UNL d   1      -0.050   1.474   5.456  0.00  0.00    -0.004 A 
ATOM      5  C7  UNL d   1       1.125   1.561   4.714  0.00  0.00     0.002 A 
ATOM      6  C8  UNL d   1       1.900   0.421   4.492  0.00  0.00     0.002 A 
ENDROOT
BRANCH   1   7
ATOM      7  C2  UNL d   1       2.333  -2.055   4.748  0.00  0.00     0.056 C 
BRANCH   7   8
ATOM      8  C1  UNL d   1       2.994  -2.640   6.000  0.00  0.00     0.007 C 
ATOM      9  C   UNL d   1       4.511  -2.498   5.999  0.00  0.00     0.009 C 
ENDBRANCH   7   8
ENDBRANCH   1   7
TORSDOF 2
ENDMDL
