MODEL 1
REMARK minimizedAffinity -6.27210903
REMARK minimizedRMSD -1
REMARK  0 active torsions:
REMARK  status: ('A' for Active; 'I' for Inactive)
ROOT
ATOM      1  C2' OXE d   1       0.107  -0.977  -0.144  0.00  0.00     0.078 C 
ATOM      2  C1' OXE d   1      -1.882   0.943   0.339  0.00  0.00     0.078 C 
ATOM      3  C1  OXE d   1      -0.457   1.422   0.216  0.00  0.00    -0.078 A 
ATOM      4  C2  OXE d   1       0.515   0.470   0.026  0.00  0.00    -0.078 A 
ATOM      5  C3  OXE d   1       1.839   0.863  -0.149  0.00  0.00     0.003 A 
ATOM      6  C4  OXE d   1       2.210   2.203   0.020  0.00  0.00    -0.002 A 
ATOM      7  C5  OXE d   1       1.240   3.183   0.253  0.00  0.00    -0.002 A 
ATOM      8  C6  OXE d   1      -0.100   2.816   0.312  0.00  0.00     0.003 A 
ENDROOT
TORSDOF 0
ENDMDL
