MODEL 1
REMARK minimizedAffinity -3.27365232
REMARK minimizedRMSD -1
REMARK  0 active torsions:
REMARK  status: ('A' for Active; 'I' for Inactive)
ROOT
ATOM      1  C2' OXE d   1      -2.227   0.745   0.354  0.00  0.00     0.078 C 
ATOM      2  C1' OXE d   1      -0.263  -1.216  -0.065  0.00  0.00     0.078 C 
ATOM      3  C1  OXE d   1       0.185   0.131   0.444  0.00  0.00    -0.078 A 
ATOM      4  C2  OXE d   1      -0.777   1.100   0.602  0.00  0.00    -0.078 A 
ATOM      5  C3  OXE d   1      -0.425   2.343   1.120  0.00  0.00     0.003 A 
ATOM      6  C4  OXE d   1       0.920   2.665   1.338  0.00  0.00    -0.002 A 
ATOM      7  C5  OXE d   1       1.920   1.706   1.146  0.00  0.00    -0.002 A 
ATOM      8  C6  OXE d   1       1.566   0.424   0.741  0.00  0.00     0.003 A 
ENDROOT
TORSDOF 0
ENDMDL
