MODEL 1
REMARK minimizedAffinity 1.27884936
REMARK minimizedRMSD -1
REMARK  0 active torsions:
REMARK  status: ('A' for Active; 'I' for Inactive)
ROOT
ATOM      1  C2' OXE d   1       2.289   0.256   0.469  0.00  0.00     0.078 C 
ATOM      2  C1' OXE d   1       2.090   2.764   1.715  0.00  0.00     0.078 C 
ATOM      3  C1  OXE d   1       0.827   2.149   1.167  0.00  0.00    -0.078 A 
ATOM      4  C2  OXE d   1       0.941   0.943   0.518  0.00  0.00    -0.078 A 
ATOM      5  C3  OXE d   1      -0.201   0.306   0.041  0.00  0.00     0.003 A 
ATOM      6  C4  OXE d   1      -1.442   0.953   0.081  0.00  0.00    -0.002 A 
ATOM      7  C5  OXE d   1      -1.574   2.200   0.703  0.00  0.00    -0.002 A 
ATOM      8  C6  OXE d   1      -0.459   2.790   1.287  0.00  0.00     0.003 A 
ENDROOT
TORSDOF 0
ENDMDL
