MODEL 1
REMARK minimizedAffinity 4.27437925
REMARK minimizedRMSD -1
REMARK  0 active torsions:
REMARK  status: ('A' for Active; 'I' for Inactive)
ROOT
ATOM      1  C2' OXE d   1      -1.254  -1.428  -0.078  0.00  0.00     0.078 C 
ATOM      2  C1' OXE d   1      -2.557   0.639  -1.459  0.00  0.00     0.078 C 
ATOM      3  C1  OXE d   1      -1.811   0.997  -0.198  0.00  0.00    -0.078 A 
ATOM      4  C2  OXE d   1      -1.215  -0.029   0.497  0.00  0.00    -0.078 A 
ATOM      5  C3  OXE d   1      -0.468   0.253   1.637  0.00  0.00     0.003 A 
ATOM      6  C4  OXE d   1      -0.446   1.549   2.167  0.00  0.00    -0.002 A 
ATOM      7  C5  OXE d   1      -1.079   2.601   1.497  0.00  0.00    -0.002 A 
ATOM      8  C6  OXE d   1      -1.729   2.350   0.294  0.00  0.00     0.003 A 
ENDROOT
TORSDOF 0
ENDMDL
