MODEL 1
REMARK minimizedAffinity -4.77071047
REMARK minimizedRMSD -1
REMARK  0 active torsions:
REMARK  status: ('A' for Active; 'I' for Inactive)
ROOT
ATOM      1  C2' OXE d   1       2.718   1.487  -0.079  0.00  0.00     0.078 C 
ATOM      2  C1' OXE d   1       1.476   3.910   0.606  0.00  0.00     0.078 C 
ATOM      3  C1  OXE d   1       0.630   2.661   0.605  0.00  0.00    -0.078 A 
ATOM      4  C2  OXE d   1       1.235   1.487   0.224  0.00  0.00    -0.078 A 
ATOM      5  C3  OXE d   1       0.515   0.297   0.258  0.00  0.00     0.003 A 
ATOM      6  C4  OXE d   1      -0.859   0.308   0.529  0.00  0.00    -0.002 A 
ATOM      7  C5  OXE d   1      -1.504   1.498   0.881  0.00  0.00    -0.002 A 
ATOM      8  C6  OXE d   1      -0.766   2.674   0.965  0.00  0.00     0.003 A 
ENDROOT
TORSDOF 0
ENDMDL
