MODEL 1
REMARK minimizedAffinity -2.93157578
REMARK minimizedRMSD -1
REMARK  0 active torsions:
REMARK  status: ('A' for Active; 'I' for Inactive)
ROOT
ATOM      1  C2' OXE d   1      -0.375  -0.858   0.582  0.00  0.00     0.078 C 
ATOM      2  C1' OXE d   1       2.329  -0.347   0.029  0.00  0.00     0.078 C 
ATOM      3  C1  OXE d   1       1.421   0.836   0.251  0.00  0.00    -0.078 A 
ATOM      4  C2  OXE d   1       0.090   0.578   0.475  0.00  0.00    -0.078 A 
ATOM      5  C3  OXE d   1      -0.781   1.631   0.740  0.00  0.00     0.003 A 
ATOM      6  C4  OXE d   1      -0.345   2.957   0.629  0.00  0.00    -0.002 A 
ATOM      7  C5  OXE d   1       0.998   3.243   0.362  0.00  0.00    -0.002 A 
ATOM      8  C6  OXE d   1       1.901   2.195   0.213  0.00  0.00     0.003 A 
ENDROOT
TORSDOF 0
ENDMDL
