MODEL 1
REMARK minimizedAffinity -3.70569634
REMARK minimizedRMSD -1
REMARK  0 active torsions:
REMARK  status: ('A' for Active; 'I' for Inactive)
ROOT
ATOM      1  C2' OXE d   1      -0.941  -2.697  -2.675  0.00  0.00     0.078 C 
ATOM      2  C1' OXE d   1      -1.140  -3.942  -0.167  0.00  0.00     0.078 C 
ATOM      3  C1  OXE d   1      -0.312  -2.685  -0.264  0.00  0.00    -0.078 A 
ATOM      4  C2  OXE d   1      -0.182  -2.108  -1.505  0.00  0.00    -0.078 A 
ATOM      5  C3  OXE d   1       0.525  -0.917  -1.640  0.00  0.00     0.003 A 
ATOM      6  C4  OXE d   1       1.232  -0.385  -0.555  0.00  0.00    -0.002 A 
ATOM      7  C5  OXE d   1       1.146  -0.979   0.708  0.00  0.00    -0.002 A 
ATOM      8  C6  OXE d   1       0.345  -2.103   0.880  0.00  0.00     0.003 A 
ENDROOT
TORSDOF 0
ENDMDL
