MODEL 1
REMARK minimizedAffinity -0.00473446585
REMARK minimizedRMSD -1
REMARK  0 active torsions:
REMARK  status: ('A' for Active; 'I' for Inactive)
ROOT
ATOM      1  C2' OXE d   1      -2.271   0.766   0.390  0.00  0.00     0.078 C 
ATOM      2  C1' OXE d   1      -0.478   2.894   0.761  0.00  0.00     0.078 C 
ATOM      3  C1  OXE d   1       0.099   1.523   0.511  0.00  0.00    -0.078 A 
ATOM      4  C2  OXE d   1      -0.785   0.480   0.377  0.00  0.00    -0.078 A 
ATOM      5  C3  OXE d   1      -0.308  -0.796   0.090  0.00  0.00     0.003 A 
ATOM      6  C4  OXE d   1       1.068  -1.054   0.090  0.00  0.00    -0.002 A 
ATOM      7  C5  OXE d   1       1.986  -0.013   0.264  0.00  0.00    -0.002 A 
ATOM      8  C6  OXE d   1       1.519   1.286   0.433  0.00  0.00     0.003 A 
ENDROOT
TORSDOF 0
ENDMDL
