MODEL 1
REMARK minimizedAffinity -3.66363668
REMARK minimizedRMSD -1
REMARK  0 active torsions:
REMARK  status: ('A' for Active; 'I' for Inactive)
ROOT
ATOM      1  C2' OXE d   1       2.209  -0.768   0.767  0.00  0.00     0.078 C 
ATOM      2  C1' OXE d   1      -0.227  -1.807  -0.164  0.00  0.00     0.078 C 
ATOM      3  C1  OXE d   1      -0.161  -0.330   0.136  0.00  0.00    -0.078 A 
ATOM      4  C2  OXE d   1       1.021   0.161   0.635  0.00  0.00    -0.078 A 
ATOM      5  C3  OXE d   1       1.154   1.525   0.878  0.00  0.00     0.003 A 
ATOM      6  C4  OXE d   1       0.048   2.376   0.763  0.00  0.00    -0.002 A 
ATOM      7  C5  OXE d   1      -1.177   1.889   0.294  0.00  0.00    -0.002 A 
ATOM      8  C6  OXE d   1      -1.286   0.550  -0.064  0.00  0.00     0.003 A 
ENDROOT
TORSDOF 0
ENDMDL
