MODEL 1
REMARK minimizedAffinity -3.42881727
REMARK minimizedRMSD -1
REMARK  0 active torsions:
REMARK  status: ('A' for Active; 'I' for Inactive)
ROOT
ATOM      1  C2' OXE d   1      -0.006  -1.246  -0.014  0.00  0.00     0.078 C 
ATOM      2  C1' OXE d   1       2.649  -0.570   0.597  0.00  0.00     0.078 C 
ATOM      3  C1  OXE d   1       1.607   0.516   0.694  0.00  0.00    -0.078 A 
ATOM      4  C2  OXE d   1       0.318   0.188   0.348  0.00  0.00    -0.078 A 
ATOM      5  C3  OXE d   1      -0.692   1.137   0.472  0.00  0.00     0.003 A 
ATOM      6  C4  OXE d   1      -0.382   2.463   0.799  0.00  0.00    -0.002 A 
ATOM      7  C5  OXE d   1       0.931   2.828   1.116  0.00  0.00    -0.002 A 
ATOM      8  C6  OXE d   1       1.928   1.858   1.110  0.00  0.00     0.003 A 
ENDROOT
TORSDOF 0
ENDMDL
