MODEL 1
REMARK minimizedAffinity -6.05793858
REMARK minimizedRMSD -1
REMARK  0 active torsions:
REMARK  status: ('A' for Active; 'I' for Inactive)
ROOT
ATOM      1  C2' OXE d   1       0.201   2.675   0.419  0.00  0.00     0.078 C 
ATOM      2  C1' OXE d   1      -1.559   0.493   0.545  0.00  0.00     0.078 C 
ATOM      3  C1  OXE d   1      -0.085   0.201   0.415  0.00  0.00    -0.078 A 
ATOM      4  C2  OXE d   1       0.765   1.275   0.307  0.00  0.00    -0.078 A 
ATOM      5  C3  OXE d   1       2.139   1.063   0.239  0.00  0.00     0.003 A 
ATOM      6  C4  OXE d   1       2.651  -0.235   0.126  0.00  0.00    -0.002 A 
ATOM      7  C5  OXE d   1       1.799  -1.343   0.193  0.00  0.00    -0.002 A 
ATOM      8  C6  OXE d   1       0.435  -1.143   0.380  0.00  0.00     0.003 A 
ENDROOT
TORSDOF 0
ENDMDL
