MODEL 1
REMARK minimizedAffinity -4.77549744
REMARK minimizedRMSD -1
REMARK  0 active torsions:
REMARK  status: ('A' for Active; 'I' for Inactive)
ROOT
ATOM      1  C2' OXE d   1      -0.380   2.848   0.878  0.00  0.00     0.078 C 
ATOM      2  C1' OXE d   1      -2.078   0.616   0.992  0.00  0.00     0.078 C 
ATOM      3  C1  OXE d   1      -0.599   0.367   0.835  0.00  0.00    -0.078 A 
ATOM      4  C2  OXE d   1       0.220   1.466   0.734  0.00  0.00    -0.078 A 
ATOM      5  C3  OXE d   1       1.598   1.293   0.643  0.00  0.00     0.003 A 
ATOM      6  C4  OXE d   1       2.143   0.011   0.499  0.00  0.00    -0.002 A 
ATOM      7  C5  OXE d   1       1.323  -1.120   0.560  0.00  0.00    -0.002 A 
ATOM      8  C6  OXE d   1      -0.042  -0.962   0.770  0.00  0.00     0.003 A 
ENDROOT
TORSDOF 0
ENDMDL
