MODEL 1
REMARK minimizedAffinity -6.15412378
REMARK minimizedRMSD -1
REMARK  0 active torsions:
REMARK  status: ('A' for Active; 'I' for Inactive)
ROOT
ATOM      1  C2' OXE d   1      -1.753   0.710   0.699  0.00  0.00     0.078 C 
ATOM      2  C1' OXE d   1       0.354  -1.074   0.191  0.00  0.00     0.078 C 
ATOM      3  C1  OXE d   1       0.708   0.341   0.573  0.00  0.00    -0.078 A 
ATOM      4  C2  OXE d   1      -0.330   1.220   0.774  0.00  0.00    -0.078 A 
ATOM      5  C3  OXE d   1      -0.060   2.523   1.182  0.00  0.00     0.003 A 
ATOM      6  C4  OXE d   1       1.259   2.989   1.239  0.00  0.00    -0.002 A 
ATOM      7  C5  OXE d   1       2.330   2.122   1.000  0.00  0.00    -0.002 A 
ATOM      8  C6  OXE d   1       2.073   0.787   0.708  0.00  0.00     0.003 A 
ENDROOT
TORSDOF 0
ENDMDL
