MODEL 1
REMARK minimizedAffinity 2.20339584
REMARK minimizedRMSD -1
REMARK  0 active torsions:
REMARK  status: ('A' for Active; 'I' for Inactive)
ROOT
ATOM      1  C2' OXE d   1       1.416  -2.272  -2.937  0.00  0.00     0.078 C 
ATOM      2  C1' OXE d   1      -0.858  -2.584  -1.321  0.00  0.00     0.078 C 
ATOM      3  C1  OXE d   1       0.249  -1.693  -0.814  0.00  0.00    -0.078 A 
ATOM      4  C2  OXE d   1       1.378  -1.583  -1.590  0.00  0.00    -0.078 A 
ATOM      5  C3  OXE d   1       2.405  -0.732  -1.196  0.00  0.00     0.003 A 
ATOM      6  C4  OXE d   1       2.366  -0.107   0.057  0.00  0.00    -0.002 A 
ATOM      7  C5  OXE d   1       1.243  -0.237   0.881  0.00  0.00    -0.002 A 
ATOM      8  C6  OXE d   1       0.160  -0.991   0.442  0.00  0.00     0.003 A 
ENDROOT
TORSDOF 0
ENDMDL
