MODEL 1
REMARK minimizedAffinity 0.121569589
REMARK minimizedRMSD -1
REMARK  0 active torsions:
REMARK  status: ('A' for Active; 'I' for Inactive)
ROOT
ATOM      1  C2' OXE d   1      -0.770  -3.691  -2.684  0.00  0.00     0.078 C 
ATOM      2  C1' OXE d   1       1.747  -2.552  -3.180  0.00  0.00     0.078 C 
ATOM      3  C1  OXE d   1       1.086  -2.248  -1.859  0.00  0.00    -0.078 A 
ATOM      4  C2  OXE d   1      -0.166  -2.772  -1.644  0.00  0.00    -0.078 A 
ATOM      5  C3  OXE d   1      -0.797  -2.568  -0.420  0.00  0.00     0.003 A 
ATOM      6  C4  OXE d   1      -0.236  -1.709   0.533  0.00  0.00    -0.002 A 
ATOM      7  C5  OXE d   1       1.020  -1.133   0.317  0.00  0.00    -0.002 A 
ATOM      8  C6  OXE d   1       1.712  -1.426  -0.853  0.00  0.00     0.003 A 
ENDROOT
TORSDOF 0
ENDMDL
