MODEL 1
REMARK minimizedAffinity -3.49090195
REMARK minimizedRMSD -1
REMARK  0 active torsions:
REMARK  status: ('A' for Active; 'I' for Inactive)
ROOT
ATOM      1  C2' OXE d   1      -2.088   0.628   0.205  0.00  0.00     0.078 C 
ATOM      2  C1' OXE d   1       0.031  -1.168  -0.207  0.00  0.00     0.078 C 
ATOM      3  C1  OXE d   1       0.374   0.245   0.194  0.00  0.00    -0.078 A 
ATOM      4  C2  OXE d   1      -0.667   1.129   0.349  0.00  0.00    -0.078 A 
ATOM      5  C3  OXE d   1      -0.409   2.430   0.772  0.00  0.00     0.003 A 
ATOM      6  C4  OXE d   1       0.908   2.888   0.893  0.00  0.00    -0.002 A 
ATOM      7  C5  OXE d   1       1.984   2.015   0.702  0.00  0.00    -0.002 A 
ATOM      8  C6  OXE d   1       1.734   0.682   0.394  0.00  0.00     0.003 A 
ENDROOT
TORSDOF 0
ENDMDL
