MODEL 1
REMARK minimizedAffinity -5.45328474
REMARK minimizedRMSD -1
REMARK  0 active torsions:
REMARK  status: ('A' for Active; 'I' for Inactive)
ROOT
ATOM      1  C2' OXE d   1       2.650  -0.190   0.165  0.00  0.00     0.078 C 
ATOM      2  C1' OXE d   1      -0.022  -0.991   0.479  0.00  0.00     0.078 C 
ATOM      3  C1  OXE d   1       0.265   0.488   0.400  0.00  0.00    -0.078 A 
ATOM      4  C2  OXE d   1       1.580   0.872   0.293  0.00  0.00    -0.078 A 
ATOM      5  C3  OXE d   1       1.895   2.221   0.161  0.00  0.00     0.003 A 
ATOM      6  C4  OXE d   1       0.900   3.198   0.291  0.00  0.00    -0.002 A 
ATOM      7  C5  OXE d   1      -0.441   2.829   0.440  0.00  0.00    -0.002 A 
ATOM      8  C6  OXE d   1      -0.780   1.481   0.454  0.00  0.00     0.003 A 
ENDROOT
TORSDOF 0
ENDMDL
