MODEL 1
REMARK minimizedAffinity -5.29770756
REMARK minimizedRMSD -1
REMARK  1 active torsions:
REMARK  status: ('A' for Active; 'I' for Inactive)
REMARK    1  A    between atoms: C1_2  and  C2_3 
ROOT
ATOM      1  C2  UNL d   1       0.266  -0.270   0.151  0.00  0.00    -0.073 A 
ATOM      2  C3  UNL d   1      -1.086  -0.449  -0.161  0.00  0.00    -0.002 A 
ATOM      3  C4  UNL d   1      -2.076  -0.071   0.747  0.00  0.00     0.004 A 
ATOM      4  C5  UNL d   1      -1.724   0.496   1.972  0.00  0.00    -0.004 A 
ATOM      5  C6  UNL d   1      -0.379   0.694   2.298  0.00  0.00    -0.075 A 
ATOM      6  C7  UNL d   1       0.016   1.301   3.612  0.00  0.00     0.076 C 
ATOM      7  C8  UNL d   1       0.609   0.309   1.382  0.00  0.00     0.001 A 
ENDROOT
BRANCH   1   8
ATOM      8  C1  UNL d   1       1.338  -0.671  -0.829  0.00  0.00     0.053 C 
ATOM      9  C   UNL d   1       0.893  -0.478  -2.270  0.00  0.00     0.018 C 
ENDBRANCH   1   8
TORSDOF 1
ENDMDL
