MODEL 1
REMARK minimizedAffinity 0.165314808
REMARK minimizedRMSD -1
REMARK  1 active torsions:
REMARK  status: ('A' for Active; 'I' for Inactive)
REMARK    1  A    between atoms: C1_2  and  C2_3 
ROOT
ATOM      1  C2  UNL d   1       0.408  -0.205  -1.038  0.00  0.00    -0.073 A 
ATOM      2  C3  UNL d   1       0.987  -1.399  -0.591  0.00  0.00    -0.002 A 
ATOM      3  C4  UNL d   1       1.365  -1.542   0.744  0.00  0.00     0.004 A 
ATOM      4  C5  UNL d   1       1.162  -0.498   1.647  0.00  0.00    -0.004 A 
ATOM      5  C6  UNL d   1       0.575   0.698   1.222  0.00  0.00    -0.075 A 
ATOM      6  C7  UNL d   1       0.352   1.832   2.180  0.00  0.00     0.076 C 
ATOM      7  C8  UNL d   1       0.201   0.835  -0.121  0.00  0.00     0.001 A 
ENDROOT
BRANCH   1   8
ATOM      8  C1  UNL d   1      -0.007  -0.048  -2.478  0.00  0.00     0.053 C 
ATOM      9  C   UNL d   1       1.169   0.301  -3.376  0.00  0.00     0.018 C 
ENDBRANCH   1   8
TORSDOF 1
ENDMDL
