MODEL 1
REMARK minimizedAffinity -4.75523138
REMARK minimizedRMSD -1
REMARK  1 active torsions:
REMARK  status: ('A' for Active; 'I' for Inactive)
REMARK    1  A    between atoms: C1_2  and  C2_3 
ROOT
ATOM      1  C2  UNL d   1      -0.267  -0.125   0.768  0.00  0.00    -0.073 A 
ATOM      2  C3  UNL d   1      -1.372   0.533   1.321  0.00  0.00    -0.002 A 
ATOM      3  C4  UNL d   1      -1.272   1.152   2.568  0.00  0.00     0.004 A 
ATOM      4  C5  UNL d   1      -0.067   1.126   3.270  0.00  0.00    -0.004 A 
ATOM      5  C6  UNL d   1       1.051   0.483   2.729  0.00  0.00    -0.075 A 
ATOM      6  C7  UNL d   1       2.354   0.444   3.473  0.00  0.00     0.076 C 
ATOM      7  C8  UNL d   1       0.942  -0.138   1.478  0.00  0.00     0.001 A 
ENDROOT
BRANCH   1   8
ATOM      8  C1  UNL d   1      -0.369  -0.789  -0.581  0.00  0.00     0.053 C 
ATOM      9  C   UNL d   1       0.747  -0.352  -1.516  0.00  0.00     0.018 C 
ENDBRANCH   1   8
TORSDOF 1
ENDMDL
