MODEL 1
REMARK minimizedAffinity -3.28403163
REMARK minimizedRMSD -1
REMARK  1 active torsions:
REMARK  status: ('A' for Active; 'I' for Inactive)
REMARK    1  A    between atoms: C1_2  and  C2_3 
ROOT
ATOM      1  C2  UNL d   1       0.729   0.380   0.749  0.00  0.00    -0.073 A 
ATOM      2  C3  UNL d   1      -0.447  -0.161   0.217  0.00  0.00    -0.002 A 
ATOM      3  C4  UNL d   1      -1.580  -0.310   1.018  0.00  0.00     0.004 A 
ATOM      4  C5  UNL d   1      -1.552   0.087   2.355  0.00  0.00    -0.004 A 
ATOM      5  C6  UNL d   1      -0.390   0.642   2.901  0.00  0.00    -0.075 A 
ATOM      6  C7  UNL d   1      -0.342   1.072   4.338  0.00  0.00     0.076 C 
ATOM      7  C8  UNL d   1       0.745   0.785   2.091  0.00  0.00     0.001 A 
ENDROOT
BRANCH   1   8
ATOM      8  C1  UNL d   1       1.952   0.548  -0.114  0.00  0.00     0.053 C 
ATOM      9  C   UNL d   1       1.593   0.868  -1.557  0.00  0.00     0.018 C 
ENDBRANCH   1   8
TORSDOF 1
ENDMDL
