MODEL 1
REMARK minimizedAffinity -2.3994956
REMARK minimizedRMSD -1
REMARK  0 active torsions:
REMARK  status: ('A' for Active; 'I' for Inactive)
ROOT
ATOM      1  C   UNL d   1      -5.999   4.897   5.357  0.00  0.00     0.078 C 
ATOM      2  C1  UNL d   1      -5.599   4.911   3.912  0.00  0.00    -0.077 A 
ATOM      3  C2  UNL d   1      -4.818   3.883   3.369  0.00  0.00    -0.001 A 
ATOM      4  C3  UNL d   1      -4.446   3.914   2.024  0.00  0.00     0.003 A 
ATOM      5  C4  UNL d   1      -4.848   4.971   1.211  0.00  0.00    -0.005 A 
ATOM      6  C5  UNL d   1      -5.624   6.000   1.742  0.00  0.00     0.003 A 
ATOM      7  C6  UNL d   1      -5.997   5.970   3.087  0.00  0.00    -0.001 A 
ENDROOT
TORSDOF 0
ENDMDL
