MODEL 1
REMARK minimizedAffinity -0.375999391
REMARK minimizedRMSD -1
REMARK  0 active torsions:
REMARK  status: ('A' for Active; 'I' for Inactive)
ROOT
ATOM      1  C   UNL d   1      -4.417   4.102   2.104  0.00  0.00     0.078 C 
ATOM      2  C1  UNL d   1      -4.960   4.420   3.466  0.00  0.00    -0.077 A 
ATOM      3  C2  UNL d   1      -4.968   3.457   4.482  0.00  0.00    -0.001 A 
ATOM      4  C3  UNL d   1      -5.486   3.764   5.741  0.00  0.00     0.003 A 
ATOM      5  C4  UNL d   1      -6.000   5.034   5.996  0.00  0.00    -0.005 A 
ATOM      6  C5  UNL d   1      -5.997   5.998   4.990  0.00  0.00     0.003 A 
ATOM      7  C6  UNL d   1      -5.481   5.693   3.730  0.00  0.00    -0.001 A 
ENDROOT
TORSDOF 0
ENDMDL
