MODEL 1
REMARK minimizedAffinity 8.29004002
REMARK minimizedRMSD -1
REMARK  0 active torsions:
REMARK  status: ('A' for Active; 'I' for Inactive)
ROOT
ATOM      1  C   UNL d   1       1.953  -0.956   2.831  0.00  0.00     0.078 C 
ATOM      2  C1  UNL d   1       2.235   0.384   3.443  0.00  0.00    -0.077 A 
ATOM      3  C2  UNL d   1       3.210   1.232   2.905  0.00  0.00    -0.001 A 
ATOM      4  C3  UNL d   1       3.469   2.472   3.490  0.00  0.00     0.003 A 
ATOM      5  C4  UNL d   1       2.757   2.875   4.619  0.00  0.00    -0.005 A 
ATOM      6  C5  UNL d   1       1.786   2.037   5.163  0.00  0.00     0.003 A 
ATOM      7  C6  UNL d   1       1.526   0.796   4.579  0.00  0.00    -0.001 A 
ENDROOT
TORSDOF 0
ENDMDL
