MODEL 1
REMARK minimizedAffinity -2.69807005
REMARK minimizedRMSD -1
REMARK  0 active torsions:
REMARK  status: ('A' for Active; 'I' for Inactive)
ROOT
ATOM      1  C   UNL d   1      -4.867   4.835   2.118  0.00  0.00     0.078 C 
ATOM      2  C1  UNL d   1      -4.845   4.185   3.469  0.00  0.00    -0.077 A 
ATOM      3  C2  UNL d   1      -5.998   4.132   4.263  0.00  0.00    -0.001 A 
ATOM      4  C3  UNL d   1      -5.961   3.532   5.522  0.00  0.00     0.003 A 
ATOM      5  C4  UNL d   1      -4.774   2.981   6.000  0.00  0.00    -0.005 A 
ATOM      6  C5  UNL d   1      -3.621   3.030   5.219  0.00  0.00     0.003 A 
ATOM      7  C6  UNL d   1      -3.656   3.630   3.959  0.00  0.00    -0.001 A 
ENDROOT
TORSDOF 0
ENDMDL
