MODEL 1
REMARK minimizedAffinity -1.41112638
REMARK minimizedRMSD -1
REMARK  0 active torsions:
REMARK  status: ('A' for Active; 'I' for Inactive)
ROOT
ATOM      1  C   UNL d   1      -4.384   3.593   2.689  0.00  0.00     0.078 C 
ATOM      2  C1  UNL d   1      -4.066   2.136   2.531  0.00  0.00    -0.077 A 
ATOM      3  C2  UNL d   1      -3.127   1.510   3.360  0.00  0.00    -0.001 A 
ATOM      4  C3  UNL d   1      -2.833   0.155   3.195  0.00  0.00     0.003 A 
ATOM      5  C4  UNL d   1      -3.474  -0.584   2.203  0.00  0.00    -0.005 A 
ATOM      6  C5  UNL d   1      -4.408   0.031   1.373  0.00  0.00     0.003 A 
ATOM      7  C6  UNL d   1      -4.703   1.386   1.535  0.00  0.00    -0.001 A 
ENDROOT
TORSDOF 0
ENDMDL
