MODEL 1
REMARK minimizedAffinity 3.64078307
REMARK minimizedRMSD -1
REMARK  0 active torsions:
REMARK  status: ('A' for Active; 'I' for Inactive)
ROOT
ATOM      1  C   UNL d   1       3.317  -0.794  -2.615  0.00  0.00     0.078 C 
ATOM      2  C1  UNL d   1       2.347  -0.341  -3.665  0.00  0.00    -0.077 A 
ATOM      3  C2  UNL d   1       1.051   0.063  -3.323  0.00  0.00    -0.001 A 
ATOM      4  C3  UNL d   1       0.155   0.472  -4.312  0.00  0.00     0.003 A 
ATOM      5  C4  UNL d   1       0.546   0.480  -5.650  0.00  0.00    -0.005 A 
ATOM      6  C5  UNL d   1       1.833   0.077  -6.000  0.00  0.00     0.003 A 
ATOM      7  C6  UNL d   1       2.730  -0.333  -5.012  0.00  0.00    -0.001 A 
ENDROOT
TORSDOF 0
ENDMDL
