MODEL 1
REMARK minimizedAffinity 6.02104044
REMARK minimizedRMSD -1
REMARK  0 active torsions:
REMARK  status: ('A' for Active; 'I' for Inactive)
ROOT
ATOM      1  C   UNL d   1       2.978   2.982   2.896  0.00  0.00     0.078 C 
ATOM      2  C1  UNL d   1       2.581   1.632   3.415  0.00  0.00    -0.077 A 
ATOM      3  C2  UNL d   1       2.666   0.494   2.604  0.00  0.00    -0.001 A 
ATOM      4  C3  UNL d   1       2.284  -0.754   3.097  0.00  0.00     0.003 A 
ATOM      5  C4  UNL d   1       1.813  -0.877   4.403  0.00  0.00    -0.005 A 
ATOM      6  C5  UNL d   1       1.723   0.251   5.217  0.00  0.00     0.003 A 
ATOM      7  C6  UNL d   1       2.104   1.500   4.725  0.00  0.00    -0.001 A 
ENDROOT
TORSDOF 0
ENDMDL
