MODEL 1
REMARK minimizedAffinity -3.10790539
REMARK minimizedRMSD -1
REMARK  0 active torsions:
REMARK  status: ('A' for Active; 'I' for Inactive)
ROOT
ATOM      1  C   UNL d   1      -5.596   5.994   1.352  0.00  0.00     0.078 C 
ATOM      2  C1  UNL d   1      -5.619   5.283   2.672  0.00  0.00    -0.077 A 
ATOM      3  C2  UNL d   1      -5.992   5.952   3.845  0.00  0.00    -0.001 A 
ATOM      4  C3  UNL d   1      -6.000   5.280   5.068  0.00  0.00     0.003 A 
ATOM      5  C4  UNL d   1      -5.635   3.936   5.131  0.00  0.00    -0.005 A 
ATOM      6  C5  UNL d   1      -5.261   3.263   3.970  0.00  0.00     0.003 A 
ATOM      7  C6  UNL d   1      -5.252   3.934   2.745  0.00  0.00    -0.001 A 
ENDROOT
TORSDOF 0
ENDMDL
