MODEL 1
REMARK minimizedAffinity -3.29046345
REMARK minimizedRMSD -1
REMARK  0 active torsions:
REMARK  status: ('A' for Active; 'I' for Inactive)
ROOT
ATOM      1  C   UNL d   1      -4.677   2.588   6.000  0.00  0.00     0.078 C 
ATOM      2  C1  UNL d   1      -5.058   3.763   5.150  0.00  0.00    -0.077 A 
ATOM      3  C2  UNL d   1      -5.610   4.917   5.719  0.00  0.00    -0.001 A 
ATOM      4  C3  UNL d   1      -5.968   6.000   4.914  0.00  0.00     0.003 A 
ATOM      5  C4  UNL d   1      -5.781   5.938   3.535  0.00  0.00    -0.005 A 
ATOM      6  C5  UNL d   1      -5.235   4.793   2.959  0.00  0.00     0.003 A 
ATOM      7  C6  UNL d   1      -4.875   3.710   3.762  0.00  0.00    -0.001 A 
ENDROOT
TORSDOF 0
ENDMDL
