MODEL 1
REMARK minimizedAffinity -3.74445844
REMARK minimizedRMSD -1
REMARK  0 active torsions:
REMARK  status: ('A' for Active; 'I' for Inactive)
ROOT
ATOM      1  C   UNL d   1      -4.797   6.000   1.493  0.00  0.00     0.078 C 
ATOM      2  C1  UNL d   1      -5.184   5.193   2.697  0.00  0.00    -0.077 A 
ATOM      3  C2  UNL d   1      -5.634   3.874   2.567  0.00  0.00    -0.001 A 
ATOM      4  C3  UNL d   1      -6.000   3.138   3.695  0.00  0.00     0.003 A 
ATOM      5  C4  UNL d   1      -5.922   3.715   4.962  0.00  0.00    -0.005 A 
ATOM      6  C5  UNL d   1      -5.477   5.028   5.101  0.00  0.00     0.003 A 
ATOM      7  C6  UNL d   1      -5.111   5.765   3.974  0.00  0.00    -0.001 A 
ENDROOT
TORSDOF 0
ENDMDL
