MODEL 1
REMARK minimizedAffinity -3.00556016
REMARK minimizedRMSD -1
REMARK  0 active torsions:
REMARK  status: ('A' for Active; 'I' for Inactive)
ROOT
ATOM      1  C   UNL d   1      -5.638   4.474   1.478  0.00  0.00     0.078 C 
ATOM      2  C1  UNL d   1      -5.635   4.250   2.961  0.00  0.00    -0.077 A 
ATOM      3  C2  UNL d   1      -5.999   5.273   3.845  0.00  0.00    -0.001 A 
ATOM      4  C3  UNL d   1      -5.982   5.053   5.224  0.00  0.00     0.003 A 
ATOM      5  C4  UNL d   1      -5.600   3.813   5.730  0.00  0.00    -0.005 A 
ATOM      6  C5  UNL d   1      -5.234   2.790   4.858  0.00  0.00     0.003 A 
ATOM      7  C6  UNL d   1      -5.250   3.007   3.479  0.00  0.00    -0.001 A 
ENDROOT
TORSDOF 0
ENDMDL
