MODEL 1
REMARK minimizedAffinity -0.854832172
REMARK minimizedRMSD -1
REMARK  0 active torsions:
REMARK  status: ('A' for Active; 'I' for Inactive)
ROOT
ATOM      1  C   UNL d   1      -4.780   4.102   1.679  0.00  0.00     0.078 C 
ATOM      2  C1  UNL d   1      -4.801   3.662   3.112  0.00  0.00    -0.077 A 
ATOM      3  C2  UNL d   1      -5.995   3.637   3.842  0.00  0.00    -0.001 A 
ATOM      4  C3  UNL d   1      -5.998   3.235   5.178  0.00  0.00     0.003 A 
ATOM      5  C4  UNL d   1      -4.808   2.855   5.797  0.00  0.00    -0.005 A 
ATOM      6  C5  UNL d   1      -3.614   2.879   5.080  0.00  0.00     0.003 A 
ATOM      7  C6  UNL d   1      -3.610   3.281   3.743  0.00  0.00    -0.001 A 
ENDROOT
TORSDOF 0
ENDMDL
