MODEL 1
REMARK minimizedAffinity -1.62534344
REMARK minimizedRMSD -1
REMARK  0 active torsions:
REMARK  status: ('A' for Active; 'I' for Inactive)
ROOT
ATOM      1  C   UNL d   1      -5.932   3.456   5.870  0.00  0.00     0.078 C 
ATOM      2  C1  UNL d   1      -5.957   4.046   4.492  0.00  0.00    -0.077 A 
ATOM      3  C2  UNL d   1      -5.980   3.226   3.357  0.00  0.00    -0.001 A 
ATOM      4  C3  UNL d   1      -5.994   3.789   2.079  0.00  0.00     0.003 A 
ATOM      5  C4  UNL d   1      -5.982   5.173   1.925  0.00  0.00    -0.005 A 
ATOM      6  C5  UNL d   1      -5.957   5.997   3.048  0.00  0.00     0.003 A 
ATOM      7  C6  UNL d   1      -5.943   5.436   4.326  0.00  0.00    -0.001 A 
ENDROOT
TORSDOF 0
ENDMDL
