MODEL 1
REMARK minimizedAffinity -3.53148413
REMARK minimizedRMSD -1
REMARK  0 active torsions:
REMARK  status: ('A' for Active; 'I' for Inactive)
ROOT
ATOM      1  C   UNL d   1      -5.094   2.398   4.575  0.00  0.00     0.078 C 
ATOM      2  C1  UNL d   1      -5.043   3.601   3.681  0.00  0.00    -0.077 A 
ATOM      3  C2  UNL d   1      -4.889   4.888   4.212  0.00  0.00    -0.001 A 
ATOM      4  C3  UNL d   1      -4.853   5.999   3.369  0.00  0.00     0.003 A 
ATOM      5  C4  UNL d   1      -4.972   5.836   1.990  0.00  0.00    -0.005 A 
ATOM      6  C5  UNL d   1      -5.128   4.560   1.453  0.00  0.00     0.003 A 
ATOM      7  C6  UNL d   1      -5.164   3.447   2.295  0.00  0.00    -0.001 A 
ENDROOT
TORSDOF 0
ENDMDL
