MODEL 1
REMARK minimizedAffinity -3.88529038
REMARK minimizedRMSD -1
REMARK  0 active torsions:
REMARK  status: ('A' for Active; 'I' for Inactive)
ROOT
ATOM      1  C   UNL d   1      -4.875   2.395   5.256  0.00  0.00     0.078 C 
ATOM      2  C1  UNL d   1      -5.186   3.638   4.478  0.00  0.00    -0.077 A 
ATOM      3  C2  UNL d   1      -4.942   3.708   3.101  0.00  0.00    -0.001 A 
ATOM      4  C3  UNL d   1      -5.227   4.876   2.392  0.00  0.00     0.003 A 
ATOM      5  C4  UNL d   1      -5.756   5.983   3.051  0.00  0.00    -0.005 A 
ATOM      6  C5  UNL d   1      -6.000   5.925   4.422  0.00  0.00     0.003 A 
ATOM      7  C6  UNL d   1      -5.716   4.758   5.133  0.00  0.00    -0.001 A 
ENDROOT
TORSDOF 0
ENDMDL
