MODEL 1
REMARK minimizedAffinity -2.94242573
REMARK minimizedRMSD -1
REMARK  0 active torsions:
REMARK  status: ('A' for Active; 'I' for Inactive)
ROOT
ATOM      1  C   UNL d   1      -5.636   2.635   5.792  0.00  0.00     0.078 C 
ATOM      2  C1  UNL d   1      -5.626   3.492   4.561  0.00  0.00    -0.077 A 
ATOM      3  C2  UNL d   1      -5.262   4.843   4.626  0.00  0.00    -0.001 A 
ATOM      4  C3  UNL d   1      -5.267   5.631   3.474  0.00  0.00     0.003 A 
ATOM      5  C4  UNL d   1      -5.634   5.078   2.249  0.00  0.00    -0.005 A 
ATOM      6  C5  UNL d   1      -6.000   3.736   2.175  0.00  0.00     0.003 A 
ATOM      7  C6  UNL d   1      -5.996   2.946   3.326  0.00  0.00    -0.001 A 
ENDROOT
TORSDOF 0
ENDMDL
