MODEL 1
REMARK minimizedAffinity -3.95574689
REMARK minimizedRMSD -1
REMARK  0 active torsions:
REMARK  status: ('A' for Active; 'I' for Inactive)
ROOT
ATOM      1  C   UNL d   1      -5.975   4.514   3.420  0.00  0.00     0.078 C 
ATOM      2  C1  UNL d   1      -5.742   4.270   1.959  0.00  0.00    -0.077 A 
ATOM      3  C2  UNL d   1      -5.995   5.270   1.012  0.00  0.00    -0.001 A 
ATOM      4  C3  UNL d   1      -5.783   5.026  -0.346  0.00  0.00     0.003 A 
ATOM      5  C4  UNL d   1      -5.318   3.782  -0.769  0.00  0.00    -0.005 A 
ATOM      6  C5  UNL d   1      -5.065   2.781   0.166  0.00  0.00     0.003 A 
ATOM      7  C6  UNL d   1      -5.276   3.023   1.524  0.00  0.00    -0.001 A 
ENDROOT
TORSDOF 0
ENDMDL
