MODEL 1
REMARK minimizedAffinity -3.83659244
REMARK minimizedRMSD -1
REMARK  0 active torsions:
REMARK  status: ('A' for Active; 'I' for Inactive)
ROOT
ATOM      1  C   UNL d   1      -5.129   4.952   2.578  0.00  0.00     0.078 C 
ATOM      2  C1  UNL d   1      -4.709   4.146   3.771  0.00  0.00    -0.077 A 
ATOM      3  C2  UNL d   1      -3.376   3.756   3.945  0.00  0.00    -0.001 A 
ATOM      4  C3  UNL d   1      -3.001   2.998   5.056  0.00  0.00     0.003 A 
ATOM      5  C4  UNL d   1      -3.955   2.622   6.000  0.00  0.00    -0.005 A 
ATOM      6  C5  UNL d   1      -5.285   3.003   5.834  0.00  0.00     0.003 A 
ATOM      7  C6  UNL d   1      -5.661   3.761   4.724  0.00  0.00    -0.001 A 
ENDROOT
TORSDOF 0
ENDMDL
