MODEL 1
REMARK minimizedAffinity -2.36964035
REMARK minimizedRMSD -1
REMARK  2 active torsions:
REMARK  status: ('A' for Active; 'I' for Inactive)
REMARK    1  A    between atoms: C1_2  and  C2_3 
REMARK    2  A    between atoms: C2_3  and  C3_4 
ROOT
ATOM      1  C3  UNL d   1       0.290  -0.348  -0.015  0.00  0.00    -0.075 A 
ATOM      2  C4  UNL d   1       0.050   0.929  -0.542  0.00  0.00     0.002 A 
ATOM      3  C5  UNL d   1      -0.039   2.037   0.301  0.00  0.00     0.002 A 
ATOM      4  C6  UNL d   1       0.099   1.882   1.678  0.00  0.00    -0.004 A 
ATOM      5  C7  UNL d   1       0.321   0.615   2.214  0.00  0.00     0.002 A 
ATOM      6  C8  UNL d   1       0.415  -0.495   1.373  0.00  0.00     0.002 A 
ENDROOT
BRANCH   1   7
ATOM      7  C2  UNL d   1       0.417  -1.548  -0.924  0.00  0.00     0.056 C 
BRANCH   7   8
ATOM      8  C1  UNL d   1      -0.451  -2.740  -0.508  0.00  0.00     0.007 C 
ATOM      9  C   UNL d   1      -1.190  -3.381  -1.675  0.00  0.00     0.009 C 
ENDBRANCH   7   8
ENDBRANCH   1   7
TORSDOF 2
ENDMDL
