MODEL 1
REMARK minimizedAffinity -3.98808289
REMARK minimizedRMSD -1
REMARK  2 active torsions:
REMARK  status: ('A' for Active; 'I' for Inactive)
REMARK    1  A    between atoms: C1_2  and  C2_3 
REMARK    2  A    between atoms: C2_3  and  C3_4 
ROOT
ATOM      1  C3  UNL d   1       0.055   0.318   0.161  0.00  0.00    -0.075 A 
ATOM      2  C4  UNL d   1       0.265   0.105   1.531  0.00  0.00     0.002 A 
ATOM      3  C5  UNL d   1      -0.361   0.917   2.478  0.00  0.00     0.002 A 
ATOM      4  C6  UNL d   1      -1.194   1.955   2.068  0.00  0.00    -0.004 A 
ATOM      5  C7  UNL d   1      -1.396   2.186   0.709  0.00  0.00     0.002 A 
ATOM      6  C8  UNL d   1      -0.775   1.373  -0.241  0.00  0.00     0.002 A 
ENDROOT
BRANCH   1   7
ATOM      7  C2  UNL d   1       0.706  -0.575  -0.868  0.00  0.00     0.056 C 
BRANCH   7   8
ATOM      8  C1  UNL d   1       0.052  -1.955  -1.000  0.00  0.00     0.007 C 
ATOM      9  C   UNL d   1       1.048  -3.103  -0.906  0.00  0.00     0.009 C 
ENDBRANCH   7   8
ENDBRANCH   1   7
TORSDOF 2
ENDMDL
