MODEL 1
REMARK minimizedAffinity -4.0176692
REMARK minimizedRMSD -1
REMARK  2 active torsions:
REMARK  status: ('A' for Active; 'I' for Inactive)
REMARK    1  A    between atoms: C1_2  and  C2_3 
REMARK    2  A    between atoms: C2_3  and  C3_4 
ROOT
ATOM      1  C3  UNL d   1       0.155   0.275   0.221  0.00  0.00    -0.075 A 
ATOM      2  C4  UNL d   1       0.237   1.009   1.413  0.00  0.00     0.002 A 
ATOM      3  C5  UNL d   1       0.331   2.401   1.382  0.00  0.00     0.002 A 
ATOM      4  C6  UNL d   1       0.354   3.074   0.163  0.00  0.00    -0.004 A 
ATOM      5  C7  UNL d   1       0.290   2.353  -1.028  0.00  0.00     0.002 A 
ATOM      6  C8  UNL d   1       0.192   0.961  -1.000  0.00  0.00     0.002 A 
ENDROOT
BRANCH   1   7
ATOM      7  C2  UNL d   1       0.024  -1.229   0.248  0.00  0.00     0.056 C 
BRANCH   7   8
ATOM      8  C1  UNL d   1       0.053  -1.883  -1.138  0.00  0.00     0.007 C 
ATOM      9  C   UNL d   1      -0.306  -3.362  -1.112  0.00  0.00     0.009 C 
ENDBRANCH   7   8
ENDBRANCH   1   7
TORSDOF 2
ENDMDL
