MODEL 1
REMARK minimizedAffinity -5.36182117
REMARK minimizedRMSD -1
REMARK  2 active torsions:
REMARK  status: ('A' for Active; 'I' for Inactive)
REMARK    1  A    between atoms: C1_2  and  C2_3 
REMARK    2  A    between atoms: C2_3  and  C3_4 
ROOT
ATOM      1  C3  UNL d   1       0.030   0.071  -0.127  0.00  0.00    -0.075 A 
ATOM      2  C4  UNL d   1       0.030   0.015   1.275  0.00  0.00     0.002 A 
ATOM      3  C5  UNL d   1      -0.185   1.169   2.030  0.00  0.00     0.002 A 
ATOM      4  C6  UNL d   1      -0.393   2.391   1.396  0.00  0.00    -0.004 A 
ATOM      5  C7  UNL d   1      -0.379   2.462   0.004  0.00  0.00     0.002 A 
ATOM      6  C8  UNL d   1      -0.169   1.309  -0.754  0.00  0.00     0.002 A 
ENDROOT
BRANCH   1   7
ATOM      7  C2  UNL d   1       0.233  -1.178  -0.950  0.00  0.00     0.056 C 
BRANCH   7   8
ATOM      8  C1  UNL d   1      -0.952  -2.150  -0.911  0.00  0.00     0.007 C 
ATOM      9  C   UNL d   1      -0.601  -3.544  -1.414  0.00  0.00     0.009 C 
ENDBRANCH   7   8
ENDBRANCH   1   7
TORSDOF 2
ENDMDL
