MODEL 1
REMARK minimizedAffinity 0.63881427
REMARK minimizedRMSD -1
REMARK  2 active torsions:
REMARK  status: ('A' for Active; 'I' for Inactive)
REMARK    1  A    between atoms: C1_2  and  C2_3 
REMARK    2  A    between atoms: C2_3  and  C3_4 
ROOT
ATOM      1  C3  UNL d   1       0.630  -0.646   0.077  0.00  0.00    -0.075 A 
ATOM      2  C4  UNL d   1       0.761  -0.227   1.409  0.00  0.00     0.002 A 
ATOM      3  C5  UNL d   1       0.473   1.090   1.768  0.00  0.00     0.002 A 
ATOM      4  C6  UNL d   1       0.061   2.005   0.802  0.00  0.00    -0.004 A 
ATOM      5  C7  UNL d   1      -0.056   1.604  -0.527  0.00  0.00     0.002 A 
ATOM      6  C8  UNL d   1       0.227   0.286  -0.889  0.00  0.00     0.002 A 
ENDROOT
BRANCH   1   7
ATOM      7  C2  UNL d   1       0.912  -2.077  -0.314  0.00  0.00     0.056 C 
BRANCH   7   8
ATOM      8  C1  UNL d   1      -0.301  -2.818  -0.887  0.00  0.00     0.007 C 
ATOM      9  C   UNL d   1      -0.194  -4.332  -0.764  0.00  0.00     0.009 C 
ENDBRANCH   7   8
ENDBRANCH   1   7
TORSDOF 2
ENDMDL
