MODEL 1
REMARK minimizedAffinity -4.63838387
REMARK minimizedRMSD -1
REMARK  2 active torsions:
REMARK  status: ('A' for Active; 'I' for Inactive)
REMARK    1  A    between atoms: C1_2  and  C2_3 
REMARK    2  A    between atoms: C2_3  and  C3_4 
ROOT
ATOM      1  C3  UNL d   1       0.046   0.090  -0.257  0.00  0.00    -0.075 A 
ATOM      2  C4  UNL d   1      -0.786   1.189  -0.514  0.00  0.00     0.002 A 
ATOM      3  C5  UNL d   1      -1.151   2.058   0.515  0.00  0.00     0.002 A 
ATOM      4  C6  UNL d   1      -0.699   1.833   1.813  0.00  0.00    -0.004 A 
ATOM      5  C7  UNL d   1       0.115   0.734   2.084  0.00  0.00     0.002 A 
ATOM      6  C8  UNL d   1       0.485  -0.134   1.055  0.00  0.00     0.002 A 
ENDROOT
BRANCH   1   7
ATOM      7  C2  UNL d   1       0.468  -0.837  -1.371  0.00  0.00     0.056 C 
BRANCH   7   8
ATOM      8  C1  UNL d   1       0.455  -2.321  -0.988  0.00  0.00     0.007 C 
ATOM      9  C   UNL d   1      -0.614  -3.121  -1.720  0.00  0.00     0.009 C 
ENDBRANCH   7   8
ENDBRANCH   1   7
TORSDOF 2
ENDMDL
