MODEL 1
REMARK minimizedAffinity -4.54283094
REMARK minimizedRMSD -1
REMARK  0 active torsions:
REMARK  status: ('A' for Active; 'I' for Inactive)
ROOT
ATOM      1  C2' OXE d   1      -2.446  -1.198  -0.786  0.00  0.00     0.078 C 
ATOM      2  C1' OXE d   1      -0.536   0.632  -1.724  0.00  0.00     0.078 C 
ATOM      3  C1  OXE d   1      -0.176  -0.207  -0.523  0.00  0.00    -0.078 A 
ATOM      4  C2  OXE d   1      -1.135  -1.066  -0.043  0.00  0.00    -0.078 A 
ATOM      5  C3  OXE d   1      -0.835  -1.902   1.029  0.00  0.00     0.003 A 
ATOM      6  C4  OXE d   1       0.376  -1.767   1.717  0.00  0.00    -0.002 A 
ATOM      7  C5  OXE d   1       1.351  -0.869   1.268  0.00  0.00    -0.002 A 
ATOM      8  C6  OXE d   1       1.108  -0.114   0.127  0.00  0.00     0.003 A 
ENDROOT
TORSDOF 0
ENDMDL
