MODEL 1
REMARK minimizedAffinity -0.08369793
REMARK minimizedRMSD -1
REMARK  0 active torsions:
REMARK  status: ('A' for Active; 'I' for Inactive)
ROOT
ATOM      1  C2' OXE d   1       4.034   3.004   2.964  0.00  0.00     0.078 C 
ATOM      2  C1' OXE d   1       5.993   5.015   2.929  0.00  0.00     0.078 C 
ATOM      3  C1  OXE d   1       5.306   4.679   1.629  0.00  0.00    -0.078 A 
ATOM      4  C2  OXE d   1       4.383   3.661   1.646  0.00  0.00    -0.078 A 
ATOM      5  C3  OXE d   1       3.681   3.348   0.485  0.00  0.00     0.003 A 
ATOM      6  C4  OXE d   1       4.016   3.953  -0.731  0.00  0.00    -0.002 A 
ATOM      7  C5  OXE d   1       4.982   4.964  -0.779  0.00  0.00    -0.002 A 
ATOM      8  C6  OXE d   1       5.605   5.368   0.397  0.00  0.00     0.003 A 
ENDROOT
TORSDOF 0
ENDMDL
