MODEL 1
REMARK minimizedAffinity -5.92540741
REMARK minimizedRMSD -1
REMARK  0 active torsions:
REMARK  status: ('A' for Active; 'I' for Inactive)
ROOT
ATOM      1  C2' OXE d   1       1.169  -0.001   1.158  0.00  0.00     0.078 C 
ATOM      2  C1' OXE d   1      -0.537  -2.159   1.715  0.00  0.00     0.078 C 
ATOM      3  C1  OXE d   1      -0.947  -1.202   0.624  0.00  0.00    -0.078 A 
ATOM      4  C2  OXE d   1      -0.129  -0.123   0.389  0.00  0.00    -0.078 A 
ATOM      5  C3  OXE d   1      -0.432   0.761  -0.643  0.00  0.00     0.003 A 
ATOM      6  C4  OXE d   1      -1.640   0.647  -1.342  0.00  0.00    -0.002 A 
ATOM      7  C5  OXE d   1      -2.507  -0.423  -1.092  0.00  0.00    -0.002 A 
ATOM      8  C6  OXE d   1      -2.155  -1.377  -0.144  0.00  0.00     0.003 A 
ENDROOT
TORSDOF 0
ENDMDL
