MODEL 1
REMARK minimizedAffinity 7.83823824
REMARK minimizedRMSD -1
REMARK  0 active torsions:
REMARK  status: ('A' for Active; 'I' for Inactive)
ROOT
ATOM      1  C2' OXE d   1      -1.417   0.903   3.620  0.00  0.00     0.078 C 
ATOM      2  C1' OXE d   1       1.352   1.191   3.977  0.00  0.00     0.078 C 
ATOM      3  C1  OXE d   1       0.853  -0.088   3.354  0.00  0.00    -0.078 A 
ATOM      4  C2  OXE d   1      -0.507  -0.241   3.226  0.00  0.00    -0.078 A 
ATOM      5  C3  OXE d   1      -1.018  -1.378   2.608  0.00  0.00     0.003 A 
ATOM      6  C4  OXE d   1      -0.170  -2.435   2.256  0.00  0.00    -0.002 A 
ATOM      7  C5  OXE d   1       1.215  -2.317   2.414  0.00  0.00    -0.002 A 
ATOM      8  C6  OXE d   1       1.745  -1.136   2.921  0.00  0.00     0.003 A 
ENDROOT
TORSDOF 0
ENDMDL
