MODEL 1
REMARK minimizedAffinity 7.77012444
REMARK minimizedRMSD -1
REMARK  0 active torsions:
REMARK  status: ('A' for Active; 'I' for Inactive)
ROOT
ATOM      1  C2' OXE d   1      -1.314   1.671  -2.974  0.00  0.00     0.078 C 
ATOM      2  C1' OXE d   1      -0.128  -0.809  -2.410  0.00  0.00     0.078 C 
ATOM      3  C1  OXE d   1      -1.480  -0.523  -1.807  0.00  0.00    -0.078 A 
ATOM      4  C2  OXE d   1      -2.033   0.711  -2.051  0.00  0.00    -0.078 A 
ATOM      5  C3  OXE d   1      -3.303   1.006  -1.564  0.00  0.00     0.003 A 
ATOM      6  C4  OXE d   1      -3.956   0.117  -0.703  0.00  0.00    -0.002 A 
ATOM      7  C5  OXE d   1      -3.394  -1.130  -0.410  0.00  0.00    -0.002 A 
ATOM      8  C6  OXE d   1      -2.179  -1.482  -0.987  0.00  0.00     0.003 A 
ENDROOT
TORSDOF 0
ENDMDL
