MODEL 1
REMARK minimizedAffinity 5.45832825
REMARK minimizedRMSD -1
REMARK  0 active torsions:
REMARK  status: ('A' for Active; 'I' for Inactive)
ROOT
ATOM      1  C2' OXE d   1      -0.754  -2.102   1.563  0.00  0.00     0.078 C 
ATOM      2  C1' OXE d   1      -1.824  -0.139   3.260  0.00  0.00     0.078 C 
ATOM      3  C1  OXE d   1      -0.411   0.050   2.769  0.00  0.00    -0.078 A 
ATOM      4  C2  OXE d   1       0.121  -0.939   1.977  0.00  0.00    -0.078 A 
ATOM      5  C3  OXE d   1       1.402  -0.788   1.453  0.00  0.00     0.003 A 
ATOM      6  C4  OXE d   1       2.208   0.286   1.849  0.00  0.00    -0.002 A 
ATOM      7  C5  OXE d   1       1.700   1.284   2.687  0.00  0.00    -0.002 A 
ATOM      8  C6  OXE d   1       0.381   1.203   3.121  0.00  0.00     0.003 A 
ENDROOT
TORSDOF 0
ENDMDL
