MODEL 1
REMARK minimizedAffinity -3.26175499
REMARK minimizedRMSD -1
REMARK  0 active torsions:
REMARK  status: ('A' for Active; 'I' for Inactive)
ROOT
ATOM      1  C2' OXE d   1      -1.308  -1.637   0.275  0.00  0.00     0.078 C 
ATOM      2  C1' OXE d   1      -3.790  -0.334   0.132  0.00  0.00     0.078 C 
ATOM      3  C1  OXE d   1      -2.725   0.072  -0.856  0.00  0.00    -0.078 A 
ATOM      4  C2  OXE d   1      -1.498  -0.538  -0.749  0.00  0.00    -0.078 A 
ATOM      5  C3  OXE d   1      -0.498  -0.240  -1.669  0.00  0.00     0.003 A 
ATOM      6  C4  OXE d   1      -0.679   0.784  -2.606  0.00  0.00    -0.002 A 
ATOM      7  C5  OXE d   1      -1.908   1.446  -2.706  0.00  0.00    -0.002 A 
ATOM      8  C6  OXE d   1      -2.953   1.073  -1.869  0.00  0.00     0.003 A 
ENDROOT
TORSDOF 0
ENDMDL
