MODEL 1
REMARK minimizedAffinity 7.11917067
REMARK minimizedRMSD -1
REMARK  0 active torsions:
REMARK  status: ('A' for Active; 'I' for Inactive)
ROOT
ATOM      1  C2' OXE d   1      -3.001  -1.864  -0.512  0.00  0.00     0.078 C 
ATOM      2  C1' OXE d   1      -1.923  -2.561  -3.008  0.00  0.00     0.078 C 
ATOM      3  C1  OXE d   1      -1.893  -1.107  -2.610  0.00  0.00    -0.078 A 
ATOM      4  C2  OXE d   1      -2.465  -0.768  -1.407  0.00  0.00    -0.078 A 
ATOM      5  C3  OXE d   1      -2.416   0.551  -0.968  0.00  0.00     0.003 A 
ATOM      6  C4  OXE d   1      -1.927   1.560  -1.807  0.00  0.00    -0.002 A 
ATOM      7  C5  OXE d   1      -1.376   1.243  -3.052  0.00  0.00    -0.002 A 
ATOM      8  C6  OXE d   1      -1.313  -0.088  -3.450  0.00  0.00     0.003 A 
ENDROOT
TORSDOF 0
ENDMDL
