MODEL 1
REMARK minimizedAffinity -5.54620361
REMARK minimizedRMSD -1
REMARK  0 active torsions:
REMARK  status: ('A' for Active; 'I' for Inactive)
ROOT
ATOM      1  C2' OXE d   1       1.117   0.974  -0.703  0.00  0.00     0.078 C 
ATOM      2  C1' OXE d   1       0.522  -0.025   1.853  0.00  0.00     0.078 C 
ATOM      3  C1  OXE d   1      -0.499  -0.231   0.761  0.00  0.00    -0.078 A 
ATOM      4  C2  OXE d   1      -0.220   0.302  -0.474  0.00  0.00    -0.078 A 
ATOM      5  C3  OXE d   1      -1.102   0.094  -1.530  0.00  0.00     0.003 A 
ATOM      6  C4  OXE d   1      -2.341  -0.520  -1.308  0.00  0.00    -0.002 A 
ATOM      7  C5  OXE d   1      -2.662  -1.035  -0.048  0.00  0.00    -0.002 A 
ATOM      8  C6  OXE d   1      -1.737  -0.936   0.985  0.00  0.00     0.003 A 
ENDROOT
TORSDOF 0
ENDMDL
