MODEL 1
REMARK minimizedAffinity -0.900010645
REMARK minimizedRMSD -1
REMARK  0 active torsions:
REMARK  status: ('A' for Active; 'I' for Inactive)
ROOT
ATOM      1  C2' OXE d   1      -0.206  -0.179   1.506  0.00  0.00     0.078 C 
ATOM      2  C1' OXE d   1      -0.111  -0.335  -1.295  0.00  0.00     0.078 C 
ATOM      3  C1  OXE d   1      -1.135  -1.179  -0.578  0.00  0.00    -0.078 A 
ATOM      4  C2  OXE d   1      -1.143  -1.132   0.796  0.00  0.00    -0.078 A 
ATOM      5  C3  OXE d   1      -2.103  -1.848   1.504  0.00  0.00     0.003 A 
ATOM      6  C4  OXE d   1      -2.960  -2.734   0.840  0.00  0.00    -0.002 A 
ATOM      7  C5  OXE d   1      -2.941  -2.827  -0.556  0.00  0.00    -0.002 A 
ATOM      8  C6  OXE d   1      -2.066  -2.026  -1.281  0.00  0.00     0.003 A 
ENDROOT
TORSDOF 0
ENDMDL
