MODEL 1
REMARK minimizedAffinity 4.81968164
REMARK minimizedRMSD -1
REMARK  0 active torsions:
REMARK  status: ('A' for Active; 'I' for Inactive)
ROOT
ATOM      1  C2' OXE d   1      -3.002  -2.929   4.060  0.00  0.00     0.078 C 
ATOM      2  C1' OXE d   1      -1.872  -1.200   2.159  0.00  0.00     0.078 C 
ATOM      3  C1  OXE d   1      -2.240  -0.624   3.504  0.00  0.00    -0.078 A 
ATOM      4  C2  OXE d   1      -2.835  -1.467   4.411  0.00  0.00    -0.078 A 
ATOM      5  C3  OXE d   1      -3.145  -1.000   5.686  0.00  0.00     0.003 A 
ATOM      6  C4  OXE d   1      -2.997   0.356   5.999  0.00  0.00    -0.002 A 
ATOM      7  C5  OXE d   1      -2.429   1.240   5.076  0.00  0.00    -0.002 A 
ATOM      8  C6  OXE d   1      -2.007   0.759   3.842  0.00  0.00     0.003 A 
ENDROOT
TORSDOF 0
ENDMDL
