MODEL 1
REMARK minimizedAffinity -1.27245045
REMARK minimizedRMSD -1
REMARK  0 active torsions:
REMARK  status: ('A' for Active; 'I' for Inactive)
ROOT
ATOM      1  C2' OXE d   1      -3.233  -1.763  -1.758  0.00  0.00     0.078 C 
ATOM      2  C1' OXE d   1      -2.567  -2.088  -4.465  0.00  0.00     0.078 C 
ATOM      3  C1  OXE d   1      -1.629  -1.283  -3.602  0.00  0.00    -0.078 A 
ATOM      4  C2  OXE d   1      -1.986  -1.090  -2.289  0.00  0.00    -0.078 A 
ATOM      5  C3  OXE d   1      -1.129  -0.401  -1.435  0.00  0.00     0.003 A 
ATOM      6  C4  OXE d   1       0.017   0.227  -1.937  0.00  0.00    -0.002 A 
ATOM      7  C5  OXE d   1       0.379   0.076  -3.280  0.00  0.00    -0.002 A 
ATOM      8  C6  OXE d   1      -0.409  -0.709  -4.114  0.00  0.00     0.003 A 
ENDROOT
TORSDOF 0
ENDMDL
