MODEL 1
REMARK minimizedAffinity 5.6325078
REMARK minimizedRMSD -1
REMARK  0 active torsions:
REMARK  status: ('A' for Active; 'I' for Inactive)
ROOT
ATOM      1  C2' OXE d   1      -0.126   0.365  -3.114  0.00  0.00     0.078 C 
ATOM      2  C1' OXE d   1      -2.314  -1.321  -2.615  0.00  0.00     0.078 C 
ATOM      3  C1  OXE d   1      -1.608  -0.715  -1.428  0.00  0.00    -0.078 A 
ATOM      4  C2  OXE d   1      -0.510   0.071  -1.679  0.00  0.00    -0.078 A 
ATOM      5  C3  OXE d   1       0.145   0.699  -0.623  0.00  0.00     0.003 A 
ATOM      6  C4  OXE d   1      -0.210   0.414   0.701  0.00  0.00    -0.002 A 
ATOM      7  C5  OXE d   1      -1.301  -0.416   0.980  0.00  0.00    -0.002 A 
ATOM      8  C6  OXE d   1      -2.036  -0.953  -0.071  0.00  0.00     0.003 A 
ENDROOT
TORSDOF 0
ENDMDL
