MODEL 1
REMARK minimizedAffinity 10.7932806
REMARK minimizedRMSD -1
REMARK  0 active torsions:
REMARK  status: ('A' for Active; 'I' for Inactive)
ROOT
ATOM      1  C2' OXE d   1      -4.472   4.711  -2.486  0.00  0.00     0.078 C 
ATOM      2  C1' OXE d   1      -3.391   2.893  -0.641  0.00  0.00     0.078 C 
ATOM      3  C1  OXE d   1      -4.317   3.962  -0.116  0.00  0.00    -0.078 A 
ATOM      4  C2  OXE d   1      -4.804   4.875  -1.019  0.00  0.00    -0.078 A 
ATOM      5  C3  OXE d   1      -5.706   5.848  -0.597  0.00  0.00     0.003 A 
ATOM      6  C4  OXE d   1      -6.000   6.000   0.764  0.00  0.00    -0.002 A 
ATOM      7  C5  OXE d   1      -5.483   5.104   1.706  0.00  0.00    -0.002 A 
ATOM      8  C6  OXE d   1      -4.675   4.056   1.278  0.00  0.00     0.003 A 
ENDROOT
TORSDOF 0
ENDMDL
