MODEL 1
REMARK minimizedAffinity 4.52144337
REMARK minimizedRMSD -1
REMARK  0 active torsions:
REMARK  status: ('A' for Active; 'I' for Inactive)
ROOT
ATOM      1  C2' OXE d   1       0.773  -0.027  -0.557  0.00  0.00     0.078 C 
ATOM      2  C1' OXE d   1      -1.843  -0.912  -1.060  0.00  0.00     0.078 C 
ATOM      3  C1  OXE d   1      -1.517  -0.436   0.334  0.00  0.00    -0.078 A 
ATOM      4  C2  OXE d   1      -0.222  -0.049   0.583  0.00  0.00    -0.078 A 
ATOM      5  C3  OXE d   1       0.119   0.449   1.837  0.00  0.00     0.003 A 
ATOM      6  C4  OXE d   1      -0.805   0.416   2.888  0.00  0.00    -0.002 A 
ATOM      7  C5  OXE d   1      -2.118  -0.011   2.666  0.00  0.00    -0.002 A 
ATOM      8  C6  OXE d   1      -2.501  -0.400   1.387  0.00  0.00     0.003 A 
ENDROOT
TORSDOF 0
ENDMDL
