MODEL 1
REMARK minimizedAffinity 0.283790261
REMARK minimizedRMSD -1
REMARK  0 active torsions:
REMARK  status: ('A' for Active; 'I' for Inactive)
ROOT
ATOM      1  C2' OXE d   1      -5.627   3.288   0.744  0.00  0.00     0.078 C 
ATOM      2  C1' OXE d   1      -4.834   5.979   0.841  0.00  0.00     0.078 C 
ATOM      3  C1  OXE d   1      -5.221   5.313   2.138  0.00  0.00    -0.078 A 
ATOM      4  C2  OXE d   1      -5.652   4.010   2.074  0.00  0.00    -0.078 A 
ATOM      5  C3  OXE d   1      -5.969   3.331   3.247  0.00  0.00     0.003 A 
ATOM      6  C4  OXE d   1      -5.999   4.008   4.472  0.00  0.00    -0.002 A 
ATOM      7  C5  OXE d   1      -5.601   5.347   4.553  0.00  0.00    -0.002 A 
ATOM      8  C6  OXE d   1      -5.169   6.000   3.404  0.00  0.00     0.003 A 
ENDROOT
TORSDOF 0
ENDMDL
