MODEL 1
REMARK minimizedAffinity -1.84100318
REMARK minimizedRMSD -1
REMARK  0 active torsions:
REMARK  status: ('A' for Active; 'I' for Inactive)
ROOT
ATOM      1  C2' OXE d   1       0.568  -1.394   1.145  0.00  0.00     0.078 C 
ATOM      2  C1' OXE d   1      -0.197   0.303  -0.956  0.00  0.00     0.078 C 
ATOM      3  C1  OXE d   1      -0.984  -0.967  -0.756  0.00  0.00    -0.078 A 
ATOM      4  C2  OXE d   1      -0.574  -1.815   0.245  0.00  0.00    -0.078 A 
ATOM      5  C3  OXE d   1      -1.299  -2.974   0.507  0.00  0.00     0.003 A 
ATOM      6  C4  OXE d   1      -2.347  -3.361  -0.337  0.00  0.00    -0.002 A 
ATOM      7  C5  OXE d   1      -2.756  -2.531  -1.387  0.00  0.00    -0.002 A 
ATOM      8  C6  OXE d   1      -2.114  -1.314  -1.583  0.00  0.00     0.003 A 
ENDROOT
TORSDOF 0
ENDMDL
