MODEL 1
REMARK minimizedAffinity -4.58586311
REMARK minimizedRMSD -1
REMARK  0 active torsions:
REMARK  status: ('A' for Active; 'I' for Inactive)
ROOT
ATOM      1  C2' OXE d   1       0.856   0.138   0.435  0.00  0.00     0.078 C 
ATOM      2  C1' OXE d   1      -1.269   0.346  -1.387  0.00  0.00     0.078 C 
ATOM      3  C1  OXE d   1      -1.300  -0.792  -0.398  0.00  0.00    -0.078 A 
ATOM      4  C2  OXE d   1      -0.232  -0.913   0.459  0.00  0.00    -0.078 A 
ATOM      5  C3  OXE d   1      -0.237  -1.913   1.428  0.00  0.00     0.003 A 
ATOM      6  C4  OXE d   1      -1.242  -2.887   1.438  0.00  0.00    -0.002 A 
ATOM      7  C5  OXE d   1      -2.318  -2.805   0.547  0.00  0.00    -0.002 A 
ATOM      8  C6  OXE d   1      -2.384  -1.742  -0.347  0.00  0.00     0.003 A 
ENDROOT
TORSDOF 0
ENDMDL
