MODEL 1
REMARK minimizedAffinity -4.94500732
REMARK minimizedRMSD -1
REMARK  0 active torsions:
REMARK  status: ('A' for Active; 'I' for Inactive)
ROOT
ATOM      1  C2' OXE d   1       0.138  -1.038   1.745  0.00  0.00     0.078 C 
ATOM      2  C1' OXE d   1       0.755  -0.168  -0.852  0.00  0.00     0.078 C 
ATOM      3  C1  OXE d   1       1.338   0.604   0.306  0.00  0.00    -0.078 A 
ATOM      4  C2  OXE d   1       0.993   0.199   1.573  0.00  0.00    -0.078 A 
ATOM      5  C3  OXE d   1       1.547   0.841   2.676  0.00  0.00     0.003 A 
ATOM      6  C4  OXE d   1       2.329   1.991   2.508  0.00  0.00    -0.002 A 
ATOM      7  C5  OXE d   1       2.660   2.444   1.227  0.00  0.00    -0.002 A 
ATOM      8  C6  OXE d   1       2.208   1.738   0.117  0.00  0.00     0.003 A 
ENDROOT
TORSDOF 0
ENDMDL
