MODEL 1
REMARK minimizedAffinity -0.793793797
REMARK minimizedRMSD -1
REMARK  0 active torsions:
REMARK  status: ('A' for Active; 'I' for Inactive)
ROOT
ATOM      1  C2' OXE d   1       1.852   1.349   1.868  0.00  0.00     0.078 C 
ATOM      2  C1' OXE d   1       2.055  -1.114   0.536  0.00  0.00     0.078 C 
ATOM      3  C1  OXE d   1       0.838  -0.877   1.395  0.00  0.00    -0.078 A 
ATOM      4  C2  OXE d   1       0.770   0.312   2.081  0.00  0.00    -0.078 A 
ATOM      5  C3  OXE d   1      -0.356   0.604   2.845  0.00  0.00     0.003 A 
ATOM      6  C4  OXE d   1      -1.348  -0.364   3.044  0.00  0.00    -0.002 A 
ATOM      7  C5  OXE d   1      -1.279  -1.597   2.387  0.00  0.00    -0.002 A 
ATOM      8  C6  OXE d   1      -0.216  -1.852   1.527  0.00  0.00     0.003 A 
ENDROOT
TORSDOF 0
ENDMDL
