MODEL 1
REMARK minimizedAffinity -2.74014783
REMARK minimizedRMSD -1
REMARK  1 active torsions:
REMARK  status: ('A' for Active; 'I' for Inactive)
REMARK    1  A    between atoms: C1_2  and  C2_3 
ROOT
ATOM      1  C2  UNL d   1       0.145  -0.129   0.126  0.00  0.00    -0.077 A 
ATOM      2  C3  UNL d   1      -0.985  -0.010   0.948  0.00  0.00     0.002 A 
ATOM      3  C4  UNL d   1      -1.480  -1.121   1.633  0.00  0.00     0.002 A 
ATOM      4  C5  UNL d   1      -0.850  -2.357   1.507  0.00  0.00    -0.004 A 
ATOM      5  C6  UNL d   1       0.273  -2.487   0.691  0.00  0.00     0.002 A 
ATOM      6  C7  UNL d   1       0.769  -1.377   0.004  0.00  0.00     0.002 A 
ENDROOT
BRANCH   1   7
ATOM      7  C1  UNL d   1       0.710   1.079  -0.575  0.00  0.00     0.055 C 
ATOM      8  C   UNL d   1       0.216   1.167  -2.011  0.00  0.00     0.019 C 
ENDBRANCH   1   7
TORSDOF 1
ENDMDL
