MODEL 1
REMARK minimizedAffinity -5.90293026
REMARK minimizedRMSD -1
REMARK  1 active torsions:
REMARK  status: ('A' for Active; 'I' for Inactive)
REMARK    1  A    between atoms: C1_2  and  C2_3 
ROOT
ATOM      1  C2  UNL d   1      -0.472  -0.027   0.611  0.00  0.00    -0.077 A 
ATOM      2  C3  UNL d   1      -1.544   0.472   1.364  0.00  0.00     0.002 A 
ATOM      3  C4  UNL d   1      -2.580  -0.374   1.767  0.00  0.00     0.002 A 
ATOM      4  C5  UNL d   1      -2.551  -1.724   1.424  0.00  0.00    -0.004 A 
ATOM      5  C6  UNL d   1      -1.491  -2.230   0.674  0.00  0.00     0.002 A 
ATOM      6  C7  UNL d   1      -0.456  -1.386   0.270  0.00  0.00     0.002 A 
ENDROOT
BRANCH   1   7
ATOM      7  C1  UNL d   1       0.670   0.873   0.218  0.00  0.00     0.055 C 
ATOM      8  C   UNL d   1       0.356   2.330   0.524  0.00  0.00     0.019 C 
ENDBRANCH   1   7
TORSDOF 1
ENDMDL
