MODEL 1
REMARK minimizedAffinity -5.12165594
REMARK minimizedRMSD -1
REMARK  1 active torsions:
REMARK  status: ('A' for Active; 'I' for Inactive)
REMARK    1  A    between atoms: C1_2  and  C2_3 
ROOT
ATOM      1  C2  UNL d   1      -1.892  -1.292   0.790  0.00  0.00    -0.077 A 
ATOM      2  C3  UNL d   1      -1.252  -2.059   1.774  0.00  0.00     0.002 A 
ATOM      3  C4  UNL d   1       0.128  -2.264   1.722  0.00  0.00     0.002 A 
ATOM      4  C5  UNL d   1       0.880  -1.702   0.692  0.00  0.00    -0.004 A 
ATOM      5  C6  UNL d   1       0.252  -0.939  -0.292  0.00  0.00     0.002 A 
ATOM      6  C7  UNL d   1      -1.127  -0.734  -0.243  0.00  0.00     0.002 A 
ENDROOT
BRANCH   1   7
ATOM      7  C1  UNL d   1      -3.373  -1.028   0.871  0.00  0.00     0.055 C 
ATOM      8  C   UNL d   1      -3.660   0.444   1.125  0.00  0.00     0.019 C 
ENDBRANCH   1   7
TORSDOF 1
ENDMDL
