MODEL 1
REMARK minimizedAffinity -4.91783333
REMARK minimizedRMSD -1
REMARK  1 active torsions:
REMARK  status: ('A' for Active; 'I' for Inactive)
REMARK    1  A    between atoms: C1_2  and  C2_3 
ROOT
ATOM      1  C2  UNL d   1       0.145   0.180  -0.015  0.00  0.00    -0.077 A 
ATOM      2  C3  UNL d   1      -1.240  -0.029  -0.052  0.00  0.00     0.002 A 
ATOM      3  C4  UNL d   1      -1.768  -1.303   0.168  0.00  0.00     0.002 A 
ATOM      4  C5  UNL d   1      -0.918  -2.375   0.429  0.00  0.00    -0.004 A 
ATOM      5  C6  UNL d   1       0.461  -2.178   0.465  0.00  0.00     0.002 A 
ATOM      6  C7  UNL d   1       0.991  -0.906   0.245  0.00  0.00     0.002 A 
ENDROOT
BRANCH   1   7
ATOM      7  C1  UNL d   1       0.714   1.563  -0.203  0.00  0.00     0.055 C 
ATOM      8  C   UNL d   1       0.698   1.973  -1.668  0.00  0.00     0.019 C 
ENDBRANCH   1   7
TORSDOF 1
ENDMDL
