MODEL 1
REMARK minimizedAffinity -3.8177247
REMARK minimizedRMSD -1
REMARK  1 active torsions:
REMARK  status: ('A' for Active; 'I' for Inactive)
REMARK    1  A    between atoms: C1_2  and  C2_3 
ROOT
ATOM      1  C2  UNL d   1       0.655   0.404  -0.394  0.00  0.00    -0.077 A 
ATOM      2  C3  UNL d   1       1.100  -0.849   0.049  0.00  0.00     0.002 A 
ATOM      3  C4  UNL d   1       0.208  -1.745   0.643  0.00  0.00     0.002 A 
ATOM      4  C5  UNL d   1      -1.133  -1.399   0.795  0.00  0.00    -0.004 A 
ATOM      5  C6  UNL d   1      -1.584  -0.153   0.359  0.00  0.00     0.002 A 
ATOM      6  C7  UNL d   1      -0.694   0.744  -0.233  0.00  0.00     0.002 A 
ENDROOT
BRANCH   1   7
ATOM      7  C1  UNL d   1       1.605   1.352  -1.079  0.00  0.00     0.055 C 
ATOM      8  C   UNL d   1       1.078   1.775  -2.442  0.00  0.00     0.019 C 
ENDBRANCH   1   7
TORSDOF 1
ENDMDL
