MODEL 1
REMARK minimizedAffinity -5.01877117
REMARK minimizedRMSD -1
REMARK  1 active torsions:
REMARK  status: ('A' for Active; 'I' for Inactive)
REMARK    1  A    between atoms: C1_2  and  C2_3 
ROOT
ATOM      1  C2  UNL d   1       0.041   0.108   0.342  0.00  0.00    -0.077 A 
ATOM      2  C3  UNL d   1      -1.318  -0.128   0.592  0.00  0.00     0.002 A 
ATOM      3  C4  UNL d   1      -1.749  -1.385   1.022  0.00  0.00     0.002 A 
ATOM      4  C5  UNL d   1      -0.827  -2.413   1.210  0.00  0.00    -0.004 A 
ATOM      5  C6  UNL d   1       0.526  -2.188   0.961  0.00  0.00     0.002 A 
ATOM      6  C7  UNL d   1       0.958  -0.933   0.530  0.00  0.00     0.002 A 
ENDROOT
BRANCH   1   7
ATOM      7  C1  UNL d   1       0.513   1.477  -0.074  0.00  0.00     0.055 C 
ATOM      8  C   UNL d   1       1.213   1.433  -1.425  0.00  0.00     0.019 C 
ENDBRANCH   1   7
TORSDOF 1
ENDMDL
