MODEL 1
REMARK minimizedAffinity -4.39109659
REMARK minimizedRMSD -1
REMARK  1 active torsions:
REMARK  status: ('A' for Active; 'I' for Inactive)
REMARK    1  A    between atoms: C1_2  and  C2_3 
ROOT
ATOM      1  C2  UNL d   1       0.212  -0.056  -0.032  0.00  0.00    -0.077 A 
ATOM      2  C3  UNL d   1      -1.170  -0.249   0.098  0.00  0.00     0.002 A 
ATOM      3  C4  UNL d   1      -1.675  -1.483   0.512  0.00  0.00     0.002 A 
ATOM      4  C5  UNL d   1      -0.805  -2.532   0.803  0.00  0.00    -0.004 A 
ATOM      5  C6  UNL d   1       0.571  -2.351   0.674  0.00  0.00     0.002 A 
ATOM      6  C7  UNL d   1       1.078  -1.118   0.260  0.00  0.00     0.002 A 
ENDROOT
BRANCH   1   7
ATOM      7  C1  UNL d   1       0.761   1.289  -0.431  0.00  0.00     0.055 C 
ATOM      8  C   UNL d   1       0.842   1.427  -1.944  0.00  0.00     0.019 C 
ENDBRANCH   1   7
TORSDOF 1
ENDMDL
