MODEL 1
REMARK minimizedAffinity -5.48661041
REMARK minimizedRMSD -1
REMARK  1 active torsions:
REMARK  status: ('A' for Active; 'I' for Inactive)
REMARK    1  A    between atoms: C1_2  and  C2_3 
ROOT
ATOM      1  C2  UNL d   1      -1.013  -1.170   0.706  0.00  0.00    -0.077 A 
ATOM      2  C3  UNL d   1       0.292  -0.836   0.319  0.00  0.00     0.002 A 
ATOM      3  C4  UNL d   1       0.693   0.500   0.268  0.00  0.00     0.002 A 
ATOM      4  C5  UNL d   1      -0.203   1.512   0.605  0.00  0.00    -0.004 A 
ATOM      5  C6  UNL d   1      -1.504   1.190   0.989  0.00  0.00     0.002 A 
ATOM      6  C7  UNL d   1      -1.908  -0.145   1.040  0.00  0.00     0.002 A 
ENDROOT
BRANCH   1   7
ATOM      7  C1  UNL d   1      -1.433  -2.613   0.809  0.00  0.00     0.055 C 
ATOM      8  C   UNL d   1      -2.449  -2.816   1.924  0.00  0.00     0.019 C 
ENDBRANCH   1   7
TORSDOF 1
ENDMDL
