MODEL 1
REMARK minimizedAffinity -4.54500151
REMARK minimizedRMSD -1
REMARK  1 active torsions:
REMARK  status: ('A' for Active; 'I' for Inactive)
REMARK    1  A    between atoms: C1_2  and  C2_3 
ROOT
ATOM      1  C2  UNL d   1       3.573   1.967  -3.105  0.00  0.00    -0.077 A 
ATOM      2  C3  UNL d   1       2.593   1.990  -4.107  0.00  0.00     0.002 A 
ATOM      3  C4  UNL d   1       1.243   2.115  -3.772  0.00  0.00     0.002 A 
ATOM      4  C5  UNL d   1       0.862   2.223  -2.436  0.00  0.00    -0.004 A 
ATOM      5  C6  UNL d   1       1.829   2.200  -1.432  0.00  0.00     0.002 A 
ATOM      6  C7  UNL d   1       3.179   2.073  -1.765  0.00  0.00     0.002 A 
ENDROOT
BRANCH   1   7
ATOM      7  C1  UNL d   1       5.033   1.881  -3.466  0.00  0.00     0.055 C 
ATOM      8  C   UNL d   1       5.918   2.293  -2.299  0.00  0.00     0.019 C 
ENDBRANCH   1   7
TORSDOF 1
ENDMDL
