MODEL 1
REMARK minimizedAffinity -2.95507288
REMARK minimizedRMSD -1
REMARK  1 active torsions:
REMARK  status: ('A' for Active; 'I' for Inactive)
REMARK    1  A    between atoms: C1_2  and  C2_3 
ROOT
ATOM      1  C2  UNL d   1       0.680   1.220  -1.991  0.00  0.00    -0.077 A 
ATOM      2  C3  UNL d   1       0.839   1.484  -0.623  0.00  0.00     0.002 A 
ATOM      3  C4  UNL d   1       0.681   0.463   0.317  0.00  0.00     0.002 A 
ATOM      4  C5  UNL d   1       0.368  -0.828  -0.101  0.00  0.00    -0.004 A 
ATOM      5  C6  UNL d   1       0.205  -1.101  -1.459  0.00  0.00     0.002 A 
ATOM      6  C7  UNL d   1       0.362  -0.082  -2.399  0.00  0.00     0.002 A 
ENDROOT
BRANCH   1   7
ATOM      7  C1  UNL d   1       0.899   2.308  -3.009  0.00  0.00     0.055 C 
ATOM      8  C   UNL d   1       2.278   2.203  -3.644  0.00  0.00     0.019 C 
ENDBRANCH   1   7
TORSDOF 1
ENDMDL
