MODEL 1
REMARK minimizedAffinity -4.51041746
REMARK minimizedRMSD -1
REMARK  1 active torsions:
REMARK  status: ('A' for Active; 'I' for Inactive)
REMARK    1  A    between atoms: C1_2  and  C2_3 
ROOT
ATOM      1  C2  UNL d   1      -0.054  -0.112   0.125  0.00  0.00    -0.077 A 
ATOM      2  C3  UNL d   1      -1.408  -0.442  -0.033  0.00  0.00     0.002 A 
ATOM      3  C4  UNL d   1      -1.884  -1.687   0.383  0.00  0.00     0.002 A 
ATOM      4  C5  UNL d   1      -1.015  -2.610   0.962  0.00  0.00    -0.004 A 
ATOM      5  C6  UNL d   1       0.333  -2.292   1.121  0.00  0.00     0.002 A 
ATOM      6  C7  UNL d   1       0.811  -1.048   0.705  0.00  0.00     0.002 A 
ENDROOT
BRANCH   1   7
ATOM      7  C1  UNL d   1       0.452   1.248  -0.278  0.00  0.00     0.055 C 
ATOM      8  C   UNL d   1       1.202   1.191  -1.600  0.00  0.00     0.019 C 
ENDBRANCH   1   7
TORSDOF 1
ENDMDL
