MODEL 1
REMARK minimizedAffinity -5.73139238
REMARK minimizedRMSD -1
REMARK  1 active torsions:
REMARK  status: ('A' for Active; 'I' for Inactive)
REMARK    1  A    between atoms: C1_2  and  C2_3 
ROOT
ATOM      1  C2  UNL d   1      -0.380  -0.733   0.697  0.00  0.00    -0.077 A 
ATOM      2  C3  UNL d   1      -1.556  -0.050   1.037  0.00  0.00     0.002 A 
ATOM      3  C4  UNL d   1      -2.594  -0.715   1.693  0.00  0.00     0.002 A 
ATOM      4  C5  UNL d   1      -2.464  -2.063   2.018  0.00  0.00    -0.004 A 
ATOM      5  C6  UNL d   1      -1.299  -2.751   1.682  0.00  0.00     0.002 A 
ATOM      6  C7  UNL d   1      -0.261  -2.089   1.025  0.00  0.00     0.002 A 
ENDROOT
BRANCH   1   7
ATOM      7  C1  UNL d   1       0.760  -0.005   0.033  0.00  0.00     0.055 C 
ATOM      8  C   UNL d   1       0.488   1.490  -0.053  0.00  0.00     0.019 C 
ENDBRANCH   1   7
TORSDOF 1
ENDMDL
