MODEL 1
REMARK minimizedAffinity -5.68705702
REMARK minimizedRMSD -1
REMARK  1 active torsions:
REMARK  status: ('A' for Active; 'I' for Inactive)
REMARK    1  A    between atoms: C1_2  and  C2_3 
ROOT
ATOM      1  C2  UNL d   1      -0.575  -0.866   0.697  0.00  0.00    -0.077 A 
ATOM      2  C3  UNL d   1      -1.660  -0.001   0.895  0.00  0.00     0.002 A 
ATOM      3  C4  UNL d   1      -2.818  -0.454   1.531  0.00  0.00     0.002 A 
ATOM      4  C5  UNL d   1      -2.899  -1.771   1.978  0.00  0.00    -0.004 A 
ATOM      5  C6  UNL d   1      -1.826  -2.640   1.785  0.00  0.00     0.002 A 
ATOM      6  C7  UNL d   1      -0.668  -2.189   1.148  0.00  0.00     0.002 A 
ENDROOT
BRANCH   1   7
ATOM      7  C1  UNL d   1       0.693  -0.366   0.056  0.00  0.00     0.055 C 
ATOM      8  C   UNL d   1       0.768   1.153   0.088  0.00  0.00     0.019 C 
ENDBRANCH   1   7
TORSDOF 1
ENDMDL
