MODEL 1
REMARK minimizedAffinity -4.74285078
REMARK minimizedRMSD -1
REMARK  1 active torsions:
REMARK  status: ('A' for Active; 'I' for Inactive)
REMARK    1  A    between atoms: C1_2  and  C2_3 
ROOT
ATOM      1  C2  UNL d   1      -0.126  -0.077  -0.082  0.00  0.00    -0.077 A 
ATOM      2  C3  UNL d   1      -1.522   0.019  -0.004  0.00  0.00     0.002 A 
ATOM      3  C4  UNL d   1      -2.289  -1.096   0.338  0.00  0.00     0.002 A 
ATOM      4  C5  UNL d   1      -1.669  -2.314   0.609  0.00  0.00    -0.004 A 
ATOM      5  C6  UNL d   1      -0.280  -2.420   0.532  0.00  0.00     0.002 A 
ATOM      6  C7  UNL d   1       0.488  -1.307   0.189  0.00  0.00     0.002 A 
ENDROOT
BRANCH   1   7
ATOM      7  C1  UNL d   1       0.707   1.137  -0.402  0.00  0.00     0.055 C 
ATOM      8  C   UNL d   1       0.583   1.521  -1.870  0.00  0.00     0.019 C 
ENDBRANCH   1   7
TORSDOF 1
ENDMDL
