MODEL 1
REMARK minimizedAffinity -3.89901352
REMARK minimizedRMSD -1
REMARK  1 active torsions:
REMARK  status: ('A' for Active; 'I' for Inactive)
REMARK    1  A    between atoms: C1_2  and  C2_3 
ROOT
ATOM      1  C2  UNL d   1      -0.036  -0.549  -0.191  0.00  0.00    -0.077 A 
ATOM      2  C3  UNL d   1       1.182  -0.793   0.460  0.00  0.00     0.002 A 
ATOM      3  C4  UNL d   1       2.168   0.195   0.508  0.00  0.00     0.002 A 
ATOM      4  C5  UNL d   1       1.944   1.434  -0.088  0.00  0.00    -0.004 A 
ATOM      5  C6  UNL d   1       0.737   1.686  -0.739  0.00  0.00     0.002 A 
ATOM      6  C7  UNL d   1      -0.249   0.700  -0.789  0.00  0.00     0.002 A 
ENDROOT
BRANCH   1   7
ATOM      7  C1  UNL d   1      -1.119  -1.595  -0.201  0.00  0.00     0.055 C 
ATOM      8  C   UNL d   1      -1.137  -2.386   1.099  0.00  0.00     0.019 C 
ENDBRANCH   1   7
TORSDOF 1
ENDMDL
