MODEL 1
REMARK minimizedAffinity 16.1760426
REMARK minimizedRMSD -1
REMARK  0 active torsions:
REMARK  status: ('A' for Active; 'I' for Inactive)
ROOT
ATOM      1  C   UNL d   1      -4.646  -5.484  -5.996  0.00  0.00    -0.002 A 
ATOM      2  C1  UNL d   1      -5.521  -5.975  -5.038  0.00  0.00     0.010 A 
ATOM      3  C2  UNL d   1      -5.986  -5.151  -4.011  0.00  0.00     0.041 A 
ATOM      4  C3  UNL d   1      -5.552  -3.812  -3.963  0.00  0.00    -0.075 A 
ATOM      5  S   UNL d   1      -5.989  -2.619  -2.798  0.00  0.00     0.015 SA
ATOM      6  C4  UNL d   1      -5.024  -1.429  -3.544  0.00  0.00     0.022 A 
ATOM      7  C5  UNL d   1      -4.377  -1.912  -4.656  0.00  0.00     0.026 A 
ATOM      8  C6  UNL d   1      -4.671  -3.294  -4.916  0.00  0.00    -0.082 A 
ATOM      9  C7  UNL d   1      -4.218  -4.155  -5.945  0.00  0.00     0.045 A 
ENDROOT
TORSDOF 0
ENDMDL
