MODEL 1
REMARK minimizedAffinity 7.55192184
REMARK minimizedRMSD -1
REMARK  0 active torsions:
REMARK  status: ('A' for Active; 'I' for Inactive)
ROOT
ATOM      1  C   UNL d   1       3.062  -1.590   2.892  0.00  0.00    -0.002 A 
ATOM      2  C1  UNL d   1       1.690  -1.418   3.009  0.00  0.00     0.010 A 
ATOM      3  C2  UNL d   1       1.051  -0.351   2.374  0.00  0.00     0.041 A 
ATOM      4  C3  UNL d   1       1.821   0.547   1.610  0.00  0.00    -0.075 A 
ATOM      5  S   UNL d   1       1.254   1.925   0.742  0.00  0.00     0.015 SA
ATOM      6  C4  UNL d   1       2.820   2.318   0.195  0.00  0.00     0.022 A 
ATOM      7  C5  UNL d   1       3.764   1.430   0.654  0.00  0.00     0.026 A 
ATOM      8  C6  UNL d   1       3.204   0.395   1.476  0.00  0.00    -0.082 A 
ATOM      9  C7  UNL d   1       3.823  -0.696   2.134  0.00  0.00     0.045 A 
ENDROOT
TORSDOF 0
ENDMDL
