MODEL 1
REMARK minimizedAffinity 18.4562397
REMARK minimizedRMSD -1
REMARK  0 active torsions:
REMARK  status: ('A' for Active; 'I' for Inactive)
ROOT
ATOM      1  C   UNL d   1      -2.516   1.576   0.878  0.00  0.00    -0.002 A 
ATOM      2  C1  UNL d   1      -3.065   2.832   0.663  0.00  0.00     0.010 A 
ATOM      3  C2  UNL d   1      -3.524   3.199  -0.604  0.00  0.00     0.041 A 
ATOM      4  C3  UNL d   1      -3.423   2.273  -1.660  0.00  0.00    -0.075 A 
ATOM      5  S   UNL d   1      -3.921   2.502  -3.295  0.00  0.00     0.015 SA
ATOM      6  C4  UNL d   1      -3.417   0.938  -3.746  0.00  0.00     0.022 A 
ATOM      7  C5  UNL d   1      -2.880   0.244  -2.688  0.00  0.00     0.026 A 
ATOM      8  C6  UNL d   1      -2.875   1.001  -1.468  0.00  0.00    -0.082 A 
ATOM      9  C7  UNL d   1      -2.417   0.659  -0.173  0.00  0.00     0.045 A 
ENDROOT
TORSDOF 0
ENDMDL
