MODEL 1
REMARK minimizedAffinity -2.32396102
REMARK minimizedRMSD -1
REMARK  0 active torsions:
REMARK  status: ('A' for Active; 'I' for Inactive)
ROOT
ATOM      1  C   UNL d   1      -0.632   3.036   0.015  0.00  0.00     0.023 A 
ATOM      2  C1  UNL d   1      -1.827   3.672   0.354  0.00  0.00     0.003 A 
ATOM      3  C2  UNL d   1      -2.717   4.068  -0.646  0.00  0.00     0.048 A 
ATOM      4  C3  UNL d   1      -2.407   3.825  -1.983  0.00  0.00     0.023 A 
ATOM      5  C4  UNL d   1      -1.213   3.188  -2.328  0.00  0.00     0.048 A 
ATOM      6  C5  UNL d   1      -0.326   2.795  -1.324  0.00  0.00     0.003 A 
ATOM      7  I   UNL d   1      -3.730   4.414  -3.474  0.00  0.00    -0.146 I 
ENDROOT
TORSDOF 0
ENDMDL
