MODEL 1
REMARK minimizedAffinity 7.06949329
REMARK minimizedRMSD -1
REMARK  0 active torsions:
REMARK  status: ('A' for Active; 'I' for Inactive)
ROOT
ATOM      1  C   UNL d   1      -0.679   0.686  -3.269  0.00  0.00     0.023 A 
ATOM      2  C1  UNL d   1       0.263  -0.007  -2.509  0.00  0.00     0.003 A 
ATOM      3  C2  UNL d   1       0.466   0.330  -1.169  0.00  0.00     0.048 A 
ATOM      4  C3  UNL d   1      -0.277   1.361  -0.595  0.00  0.00     0.023 A 
ATOM      5  C4  UNL d   1      -1.222   2.057  -1.352  0.00  0.00     0.048 A 
ATOM      6  C5  UNL d   1      -1.420   1.717  -2.691  0.00  0.00     0.003 A 
ATOM      7  I   UNL d   1       0.023   1.864   1.399  0.00  0.00    -0.146 I 
ENDROOT
TORSDOF 0
ENDMDL
