MODEL 1
REMARK minimizedAffinity 7.09890699
REMARK minimizedRMSD -1
REMARK  0 active torsions:
REMARK  status: ('A' for Active; 'I' for Inactive)
ROOT
ATOM      1  C   UNL d   1      -4.143  -0.378   1.871  0.00  0.00     0.023 A 
ATOM      2  C1  UNL d   1      -3.381  -1.252   2.647  0.00  0.00     0.003 A 
ATOM      3  C2  UNL d   1      -3.912  -1.790   3.821  0.00  0.00     0.048 A 
ATOM      4  C3  UNL d   1      -5.206  -1.451   4.213  0.00  0.00     0.023 A 
ATOM      5  C4  UNL d   1      -5.973  -0.578   3.440  0.00  0.00     0.048 A 
ATOM      6  C5  UNL d   1      -5.438  -0.041   2.267  0.00  0.00     0.003 A 
ATOM      7  I   UNL d   1      -5.999  -2.250   5.960  0.00  0.00    -0.146 I 
ENDROOT
TORSDOF 0
ENDMDL
