MODEL 1
REMARK minimizedAffinity 0.951821983
REMARK minimizedRMSD -1
REMARK  0 active torsions:
REMARK  status: ('A' for Active; 'I' for Inactive)
ROOT
ATOM      1  C   UNL d   1       0.616   2.282   2.800  0.00  0.00     0.023 A 
ATOM      2  C1  UNL d   1       0.437   2.908   1.567  0.00  0.00     0.003 A 
ATOM      3  C2  UNL d   1       0.143   2.149   0.433  0.00  0.00     0.048 A 
ATOM      4  C3  UNL d   1       0.029   0.763   0.538  0.00  0.00     0.023 A 
ATOM      5  C4  UNL d   1       0.207   0.132   1.771  0.00  0.00     0.048 A 
ATOM      6  C5  UNL d   1       0.501   0.895   2.902  0.00  0.00     0.003 A 
ATOM      7  I   UNL d   1      -0.408  -0.369  -1.149  0.00  0.00    -0.146 I 
ENDROOT
TORSDOF 0
ENDMDL
