MODEL 1
REMARK minimizedAffinity -1.0159117
REMARK minimizedRMSD -1
REMARK  0 active torsions:
REMARK  status: ('A' for Active; 'I' for Inactive)
ROOT
ATOM      1  C   UNL d   1       0.706   2.659   2.055  0.00  0.00     0.023 A 
ATOM      2  C1  UNL d   1       0.755   3.350   0.843  0.00  0.00     0.003 A 
ATOM      3  C2  UNL d   1       0.620   2.658  -0.362  0.00  0.00     0.048 A 
ATOM      4  C3  UNL d   1       0.436   1.276  -0.349  0.00  0.00     0.023 A 
ATOM      5  C4  UNL d   1       0.385   0.581   0.861  0.00  0.00     0.048 A 
ATOM      6  C5  UNL d   1       0.521   1.277   2.063  0.00  0.00     0.003 A 
ATOM      7  I   UNL d   1       0.235   0.243  -2.142  0.00  0.00    -0.146 I 
ENDROOT
TORSDOF 0
ENDMDL
