MODEL 1
REMARK minimizedAffinity -2.84775066
REMARK minimizedRMSD -1
REMARK  2 active torsions:
REMARK  status: ('A' for Active; 'I' for Inactive)
REMARK    1  A    between atoms: C1_2  and  C2_3 
REMARK    2  A    between atoms: C2_3  and  C3_4 
ROOT
ATOM      1  C3  UNL d   1       2.276   5.908   3.464  0.00  0.00    -0.075 A 
ATOM      2  C4  UNL d   1       3.056   5.999   4.626  0.00  0.00     0.002 A 
ATOM      3  C5  UNL d   1       2.466   5.888   5.885  0.00  0.00     0.002 A 
ATOM      4  C6  UNL d   1       1.091   5.695   6.000  0.00  0.00    -0.004 A 
ATOM      5  C7  UNL d   1       0.304   5.619   4.852  0.00  0.00     0.002 A 
ATOM      6  C8  UNL d   1       0.892   5.725   3.591  0.00  0.00     0.002 A 
ENDROOT
BRANCH   1   7
ATOM      7  C2  UNL d   1       2.912   5.998   2.097  0.00  0.00     0.056 C 
BRANCH   7   8
ATOM      8  C1  UNL d   1       4.184   5.157   1.945  0.00  0.00     0.007 C 
ATOM      9  C   UNL d   1       5.434   5.995   1.716  0.00  0.00     0.009 C 
ENDBRANCH   7   8
ENDBRANCH   1   7
TORSDOF 2
ENDMDL
