MODEL 1
REMARK minimizedAffinity -2.88251972
REMARK minimizedRMSD -1
REMARK  2 active torsions:
REMARK  status: ('A' for Active; 'I' for Inactive)
REMARK    1  A    between atoms: C1_2  and  C2_3 
REMARK    2  A    between atoms: C2_3  and  C3_4 
ROOT
ATOM      1  C3  UNL d   1      -2.056  -0.756   1.910  0.00  0.00    -0.075 A 
ATOM      2  C4  UNL d   1      -1.367  -0.452   0.727  0.00  0.00     0.002 A 
ATOM      3  C5  UNL d   1      -0.056  -0.890   0.538  0.00  0.00     0.002 A 
ATOM      4  C6  UNL d   1       0.585  -1.628   1.530  0.00  0.00    -0.004 A 
ATOM      5  C7  UNL d   1      -0.084  -1.923   2.716  0.00  0.00     0.002 A 
ATOM      6  C8  UNL d   1      -1.397  -1.489   2.907  0.00  0.00     0.002 A 
ENDROOT
BRANCH   1   7
ATOM      7  C2  UNL d   1      -3.485  -0.310   2.109  0.00  0.00     0.056 C 
BRANCH   7   8
ATOM      8  C1  UNL d   1      -4.469  -0.900   1.094  0.00  0.00     0.007 C 
ATOM      9  C   UNL d   1      -5.927  -0.654   1.459  0.00  0.00     0.009 C 
ENDBRANCH   7   8
ENDBRANCH   1   7
TORSDOF 2
ENDMDL
