MODEL 1
REMARK minimizedAffinity 3.44324732
REMARK minimizedRMSD -1
REMARK  2 active torsions:
REMARK  status: ('A' for Active; 'I' for Inactive)
REMARK    1  A    between atoms: C1_2  and  C2_3 
REMARK    2  A    between atoms: C2_3  and  C3_4 
ROOT
ATOM      1  C3  UNL d   1       1.373   2.752  -2.634  0.00  0.00    -0.075 A 
ATOM      2  C4  UNL d   1       2.527   3.509  -2.880  0.00  0.00     0.002 A 
ATOM      3  C5  UNL d   1       3.791   2.981  -2.615  0.00  0.00     0.002 A 
ATOM      4  C6  UNL d   1       3.917   1.696  -2.092  0.00  0.00    -0.004 A 
ATOM      5  C7  UNL d   1       2.777   0.941  -1.828  0.00  0.00     0.002 A 
ATOM      6  C8  UNL d   1       1.511   1.465  -2.096  0.00  0.00     0.002 A 
ENDROOT
BRANCH   1   7
ATOM      7  C2  UNL d   1       0.004   3.306  -2.946  0.00  0.00     0.056 C 
BRANCH   7   8
ATOM      8  C1  UNL d   1      -1.100   2.809  -2.006  0.00  0.00     0.007 C 
ATOM      9  C   UNL d   1      -2.433   2.591  -2.707  0.00  0.00     0.009 C 
ENDBRANCH   7   8
ENDBRANCH   1   7
TORSDOF 2
ENDMDL
