MODEL 1
REMARK minimizedAffinity 2.1527667
REMARK minimizedRMSD -1
REMARK  2 active torsions:
REMARK  status: ('A' for Active; 'I' for Inactive)
REMARK    1  A    between atoms: C1_2  and  C2_3 
REMARK    2  A    between atoms: C2_3  and  C3_4 
ROOT
ATOM      1  C3  UNL d   1      -0.454  -1.090   1.061  0.00  0.00    -0.075 A 
ATOM      2  C4  UNL d   1      -1.777  -0.712   0.788  0.00  0.00     0.002 A 
ATOM      3  C5  UNL d   1      -2.147  -0.308  -0.495  0.00  0.00     0.002 A 
ATOM      4  C6  UNL d   1      -1.200  -0.267  -1.517  0.00  0.00    -0.004 A 
ATOM      5  C7  UNL d   1       0.120  -0.625  -1.253  0.00  0.00     0.002 A 
ATOM      6  C8  UNL d   1       0.492  -1.034   0.029  0.00  0.00     0.002 A 
ENDROOT
BRANCH   1   7
ATOM      7  C2  UNL d   1      -0.053  -1.556   2.440  0.00  0.00     0.056 C 
BRANCH   7   8
ATOM      8  C1  UNL d   1      -0.506  -2.981   2.773  0.00  0.00     0.007 C 
ATOM      9  C   UNL d   1      -1.792  -3.027   3.589  0.00  0.00     0.009 C 
ENDBRANCH   7   8
ENDBRANCH   1   7
TORSDOF 2
ENDMDL
