MODEL 1
REMARK minimizedAffinity -1.14239228
REMARK minimizedRMSD -1
REMARK  2 active torsions:
REMARK  status: ('A' for Active; 'I' for Inactive)
REMARK    1  A    between atoms: C1_2  and  C2_3 
REMARK    2  A    between atoms: C2_3  and  C3_4 
ROOT
ATOM      1  C3  UNL d   1      -0.546  -1.269   1.110  0.00  0.00    -0.075 A 
ATOM      2  C4  UNL d   1       0.446  -1.653   0.196  0.00  0.00     0.002 A 
ATOM      3  C5  UNL d   1       1.361  -2.653   0.523  0.00  0.00     0.002 A 
ATOM      4  C6  UNL d   1       1.304  -3.274   1.769  0.00  0.00    -0.004 A 
ATOM      5  C7  UNL d   1       0.333  -2.889   2.691  0.00  0.00     0.002 A 
ATOM      6  C8  UNL d   1      -0.587  -1.891   2.365  0.00  0.00     0.002 A 
ENDROOT
BRANCH   1   7
ATOM      7  C2  UNL d   1      -1.559  -0.207   0.751  0.00  0.00     0.056 C 
BRANCH   7   8
ATOM      8  C1  UNL d   1      -2.747  -0.729  -0.064  0.00  0.00     0.007 C 
ATOM      9  C   UNL d   1      -3.963  -1.058   0.791  0.00  0.00     0.009 C 
ENDBRANCH   7   8
ENDBRANCH   1   7
TORSDOF 2
ENDMDL
