MODEL 1
REMARK minimizedAffinity -0.282868057
REMARK minimizedRMSD -1
REMARK  2 active torsions:
REMARK  status: ('A' for Active; 'I' for Inactive)
REMARK    1  A    between atoms: C1_2  and  C2_3 
REMARK    2  A    between atoms: C2_3  and  C3_4 
ROOT
ATOM      1  C3  UNL d   1       0.026  -0.332   0.019  0.00  0.00    -0.075 A 
ATOM      2  C4  UNL d   1       0.636  -1.538  -0.357  0.00  0.00     0.002 A 
ATOM      3  C5  UNL d   1       1.979  -1.565  -0.732  0.00  0.00     0.002 A 
ATOM      4  C6  UNL d   1       2.726  -0.389  -0.747  0.00  0.00    -0.004 A 
ATOM      5  C7  UNL d   1       2.126   0.817  -0.392  0.00  0.00     0.002 A 
ATOM      6  C8  UNL d   1       0.783   0.847  -0.012  0.00  0.00     0.002 A 
ENDROOT
BRANCH   1   7
ATOM      7  C2  UNL d   1      -1.420  -0.300   0.454  0.00  0.00     0.056 C 
BRANCH   7   8
ATOM      8  C1  UNL d   1      -1.619   0.072   1.927  0.00  0.00     0.007 C 
ATOM      9  C   UNL d   1      -1.232  -1.046   2.887  0.00  0.00     0.009 C 
ENDBRANCH   7   8
ENDBRANCH   1   7
TORSDOF 2
ENDMDL
