MODEL 1
REMARK minimizedAffinity -3.60930967
REMARK minimizedRMSD -1
REMARK  0 active torsions:
REMARK  status: ('A' for Active; 'I' for Inactive)
ROOT
ATOM      1  C   UNL d   1       1.146   2.559   1.496  0.00  0.00     0.023 A 
ATOM      2  C1  UNL d   1       0.068   1.845   2.021  0.00  0.00     0.003 A 
ATOM      3  C2  UNL d   1      -0.536   0.836   1.268  0.00  0.00     0.048 A 
ATOM      4  C3  UNL d   1      -0.057   0.545  -0.009  0.00  0.00     0.023 A 
ATOM      5  C4  UNL d   1       1.021   1.256  -0.538  0.00  0.00     0.048 A 
ATOM      6  C5  UNL d   1       1.622   2.265   0.218  0.00  0.00     0.003 A 
ATOM      7  I   UNL d   1      -0.955  -0.956  -1.132  0.00  0.00    -0.146 I 
ENDROOT
TORSDOF 0
ENDMDL
