MODEL 1
REMARK minimizedAffinity -2.68720746
REMARK minimizedRMSD -1
REMARK  0 active torsions:
REMARK  status: ('A' for Active; 'I' for Inactive)
ROOT
ATOM      1  C   UNL d   1       0.703   2.353   1.824  0.00  0.00     0.023 A 
ATOM      2  C1  UNL d   1       1.469   1.971   0.722  0.00  0.00     0.003 A 
ATOM      3  C2  UNL d   1       1.119   0.837  -0.014  0.00  0.00     0.048 A 
ATOM      4  C3  UNL d   1       0.001   0.090   0.357  0.00  0.00     0.023 A 
ATOM      5  C4  UNL d   1      -0.769   0.469   1.457  0.00  0.00     0.048 A 
ATOM      6  C5  UNL d   1      -0.414   1.603   2.191  0.00  0.00     0.003 A 
ATOM      7  I   UNL d   1      -0.521  -1.598  -0.737  0.00  0.00    -0.146 I 
ENDROOT
TORSDOF 0
ENDMDL
