MODEL 1
REMARK minimizedAffinity 1.35156751
REMARK minimizedRMSD -1
REMARK  0 active torsions:
REMARK  status: ('A' for Active; 'I' for Inactive)
ROOT
ATOM      1  C   UNL d   1      -0.672  -1.259   0.132  0.00  0.00     0.023 A 
ATOM      2  C1  UNL d   1      -1.136  -0.605   1.273  0.00  0.00     0.003 A 
ATOM      3  C2  UNL d   1      -0.632   0.652   1.612  0.00  0.00     0.048 A 
ATOM      4  C3  UNL d   1       0.334   1.251   0.804  0.00  0.00     0.023 A 
ATOM      5  C4  UNL d   1       0.801   0.600  -0.340  0.00  0.00     0.048 A 
ATOM      6  C5  UNL d   1       0.295  -0.657  -0.674  0.00  0.00     0.003 A 
ATOM      7  I   UNL d   1       1.085   3.122   1.306  0.00  0.00    -0.146 I 
ENDROOT
TORSDOF 0
ENDMDL
