MODEL 1
REMARK minimizedAffinity -2.53263259
REMARK minimizedRMSD -1
REMARK  0 active torsions:
REMARK  status: ('A' for Active; 'I' for Inactive)
ROOT
ATOM      1  C   UNL d   1      -0.766   1.864   1.625  0.00  0.00     0.023 A 
ATOM      2  C1  UNL d   1       0.070   2.490   0.701  0.00  0.00     0.003 A 
ATOM      3  C2  UNL d   1       1.006   1.742  -0.015  0.00  0.00     0.048 A 
ATOM      4  C3  UNL d   1       1.101   0.367   0.197  0.00  0.00     0.023 A 
ATOM      5  C4  UNL d   1       0.266  -0.264   1.120  0.00  0.00     0.048 A 
ATOM      6  C5  UNL d   1      -0.669   0.488   1.835  0.00  0.00     0.003 A 
ATOM      7  I   UNL d   1       2.494  -0.749  -0.868  0.00  0.00    -0.146 I 
ENDROOT
TORSDOF 0
ENDMDL
