MODEL 1
REMARK minimizedAffinity -4.18924761
REMARK minimizedRMSD -1
REMARK  0 active torsions:
REMARK  status: ('A' for Active; 'I' for Inactive)
ROOT
ATOM      1  C   UNL d   1       0.545   2.747   1.580  0.00  0.00     0.023 A 
ATOM      2  C1  UNL d   1      -0.003   2.995   0.322  0.00  0.00     0.003 A 
ATOM      3  C2  UNL d   1      -0.350   1.930  -0.512  0.00  0.00     0.048 A 
ATOM      4  C3  UNL d   1      -0.147   0.619  -0.080  0.00  0.00     0.023 A 
ATOM      5  C4  UNL d   1       0.401   0.367   1.179  0.00  0.00     0.048 A 
ATOM      6  C5  UNL d   1       0.747   1.435   2.008  0.00  0.00     0.003 A 
ATOM      7  I   UNL d   1      -0.663  -0.968  -1.319  0.00  0.00    -0.146 I 
ENDROOT
TORSDOF 0
ENDMDL
