MODEL 1
REMARK minimizedAffinity 0.518112481
REMARK minimizedRMSD -1
REMARK  0 active torsions:
REMARK  status: ('A' for Active; 'I' for Inactive)
ROOT
ATOM      1  C   UNL d   1       1.649  -1.137  -0.937  0.00  0.00     0.023 A 
ATOM      2  C1  UNL d   1       0.381  -1.663  -0.686  0.00  0.00     0.003 A 
ATOM      3  C2  UNL d   1      -0.495  -0.996   0.172  0.00  0.00     0.048 A 
ATOM      4  C3  UNL d   1      -0.098   0.196   0.776  0.00  0.00     0.023 A 
ATOM      5  C4  UNL d   1       1.169   0.727   0.528  0.00  0.00     0.048 A 
ATOM      6  C5  UNL d   1       2.042   0.056  -0.330  0.00  0.00     0.003 A 
ATOM      7  I   UNL d   1      -1.401   1.190   2.055  0.00  0.00    -0.146 I 
ENDROOT
TORSDOF 0
ENDMDL
