MODEL 1
REMARK minimizedAffinity -2.81739402
REMARK minimizedRMSD -1
REMARK  0 active torsions:
REMARK  status: ('A' for Active; 'I' for Inactive)
ROOT
ATOM      1  C   UNL d   1       0.473   1.254   1.087  0.00  0.00     0.023 A 
ATOM      2  C1  UNL d   1      -0.617   0.435   1.385  0.00  0.00     0.003 A 
ATOM      3  C2  UNL d   1      -1.093  -0.469   0.433  0.00  0.00     0.048 A 
ATOM      4  C3  UNL d   1      -0.475  -0.549  -0.814  0.00  0.00     0.023 A 
ATOM      5  C4  UNL d   1       0.616   0.267  -1.116  0.00  0.00     0.048 A 
ATOM      6  C5  UNL d   1       1.088   1.170  -0.162  0.00  0.00     0.003 A 
ATOM      7  I   UNL d   1      -1.182  -1.894  -2.232  0.00  0.00    -0.146 I 
ENDROOT
TORSDOF 0
ENDMDL
