MODEL 1
REMARK minimizedAffinity -0.665142715
REMARK minimizedRMSD -1
REMARK  0 active torsions:
REMARK  status: ('A' for Active; 'I' for Inactive)
ROOT
ATOM      1  C   UNL d   1       0.522   1.965   1.735  0.00  0.00     0.023 A 
ATOM      2  C1  UNL d   1      -0.545   1.143   2.100  0.00  0.00     0.003 A 
ATOM      3  C2  UNL d   1      -0.958   0.114   1.251  0.00  0.00     0.048 A 
ATOM      4  C3  UNL d   1      -0.298  -0.088   0.039  0.00  0.00     0.023 A 
ATOM      5  C4  UNL d   1       0.770   0.730  -0.330  0.00  0.00     0.048 A 
ATOM      6  C5  UNL d   1       1.179   1.759   0.522  0.00  0.00     0.003 A 
ATOM      7  I   UNL d   1      -0.910  -1.619  -1.227  0.00  0.00    -0.146 I 
ENDROOT
TORSDOF 0
ENDMDL
