MODEL 1
REMARK minimizedAffinity -3.58848596
REMARK minimizedRMSD -1
REMARK  0 active torsions:
REMARK  status: ('A' for Active; 'I' for Inactive)
ROOT
ATOM      1  C   UNL d   1       0.681   1.889   1.802  0.00  0.00     0.023 A 
ATOM      2  C1  UNL d   1       1.057   2.043   0.467  0.00  0.00     0.003 A 
ATOM      3  C2  UNL d   1       0.529   1.197  -0.510  0.00  0.00     0.048 A 
ATOM      4  C3  UNL d   1      -0.375   0.200  -0.146  0.00  0.00     0.023 A 
ATOM      5  C4  UNL d   1      -0.755   0.043   1.188  0.00  0.00     0.048 A 
ATOM      6  C5  UNL d   1      -0.224   0.891   2.162  0.00  0.00     0.003 A 
ATOM      7  I   UNL d   1      -1.163  -1.060  -1.599  0.00  0.00    -0.146 I 
ENDROOT
TORSDOF 0
ENDMDL
