MODEL 1
REMARK minimizedAffinity -2.9466331
REMARK minimizedRMSD -1
REMARK  0 active torsions:
REMARK  status: ('A' for Active; 'I' for Inactive)
ROOT
ATOM      1  C   UNL d   1      -1.157  -1.848  -2.635  0.00  0.00     0.023 A 
ATOM      2  C1  UNL d   1       0.004  -1.897  -1.864  0.00  0.00     0.003 A 
ATOM      3  C2  UNL d   1       0.140  -1.066  -0.750  0.00  0.00     0.048 A 
ATOM      4  C3  UNL d   1      -0.890  -0.189  -0.412  0.00  0.00     0.023 A 
ATOM      5  C4  UNL d   1      -2.054  -0.136  -1.180  0.00  0.00     0.048 A 
ATOM      6  C5  UNL d   1      -2.185  -0.968  -2.294  0.00  0.00     0.003 A 
ATOM      7  I   UNL d   1      -0.690   1.049   1.246  0.00  0.00    -0.146 I 
ENDROOT
TORSDOF 0
ENDMDL
