MODEL 1
REMARK minimizedAffinity -1.24122405
REMARK minimizedRMSD -1
REMARK  0 active torsions:
REMARK  status: ('A' for Active; 'I' for Inactive)
ROOT
ATOM      1  C   UNL d   1       0.440   1.857   1.926  0.00  0.00     0.023 A 
ATOM      2  C1  UNL d   1      -0.629   1.027   2.263  0.00  0.00     0.003 A 
ATOM      3  C2  UNL d   1      -1.100   0.086   1.346  0.00  0.00     0.048 A 
ATOM      4  C3  UNL d   1      -0.498  -0.021   0.093  0.00  0.00     0.023 A 
ATOM      5  C4  UNL d   1       0.573   0.806  -0.249  0.00  0.00     0.048 A 
ATOM      6  C5  UNL d   1       1.041   1.747   0.671  0.00  0.00     0.003 A 
ATOM      7  I   UNL d   1      -1.197  -1.422  -1.274  0.00  0.00    -0.146 I 
ENDROOT
TORSDOF 0
ENDMDL
