MODEL 1
REMARK minimizedAffinity -2.92412329
REMARK minimizedRMSD -1
REMARK  0 active torsions:
REMARK  status: ('A' for Active; 'I' for Inactive)
ROOT
ATOM      1  C   UNL d   1       0.830   2.464   1.747  0.00  0.00     0.023 A 
ATOM      2  C1  UNL d   1       1.534   2.192   0.574  0.00  0.00     0.003 A 
ATOM      3  C2  UNL d   1       1.176   1.100  -0.220  0.00  0.00     0.048 A 
ATOM      4  C3  UNL d   1       0.112   0.286   0.165  0.00  0.00     0.023 A 
ATOM      5  C4  UNL d   1      -0.596   0.555   1.337  0.00  0.00     0.048 A 
ATOM      6  C5  UNL d   1      -0.234   1.647   2.128  0.00  0.00     0.003 A 
ATOM      7  I   UNL d   1      -0.423  -1.340  -1.015  0.00  0.00    -0.146 I 
ENDROOT
TORSDOF 0
ENDMDL
