MODEL 1
REMARK minimizedAffinity -3.92800117
REMARK minimizedRMSD -1
REMARK  0 active torsions:
REMARK  status: ('A' for Active; 'I' for Inactive)
ROOT
ATOM      1  C   UNL d   1       1.293   2.429   1.381  0.00  0.00     0.023 A 
ATOM      2  C1  UNL d   1       0.201   1.795   1.973  0.00  0.00     0.003 A 
ATOM      3  C2  UNL d   1      -0.491   0.800   1.280  0.00  0.00     0.048 A 
ATOM      4  C3  UNL d   1      -0.085   0.442  -0.005  0.00  0.00     0.023 A 
ATOM      5  C4  UNL d   1       1.008   1.073  -0.602  0.00  0.00     0.048 A 
ATOM      6  C5  UNL d   1       1.696   2.068   0.095  0.00  0.00     0.003 A 
ATOM      7  I   UNL d   1      -1.113  -1.039  -1.038  0.00  0.00    -0.146 I 
ENDROOT
TORSDOF 0
ENDMDL
