MODEL 1
REMARK minimizedAffinity -2.03043056
REMARK minimizedRMSD -1
REMARK  0 active torsions:
REMARK  status: ('A' for Active; 'I' for Inactive)
ROOT
ATOM      1  C   UNL d   1       1.317   2.562   1.213  0.00  0.00     0.023 A 
ATOM      2  C1  UNL d   1       1.799   1.936   0.063  0.00  0.00     0.003 A 
ATOM      3  C2  UNL d   1       1.251   0.722  -0.355  0.00  0.00     0.048 A 
ATOM      4  C3  UNL d   1       0.219   0.140   0.381  0.00  0.00     0.023 A 
ATOM      5  C4  UNL d   1      -0.267   0.763   1.531  0.00  0.00     0.048 A 
ATOM      6  C5  UNL d   1       0.285   1.977   1.946  0.00  0.00     0.003 A 
ATOM      7  I   UNL d   1      -0.600  -1.667  -0.239  0.00  0.00    -0.146 I 
ENDROOT
TORSDOF 0
ENDMDL
