MODEL 1
REMARK minimizedAffinity 0.953809857
REMARK minimizedRMSD -1
REMARK  0 active torsions:
REMARK  status: ('A' for Active; 'I' for Inactive)
ROOT
ATOM      1  C   UNL d   1      -1.251   4.167  -0.673  0.00  0.00     0.077 C 
ATOM      2  C1  UNL d   1       0.084   4.005  -0.009  0.00  0.00    -0.074 A 
ATOM      3  C2  UNL d   1       1.232   4.592  -0.551  0.00  0.00    -0.005 A 
ATOM      4  C3  UNL d   1       2.466   4.440   0.082  0.00  0.00     0.006 A 
ATOM      5  C4  UNL d   1       2.563   3.702   1.263  0.00  0.00    -0.005 A 
ATOM      6  C5  UNL d   1       1.426   3.109   1.820  0.00  0.00    -0.074 A 
ATOM      7  C6  UNL d   1       1.511   2.321   3.093  0.00  0.00     0.077 C 
ATOM      8  C7  UNL d   1       0.189   3.272   1.181  0.00  0.00    -0.001 A 
ENDROOT
TORSDOF 0
ENDMDL
