MODEL 1
REMARK minimizedAffinity -2.56647658
REMARK minimizedRMSD -1
REMARK  0 active torsions:
REMARK  status: ('A' for Active; 'I' for Inactive)
ROOT
ATOM      1  C   UNL d   1      -5.924   0.857  -5.952  0.00  0.00     0.077 C 
ATOM      2  C1  UNL d   1      -5.944   2.187  -5.259  0.00  0.00    -0.074 A 
ATOM      3  C2  UNL d   1      -5.967   3.379  -5.991  0.00  0.00    -0.005 A 
ATOM      4  C3  UNL d   1      -5.995   4.608  -5.333  0.00  0.00     0.006 A 
ATOM      5  C4  UNL d   1      -6.000   4.659  -3.938  0.00  0.00    -0.005 A 
ATOM      6  C5  UNL d   1      -5.978   3.478  -3.190  0.00  0.00    -0.074 A 
ATOM      7  C6  UNL d   1      -5.993   3.514  -1.690  0.00  0.00     0.077 C 
ATOM      8  C7  UNL d   1      -5.957   2.246  -3.859  0.00  0.00    -0.001 A 
ENDROOT
TORSDOF 0
ENDMDL
