MODEL 1
REMARK minimizedAffinity -0.919109285
REMARK minimizedRMSD -1
REMARK  0 active torsions:
REMARK  status: ('A' for Active; 'I' for Inactive)
ROOT
ATOM      1  C   UNL d   1      -6.000   0.761  -5.877  0.00  0.00     0.077 C 
ATOM      2  C1  UNL d   1      -5.992   2.064  -5.135  0.00  0.00    -0.074 A 
ATOM      3  C2  UNL d   1      -5.996   3.282  -5.823  0.00  0.00    -0.005 A 
ATOM      4  C3  UNL d   1      -5.998   4.487  -5.119  0.00  0.00     0.006 A 
ATOM      5  C4  UNL d   1      -5.995   4.485  -3.724  0.00  0.00    -0.005 A 
ATOM      6  C5  UNL d   1      -5.991   3.277  -3.019  0.00  0.00    -0.074 A 
ATOM      7  C6  UNL d   1      -5.998   3.258  -1.520  0.00  0.00     0.077 C 
ATOM      8  C7  UNL d   1      -5.997   2.071  -3.733  0.00  0.00    -0.001 A 
ENDROOT
TORSDOF 0
ENDMDL
