MODEL 1
REMARK minimizedAffinity 13.6056833
REMARK minimizedRMSD -1
REMARK  0 active torsions:
REMARK  status: ('A' for Active; 'I' for Inactive)
ROOT
ATOM      1  C   UNL d   1       5.999  -2.481  -1.127  0.00  0.00     0.077 C 
ATOM      2  C1  UNL d   1       5.309  -3.714  -1.629  0.00  0.00    -0.074 A 
ATOM      3  C2  UNL d   1       4.810  -4.671  -0.740  0.00  0.00    -0.005 A 
ATOM      4  C3  UNL d   1       4.161  -5.808  -1.221  0.00  0.00     0.006 A 
ATOM      5  C4  UNL d   1       4.006  -6.000  -2.595  0.00  0.00    -0.005 A 
ATOM      6  C5  UNL d   1       4.498  -5.054  -3.499  0.00  0.00    -0.074 A 
ATOM      7  C6  UNL d   1       4.330  -5.240  -4.978  0.00  0.00     0.077 C 
ATOM      8  C7  UNL d   1       5.142  -3.910  -3.007  0.00  0.00    -0.001 A 
ENDROOT
TORSDOF 0
ENDMDL
