MODEL 1
REMARK minimizedAffinity 6.79133987
REMARK minimizedRMSD -1
REMARK  0 active torsions:
REMARK  status: ('A' for Active; 'I' for Inactive)
ROOT
ATOM      1  C   UNL d   1       0.758  -4.479  -5.976  0.00  0.00     0.077 C 
ATOM      2  C1  UNL d   1      -0.684  -4.211  -5.662  0.00  0.00    -0.074 A 
ATOM      3  C2  UNL d   1      -1.082  -2.997  -5.093  0.00  0.00    -0.005 A 
ATOM      4  C3  UNL d   1      -2.428  -2.758  -4.815  0.00  0.00     0.006 A 
ATOM      5  C4  UNL d   1      -3.387  -3.729  -5.103  0.00  0.00    -0.005 A 
ATOM      6  C5  UNL d   1      -3.008  -4.949  -5.673  0.00  0.00    -0.074 A 
ATOM      7  C6  UNL d   1      -4.028  -5.999  -5.998  0.00  0.00     0.077 C 
ATOM      8  C7  UNL d   1      -1.655  -5.178  -5.956  0.00  0.00    -0.001 A 
ENDROOT
TORSDOF 0
ENDMDL
