MODEL 1
REMARK minimizedAffinity 10.9489985
REMARK minimizedRMSD -1
REMARK  0 active torsions:
REMARK  status: ('A' for Active; 'I' for Inactive)
ROOT
ATOM      1  C   UNL d   1      -4.550  -3.013   5.774  0.00  0.00     0.077 C 
ATOM      2  C1  UNL d   1      -4.833  -1.623   5.288  0.00  0.00    -0.074 A 
ATOM      3  C2  UNL d   1      -5.729  -0.792   5.967  0.00  0.00    -0.005 A 
ATOM      4  C3  UNL d   1      -5.974   0.503   5.509  0.00  0.00     0.006 A 
ATOM      5  C4  UNL d   1      -5.327   0.978   4.368  0.00  0.00    -0.005 A 
ATOM      6  C5  UNL d   1      -4.426   0.162   3.676  0.00  0.00    -0.074 A 
ATOM      7  C6  UNL d   1      -3.714   0.661   2.454  0.00  0.00     0.077 C 
ATOM      8  C7  UNL d   1      -4.180  -1.135   4.147  0.00  0.00    -0.001 A 
ENDROOT
TORSDOF 0
ENDMDL
