MODEL 1
REMARK minimizedAffinity 1.06683087
REMARK minimizedRMSD -1
REMARK  0 active torsions:
REMARK  status: ('A' for Active; 'I' for Inactive)
ROOT
ATOM      1  C   UNL d   1      -6.000   2.881  -1.405  0.00  0.00     0.077 C 
ATOM      2  C1  UNL d   1      -5.419   2.422  -2.710  0.00  0.00    -0.074 A 
ATOM      3  C2  UNL d   1      -4.342   3.096  -3.294  0.00  0.00    -0.005 A 
ATOM      4  C3  UNL d   1      -3.807   2.652  -4.503  0.00  0.00     0.006 A 
ATOM      5  C4  UNL d   1      -4.342   1.532  -5.139  0.00  0.00    -0.005 A 
ATOM      6  C5  UNL d   1      -5.419   0.844  -4.570  0.00  0.00    -0.074 A 
ATOM      7  C6  UNL d   1      -6.000  -0.368  -5.235  0.00  0.00     0.077 C 
ATOM      8  C7  UNL d   1      -5.947   1.293  -3.351  0.00  0.00    -0.001 A 
ENDROOT
TORSDOF 0
ENDMDL
