MODEL 1
REMARK minimizedAffinity 11.4250088
REMARK minimizedRMSD -1
REMARK  0 active torsions:
REMARK  status: ('A' for Active; 'I' for Inactive)
ROOT
ATOM      1  C   UNL d   1       5.979  -5.978   0.750  0.00  0.00     0.077 C 
ATOM      2  C1  UNL d   1       5.533  -5.110  -0.390  0.00  0.00    -0.074 A 
ATOM      3  C2  UNL d   1       5.650  -3.718  -0.322  0.00  0.00    -0.005 A 
ATOM      4  C3  UNL d   1       5.240  -2.925  -1.393  0.00  0.00     0.006 A 
ATOM      5  C4  UNL d   1       4.709  -3.514  -2.541  0.00  0.00    -0.005 A 
ATOM      6  C5  UNL d   1       4.584  -4.905  -2.627  0.00  0.00    -0.074 A 
ATOM      7  C6  UNL d   1       4.025  -5.555  -3.857  0.00  0.00     0.077 C 
ATOM      8  C7  UNL d   1       5.005  -5.696  -1.549  0.00  0.00    -0.001 A 
ENDROOT
TORSDOF 0
ENDMDL
