MODEL 1
REMARK minimizedAffinity 6.79045868
REMARK minimizedRMSD -1
REMARK  0 active torsions:
REMARK  status: ('A' for Active; 'I' for Inactive)
ROOT
ATOM      1  C   UNL d   1      -6.000   3.091  -0.720  0.00  0.00     0.077 C 
ATOM      2  C1  UNL d   1      -5.359   3.690  -1.936  0.00  0.00    -0.074 A 
ATOM      3  C2  UNL d   1      -5.999   3.653  -3.179  0.00  0.00    -0.005 A 
ATOM      4  C3  UNL d   1      -5.395   4.223  -4.299  0.00  0.00     0.006 A 
ATOM      5  C4  UNL d   1      -4.146   4.836  -4.188  0.00  0.00    -0.005 A 
ATOM      6  C5  UNL d   1      -3.491   4.884  -2.954  0.00  0.00    -0.074 A 
ATOM      7  C6  UNL d   1      -2.153   5.547  -2.815  0.00  0.00     0.077 C 
ATOM      8  C7  UNL d   1      -4.108   4.314  -1.831  0.00  0.00    -0.001 A 
ENDROOT
TORSDOF 0
ENDMDL
