MODEL 1
REMARK minimizedAffinity -6.07074785
REMARK minimizedRMSD -1
REMARK  2 active torsions:
REMARK  status: ('A' for Active; 'I' for Inactive)
REMARK    1  A    between atoms: C2'_3  and  C1'_4 
REMARK    2  A    between atoms: C1'_4  and  C1_5 
ROOT
ATOM      1  C1  I4B d   1       0.474  -0.117   0.063  0.00  0.00    -0.075 A 
ATOM      2  C2  I4B d   1       0.208  -0.703   1.276  0.00  0.00     0.003 A 
ATOM      3  C3  I4B d   1      -0.774  -0.152   2.134  0.00  0.00     0.002 A 
ATOM      4  C4  I4B d   1      -1.427   1.006   1.764  0.00  0.00    -0.004 A 
ATOM      5  C5  I4B d   1      -1.173   1.585   0.524  0.00  0.00     0.002 A 
ATOM      6  C6  I4B d   1      -0.226   1.014  -0.338  0.00  0.00     0.003 A 
ENDROOT
BRANCH   1   7
ATOM      7  C1' I4B d   1       1.541  -0.707  -0.804  0.00  0.00     0.060 C 
BRANCH   7   8
ATOM      8  C2' I4B d   1       1.163  -2.144  -1.097  0.00  0.00    -0.013 C 
ATOM      9  C4' I4B d   1       0.595  -2.286  -2.484  0.00  0.00     0.013 C 
ATOM     10  C3' I4B d   1       2.390  -2.989  -0.925  0.00  0.00     0.013 C 
ENDBRANCH   7   8
ENDBRANCH   1   7
TORSDOF 2
ENDMDL
