MODEL 1
REMARK minimizedAffinity -1.60247612
REMARK minimizedRMSD -1
REMARK  2 active torsions:
REMARK  status: ('A' for Active; 'I' for Inactive)
REMARK    1  A    between atoms: C2'_3  and  C1'_4 
REMARK    2  A    between atoms: C1'_4  and  C1_5 
ROOT
ATOM      1  C1  I4B d   1      -0.704   0.594   1.115  0.00  0.00    -0.075 A 
ATOM      2  C2  I4B d   1      -1.671   0.897   0.190  0.00  0.00     0.003 A 
ATOM      3  C3  I4B d   1      -2.486   2.043   0.359  0.00  0.00     0.002 A 
ATOM      4  C4  I4B d   1      -2.333   2.824   1.486  0.00  0.00    -0.004 A 
ATOM      5  C5  I4B d   1      -1.336   2.528   2.411  0.00  0.00     0.002 A 
ATOM      6  C6  I4B d   1      -0.508   1.413   2.219  0.00  0.00     0.003 A 
ENDROOT
BRANCH   1   7
ATOM      7  C1' I4B d   1       0.116  -0.642   0.922  0.00  0.00     0.060 C 
BRANCH   7   8
ATOM      8  C2' I4B d   1       0.535  -0.702  -0.533  0.00  0.00    -0.013 C 
ATOM      9  C4' I4B d   1       1.566   0.350  -0.848  0.00  0.00     0.013 C 
ATOM     10  C3' I4B d   1       1.065  -2.078  -0.806  0.00  0.00     0.013 C 
ENDBRANCH   7   8
ENDBRANCH   1   7
TORSDOF 2
ENDMDL
