MODEL 1
REMARK minimizedAffinity -5.45254612
REMARK minimizedRMSD -1
REMARK  2 active torsions:
REMARK  status: ('A' for Active; 'I' for Inactive)
REMARK    1  A    between atoms: C2'_3  and  C1'_4 
REMARK    2  A    between atoms: C1'_4  and  C1_5 
ROOT
ATOM      1  C1  I4B d   1       0.489  -0.328  -0.151  0.00  0.00    -0.075 A 
ATOM      2  C2  I4B d   1       0.521  -0.532   1.206  0.00  0.00     0.003 A 
ATOM      3  C3  I4B d   1      -0.356   0.185   2.055  0.00  0.00     0.002 A 
ATOM      4  C4  I4B d   1      -1.207   1.127   1.514  0.00  0.00    -0.004 A 
ATOM      5  C5  I4B d   1      -1.254   1.317   0.136  0.00  0.00     0.002 A 
ATOM      6  C6  I4B d   1      -0.410   0.576  -0.703  0.00  0.00     0.003 A 
ENDROOT
BRANCH   1   7
ATOM      7  C1' I4B d   1       1.451  -1.078  -1.016  0.00  0.00     0.060 C 
BRANCH   7   8
ATOM      8  C2' I4B d   1       0.816  -2.405  -1.379  0.00  0.00    -0.013 C 
ATOM      9  C4' I4B d   1       0.551  -2.496  -2.858  0.00  0.00     0.013 C 
ATOM     10  C3' I4B d   1       1.737  -3.498  -0.925  0.00  0.00     0.013 C 
ENDBRANCH   7   8
ENDBRANCH   1   7
TORSDOF 2
ENDMDL
