MODEL 1
REMARK minimizedAffinity -5.11036396
REMARK minimizedRMSD -1
REMARK  2 active torsions:
REMARK  status: ('A' for Active; 'I' for Inactive)
REMARK    1  A    between atoms: C2'_3  and  C1'_4 
REMARK    2  A    between atoms: C1'_4  and  C1_5 
ROOT
ATOM      1  C1  I4B d   1       0.372  -0.075  -0.122  0.00  0.00    -0.075 A 
ATOM      2  C2  I4B d   1      -0.363   1.024  -0.490  0.00  0.00     0.003 A 
ATOM      3  C3  I4B d   1      -1.201   1.669   0.451  0.00  0.00     0.002 A 
ATOM      4  C4  I4B d   1      -1.312   1.155   1.727  0.00  0.00    -0.004 A 
ATOM      5  C5  I4B d   1      -0.549   0.054   2.105  0.00  0.00     0.002 A 
ATOM      6  C6  I4B d   1       0.308  -0.558   1.179  0.00  0.00     0.003 A 
ENDROOT
BRANCH   1   7
ATOM      7  C1' I4B d   1       1.221  -0.752  -1.150  0.00  0.00     0.060 C 
BRANCH   7   8
ATOM      8  C2' I4B d   1       0.546  -2.054  -1.531  0.00  0.00    -0.013 C 
ATOM      9  C4' I4B d   1       0.009  -1.999  -2.937  0.00  0.00     0.013 C 
ATOM     10  C3' I4B d   1       1.548  -3.158  -1.377  0.00  0.00     0.013 C 
ENDBRANCH   7   8
ENDBRANCH   1   7
TORSDOF 2
ENDMDL
