MODEL 1
REMARK minimizedAffinity -4.94423628
REMARK minimizedRMSD -1
REMARK  2 active torsions:
REMARK  status: ('A' for Active; 'I' for Inactive)
REMARK    1  A    between atoms: C2'_3  and  C1'_4 
REMARK    2  A    between atoms: C1'_4  and  C1_5 
ROOT
ATOM      1  C1  I4B d   1       0.396  -0.468  -0.225  0.00  0.00    -0.075 A 
ATOM      2  C2  I4B d   1      -0.497   0.426  -0.761  0.00  0.00     0.003 A 
ATOM      3  C3  I4B d   1      -1.411   1.110   0.077  0.00  0.00     0.002 A 
ATOM      4  C4  I4B d   1      -1.431   0.833   1.429  0.00  0.00    -0.004 A 
ATOM      5  C5  I4B d   1      -0.509  -0.056   1.973  0.00  0.00     0.002 A 
ATOM      6  C6  I4B d   1       0.419  -0.702   1.143  0.00  0.00     0.003 A 
ENDROOT
BRANCH   1   7
ATOM      7  C1' I4B d   1       1.325  -1.196  -1.144  0.00  0.00     0.060 C 
BRANCH   7   8
ATOM      8  C2' I4B d   1       0.616  -2.443  -1.632  0.00  0.00    -0.013 C 
ATOM      9  C4' I4B d   1       0.382  -2.391  -3.118  0.00  0.00     0.013 C 
ATOM     10  C3' I4B d   1       1.455  -3.629  -1.257  0.00  0.00     0.013 C 
ENDBRANCH   7   8
ENDBRANCH   1   7
TORSDOF 2
ENDMDL
