MODEL 1
REMARK minimizedAffinity -4.43971395
REMARK minimizedRMSD -1
REMARK  2 active torsions:
REMARK  status: ('A' for Active; 'I' for Inactive)
REMARK    1  A    between atoms: C2'_3  and  C1'_4 
REMARK    2  A    between atoms: C1'_4  and  C1_5 
ROOT
ATOM      1  C1  I4B d   1       1.186  -2.257  -1.427  0.00  0.00    -0.075 A 
ATOM      2  C2  I4B d   1       2.054  -3.058  -0.727  0.00  0.00     0.003 A 
ATOM      3  C3  I4B d   1       2.046  -4.460  -0.924  0.00  0.00     0.002 A 
ATOM      4  C4  I4B d   1       1.125  -5.020  -1.786  0.00  0.00    -0.004 A 
ATOM      5  C5  I4B d   1       0.262  -4.204  -2.512  0.00  0.00     0.002 A 
ATOM      6  C6  I4B d   1       0.300  -2.813  -2.340  0.00  0.00     0.003 A 
ENDROOT
BRANCH   1   7
ATOM      7  C1' I4B d   1       1.199  -0.783  -1.170  0.00  0.00     0.060 C 
BRANCH   7   8
ATOM      8  C2' I4B d   1       0.163  -0.486  -0.105  0.00  0.00    -0.013 C 
ATOM      9  C4' I4B d   1       0.763  -0.555   1.275  0.00  0.00     0.013 C 
ATOM     10  C3' I4B d   1      -0.407   0.874  -0.379  0.00  0.00     0.013 C 
ENDBRANCH   7   8
ENDBRANCH   1   7
TORSDOF 2
ENDMDL
