MODEL 1
REMARK minimizedAffinity -4.08355761
REMARK minimizedRMSD -1
REMARK  2 active torsions:
REMARK  status: ('A' for Active; 'I' for Inactive)
REMARK    1  A    between atoms: C2'_3  and  C1'_4 
REMARK    2  A    between atoms: C1'_4  and  C1_5 
ROOT
ATOM      1  C1  I4B d   1       0.514  -0.162  -0.177  0.00  0.00    -0.075 A 
ATOM      2  C2  I4B d   1       0.122  -0.501   1.094  0.00  0.00     0.003 A 
ATOM      3  C3  I4B d   1      -0.820   0.297   1.787  0.00  0.00     0.002 A 
ATOM      4  C4  I4B d   1      -1.304   1.446   1.195  0.00  0.00    -0.004 A 
ATOM      5  C5  I4B d   1      -0.922   1.776  -0.103  0.00  0.00     0.002 A 
ATOM      6  C6  I4B d   1      -0.017   0.961  -0.798  0.00  0.00     0.003 A 
ENDROOT
BRANCH   1   7
ATOM      7  C1' I4B d   1       1.536  -1.009  -0.866  0.00  0.00     0.060 C 
BRANCH   7   8
ATOM      8  C2' I4B d   1       0.858  -2.288  -1.313  0.00  0.00    -0.013 C 
ATOM      9  C4' I4B d   1       0.478  -2.223  -2.769  0.00  0.00     0.013 C 
ATOM     10  C3' I4B d   1       1.797  -3.427  -1.049  0.00  0.00     0.013 C 
ENDBRANCH   7   8
ENDBRANCH   1   7
TORSDOF 2
ENDMDL
