MODEL 1
REMARK minimizedAffinity -6.39087915
REMARK minimizedRMSD -1
REMARK  2 active torsions:
REMARK  status: ('A' for Active; 'I' for Inactive)
REMARK    1  A    between atoms: C2'_3  and  C1'_4 
REMARK    2  A    between atoms: C1'_4  and  C1_5 
ROOT
ATOM      1  C1  I4B d   1       0.221   0.065  -0.033  0.00  0.00    -0.075 A 
ATOM      2  C2  I4B d   1       0.043  -0.493   1.209  0.00  0.00     0.003 A 
ATOM      3  C3  I4B d   1      -0.856   0.094   2.131  0.00  0.00     0.002 A 
ATOM      4  C4  I4B d   1      -1.515   1.258   1.792  0.00  0.00    -0.004 A 
ATOM      5  C5  I4B d   1      -1.351   1.809   0.525  0.00  0.00     0.002 A 
ATOM      6  C6  I4B d   1      -0.486   1.203  -0.398  0.00  0.00     0.003 A 
ENDROOT
BRANCH   1   7
ATOM      7  C1' I4B d   1       1.204  -0.562  -0.970  0.00  0.00     0.060 C 
BRANCH   7   8
ATOM      8  C2' I4B d   1       0.745  -1.978  -1.250  0.00  0.00    -0.013 C 
ATOM      9  C4' I4B d   1       0.074  -2.078  -2.595  0.00  0.00     0.013 C 
ATOM     10  C3' I4B d   1       1.942  -2.877  -1.174  0.00  0.00     0.013 C 
ENDBRANCH   7   8
ENDBRANCH   1   7
TORSDOF 2
ENDMDL
