MODEL 1
REMARK minimizedAffinity -3.75558782
REMARK minimizedRMSD -1
REMARK  2 active torsions:
REMARK  status: ('A' for Active; 'I' for Inactive)
REMARK    1  A    between atoms: C2'_3  and  C1'_4 
REMARK    2  A    between atoms: C1'_4  and  C1_5 
ROOT
ATOM      1  C1  I4B d   1       1.088  -2.061  -1.324  0.00  0.00    -0.075 A 
ATOM      2  C2  I4B d   1       0.664  -1.946  -2.624  0.00  0.00     0.003 A 
ATOM      3  C3  I4B d   1       0.399  -3.105  -3.393  0.00  0.00     0.002 A 
ATOM      4  C4  I4B d   1       0.619  -4.351  -2.842  0.00  0.00    -0.004 A 
ATOM      5  C5  I4B d   1       1.028  -4.466  -1.517  0.00  0.00     0.002 A 
ATOM      6  C6  I4B d   1       1.252  -3.314  -0.748  0.00  0.00     0.003 A 
ENDROOT
BRANCH   1   7
ATOM      7  C1' I4B d   1       1.390  -0.816  -0.551  0.00  0.00     0.060 C 
BRANCH   7   8
ATOM      8  C2' I4B d   1       0.081  -0.266  -0.023  0.00  0.00    -0.013 C 
ATOM      9  C4' I4B d   1      -0.171  -0.721   1.390  0.00  0.00     0.013 C 
ATOM     10  C3' I4B d   1       0.140   1.230  -0.108  0.00  0.00     0.013 C 
ENDBRANCH   7   8
ENDBRANCH   1   7
TORSDOF 2
ENDMDL
