MODEL 1
REMARK minimizedAffinity -4.21701622
REMARK minimizedRMSD -1
REMARK  2 active torsions:
REMARK  status: ('A' for Active; 'I' for Inactive)
REMARK    1  A    between atoms: C2'_3  and  C1'_4 
REMARK    2  A    between atoms: C1'_4  and  C1_5 
ROOT
ATOM      1  C1  I4B d   1       0.224  -0.242   0.059  0.00  0.00    -0.075 A 
ATOM      2  C2  I4B d   1       0.192  -0.674   1.361  0.00  0.00     0.003 A 
ATOM      3  C3  I4B d   1      -0.662  -0.045   2.300  0.00  0.00     0.002 A 
ATOM      4  C4  I4B d   1      -1.423   1.037   1.908  0.00  0.00    -0.004 A 
ATOM      5  C5  I4B d   1      -1.406   1.460   0.582  0.00  0.00     0.002 A 
ATOM      6  C6  I4B d   1      -0.587   0.809  -0.352  0.00  0.00     0.003 A 
ENDROOT
BRANCH   1   7
ATOM      7  C1' I4B d   1       1.161  -0.907  -0.899  0.00  0.00     0.060 C 
BRANCH   7   8
ATOM      8  C2' I4B d   1       0.532  -2.216  -1.334  0.00  0.00    -0.013 C 
ATOM      9  C4' I4B d   1       0.010  -2.127  -2.744  0.00  0.00     0.013 C 
ATOM     10  C3' I4B d   1       1.568  -3.292  -1.207  0.00  0.00     0.013 C 
ENDBRANCH   7   8
ENDBRANCH   1   7
TORSDOF 2
ENDMDL
