MODEL 1
REMARK minimizedAffinity 5.20449543
REMARK minimizedRMSD -1
REMARK  0 active torsions:
REMARK  status: ('A' for Active; 'I' for Inactive)
ROOT
ATOM      1  C1  BNZ d   1       5.455  -0.247  -5.040  0.00  0.00     0.000 A 
ATOM      2  C2  BNZ d   1       4.480  -0.013  -4.107  0.00  0.00     0.000 A 
ATOM      3  C3  BNZ d   1       3.753   1.145  -4.129  0.00  0.00     0.000 A 
ATOM      4  C4  BNZ d   1       4.029   2.083  -5.058  0.00  0.00     0.000 A 
ATOM      5  C5  BNZ d   1       5.015   1.866  -6.000  0.00  0.00     0.000 A 
ATOM      6  C6  BNZ d   1       5.718   0.683  -5.998  0.00  0.00     0.000 A 
ENDROOT
TORSDOF 0
ENDMDL
