MODEL 1
REMARK minimizedAffinity 6.60861635
REMARK minimizedRMSD -1
REMARK  0 active torsions:
REMARK  status: ('A' for Active; 'I' for Inactive)
ROOT
ATOM      1  C1  BNZ d   1       1.229  -1.440   3.753  0.00  0.00     0.000 A 
ATOM      2  C2  BNZ d   1       0.803  -1.348   2.454  0.00  0.00     0.000 A 
ATOM      3  C3  BNZ d   1       0.913  -2.413   1.604  0.00  0.00     0.000 A 
ATOM      4  C4  BNZ d   1       1.485  -3.554   2.041  0.00  0.00     0.000 A 
ATOM      5  C5  BNZ d   1       1.929  -3.659   3.344  0.00  0.00     0.000 A 
ATOM      6  C6  BNZ d   1       1.781  -2.598   4.208  0.00  0.00     0.000 A 
ENDROOT
TORSDOF 0
ENDMDL
