MODEL 1
REMARK minimizedAffinity -1.19366789
REMARK minimizedRMSD -1
REMARK  0 active torsions:
REMARK  status: ('A' for Active; 'I' for Inactive)
ROOT
ATOM      1  C1  BNZ d   1      -4.951  -5.897  -5.528  0.00  0.00     0.000 A 
ATOM      2  C2  BNZ d   1      -5.999  -5.148  -5.994  0.00  0.00     0.000 A 
ATOM      3  C3  BNZ d   1      -6.000  -3.787  -5.862  0.00  0.00     0.000 A 
ATOM      4  C4  BNZ d   1      -4.974  -3.182  -5.230  0.00  0.00     0.000 A 
ATOM      5  C5  BNZ d   1      -3.915  -3.924  -4.746  0.00  0.00     0.000 A 
ATOM      6  C6  BNZ d   1      -3.899  -5.289  -4.916  0.00  0.00     0.000 A 
ENDROOT
TORSDOF 0
ENDMDL
