MODEL 1
REMARK minimizedAffinity -2.0832026
REMARK minimizedRMSD -1
REMARK  0 active torsions:
REMARK  status: ('A' for Active; 'I' for Inactive)
ROOT
ATOM      1  C1  BNZ d   1       5.625  -1.031  -5.183  0.00  0.00     0.000 A 
ATOM      2  C2  BNZ d   1       5.955   0.018  -5.999  0.00  0.00     0.000 A 
ATOM      3  C3  BNZ d   1       5.214   1.167  -5.998  0.00  0.00     0.000 A 
ATOM      4  C4  BNZ d   1       4.122   1.250  -5.211  0.00  0.00     0.000 A 
ATOM      5  C5  BNZ d   1       3.770   0.198  -4.390  0.00  0.00     0.000 A 
ATOM      6  C6  BNZ d   1       4.541  -0.942  -4.365  0.00  0.00     0.000 A 
ENDROOT
TORSDOF 0
ENDMDL
