MODEL 1
REMARK minimizedAffinity -0.880307913
REMARK minimizedRMSD -1
REMARK  0 active torsions:
REMARK  status: ('A' for Active; 'I' for Inactive)
ROOT
ATOM      1  C1  BNZ d   1       3.385   0.774  -5.256  0.00  0.00     0.000 A 
ATOM      2  C2  BNZ d   1       3.006  -0.189  -4.359  0.00  0.00     0.000 A 
ATOM      3  C3  BNZ d   1       3.762  -1.314  -4.180  0.00  0.00     0.000 A 
ATOM      4  C4  BNZ d   1       4.871  -1.494  -4.925  0.00  0.00     0.000 A 
ATOM      5  C5  BNZ d   1       5.261  -0.536  -5.841  0.00  0.00     0.000 A 
ATOM      6  C6  BNZ d   1       4.519   0.613  -5.991  0.00  0.00     0.000 A 
ENDROOT
TORSDOF 0
ENDMDL
