MODEL 1
REMARK minimizedAffinity -1.80314422
REMARK minimizedRMSD -1
REMARK  0 active torsions:
REMARK  status: ('A' for Active; 'I' for Inactive)
ROOT
ATOM      1  C1  BNZ d   1       3.658  -3.451   4.524  0.00  0.00     0.000 A 
ATOM      2  C2  BNZ d   1       4.832  -3.478   5.228  0.00  0.00     0.000 A 
ATOM      3  C3  BNZ d   1       6.000  -3.055   4.658  0.00  0.00     0.000 A 
ATOM      4  C4  BNZ d   1       6.000  -2.643   3.374  0.00  0.00     0.000 A 
ATOM      5  C5  BNZ d   1       4.826  -2.618   2.648  0.00  0.00     0.000 A 
ATOM      6  C6  BNZ d   1       3.645  -3.008   3.237  0.00  0.00     0.000 A 
ENDROOT
TORSDOF 0
ENDMDL
