MODEL 1
REMARK minimizedAffinity 8.49607468
REMARK minimizedRMSD -1
REMARK  0 active torsions:
REMARK  status: ('A' for Active; 'I' for Inactive)
ROOT
ATOM      1  C1  BNZ d   1       5.976  -4.816   4.375  0.00  0.00     0.000 A 
ATOM      2  C2  BNZ d   1       5.997  -3.761   5.249  0.00  0.00     0.000 A 
ATOM      3  C3  BNZ d   1       4.897  -3.453   6.000  0.00  0.00     0.000 A 
ATOM      4  C4  BNZ d   1       3.768  -4.174   5.848  0.00  0.00     0.000 A 
ATOM      5  C5  BNZ d   1       3.728  -5.234   4.965  0.00  0.00     0.000 A 
ATOM      6  C6  BNZ d   1       4.849  -5.566   4.239  0.00  0.00     0.000 A 
ENDROOT
TORSDOF 0
ENDMDL
