MODEL 1
REMARK minimizedAffinity 7.81066465
REMARK minimizedRMSD -1
REMARK  0 active torsions:
REMARK  status: ('A' for Active; 'I' for Inactive)
ROOT
ATOM      1  C1  DEN d   1       4.049   0.102   2.039  0.00  0.00     0.130 A 
ATOM      2  C2  DEN d   1       2.921   0.784   1.410  0.00  0.00    -0.031 A 
ATOM      3  C3  DEN d   1       1.688   0.056   1.771  0.00  0.00     0.027 A 
ATOM      4  C4  DEN d   1       1.417  -2.048   3.239  0.00  0.00     0.027 A 
ATOM      5  C5  DEN d   1       2.090  -2.991   3.983  0.00  0.00    -0.003 A 
ATOM      6  C6  DEN d   1       3.455  -2.990   4.103  0.00  0.00     0.001 A 
ATOM      7  C7  DEN d   1       4.187  -1.999   3.505  0.00  0.00     0.017 A 
ATOM      8  C8  DEN d   1       3.517  -1.048   2.747  0.00  0.00    -0.094 A 
ATOM      9  C9  DEN d   1       2.136  -1.059   2.648  0.00  0.00    -0.072 A 
ENDROOT
TORSDOF 0
ENDMDL
