MODEL 1
REMARK minimizedAffinity 10.0579996
REMARK minimizedRMSD -1
REMARK  0 active torsions:
REMARK  status: ('A' for Active; 'I' for Inactive)
ROOT
ATOM      1  C1  DEN d   1       2.548   1.652   2.071  0.00  0.00     0.130 A 
ATOM      2  C2  DEN d   1       1.185   1.336   2.490  0.00  0.00    -0.031 A 
ATOM      3  C3  DEN d   1       0.291   2.390   1.969  0.00  0.00     0.027 A 
ATOM      4  C4  DEN d   1       0.882   4.466   0.556  0.00  0.00     0.027 A 
ATOM      5  C5  DEN d   1       1.910   5.164  -0.037  0.00  0.00    -0.003 A 
ATOM      6  C6  DEN d   1       3.216   4.762   0.058  0.00  0.00     0.001 A 
ATOM      7  C7  DEN d   1       3.524   3.606   0.726  0.00  0.00     0.017 A 
ATOM      8  C8  DEN d   1       2.493   2.901   1.333  0.00  0.00    -0.094 A 
ATOM      9  C9  DEN d   1       1.178   3.317   1.215  0.00  0.00    -0.072 A 
ENDROOT
TORSDOF 0
ENDMDL
