MODEL 1
REMARK minimizedAffinity 12.0000401
REMARK minimizedRMSD -1
REMARK  0 active torsions:
REMARK  status: ('A' for Active; 'I' for Inactive)
ROOT
ATOM      1  C1  DEN d   1       2.106  -0.167   4.828  0.00  0.00     0.130 A 
ATOM      2  C2  DEN d   1       2.035  -1.404   4.055  0.00  0.00    -0.031 A 
ATOM      3  C3  DEN d   1       2.361  -1.083   2.651  0.00  0.00     0.027 A 
ATOM      4  C4  DEN d   1       2.970   1.195   1.606  0.00  0.00     0.027 A 
ATOM      5  C5  DEN d   1       3.147   2.537   1.863  0.00  0.00    -0.003 A 
ATOM      6  C6  DEN d   1       2.957   3.072   3.109  0.00  0.00     0.001 A 
ATOM      7  C7  DEN d   1       2.623   2.254   4.156  0.00  0.00     0.017 A 
ATOM      8  C8  DEN d   1       2.436   0.902   3.903  0.00  0.00    -0.094 A 
ATOM      9  C9  DEN d   1       2.644   0.377   2.639  0.00  0.00    -0.072 A 
ENDROOT
TORSDOF 0
ENDMDL
