MODEL 1
REMARK minimizedAffinity 3.62359381
REMARK minimizedRMSD -1
REMARK  0 active torsions:
REMARK  status: ('A' for Active; 'I' for Inactive)
ROOT
ATOM      1  C1  DEN d   1       2.046   0.788   2.578  0.00  0.00     0.130 A 
ATOM      2  C2  DEN d   1       2.846   0.911   1.362  0.00  0.00    -0.031 A 
ATOM      3  C3  DEN d   1       3.452  -0.405   1.079  0.00  0.00     0.027 A 
ATOM      4  C4  DEN d   1       3.226  -2.612   2.394  0.00  0.00     0.027 A 
ATOM      5  C5  DEN d   1       2.662  -3.207   3.501  0.00  0.00    -0.003 A 
ATOM      6  C6  DEN d   1       1.886  -2.509   4.389  0.00  0.00     0.001 A 
ATOM      7  C7  DEN d   1       1.617  -1.185   4.161  0.00  0.00     0.017 A 
ATOM      8  C8  DEN d   1       2.189  -0.577   3.051  0.00  0.00    -0.094 A 
ATOM      9  C9  DEN d   1       2.960  -1.303   2.158  0.00  0.00    -0.072 A 
ENDROOT
TORSDOF 0
ENDMDL
