MODEL 1
REMARK minimizedAffinity 14.2061005
REMARK minimizedRMSD -1
REMARK  0 active torsions:
REMARK  status: ('A' for Active; 'I' for Inactive)
ROOT
ATOM      1  C1  DEN d   1       3.007  -2.037   1.811  0.00  0.00     0.130 A 
ATOM      2  C2  DEN d   1       2.908  -1.265   3.047  0.00  0.00    -0.031 A 
ATOM      3  C3  DEN d   1       1.632  -0.523   3.022  0.00  0.00     0.027 A 
ATOM      4  C4  DEN d   1      -0.195  -0.499   1.200  0.00  0.00     0.027 A 
ATOM      5  C5  DEN d   1      -0.553  -0.987  -0.037  0.00  0.00    -0.003 A 
ATOM      6  C6  DEN d   1       0.259  -1.825  -0.754  0.00  0.00     0.001 A 
ATOM      7  C7  DEN d   1       1.451  -2.237  -0.219  0.00  0.00     0.017 A 
ATOM      8  C8  DEN d   1       1.822  -1.744   1.025  0.00  0.00    -0.094 A 
ATOM      9  C9  DEN d   1       0.982  -0.907   1.739  0.00  0.00    -0.072 A 
ENDROOT
TORSDOF 0
ENDMDL
