MODEL 1
REMARK minimizedAffinity 1.85379112
REMARK minimizedRMSD -1
REMARK  0 active torsions:
REMARK  status: ('A' for Active; 'I' for Inactive)
ROOT
ATOM      1  C1  DEN d   1       2.749  -0.208   3.864  0.00  0.00     0.130 A 
ATOM      2  C2  DEN d   1       2.824   0.094   2.437  0.00  0.00    -0.031 A 
ATOM      3  C3  DEN d   1       2.664  -1.172   1.694  0.00  0.00     0.027 A 
ATOM      4  C4  DEN d   1       2.305  -3.557   2.609  0.00  0.00     0.027 A 
ATOM      5  C5  DEN d   1       2.184  -4.313   3.754  0.00  0.00    -0.003 A 
ATOM      6  C6  DEN d   1       2.277  -3.764   5.005  0.00  0.00     0.001 A 
ATOM      7  C7  DEN d   1       2.451  -2.412   5.142  0.00  0.00     0.017 A 
ATOM      8  C8  DEN d   1       2.581  -1.644   3.993  0.00  0.00    -0.094 A 
ATOM      9  C9  DEN d   1       2.473  -2.216   2.737  0.00  0.00    -0.072 A 
ENDROOT
TORSDOF 0
ENDMDL
