MODEL 1
REMARK minimizedAffinity 4.8489356
REMARK minimizedRMSD -1
REMARK  0 active torsions:
REMARK  status: ('A' for Active; 'I' for Inactive)
ROOT
ATOM      1  C1  DEN d   1       2.851  -0.797   1.188  0.00  0.00     0.130 A 
ATOM      2  C2  DEN d   1       2.698   0.552   1.725  0.00  0.00    -0.031 A 
ATOM      3  C3  DEN d   1       2.348   0.436   3.155  0.00  0.00     0.027 A 
ATOM      4  C4  DEN d   1       2.035  -1.689   4.583  0.00  0.00     0.027 A 
ATOM      5  C5  DEN d   1       2.050  -3.067   4.563  0.00  0.00    -0.003 A 
ATOM      6  C6  DEN d   1       2.297  -3.778   3.419  0.00  0.00     0.001 A 
ATOM      7  C7  DEN d   1       2.585  -3.115   2.256  0.00  0.00     0.017 A 
ATOM      8  C8  DEN d   1       2.565  -1.726   2.266  0.00  0.00    -0.094 A 
ATOM      9  C9  DEN d   1       2.324  -1.025   3.435  0.00  0.00    -0.072 A 
ENDROOT
TORSDOF 0
ENDMDL
