MODEL 1
REMARK minimizedAffinity 7.01589441
REMARK minimizedRMSD -1
REMARK  0 active torsions:
REMARK  status: ('A' for Active; 'I' for Inactive)
ROOT
ATOM      1  C1  DEN d   1       3.992  -1.410   2.918  0.00  0.00     0.130 A 
ATOM      2  C2  DEN d   1       3.040  -0.329   2.678  0.00  0.00    -0.031 A 
ATOM      3  C3  DEN d   1       1.750  -0.714   3.287  0.00  0.00     0.027 A 
ATOM      4  C4  DEN d   1       1.141  -2.864   4.574  0.00  0.00     0.027 A 
ATOM      5  C5  DEN d   1       1.615  -4.077   5.021  0.00  0.00    -0.003 A 
ATOM      6  C6  DEN d   1       2.895  -4.498   4.771  0.00  0.00     0.001 A 
ATOM      7  C7  DEN d   1       3.758  -3.679   4.093  0.00  0.00     0.017 A 
ATOM      8  C8  DEN d   1       3.285  -2.457   3.633  0.00  0.00    -0.094 A 
ATOM      9  C9  DEN d   1       1.992  -2.045   3.906  0.00  0.00    -0.072 A 
ENDROOT
TORSDOF 0
ENDMDL
