MODEL 1
REMARK minimizedAffinity 2.01735306
REMARK minimizedRMSD -1
REMARK  0 active torsions:
REMARK  status: ('A' for Active; 'I' for Inactive)
ROOT
ATOM      1  C1  DEN d   1       3.375   1.125   0.273  0.00  0.00     0.130 A 
ATOM      2  C2  DEN d   1       3.000   0.435   1.504  0.00  0.00    -0.031 A 
ATOM      3  C3  DEN d   1       1.828   1.127   2.076  0.00  0.00     0.027 A 
ATOM      4  C4  DEN d   1       0.561   3.186   1.177  0.00  0.00     0.027 A 
ATOM      5  C5  DEN d   1       0.516   4.125   0.170  0.00  0.00    -0.003 A 
ATOM      6  C6  DEN d   1       1.434   4.150  -0.846  0.00  0.00     0.001 A 
ATOM      7  C7  DEN d   1       2.410   3.191  -0.903  0.00  0.00     0.017 A 
ATOM      8  C8  DEN d   1       2.466   2.245   0.113  0.00  0.00    -0.094 A 
ATOM      9  C9  DEN d   1       1.521   2.229   1.125  0.00  0.00    -0.072 A 
ENDROOT
TORSDOF 0
ENDMDL
