MODEL 1
REMARK minimizedAffinity 16.4562759
REMARK minimizedRMSD -1
REMARK  0 active torsions:
REMARK  status: ('A' for Active; 'I' for Inactive)
ROOT
ATOM      1  C1  DEN d   1      -2.567   4.108   0.003  0.00  0.00     0.130 A 
ATOM      2  C2  DEN d   1      -1.407   3.525   0.670  0.00  0.00    -0.031 A 
ATOM      3  C3  DEN d   1      -1.882   2.812   1.873  0.00  0.00     0.027 A 
ATOM      4  C4  DEN d   1      -4.290   2.552   2.759  0.00  0.00     0.027 A 
ATOM      5  C5  DEN d   1      -5.609   2.881   2.539  0.00  0.00    -0.003 A 
ATOM      6  C6  DEN d   1      -6.000   3.664   1.485  0.00  0.00     0.001 A 
ATOM      7  C7  DEN d   1      -5.066   4.107   0.586  0.00  0.00     0.017 A 
ATOM      8  C8  DEN d   1      -3.733   3.786   0.806  0.00  0.00    -0.094 A 
ATOM      9  C9  DEN d   1      -3.360   2.983   1.870  0.00  0.00    -0.072 A 
ENDROOT
TORSDOF 0
ENDMDL
