MODEL 1
REMARK minimizedAffinity 12.2911129
REMARK minimizedRMSD -1
REMARK  0 active torsions:
REMARK  status: ('A' for Active; 'I' for Inactive)
ROOT
ATOM      1  C1  DEN d   1      -6.000   2.240  -0.752  0.00  0.00     0.130 A 
ATOM      2  C2  DEN d   1      -4.916   1.831  -1.641  0.00  0.00    -0.031 A 
ATOM      3  C3  DEN d   1      -3.637   2.074  -0.944  0.00  0.00     0.027 A 
ATOM      4  C4  DEN d   1      -3.232   3.034   1.415  0.00  0.00     0.027 A 
ATOM      5  C5  DEN d   1      -3.843   3.536   2.543  0.00  0.00    -0.003 A 
ATOM      6  C6  DEN d   1      -5.203   3.672   2.638  0.00  0.00     0.001 A 
ATOM      7  C7  DEN d   1      -6.000   3.259   1.603  0.00  0.00     0.017 A 
ATOM      8  C8  DEN d   1      -5.391   2.758   0.460  0.00  0.00    -0.094 A 
ATOM      9  C9  DEN d   1      -4.015   2.618   0.388  0.00  0.00    -0.072 A 
ENDROOT
TORSDOF 0
ENDMDL
