MODEL 1
REMARK minimizedAffinity -3.89745951
REMARK minimizedRMSD -1
REMARK  0 active torsions:
REMARK  status: ('A' for Active; 'I' for Inactive)
ROOT
ATOM      1  N1  IND d   1      -4.826   3.723  -3.014  0.00  0.00    -0.196 N 
ATOM      2  C2  IND d   1      -5.639   2.636  -3.174  0.00  0.00     0.054 A 
ATOM      3  C3  IND d   1      -4.904   1.502  -3.221  0.00  0.00    -0.031 A 
ATOM      4  C4  IND d   1      -2.363   1.188  -2.952  0.00  0.00     0.051 A 
ATOM      5  C5  IND d   1      -1.199   1.891  -2.822  0.00  0.00    -0.031 A 
ATOM      6  C6  IND d   1      -1.184   3.269  -2.744  0.00  0.00     0.015 A 
ATOM      7  C7  IND d   1      -2.339   3.997  -2.783  0.00  0.00    -0.016 A 
ATOM      8  C8  IND d   1      -3.523   3.286  -2.923  0.00  0.00    -0.047 A 
ATOM      9  C9  IND d   1      -3.541   1.891  -3.044  0.00  0.00    -0.096 A 
ATOM     10  HN1 IND d   1      -5.085   4.542  -2.976  0.00  0.00     0.298 HD
ENDROOT
TORSDOF 0
ENDMDL
