MODEL 1
REMARK minimizedAffinity -2.569839
REMARK minimizedRMSD -1
REMARK  0 active torsions:
REMARK  status: ('A' for Active; 'I' for Inactive)
ROOT
ATOM      1  N1  IND d   1      -0.261  -0.094  -1.127  0.00  0.00    -0.196 N 
ATOM      2  C2  IND d   1       0.914  -0.662  -1.533  0.00  0.00     0.054 A 
ATOM      3  C3  IND d   1       1.614  -1.109  -0.466  0.00  0.00    -0.031 A 
ATOM      4  C4  IND d   1       0.975  -1.103   2.028  0.00  0.00     0.051 A 
ATOM      5  C5  IND d   1       0.015  -0.658   2.893  0.00  0.00    -0.031 A 
ATOM      6  C6  IND d   1      -1.111   0.008   2.453  0.00  0.00     0.015 A 
ATOM      7  C7  IND d   1      -1.324   0.246   1.124  0.00  0.00    -0.016 A 
ATOM      8  C8  IND d   1      -0.348  -0.198   0.244  0.00  0.00    -0.047 A 
ATOM      9  C9  IND d   1       0.817  -0.837   0.688  0.00  0.00    -0.096 A 
ATOM     10  HN1 IND d   1      -0.848   0.267  -1.642  0.00  0.00     0.298 HD
ENDROOT
TORSDOF 0
ENDMDL
