MODEL 1
REMARK minimizedAffinity -5.25349283
REMARK minimizedRMSD -1
REMARK  0 active torsions:
REMARK  status: ('A' for Active; 'I' for Inactive)
ROOT
ATOM      1  N1  IND d   1      -0.762   2.883  -1.744  0.00  0.00    -0.196 N 
ATOM      2  C2  IND d   1      -1.442   2.571  -2.889  0.00  0.00     0.054 A 
ATOM      3  C3  IND d   1      -1.593   1.232  -2.997  0.00  0.00    -0.031 A 
ATOM      4  C4  IND d   1      -0.893  -0.630  -1.362  0.00  0.00     0.051 A 
ATOM      5  C5  IND d   1      -0.209  -0.840  -0.197  0.00  0.00    -0.031 A 
ATOM      6  C6  IND d   1       0.333   0.202   0.528  0.00  0.00     0.015 A 
ATOM      7  C7  IND d   1       0.202   1.499   0.118  0.00  0.00    -0.016 A 
ATOM      8  C8  IND d   1      -0.485   1.715  -1.068  0.00  0.00    -0.047 A 
ATOM      9  C9  IND d   1      -1.001   0.659  -1.830  0.00  0.00    -0.096 A 
ATOM     10  HN1 IND d   1      -0.544   3.674  -1.490  0.00  0.00     0.298 HD
ENDROOT
TORSDOF 0
ENDMDL
