MODEL 1
REMARK minimizedAffinity -3.46254134
REMARK minimizedRMSD -1
REMARK  0 active torsions:
REMARK  status: ('A' for Active; 'I' for Inactive)
ROOT
ATOM      1  N1  IND d   1       1.872  -0.868   1.712  0.00  0.00    -0.196 N 
ATOM      2  C2  IND d   1       1.320  -1.096   2.942  0.00  0.00     0.054 A 
ATOM      3  C3  IND d   1       0.004  -0.784   2.932  0.00  0.00    -0.031 A 
ATOM      4  C4  IND d   1      -1.471   0.019   0.981  0.00  0.00     0.051 A 
ATOM      5  C5  IND d   1      -1.409   0.409  -0.327  0.00  0.00    -0.031 A 
ATOM      6  C6  IND d   1      -0.226   0.389  -1.038  0.00  0.00     0.015 A 
ATOM      7  C7  IND d   1       0.941  -0.032  -0.467  0.00  0.00    -0.016 A 
ATOM      8  C8  IND d   1       0.883  -0.422   0.863  0.00  0.00    -0.047 A 
ATOM      9  C9  IND d   1      -0.306  -0.364   1.602  0.00  0.00    -0.096 A 
ATOM     10  HN1 IND d   1       2.698  -0.983   1.504  0.00  0.00     0.298 HD
ENDROOT
TORSDOF 0
ENDMDL
