MODEL 1
REMARK minimizedAffinity 2.251266
REMARK minimizedRMSD -1
REMARK  0 active torsions:
REMARK  status: ('A' for Active; 'I' for Inactive)
ROOT
ATOM      1  N1  IND d   1      -0.200  -1.441   2.363  0.00  0.00    -0.196 N 
ATOM      2  C2  IND d   1       1.117  -1.329   2.709  0.00  0.00     0.054 A 
ATOM      3  C3  IND d   1       1.795  -0.639   1.764  0.00  0.00    -0.031 A 
ATOM      4  C4  IND d   1       0.922   0.485  -0.381  0.00  0.00     0.051 A 
ATOM      5  C5  IND d   1      -0.205   0.625  -1.142  0.00  0.00    -0.031 A 
ATOM      6  C6  IND d   1      -1.413   0.074  -0.764  0.00  0.00     0.015 A 
ATOM      7  C7  IND d   1      -1.542  -0.630   0.399  0.00  0.00    -0.016 A 
ATOM      8  C8  IND d   1      -0.398  -0.780   1.171  0.00  0.00    -0.047 A 
ATOM      9  C9  IND d   1       0.840  -0.260   0.772  0.00  0.00    -0.096 A 
ATOM     10  HN1 IND d   1      -0.804  -1.855   2.815  0.00  0.00     0.298 HD
ENDROOT
TORSDOF 0
ENDMDL
