MODEL 1
REMARK minimizedAffinity -0.554946661
REMARK minimizedRMSD -1
REMARK  0 active torsions:
REMARK  status: ('A' for Active; 'I' for Inactive)
ROOT
ATOM      1  N1  IND d   1      -3.622   3.350  -4.301  0.00  0.00    -0.196 N 
ATOM      2  C2  IND d   1      -4.504   2.581  -3.595  0.00  0.00     0.054 A 
ATOM      3  C3  IND d   1      -3.871   1.950  -2.580  0.00  0.00    -0.031 A 
ATOM      4  C4  IND d   1      -1.414   2.115  -1.832  0.00  0.00     0.051 A 
ATOM      5  C5  IND d   1      -0.213   2.663  -2.188  0.00  0.00    -0.031 A 
ATOM      6  C6  IND d   1      -0.086   3.487  -3.288  0.00  0.00     0.015 A 
ATOM      7  C7  IND d   1      -1.161   3.804  -4.069  0.00  0.00    -0.016 A 
ATOM      8  C8  IND d   1      -2.380   3.243  -3.714  0.00  0.00    -0.047 A 
ATOM      9  C9  IND d   1      -2.507   2.372  -2.624  0.00  0.00    -0.096 A 
ATOM     10  HN1 IND d   1      -3.811   3.821  -4.995  0.00  0.00     0.298 HD
ENDROOT
TORSDOF 0
ENDMDL
