MODEL 1
REMARK minimizedAffinity -3.34287667
REMARK minimizedRMSD -1
REMARK  0 active torsions:
REMARK  status: ('A' for Active; 'I' for Inactive)
ROOT
ATOM      1  N1  IND d   1      -1.270   1.019  -0.904  0.00  0.00    -0.196 N 
ATOM      2  C2  IND d   1      -0.554   0.742  -2.035  0.00  0.00     0.054 A 
ATOM      3  C3  IND d   1       0.475  -0.087  -1.748  0.00  0.00    -0.031 A 
ATOM      4  C4  IND d   1       1.112  -1.192   0.488  0.00  0.00     0.051 A 
ATOM      5  C5  IND d   1       0.777  -1.214   1.813  0.00  0.00    -0.031 A 
ATOM      6  C6  IND d   1      -0.281  -0.480   2.309  0.00  0.00     0.015 A 
ATOM      7  C7  IND d   1      -1.053   0.298   1.494  0.00  0.00    -0.016 A 
ATOM      8  C8  IND d   1      -0.712   0.328   0.149  0.00  0.00    -0.047 A 
ATOM      9  C9  IND d   1       0.387  -0.381  -0.353  0.00  0.00    -0.096 A 
ATOM     10  HN1 IND d   1      -1.955   1.537  -0.858  0.00  0.00     0.298 HD
ENDROOT
TORSDOF 0
ENDMDL
