MODEL 1
REMARK minimizedAffinity -3.14898443
REMARK minimizedRMSD -1
REMARK  0 active torsions:
REMARK  status: ('A' for Active; 'I' for Inactive)
ROOT
ATOM      1  N1  IND d   1       2.019  -0.165   1.645  0.00  0.00    -0.196 N 
ATOM      2  C2  IND d   1       1.616  -0.434   2.923  0.00  0.00     0.054 A 
ATOM      3  C3  IND d   1       0.274  -0.594   2.970  0.00  0.00    -0.031 A 
ATOM      4  C4  IND d   1      -1.445  -0.557   1.054  0.00  0.00     0.051 A 
ATOM      5  C5  IND d   1      -1.559  -0.313  -0.286  0.00  0.00    -0.031 A 
ATOM      6  C6  IND d   1      -0.464  -0.004  -1.067  0.00  0.00     0.015 A 
ATOM      7  C7  IND d   1       0.793   0.062  -0.537  0.00  0.00    -0.016 A 
ATOM      8  C8  IND d   1       0.912  -0.178   0.825  0.00  0.00    -0.047 A 
ATOM      9  C9  IND d   1      -0.201  -0.451   1.630  0.00  0.00    -0.096 A 
ATOM     10  HN1 IND d   1       2.827  -0.014   1.395  0.00  0.00     0.298 HD
ENDROOT
TORSDOF 0
ENDMDL
