MODEL 1
REMARK minimizedAffinity 6.50175047
REMARK minimizedRMSD -1
REMARK  0 active torsions:
REMARK  status: ('A' for Active; 'I' for Inactive)
ROOT
ATOM      1  C   UNL d   1      -3.420  -1.858   4.050  0.00  0.00    -0.002 A 
ATOM      2  C1  UNL d   1      -3.897  -1.586   5.324  0.00  0.00     0.010 A 
ATOM      3  C2  UNL d   1      -4.691  -2.516   5.999  0.00  0.00     0.041 A 
ATOM      4  C3  UNL d   1      -4.998  -3.736   5.366  0.00  0.00    -0.075 A 
ATOM      5  S   UNL d   1      -5.951  -5.025   6.000  0.00  0.00     0.015 SA
ATOM      6  C4  UNL d   1      -5.746  -5.968   4.595  0.00  0.00     0.022 A 
ATOM      7  C5  UNL d   1      -4.973  -5.330   3.654  0.00  0.00     0.026 A 
ATOM      8  C6  UNL d   1      -4.528  -4.033   4.083  0.00  0.00    -0.082 A 
ATOM      9  C7  UNL d   1      -3.727  -3.070   3.425  0.00  0.00     0.045 A 
ENDROOT
TORSDOF 0
ENDMDL
