MODEL 1
REMARK minimizedAffinity 16.9836674
REMARK minimizedRMSD -1
REMARK  0 active torsions:
REMARK  status: ('A' for Active; 'I' for Inactive)
ROOT
ATOM      1  C   UNL d   1       2.151   2.445  -3.236  0.00  0.00    -0.002 A 
ATOM      2  C1  UNL d   1       1.745   3.595  -2.574  0.00  0.00     0.010 A 
ATOM      3  C2  UNL d   1       2.543   4.742  -2.589  0.00  0.00     0.041 A 
ATOM      4  C3  UNL d   1       3.765   4.713  -3.288  0.00  0.00    -0.075 A 
ATOM      5  S   UNL d   1       4.904   5.998  -3.444  0.00  0.00     0.015 SA
ATOM      6  C4  UNL d   1       5.956   5.050  -4.393  0.00  0.00     0.022 A 
ATOM      7  C5  UNL d   1       5.465   3.782  -4.596  0.00  0.00     0.026 A 
ATOM      8  C6  UNL d   1       4.195   3.567  -3.963  0.00  0.00    -0.082 A 
ATOM      9  C7  UNL d   1       3.364   2.420  -3.929  0.00  0.00     0.045 A 
ENDROOT
TORSDOF 0
ENDMDL
