MODEL 1
REMARK minimizedAffinity 15.4274988
REMARK minimizedRMSD -1
REMARK  0 active torsions:
REMARK  status: ('A' for Active; 'I' for Inactive)
ROOT
ATOM      1  C   UNL d   1       2.302   0.733   0.509  0.00  0.00    -0.002 A 
ATOM      2  C1  UNL d   1       2.634  -0.141   1.535  0.00  0.00     0.010 A 
ATOM      3  C2  UNL d   1       3.650   0.177   2.438  0.00  0.00     0.041 A 
ATOM      4  C3  UNL d   1       4.333   1.401   2.292  0.00  0.00    -0.075 A 
ATOM      5  S   UNL d   1       5.611   2.002   3.280  0.00  0.00     0.015 SA
ATOM      6  C4  UNL d   1       5.747   3.433   2.364  0.00  0.00     0.022 A 
ATOM      7  C5  UNL d   1       4.846   3.468   1.326  0.00  0.00     0.026 A 
ATOM      8  C6  UNL d   1       4.016   2.298   1.268  0.00  0.00    -0.082 A 
ATOM      9  C7  UNL d   1       2.982   1.946   0.367  0.00  0.00     0.045 A 
ENDROOT
TORSDOF 0
ENDMDL
