MODEL 1
REMARK minimizedAffinity 20.4228039
REMARK minimizedRMSD -1
REMARK  0 active torsions:
REMARK  status: ('A' for Active; 'I' for Inactive)
ROOT
ATOM      1  C   UNL d   1      -0.492  -0.832   2.656  0.00  0.00    -0.002 A 
ATOM      2  C1  UNL d   1      -0.958   0.274   3.353  0.00  0.00     0.010 A 
ATOM      3  C2  UNL d   1      -2.156   0.891   2.987  0.00  0.00     0.041 A 
ATOM      4  C3  UNL d   1      -2.886   0.371   1.900  0.00  0.00    -0.075 A 
ATOM      5  S   UNL d   1      -4.379   0.962   1.273  0.00  0.00     0.015 SA
ATOM      6  C4  UNL d   1      -4.434  -0.240   0.066  0.00  0.00     0.022 A 
ATOM      7  C5  UNL d   1      -3.348  -1.080   0.125  0.00  0.00     0.026 A 
ATOM      8  C6  UNL d   1      -2.438  -0.742   1.183  0.00  0.00    -0.082 A 
ATOM      9  C7  UNL d   1      -1.219  -1.345   1.578  0.00  0.00     0.045 A 
ENDROOT
TORSDOF 0
ENDMDL
