MODEL 1
REMARK minimizedAffinity 10.5654697
REMARK minimizedRMSD -1
REMARK  0 active torsions:
REMARK  status: ('A' for Active; 'I' for Inactive)
ROOT
ATOM      1  C   UNL d   1      -5.645   1.017   0.253  0.00  0.00    -0.002 A 
ATOM      2  C1  UNL d   1      -5.657  -0.285   0.734  0.00  0.00     0.010 A 
ATOM      3  C2  UNL d   1      -5.753  -1.366  -0.145  0.00  0.00     0.041 A 
ATOM      4  C3  UNL d   1      -5.836  -1.114  -1.529  0.00  0.00    -0.075 A 
ATOM      5  S   UNL d   1      -5.961  -2.281  -2.792  0.00  0.00     0.015 SA
ATOM      6  C4  UNL d   1      -6.000  -1.079  -4.000  0.00  0.00     0.022 A 
ATOM      7  C5  UNL d   1      -5.921   0.187  -3.470  0.00  0.00     0.026 A 
ATOM      8  C6  UNL d   1      -5.825   0.188  -2.037  0.00  0.00    -0.082 A 
ATOM      9  C7  UNL d   1      -5.727   1.262  -1.121  0.00  0.00     0.045 A 
ENDROOT
TORSDOF 0
ENDMDL
