MODEL 1
REMARK minimizedAffinity 24.4270515
REMARK minimizedRMSD -1
REMARK  0 active torsions:
REMARK  status: ('A' for Active; 'I' for Inactive)
ROOT
ATOM      1  C   UNL d   1      -5.627   2.321  -0.097  0.00  0.00    -0.002 A 
ATOM      2  C1  UNL d   1      -5.180   1.162   0.521  0.00  0.00     0.010 A 
ATOM      3  C2  UNL d   1      -5.017  -0.016  -0.210  0.00  0.00     0.041 A 
ATOM      4  C3  UNL d   1      -5.313  -0.009  -1.588  0.00  0.00    -0.075 A 
ATOM      5  S   UNL d   1      -5.188  -1.334  -2.684  0.00  0.00     0.015 SA
ATOM      6  C4  UNL d   1      -5.725  -0.392  -4.000  0.00  0.00     0.022 A 
ATOM      7  C5  UNL d   1      -5.998   0.903  -3.629  0.00  0.00     0.026 A 
ATOM      8  C6  UNL d   1      -5.765   1.146  -2.233  0.00  0.00    -0.082 A 
ATOM      9  C7  UNL d   1      -5.920   2.324  -1.464  0.00  0.00     0.045 A 
ENDROOT
TORSDOF 0
ENDMDL
