MODEL 1
REMARK minimizedAffinity 19.6096954
REMARK minimizedRMSD -1
REMARK  0 active torsions:
REMARK  status: ('A' for Active; 'I' for Inactive)
ROOT
ATOM      1  C   UNL d   1      -4.253   4.891  -0.339  0.00  0.00    -0.002 A 
ATOM      2  C1  UNL d   1      -4.987   4.800  -1.514  0.00  0.00     0.010 A 
ATOM      3  C2  UNL d   1      -4.344   4.781  -2.753  0.00  0.00     0.041 A 
ATOM      4  C3  UNL d   1      -2.937   4.853  -2.792  0.00  0.00    -0.075 A 
ATOM      5  S   UNL d   1      -1.934   4.845  -4.194  0.00  0.00     0.015 SA
ATOM      6  C4  UNL d   1      -0.509   4.960  -3.267  0.00  0.00     0.022 A 
ATOM      7  C5  UNL d   1      -0.773   5.006  -1.919  0.00  0.00     0.026 A 
ATOM      8  C6  UNL d   1      -2.177   4.944  -1.623  0.00  0.00    -0.082 A 
ATOM      9  C7  UNL d   1      -2.859   4.962  -0.382  0.00  0.00     0.045 A 
ENDROOT
TORSDOF 0
ENDMDL
