MODEL 1
REMARK minimizedAffinity 15.0670443
REMARK minimizedRMSD -1
REMARK  0 active torsions:
REMARK  status: ('A' for Active; 'I' for Inactive)
ROOT
ATOM      1  C   UNL d   1       1.529   1.873  -2.169  0.00  0.00    -0.002 A 
ATOM      2  C1  UNL d   1       2.219   2.946  -1.622  0.00  0.00     0.010 A 
ATOM      3  C2  UNL d   1       1.830   4.257  -1.902  0.00  0.00     0.041 A 
ATOM      4  C3  UNL d   1       0.725   4.475  -2.748  0.00  0.00    -0.075 A 
ATOM      5  S   UNL d   1       0.068   5.994  -3.230  0.00  0.00     0.015 SA
ATOM      6  C4  UNL d   1      -1.144   5.255  -4.173  0.00  0.00     0.022 A 
ATOM      7  C5  UNL d   1      -1.064   3.883  -4.132  0.00  0.00     0.026 A 
ATOM      8  C6  UNL d   1       0.014   3.411  -3.310  0.00  0.00    -0.082 A 
ATOM      9  C7  UNL d   1       0.433   2.093  -3.008  0.00  0.00     0.045 A 
ENDROOT
TORSDOF 0
ENDMDL
