MODEL 1
REMARK minimizedAffinity 21.0193882
REMARK minimizedRMSD -1
REMARK  0 active torsions:
REMARK  status: ('A' for Active; 'I' for Inactive)
ROOT
ATOM      1  C   UNL d   1      -1.181  -0.053   2.742  0.00  0.00    -0.002 A 
ATOM      2  C1  UNL d   1      -2.425  -0.425   2.250  0.00  0.00     0.010 A 
ATOM      3  C2  UNL d   1      -2.572  -1.597   1.506  0.00  0.00     0.041 A 
ATOM      4  C3  UNL d   1      -1.439  -2.398   1.264  0.00  0.00    -0.075 A 
ATOM      5  S   UNL d   1      -1.380  -3.877   0.379  0.00  0.00     0.015 SA
ATOM      6  C4  UNL d   1       0.296  -4.050   0.634  0.00  0.00     0.022 A 
ATOM      7  C5  UNL d   1       0.815  -3.014   1.374  0.00  0.00     0.026 A 
ATOM      8  C6  UNL d   1      -0.176  -2.045   1.750  0.00  0.00    -0.082 A 
ATOM      9  C7  UNL d   1      -0.059  -0.850   2.500  0.00  0.00     0.045 A 
ENDROOT
TORSDOF 0
ENDMDL
