MODEL 1
REMARK minimizedAffinity 20.181839
REMARK minimizedRMSD -1
REMARK  0 active torsions:
REMARK  status: ('A' for Active; 'I' for Inactive)
ROOT
ATOM      1  C   UNL d   1       2.435   2.862  -3.422  0.00  0.00    -0.002 A 
ATOM      2  C1  UNL d   1       2.901   2.790  -4.727  0.00  0.00     0.010 A 
ATOM      3  C2  UNL d   1       4.002   3.548  -5.131  0.00  0.00     0.041 A 
ATOM      4  C3  UNL d   1       4.634   4.386  -4.191  0.00  0.00    -0.075 A 
ATOM      5  S   UNL d   1       6.000   5.404  -4.459  0.00  0.00     0.015 SA
ATOM      6  C4  UNL d   1       5.997   5.957  -2.846  0.00  0.00     0.022 A 
ATOM      7  C5  UNL d   1       4.986   5.389  -2.108  0.00  0.00     0.026 A 
ATOM      8  C6  UNL d   1       4.184   4.474  -2.870  0.00  0.00    -0.082 A 
ATOM      9  C7  UNL d   1       3.065   3.694  -2.492  0.00  0.00     0.045 A 
ENDROOT
TORSDOF 0
ENDMDL
