MODEL 1
REMARK minimizedAffinity 15.173316
REMARK minimizedRMSD -1
REMARK  0 active torsions:
REMARK  status: ('A' for Active; 'I' for Inactive)
ROOT
ATOM      1  C   UNL d   1      -3.533   0.692   2.766  0.00  0.00    -0.002 A 
ATOM      2  C1  UNL d   1      -2.892   1.056   3.942  0.00  0.00     0.010 A 
ATOM      3  C2  UNL d   1      -1.686   0.455   4.308  0.00  0.00     0.041 A 
ATOM      4  C3  UNL d   1      -1.128  -0.525   3.464  0.00  0.00    -0.075 A 
ATOM      5  S   UNL d   1       0.340  -1.395   3.708  0.00  0.00     0.015 SA
ATOM      6  C4  UNL d   1       0.151  -2.269   2.257  0.00  0.00     0.022 A 
ATOM      7  C5  UNL d   1      -0.998  -1.918   1.590  0.00  0.00     0.026 A 
ATOM      8  C6  UNL d   1      -1.755  -0.907   2.274  0.00  0.00    -0.082 A 
ATOM      9  C7  UNL d   1      -2.977  -0.281   1.931  0.00  0.00     0.045 A 
ENDROOT
TORSDOF 0
ENDMDL
