MODEL 1
REMARK minimizedAffinity 13.4813595
REMARK minimizedRMSD -1
REMARK  0 active torsions:
REMARK  status: ('A' for Active; 'I' for Inactive)
ROOT
ATOM      1  C   UNL d   1      -0.173   5.237  -2.264  0.00  0.00    -0.002 A 
ATOM      2  C1  UNL d   1      -0.390   3.972  -2.789  0.00  0.00     0.010 A 
ATOM      3  C2  UNL d   1       0.685   3.149  -3.128  0.00  0.00     0.041 A 
ATOM      4  C3  UNL d   1       1.996   3.623  -2.925  0.00  0.00    -0.075 A 
ATOM      5  S   UNL d   1       3.467   2.790  -3.265  0.00  0.00     0.015 SA
ATOM      6  C4  UNL d   1       4.419   4.095  -2.720  0.00  0.00     0.022 A 
ATOM      7  C5  UNL d   1       3.650   5.148  -2.286  0.00  0.00     0.026 A 
ATOM      8  C6  UNL d   1       2.241   4.894  -2.397  0.00  0.00    -0.082 A 
ATOM      9  C7  UNL d   1       1.129   5.705  -2.064  0.00  0.00     0.045 A 
ENDROOT
TORSDOF 0
ENDMDL
