MODEL 1
REMARK minimizedAffinity 14.1982012
REMARK minimizedRMSD -1
REMARK  0 active torsions:
REMARK  status: ('A' for Active; 'I' for Inactive)
ROOT
ATOM      1  C   UNL d   1      -5.334   1.079   0.580  0.00  0.00    -0.002 A 
ATOM      2  C1  UNL d   1      -5.414   2.136  -0.315  0.00  0.00     0.010 A 
ATOM      3  C2  UNL d   1      -5.614   1.900  -1.677  0.00  0.00     0.041 A 
ATOM      4  C3  UNL d   1      -5.737   0.571  -2.127  0.00  0.00    -0.075 A 
ATOM      5  S   UNL d   1      -5.988   0.042  -3.749  0.00  0.00     0.015 SA
ATOM      6  C4  UNL d   1      -5.996  -1.600  -3.291  0.00  0.00     0.022 A 
ATOM      7  C5  UNL d   1      -5.813  -1.759  -1.938  0.00  0.00     0.026 A 
ATOM      8  C6  UNL d   1      -5.661  -0.510  -1.245  0.00  0.00    -0.082 A 
ATOM      9  C7  UNL d   1      -5.456  -0.238   0.129  0.00  0.00     0.045 A 
ENDROOT
TORSDOF 0
ENDMDL
