MODEL 1
REMARK minimizedAffinity -1.90570629
REMARK minimizedRMSD -1
REMARK  1 active torsions:
REMARK  status: ('A' for Active; 'I' for Inactive)
REMARK    1  A    between atoms: C1_2  and  C2_3 
ROOT
ATOM      1  C2  UNL d   1       4.538  -2.620   4.949  0.00  0.00    -0.073 A 
ATOM      2  C3  UNL d   1       5.274  -2.060   5.999  0.00  0.00    -0.002 A 
ATOM      3  C4  UNL d   1       6.000  -0.884   5.803  0.00  0.00     0.004 A 
ATOM      4  C5  UNL d   1       5.991  -0.253   4.560  0.00  0.00    -0.004 A 
ATOM      5  C6  UNL d   1       5.252  -0.791   3.501  0.00  0.00    -0.075 A 
ATOM      6  C7  UNL d   1       5.234  -0.125   2.156  0.00  0.00     0.076 C 
ATOM      7  C8  UNL d   1       4.528  -1.973   3.705  0.00  0.00     0.001 A 
ENDROOT
BRANCH   1   8
ATOM      8  C1  UNL d   1       3.748  -3.886   5.158  0.00  0.00     0.053 C 
ATOM      9  C   UNL d   1       4.512  -4.904   5.990  0.00  0.00     0.018 C 
ENDBRANCH   1   8
TORSDOF 1
ENDMDL
