MODEL 1
REMARK minimizedAffinity -1.17422807
REMARK minimizedRMSD -1
REMARK  1 active torsions:
REMARK  status: ('A' for Active; 'I' for Inactive)
REMARK    1  A    between atoms: C1_2  and  C2_3 
ROOT
ATOM      1  C2  UNL d   1       5.146  -3.707   5.446  0.00  0.00    -0.073 A 
ATOM      2  C3  UNL d   1       4.052  -3.618   4.578  0.00  0.00    -0.002 A 
ATOM      3  C4  UNL d   1       3.582  -2.371   4.162  0.00  0.00     0.004 A 
ATOM      4  C5  UNL d   1       4.204  -1.204   4.604  0.00  0.00    -0.004 A 
ATOM      5  C6  UNL d   1       5.305  -1.273   5.463  0.00  0.00    -0.075 A 
ATOM      6  C7  UNL d   1       5.984  -0.026   5.949  0.00  0.00     0.076 C 
ATOM      7  C8  UNL d   1       5.770  -2.528   5.878  0.00  0.00     0.001 A 
ENDROOT
BRANCH   1   8
ATOM      8  C1  UNL d   1       5.661  -5.051   5.892  0.00  0.00     0.053 C 
ATOM      9  C   UNL d   1       5.937  -5.975   4.717  0.00  0.00     0.018 C 
ENDBRANCH   1   8
TORSDOF 1
ENDMDL
