MODEL 1
REMARK minimizedAffinity 9.74866676
REMARK minimizedRMSD -1
REMARK  1 active torsions:
REMARK  status: ('A' for Active; 'I' for Inactive)
REMARK    1  A    between atoms: C1_2  and  C2_3 
ROOT
ATOM      1  C2  UNL d   1       5.533  -0.175   5.343  0.00  0.00    -0.073 A 
ATOM      2  C3  UNL d   1       5.998  -1.321   5.999  0.00  0.00    -0.002 A 
ATOM      3  C4  UNL d   1       5.904  -2.571   5.386  0.00  0.00     0.004 A 
ATOM      4  C5  UNL d   1       5.351  -2.687   4.111  0.00  0.00    -0.004 A 
ATOM      5  C6  UNL d   1       4.892  -1.552   3.434  0.00  0.00    -0.075 A 
ATOM      6  C7  UNL d   1       4.292  -1.661   2.063  0.00  0.00     0.076 C 
ATOM      7  C8  UNL d   1       4.987  -0.301   4.058  0.00  0.00     0.001 A 
ENDROOT
BRANCH   1   8
ATOM      8  C1  UNL d   1       5.639   1.178   5.999  0.00  0.00     0.053 C 
ATOM      9  C   UNL d   1       4.818   2.230   5.270  0.00  0.00     0.018 C 
ENDBRANCH   1   8
TORSDOF 1
ENDMDL
