MODEL 1
REMARK minimizedAffinity -3.22653961
REMARK minimizedRMSD -1
REMARK  1 active torsions:
REMARK  status: ('A' for Active; 'I' for Inactive)
REMARK    1  A    between atoms: C1_2  and  C2_3 
ROOT
ATOM      1  C2  UNL d   1       5.979   1.846   4.993  0.00  0.00    -0.073 A 
ATOM      2  C3  UNL d   1       5.993   1.574   3.621  0.00  0.00    -0.002 A 
ATOM      3  C4  UNL d   1       6.000   2.619   2.695  0.00  0.00     0.004 A 
ATOM      4  C5  UNL d   1       6.000   3.944   3.132  0.00  0.00    -0.004 A 
ATOM      5  C6  UNL d   1       5.998   4.235   4.500  0.00  0.00    -0.075 A 
ATOM      6  C7  UNL d   1       5.995   5.655   4.986  0.00  0.00     0.076 C 
ATOM      7  C8  UNL d   1       5.988   3.181   5.423  0.00  0.00     0.001 A 
ENDROOT
BRANCH   1   8
ATOM      8  C1  UNL d   1       5.978   0.722   5.996  0.00  0.00     0.053 C 
ATOM      9  C   UNL d   1       5.929  -0.642   5.324  0.00  0.00     0.018 C 
ENDBRANCH   1   8
TORSDOF 1
ENDMDL
