MODEL 1
REMARK minimizedAffinity -2.65171766
REMARK minimizedRMSD -1
REMARK  1 active torsions:
REMARK  status: ('A' for Active; 'I' for Inactive)
REMARK    1  A    between atoms: C1_2  and  C2_3 
ROOT
ATOM      1  C2  UNL d   1       5.619  -0.185   5.252  0.00  0.00    -0.073 A 
ATOM      2  C3  UNL d   1       5.410  -0.162   3.869  0.00  0.00    -0.002 A 
ATOM      3  C4  UNL d   1       5.376   1.052   3.181  0.00  0.00     0.004 A 
ATOM      4  C5  UNL d   1       5.558   2.253   3.866  0.00  0.00    -0.004 A 
ATOM      5  C6  UNL d   1       5.781   2.250   5.247  0.00  0.00    -0.075 A 
ATOM      6  C7  UNL d   1       5.976   3.533   6.000  0.00  0.00     0.076 C 
ATOM      7  C8  UNL d   1       5.810   1.027   5.931  0.00  0.00     0.001 A 
ENDROOT
BRANCH   1   8
ATOM      8  C1  UNL d   1       5.663  -1.493   5.998  0.00  0.00     0.053 C 
ATOM      9  C   UNL d   1       5.238  -2.662   5.124  0.00  0.00     0.018 C 
ENDBRANCH   1   8
TORSDOF 1
ENDMDL
