MODEL 1
REMARK minimizedAffinity -1.4881978
REMARK minimizedRMSD -1
REMARK  1 active torsions:
REMARK  status: ('A' for Active; 'I' for Inactive)
REMARK    1  A    between atoms: C1_2  and  C2_3 
ROOT
ATOM      1  C2  UNL d   1       5.743   2.501   5.280  0.00  0.00    -0.073 A 
ATOM      2  C3  UNL d   1       5.263   2.496   3.965  0.00  0.00    -0.002 A 
ATOM      3  C4  UNL d   1       5.021   1.289   3.308  0.00  0.00     0.004 A 
ATOM      4  C5  UNL d   1       5.248   0.077   3.960  0.00  0.00    -0.004 A 
ATOM      5  C6  UNL d   1       5.716   0.062   5.278  0.00  0.00    -0.075 A 
ATOM      6  C7  UNL d   1       5.968  -1.234   5.992  0.00  0.00     0.076 C 
ATOM      7  C8  UNL d   1       5.959   1.278   5.930  0.00  0.00     0.001 A 
ENDROOT
BRANCH   1   8
ATOM      8  C1  UNL d   1       6.000   3.802   5.996  0.00  0.00     0.053 C 
ATOM      9  C   UNL d   1       5.986   4.988   5.045  0.00  0.00     0.018 C 
ENDBRANCH   1   8
TORSDOF 1
ENDMDL
