MODEL 1
REMARK minimizedAffinity 8.53001976
REMARK minimizedRMSD -1
REMARK  1 active torsions:
REMARK  status: ('A' for Active; 'I' for Inactive)
REMARK    1  A    between atoms: C1_2  and  C2_3 
ROOT
ATOM      1  C2  UNL d   1       0.968   0.237  -0.314  0.00  0.00    -0.073 A 
ATOM      2  C3  UNL d   1       2.360   0.194  -0.179  0.00  0.00    -0.002 A 
ATOM      3  C4  UNL d   1       3.005  -1.013   0.094  0.00  0.00     0.004 A 
ATOM      4  C5  UNL d   1       2.268  -2.189   0.226  0.00  0.00    -0.004 A 
ATOM      5  C6  UNL d   1       0.877  -2.169   0.082  0.00  0.00    -0.075 A 
ATOM      6  C7  UNL d   1       0.068  -3.425   0.224  0.00  0.00     0.076 C 
ATOM      7  C8  UNL d   1       0.235  -0.953  -0.188  0.00  0.00     0.001 A 
ENDROOT
BRANCH   1   8
ATOM      8  C1  UNL d   1       0.267   1.536  -0.615  0.00  0.00     0.053 C 
ATOM      9  C   UNL d   1       0.675   2.640   0.348  0.00  0.00     0.018 C 
ENDBRANCH   1   8
TORSDOF 1
ENDMDL
