MODEL 1
REMARK minimizedAffinity -1.66977227
REMARK minimizedRMSD -1
REMARK  1 active torsions:
REMARK  status: ('A' for Active; 'I' for Inactive)
REMARK    1  A    between atoms: C1_2  and  C2_3 
ROOT
ATOM      1  C2  UNL d   1       5.940   0.058   5.095  0.00  0.00    -0.073 A 
ATOM      2  C3  UNL d   1       5.970  -0.006   3.697  0.00  0.00    -0.002 A 
ATOM      3  C4  UNL d   1       5.999  -1.242   3.049  0.00  0.00     0.004 A 
ATOM      4  C5  UNL d   1       5.991  -2.424   3.790  0.00  0.00    -0.004 A 
ATOM      5  C6  UNL d   1       5.949  -2.380   5.187  0.00  0.00    -0.075 A 
ATOM      6  C7  UNL d   1       5.942  -3.642   5.999  0.00  0.00     0.076 C 
ATOM      7  C8  UNL d   1       5.923  -1.136   5.831  0.00  0.00     0.001 A 
ENDROOT
BRANCH   1   8
ATOM      8  C1  UNL d   1       5.903   1.390   5.799  0.00  0.00     0.053 C 
ATOM      9  C   UNL d   1       5.953   2.553   4.822  0.00  0.00     0.018 C 
ENDBRANCH   1   8
TORSDOF 1
ENDMDL
