MODEL 1
REMARK minimizedAffinity 4.92291117
REMARK minimizedRMSD -1
REMARK  1 active torsions:
REMARK  status: ('A' for Active; 'I' for Inactive)
REMARK    1  A    between atoms: C1_2  and  C2_3 
ROOT
ATOM      1  C2  UNL d   1       0.975  -2.035  -1.284  0.00  0.00    -0.073 A 
ATOM      2  C3  UNL d   1       0.125  -2.802  -0.480  0.00  0.00    -0.002 A 
ATOM      3  C4  UNL d   1      -0.945  -2.204   0.187  0.00  0.00     0.004 A 
ATOM      4  C5  UNL d   1      -1.179  -0.836   0.051  0.00  0.00    -0.004 A 
ATOM      5  C6  UNL d   1      -0.348  -0.054  -0.757  0.00  0.00    -0.075 A 
ATOM      6  C7  UNL d   1      -0.585   1.420  -0.911  0.00  0.00     0.076 C 
ATOM      7  C8  UNL d   1       0.726  -0.662  -1.421  0.00  0.00     0.001 A 
ENDROOT
BRANCH   1   8
ATOM      8  C1  UNL d   1       2.128  -2.678  -2.011  0.00  0.00     0.053 C 
ATOM      9  C   UNL d   1       3.442  -1.961  -1.743  0.00  0.00     0.018 C 
ENDBRANCH   1   8
TORSDOF 1
ENDMDL
