MODEL 1
REMARK minimizedAffinity -0.724202096
REMARK minimizedRMSD -1
REMARK  1 active torsions:
REMARK  status: ('A' for Active; 'I' for Inactive)
REMARK    1  A    between atoms: C1_2  and  C2_3 
ROOT
ATOM      1  C2  UNL d   1       5.597   0.540   5.070  0.00  0.00    -0.073 A 
ATOM      2  C3  UNL d   1       4.872   0.273   3.904  0.00  0.00    -0.002 A 
ATOM      3  C4  UNL d   1       4.507   1.312   3.047  0.00  0.00     0.004 A 
ATOM      4  C5  UNL d   1       4.869   2.626   3.343  0.00  0.00    -0.004 A 
ATOM      5  C6  UNL d   1       5.604   2.912   4.497  0.00  0.00    -0.075 A 
ATOM      6  C7  UNL d   1       6.000   4.321   4.831  0.00  0.00     0.076 C 
ATOM      7  C8  UNL d   1       5.965   1.864   5.355  0.00  0.00     0.001 A 
ENDROOT
BRANCH   1   8
ATOM      8  C1  UNL d   1       5.999  -0.579   5.995  0.00  0.00     0.053 C 
ATOM      9  C   UNL d   1       5.768  -1.946   5.370  0.00  0.00     0.018 C 
ENDBRANCH   1   8
TORSDOF 1
ENDMDL
