MODEL 1
REMARK minimizedAffinity 3.18280435
REMARK minimizedRMSD -1
REMARK  1 active torsions:
REMARK  status: ('A' for Active; 'I' for Inactive)
REMARK    1  A    between atoms: C1_2  and  C2_3 
ROOT
ATOM      1  C2  UNL d   1      -0.549   0.602   1.506  0.00  0.00    -0.073 A 
ATOM      2  C3  UNL d   1      -0.170  -0.223   0.441  0.00  0.00    -0.002 A 
ATOM      3  C4  UNL d   1       0.579   0.291  -0.618  0.00  0.00     0.004 A 
ATOM      4  C5  UNL d   1       0.964   1.632  -0.619  0.00  0.00    -0.004 A 
ATOM      5  C6  UNL d   1       0.605   2.470   0.442  0.00  0.00    -0.075 A 
ATOM      6  C7  UNL d   1       1.009   3.915   0.454  0.00  0.00     0.076 C 
ATOM      7  C8  UNL d   1      -0.150   1.946   1.500  0.00  0.00     0.001 A 
ENDROOT
BRANCH   1   8
ATOM      8  C1  UNL d   1      -1.353   0.049   2.654  0.00  0.00     0.053 C 
ATOM      9  C   UNL d   1      -2.257   1.102   3.275  0.00  0.00     0.018 C 
ENDBRANCH   1   8
TORSDOF 1
ENDMDL
