MODEL 1
REMARK minimizedAffinity -3.55588245
REMARK minimizedRMSD -1
REMARK  1 active torsions:
REMARK  status: ('A' for Active; 'I' for Inactive)
REMARK    1  A    between atoms: C1_2  and  C2_3 
ROOT
ATOM      1  C2  UNL d   1       5.820   0.611   5.252  0.00  0.00    -0.073 A 
ATOM      2  C3  UNL d   1       5.610   0.612   3.869  0.00  0.00    -0.002 A 
ATOM      3  C4  UNL d   1       5.451   1.816   3.181  0.00  0.00     0.004 A 
ATOM      4  C5  UNL d   1       5.506   3.029   3.866  0.00  0.00    -0.004 A 
ATOM      5  C6  UNL d   1       5.727   3.049   5.247  0.00  0.00    -0.075 A 
ATOM      6  C7  UNL d   1       5.788   4.346   6.000  0.00  0.00     0.076 C 
ATOM      7  C8  UNL d   1       5.884   1.837   5.931  0.00  0.00     0.001 A 
ENDROOT
BRANCH   1   8
ATOM      8  C1  UNL d   1       6.000  -0.685   5.999  0.00  0.00     0.053 C 
ATOM      9  C   UNL d   1       4.942  -1.711   5.622  0.00  0.00     0.018 C 
ENDBRANCH   1   8
TORSDOF 1
ENDMDL
