MODEL 1
REMARK minimizedAffinity -2.22696948
REMARK minimizedRMSD -1
REMARK  1 active torsions:
REMARK  status: ('A' for Active; 'I' for Inactive)
REMARK    1  A    between atoms: C1_2  and  C2_3 
ROOT
ATOM      1  C2  UNL d   1       5.456   2.176   5.238  0.00  0.00    -0.073 A 
ATOM      2  C3  UNL d   1       5.447   2.164   3.839  0.00  0.00    -0.002 A 
ATOM      3  C4  UNL d   1       5.618   0.966   3.143  0.00  0.00     0.004 A 
ATOM      4  C5  UNL d   1       5.792  -0.230   3.838  0.00  0.00    -0.004 A 
ATOM      5  C6  UNL d   1       5.793  -0.240   5.237  0.00  0.00    -0.075 A 
ATOM      6  C7  UNL d   1       5.982  -1.519   5.999  0.00  0.00     0.076 C 
ATOM      7  C8  UNL d   1       5.623   0.967   5.928  0.00  0.00     0.001 A 
ENDROOT
BRANCH   1   8
ATOM      8  C1  UNL d   1       5.266   3.466   5.994  0.00  0.00     0.053 C 
ATOM      9  C   UNL d   1       6.000   4.625   5.338  0.00  0.00     0.018 C 
ENDBRANCH   1   8
TORSDOF 1
ENDMDL
