MODEL 1
REMARK minimizedAffinity -2.41292977
REMARK minimizedRMSD -1
REMARK  3 active torsions:
REMARK  status: ('A' for Active; 'I' for Inactive)
REMARK    1  A    between atoms: C3'_2  and  C2'_3 
REMARK    2  A    between atoms: C2'_3  and  C1'_4 
REMARK    3  A    between atoms: C1'_4  and  C1_5 
ROOT
ATOM      1  C1  N4B d   1       0.275  -0.480   0.474  0.00  0.00    -0.075 A 
ATOM      2  C2  N4B d   1      -0.153   0.771   0.971  0.00  0.00     0.002 A 
ATOM      3  C3  N4B d   1       0.069   1.912   0.240  0.00  0.00     0.002 A 
ATOM      4  C4  N4B d   1       0.732   1.830  -0.976  0.00  0.00    -0.004 A 
ATOM      5  C5  N4B d   1       1.120   0.614  -1.460  0.00  0.00     0.002 A 
ATOM      6  C6  N4B d   1       0.899  -0.541  -0.738  0.00  0.00     0.002 A 
ENDROOT
BRANCH   1   7
ATOM      7  C1' N4B d   1       0.131  -1.744   1.277  0.00  0.00     0.057 C 
BRANCH   7   8
ATOM      8  C2' N4B d   1       1.485  -2.115   1.875  0.00  0.00     0.009 C 
BRANCH   8   9
ATOM      9  C3' N4B d   1       2.293  -0.887   2.257  0.00  0.00     0.004 C 
ATOM     10  C4' N4B d   1       3.641  -0.852   1.600  0.00  0.00     0.003 C 
ENDBRANCH   8   9
ENDBRANCH   7   8
ENDBRANCH   1   7
TORSDOF 3
ENDMDL
