MODEL 1
REMARK minimizedAffinity 6.21245527
REMARK minimizedRMSD -1
REMARK  3 active torsions:
REMARK  status: ('A' for Active; 'I' for Inactive)
REMARK    1  A    between atoms: C3'_2  and  C2'_3 
REMARK    2  A    between atoms: C2'_3  and  C1'_4 
REMARK    3  A    between atoms: C1'_4  and  C1_5 
ROOT
ATOM      1  C1  N4B d   1       2.208   1.134   1.454  0.00  0.00    -0.075 A 
ATOM      2  C2  N4B d   1       2.322   2.419   2.027  0.00  0.00     0.002 A 
ATOM      3  C3  N4B d   1       2.698   2.554   3.341  0.00  0.00     0.002 A 
ATOM      4  C4  N4B d   1       2.945   1.423   4.104  0.00  0.00    -0.004 A 
ATOM      5  C5  N4B d   1       2.858   0.186   3.535  0.00  0.00     0.002 A 
ATOM      6  C6  N4B d   1       2.485   0.035   2.215  0.00  0.00     0.002 A 
ENDROOT
BRANCH   1   7
ATOM      7  C1' N4B d   1       1.717   0.933   0.046  0.00  0.00     0.057 C 
BRANCH   7   8
ATOM      8  C2' N4B d   1       0.291   1.462  -0.067  0.00  0.00     0.009 C 
BRANCH   8   9
ATOM      9  C3' N4B d   1       0.250   2.867  -0.643  0.00  0.00     0.004 C 
ATOM     10  C4' N4B d   1      -0.304   3.873   0.321  0.00  0.00     0.003 C 
ENDBRANCH   8   9
ENDBRANCH   7   8
ENDBRANCH   1   7
TORSDOF 3
ENDMDL
