MODEL 1
REMARK minimizedAffinity 6.18669319
REMARK minimizedRMSD -1
REMARK  3 active torsions:
REMARK  status: ('A' for Active; 'I' for Inactive)
REMARK    1  A    between atoms: C3'_2  and  C2'_3 
REMARK    2  A    between atoms: C2'_3  and  C1'_4 
REMARK    3  A    between atoms: C1'_4  and  C1_5 
ROOT
ATOM      1  C1  N4B d   1       1.814  -1.914   3.226  0.00  0.00    -0.075 A 
ATOM      2  C2  N4B d   1       2.456  -0.716   2.844  0.00  0.00     0.002 A 
ATOM      3  C3  N4B d   1       2.159  -0.133   1.636  0.00  0.00     0.002 A 
ATOM      4  C4  N4B d   1       1.242  -0.738   0.790  0.00  0.00    -0.004 A 
ATOM      5  C5  N4B d   1       0.608  -1.882   1.177  0.00  0.00     0.002 A 
ATOM      6  C6  N4B d   1       0.894  -2.477   2.390  0.00  0.00     0.002 A 
ENDROOT
BRANCH   1   7
ATOM      7  C1' N4B d   1       2.169  -2.634   4.498  0.00  0.00     0.057 C 
BRANCH   7   8
ATOM      8  C2' N4B d   1       3.221  -3.697   4.196  0.00  0.00     0.009 C 
BRANCH   8   9
ATOM      9  C3' N4B d   1       4.582  -3.326   4.759  0.00  0.00     0.004 C 
ATOM     10  C4' N4B d   1       5.644  -3.238   3.703  0.00  0.00     0.003 C 
ENDBRANCH   8   9
ENDBRANCH   7   8
ENDBRANCH   1   7
TORSDOF 3
ENDMDL
