MODEL 1
REMARK minimizedAffinity 0.833257318
REMARK minimizedRMSD -1
REMARK  3 active torsions:
REMARK  status: ('A' for Active; 'I' for Inactive)
REMARK    1  A    between atoms: C3'_2  and  C2'_3 
REMARK    2  A    between atoms: C2'_3  and  C1'_4 
REMARK    3  A    between atoms: C1'_4  and  C1_5 
ROOT
ATOM      1  C1  N4B d   1       1.546  -0.724   2.355  0.00  0.00    -0.075 A 
ATOM      2  C2  N4B d   1       0.406  -0.992   1.565  0.00  0.00     0.002 A 
ATOM      3  C3  N4B d   1       0.065  -0.140   0.542  0.00  0.00     0.002 A 
ATOM      4  C4  N4B d   1       0.834   0.989   0.305  0.00  0.00    -0.004 A 
ATOM      5  C5  N4B d   1       1.947   1.226   1.057  0.00  0.00     0.002 A 
ATOM      6  C6  N4B d   1       2.305   0.377   2.085  0.00  0.00     0.002 A 
ENDROOT
BRANCH   1   7
ATOM      7  C1' N4B d   1       1.910  -1.579   3.538  0.00  0.00     0.057 C 
BRANCH   7   8
ATOM      8  C2' N4B d   1       3.341  -1.263   3.964  0.00  0.00     0.009 C 
BRANCH   8   9
ATOM      9  C3' N4B d   1       4.012  -2.452   4.628  0.00  0.00     0.004 C 
ATOM     10  C4' N4B d   1       5.458  -2.587   4.253  0.00  0.00     0.003 C 
ENDBRANCH   8   9
ENDBRANCH   7   8
ENDBRANCH   1   7
TORSDOF 3
ENDMDL
