MODEL 1
REMARK minimizedAffinity 2.1696713
REMARK minimizedRMSD -1
REMARK  3 active torsions:
REMARK  status: ('A' for Active; 'I' for Inactive)
REMARK    1  A    between atoms: C3'_2  and  C2'_3 
REMARK    2  A    between atoms: C2'_3  and  C1'_4 
REMARK    3  A    between atoms: C1'_4  and  C1_5 
ROOT
ATOM      1  C1  N4B d   1       1.808  -0.636   2.123  0.00  0.00    -0.075 A 
ATOM      2  C2  N4B d   1       2.093   0.399   1.205  0.00  0.00     0.002 A 
ATOM      3  C3  N4B d   1       2.666   1.567   1.645  0.00  0.00     0.002 A 
ATOM      4  C4  N4B d   1       2.942   1.730   2.994  0.00  0.00    -0.004 A 
ATOM      5  C5  N4B d   1       2.687   0.716   3.870  0.00  0.00     0.002 A 
ATOM      6  C6  N4B d   1       2.116  -0.465   3.442  0.00  0.00     0.002 A 
ENDROOT
BRANCH   1   7
ATOM      7  C1' N4B d   1       1.104  -1.898   1.703  0.00  0.00     0.057 C 
BRANCH   7   8
ATOM      8  C2' N4B d   1      -0.013  -1.546   0.725  0.00  0.00     0.009 C 
BRANCH   8   9
ATOM      9  C3' N4B d   1      -0.290  -2.676  -0.251  0.00  0.00     0.004 C 
ATOM     10  C4' N4B d   1       0.956  -3.395  -0.677  0.00  0.00     0.003 C 
ENDBRANCH   8   9
ENDBRANCH   7   8
ENDBRANCH   1   7
TORSDOF 3
ENDMDL
