MODEL 1
REMARK minimizedAffinity -1.60024405
REMARK minimizedRMSD -1
REMARK  0 active torsions:
REMARK  status: ('A' for Active; 'I' for Inactive)
ROOT
ATOM      1  C1  BNZ d   1      -2.385  -0.302   0.434  0.00  0.00     0.000 A 
ATOM      2  C2  BNZ d   1      -3.445   0.384  -0.096  0.00  0.00     0.000 A 
ATOM      3  C3  BNZ d   1      -4.292   1.095   0.708  0.00  0.00     0.000 A 
ATOM      4  C4  BNZ d   1      -4.102   1.086   2.043  0.00  0.00     0.000 A 
ATOM      5  C5  BNZ d   1      -3.043   0.391   2.594  0.00  0.00     0.000 A 
ATOM      6  C6  BNZ d   1      -2.170  -0.292   1.778  0.00  0.00     0.000 A 
ENDROOT
TORSDOF 0
ENDMDL
