MODEL 1
REMARK minimizedAffinity -1.28252447
REMARK minimizedRMSD -1
REMARK  0 active torsions:
REMARK  status: ('A' for Active; 'I' for Inactive)
ROOT
ATOM      1  C1  BNZ d   1      -0.599  -0.320   0.937  0.00  0.00     0.000 A 
ATOM      2  C2  BNZ d   1      -1.077  -0.902  -0.207  0.00  0.00     0.000 A 
ATOM      3  C3  BNZ d   1      -2.315  -1.482  -0.232  0.00  0.00     0.000 A 
ATOM      4  C4  BNZ d   1      -3.054  -1.516   0.896  0.00  0.00     0.000 A 
ATOM      5  C5  BNZ d   1      -2.581  -0.942   2.059  0.00  0.00     0.000 A 
ATOM      6  C6  BNZ d   1      -1.352  -0.324   2.070  0.00  0.00     0.000 A 
ENDROOT
TORSDOF 0
ENDMDL
