MODEL 1
REMARK minimizedAffinity -4.27597809
REMARK minimizedRMSD -1
REMARK  0 active torsions:
REMARK  status: ('A' for Active; 'I' for Inactive)
ROOT
ATOM      1  C1  BNZ d   1      -2.524   0.454   1.495  0.00  0.00     0.000 A 
ATOM      2  C2  BNZ d   1      -1.302  -0.159   1.427  0.00  0.00     0.000 A 
ATOM      3  C3  BNZ d   1      -1.115  -1.263   0.643  0.00  0.00     0.000 A 
ATOM      4  C4  BNZ d   1      -2.159  -1.775  -0.040  0.00  0.00     0.000 A 
ATOM      5  C5  BNZ d   1      -3.400  -1.174   0.025  0.00  0.00     0.000 A 
ATOM      6  C6  BNZ d   1      -3.575  -0.040   0.785  0.00  0.00     0.000 A 
ENDROOT
TORSDOF 0
ENDMDL
