MODEL 1
REMARK minimizedAffinity -4.96274233
REMARK minimizedRMSD -1
REMARK  0 active torsions:
REMARK  status: ('A' for Active; 'I' for Inactive)
ROOT
ATOM      1  C1  BNZ d   1      -0.534  -0.518   0.374  0.00  0.00     0.000 A 
ATOM      2  C2  BNZ d   1      -0.465  -0.164   1.695  0.00  0.00     0.000 A 
ATOM      3  C3  BNZ d   1      -1.587   0.214   2.378  0.00  0.00     0.000 A 
ATOM      4  C4  BNZ d   1      -2.769   0.275   1.730  0.00  0.00     0.000 A 
ATOM      5  C5  BNZ d   1      -2.853  -0.070   0.396  0.00  0.00     0.000 A 
ATOM      6  C6  BNZ d   1      -1.729  -0.487  -0.278  0.00  0.00     0.000 A 
ENDROOT
TORSDOF 0
ENDMDL
