MODEL 1
REMARK minimizedAffinity 9.40426922
REMARK minimizedRMSD -1
REMARK  1 active torsions:
REMARK  status: ('A' for Active; 'I' for Inactive)
REMARK    1  A    between atoms: N_2  and  C1_3 
ROOT
ATOM      1  C1  UNL d   1       4.117  -3.285   5.927  0.00  0.00     0.143 A 
ATOM      2  C2  UNL d   1       3.168  -4.313   5.915  0.00  0.00    -0.057 A 
ATOM      3  C3  UNL d   1       3.555  -5.658   5.955  0.00  0.00     0.033 A 
ATOM      4  C4  UNL d   1       4.903  -6.000   5.979  0.00  0.00    -0.042 A 
ATOM      5  C5  UNL d   1       5.864  -4.995   5.967  0.00  0.00     0.033 A 
ATOM      6  C6  UNL d   1       5.471  -3.653   5.934  0.00  0.00    -0.057 A 
ENDROOT
BRANCH   1   7
ATOM      7  N   UNL d   1       3.799  -1.931   5.790  0.00  0.00    -0.732 N 
ATOM      8  C   UNL d   1       3.792  -1.305   4.485  0.00  0.00     0.284 C 
ATOM      9  H3  UNL d   1       3.027  -1.651   6.390  0.00  0.00     0.395 HD
ENDBRANCH   1   7
TORSDOF 1
ENDMDL
