MODEL 1
REMARK minimizedAffinity 6.2444396
REMARK minimizedRMSD -1
REMARK  1 active torsions:
REMARK  status: ('A' for Active; 'I' for Inactive)
REMARK    1  A    between atoms: N_2  and  C1_3 
ROOT
ATOM      1  C1  UNL d   1       1.085  -2.144   1.100  0.00  0.00     0.143 A 
ATOM      2  C2  UNL d   1      -0.290  -2.264   1.329  0.00  0.00    -0.057 A 
ATOM      3  C3  UNL d   1      -0.909  -1.606   2.399  0.00  0.00     0.033 A 
ATOM      4  C4  UNL d   1      -0.155  -0.837   3.279  0.00  0.00    -0.042 A 
ATOM      5  C5  UNL d   1       1.217  -0.723   3.086  0.00  0.00     0.033 A 
ATOM      6  C6  UNL d   1       1.828  -1.378   2.011  0.00  0.00    -0.057 A 
ENDROOT
BRANCH   1   7
ATOM      7  N   UNL d   1       1.773  -2.852   0.112  0.00  0.00    -0.732 N 
ATOM      8  C   UNL d   1       2.323  -4.161   0.391  0.00  0.00     0.284 C 
ATOM      9  H3  UNL d   1       1.333  -2.772  -0.802  0.00  0.00     0.395 HD
ENDBRANCH   1   7
TORSDOF 1
ENDMDL
