MODEL 1
REMARK minimizedAffinity 4.04685402
REMARK minimizedRMSD -1
REMARK  1 active torsions:
REMARK  status: ('A' for Active; 'I' for Inactive)
REMARK    1  A    between atoms: N_2  and  C1_3 
ROOT
ATOM      1  C1  UNL d   1       4.882  -2.393   3.766  0.00  0.00     0.143 A 
ATOM      2  C2  UNL d   1       3.794  -2.867   3.025  0.00  0.00    -0.057 A 
ATOM      3  C3  UNL d   1       3.815  -2.870   1.625  0.00  0.00     0.033 A 
ATOM      4  C4  UNL d   1       4.917  -2.369   0.939  0.00  0.00    -0.042 A 
ATOM      5  C5  UNL d   1       5.999  -1.870   1.655  0.00  0.00     0.033 A 
ATOM      6  C6  UNL d   1       5.975  -1.876   3.053  0.00  0.00    -0.057 A 
ENDROOT
BRANCH   1   7
ATOM      7  N   UNL d   1       4.881  -2.273   5.158  0.00  0.00    -0.732 N 
ATOM      8  C   UNL d   1       4.953  -3.449   5.999  0.00  0.00     0.284 C 
ATOM      9  H3  UNL d   1       5.452  -1.496   5.481  0.00  0.00     0.395 HD
ENDBRANCH   1   7
TORSDOF 1
ENDMDL
