MODEL 1
REMARK minimizedAffinity 2.02130556
REMARK minimizedRMSD -1
REMARK  1 active torsions:
REMARK  status: ('A' for Active; 'I' for Inactive)
REMARK    1  A    between atoms: N_2  and  C1_3 
ROOT
ATOM      1  C1  UNL d   1      -4.162   0.275  -2.603  0.00  0.00     0.143 A 
ATOM      2  C2  UNL d   1      -5.044   0.187  -3.686  0.00  0.00    -0.057 A 
ATOM      3  C3  UNL d   1      -5.136  -0.980  -4.454  0.00  0.00     0.033 A 
ATOM      4  C4  UNL d   1      -4.325  -2.074  -4.169  0.00  0.00    -0.042 A 
ATOM      5  C5  UNL d   1      -3.424  -1.999  -3.113  0.00  0.00     0.033 A 
ATOM      6  C6  UNL d   1      -3.341  -0.833  -2.346  0.00  0.00    -0.057 A 
ENDROOT
BRANCH   1   7
ATOM      7  N   UNL d   1      -3.954   1.442  -1.863  0.00  0.00    -0.732 N 
ATOM      8  C   UNL d   1      -3.018   2.447  -2.320  0.00  0.00     0.284 C 
ATOM      9  H3  UNL d   1      -4.818   1.820  -1.483  0.00  0.00     0.395 HD
ENDBRANCH   1   7
TORSDOF 1
ENDMDL
