MODEL 1
REMARK minimizedAffinity -5.99721527
REMARK minimizedRMSD -1
REMARK  0 active torsions:
REMARK  status: ('A' for Active; 'I' for Inactive)
ROOT
ATOM      1  C1  DEN d   1       0.671   1.169  -0.241  0.00  0.00     0.130 A 
ATOM      2  C2  DEN d   1       0.070   0.573   0.949  0.00  0.00    -0.031 A 
ATOM      3  C3  DEN d   1       0.176  -0.895   0.827  0.00  0.00     0.027 A 
ATOM      4  C4  DEN d   1       1.210  -2.295  -1.076  0.00  0.00     0.027 A 
ATOM      5  C5  DEN d   1       1.833  -2.235  -2.303  0.00  0.00    -0.003 A 
ATOM      6  C6  DEN d   1       2.080  -1.048  -2.939  0.00  0.00     0.001 A 
ATOM      7  C7  DEN d   1       1.742   0.132  -2.329  0.00  0.00     0.017 A 
ATOM      8  C8  DEN d   1       1.107   0.079  -1.096  0.00  0.00    -0.094 A 
ATOM      9  C9  DEN d   1       0.877  -1.131  -0.463  0.00  0.00    -0.072 A 
ENDROOT
TORSDOF 0
ENDMDL
