MODEL 1
REMARK minimizedAffinity -2.76277876
REMARK minimizedRMSD -1
REMARK  0 active torsions:
REMARK  status: ('A' for Active; 'I' for Inactive)
ROOT
ATOM      1  C1  DEN d   1       0.954  -0.970  -2.099  0.00  0.00     0.130 A 
ATOM      2  C2  DEN d   1       1.917  -0.015  -2.641  0.00  0.00    -0.031 A 
ATOM      3  C3  DEN d   1       1.887   1.195  -1.794  0.00  0.00     0.027 A 
ATOM      4  C4  DEN d   1       0.453   1.677   0.295  0.00  0.00     0.027 A 
ATOM      5  C5  DEN d   1      -0.519   1.173   1.130  0.00  0.00    -0.003 A 
ATOM      6  C6  DEN d   1      -1.088  -0.057   0.930  0.00  0.00     0.001 A 
ATOM      7  C7  DEN d   1      -0.657  -0.844  -0.106  0.00  0.00     0.017 A 
ATOM      8  C8  DEN d   1       0.318  -0.339  -0.957  0.00  0.00    -0.094 A 
ATOM      9  C9  DEN d   1       0.889   0.902  -0.730  0.00  0.00    -0.072 A 
ENDROOT
TORSDOF 0
ENDMDL
