MODEL 1
REMARK minimizedAffinity -2.29546905
REMARK minimizedRMSD -1
REMARK  0 active torsions:
REMARK  status: ('A' for Active; 'I' for Inactive)
ROOT
ATOM      1  C1  DEN d   1       0.932   1.495   0.870  0.00  0.00     0.130 A 
ATOM      2  C2  DEN d   1      -0.317   1.010   1.453  0.00  0.00    -0.031 A 
ATOM      3  C3  DEN d   1      -0.834  -0.071   0.590  0.00  0.00     0.027 A 
ATOM      4  C4  DEN d   1       0.173  -1.040  -1.577  0.00  0.00     0.027 A 
ATOM      5  C5  DEN d   1       1.216  -0.943  -2.472  0.00  0.00    -0.003 A 
ATOM      6  C6  DEN d   1       2.211  -0.011  -2.335  0.00  0.00     0.001 A 
ATOM      7  C7  DEN d   1       2.209   0.831  -1.254  0.00  0.00     0.017 A 
ATOM      8  C8  DEN d   1       1.156   0.744  -0.352  0.00  0.00    -0.094 A 
ATOM      9  C9  DEN d   1       0.166  -0.213  -0.502  0.00  0.00    -0.072 A 
ENDROOT
TORSDOF 0
ENDMDL
