MODEL 1
REMARK minimizedAffinity -5.127635
REMARK minimizedRMSD -1
REMARK  0 active torsions:
REMARK  status: ('A' for Active; 'I' for Inactive)
ROOT
ATOM      1  C1  DEN d   1      -0.088  -1.027   0.486  0.00  0.00     0.130 A 
ATOM      2  C2  DEN d   1      -0.162   0.419   0.670  0.00  0.00    -0.031 A 
ATOM      3  C3  DEN d   1       0.581   1.059  -0.435  0.00  0.00     0.027 A 
ATOM      4  C4  DEN d   1       1.828  -0.045  -2.404  0.00  0.00     0.027 A 
ATOM      5  C5  DEN d   1       2.178  -1.247  -2.979  0.00  0.00    -0.003 A 
ATOM      6  C6  DEN d   1       1.829  -2.450  -2.425  0.00  0.00     0.001 A 
ATOM      7  C7  DEN d   1       1.070  -2.478  -1.286  0.00  0.00     0.017 A 
ATOM      8  C8  DEN d   1       0.719  -1.271  -0.696  0.00  0.00    -0.094 A 
ATOM      9  C9  DEN d   1       1.070  -0.065  -1.278  0.00  0.00    -0.072 A 
ENDROOT
TORSDOF 0
ENDMDL
