MODEL 1
REMARK minimizedAffinity -3.75146103
REMARK minimizedRMSD -1
REMARK  0 active torsions:
REMARK  status: ('A' for Active; 'I' for Inactive)
ROOT
ATOM      1  C1  DEN d   1       0.730  -0.478  -2.462  0.00  0.00     0.130 A 
ATOM      2  C2  DEN d   1       1.914   0.344  -2.698  0.00  0.00    -0.031 A 
ATOM      3  C3  DEN d   1       2.215   1.077  -1.452  0.00  0.00     0.027 A 
ATOM      4  C4  DEN d   1       0.974   1.015   0.808  0.00  0.00     0.027 A 
ATOM      5  C5  DEN d   1      -0.095   0.474   1.487  0.00  0.00    -0.003 A 
ATOM      6  C6  DEN d   1      -0.977  -0.389   0.892  0.00  0.00     0.001 A 
ATOM      7  C7  DEN d   1      -0.778  -0.772  -0.408  0.00  0.00     0.017 A 
ATOM      8  C8  DEN d   1       0.293  -0.225  -1.101  0.00  0.00    -0.094 A 
ATOM      9  C9  DEN d   1       1.180   0.637  -0.478  0.00  0.00    -0.072 A 
ENDROOT
TORSDOF 0
ENDMDL
