MODEL 1
REMARK minimizedAffinity -2.85570431
REMARK minimizedRMSD -1
REMARK  0 active torsions:
REMARK  status: ('A' for Active; 'I' for Inactive)
ROOT
ATOM      1  C1  DEN d   1       0.449   0.917   0.437  0.00  0.00     0.130 A 
ATOM      2  C2  DEN d   1      -0.465   0.023   1.143  0.00  0.00    -0.031 A 
ATOM      3  C3  DEN d   1      -0.747  -1.129   0.264  0.00  0.00     0.027 A 
ATOM      4  C4  DEN d   1       0.142  -1.616  -2.108  0.00  0.00     0.027 A 
ATOM      5  C5  DEN d   1       0.936  -1.142  -3.128  0.00  0.00    -0.003 A 
ATOM      6  C6  DEN d   1       1.591   0.058  -3.046  0.00  0.00     0.001 A 
ATOM      7  C7  DEN d   1       1.500   0.805  -1.901  0.00  0.00     0.017 A 
ATOM      8  C8  DEN d   1       0.695   0.336  -0.871  0.00  0.00    -0.094 A 
ATOM      9  C9  DEN d   1       0.051  -0.885  -0.968  0.00  0.00    -0.072 A 
ENDROOT
TORSDOF 0
ENDMDL
