MODEL 1
REMARK minimizedAffinity -5.11178923
REMARK minimizedRMSD -1
REMARK  0 active torsions:
REMARK  status: ('A' for Active; 'I' for Inactive)
ROOT
ATOM      1  C1  DEN d   1      -0.690   0.045   0.051  0.00  0.00     0.130 A 
ATOM      2  C2  DEN d   1      -0.486   1.490   0.091  0.00  0.00    -0.031 A 
ATOM      3  C3  DEN d   1       0.606   1.823  -0.847  0.00  0.00     0.027 A 
ATOM      4  C4  DEN d   1       1.988   0.249  -2.351  0.00  0.00     0.027 A 
ATOM      5  C5  DEN d   1       2.187  -1.064  -2.720  0.00  0.00    -0.003 A 
ATOM      6  C6  DEN d   1       1.469  -2.093  -2.171  0.00  0.00     0.001 A 
ATOM      7  C7  DEN d   1       0.488  -1.823  -1.255  0.00  0.00     0.017 A 
ATOM      8  C8  DEN d   1       0.287  -0.504  -0.872  0.00  0.00    -0.094 A 
ATOM      9  C9  DEN d   1       1.014   0.524  -1.448  0.00  0.00    -0.072 A 
ENDROOT
TORSDOF 0
ENDMDL
