MODEL 1
REMARK minimizedAffinity -2.29767132
REMARK minimizedRMSD -1
REMARK  0 active torsions:
REMARK  status: ('A' for Active; 'I' for Inactive)
ROOT
ATOM      1  C1  DEN d   1       0.546  -1.468  -1.963  0.00  0.00     0.130 A 
ATOM      2  C2  DEN d   1       1.498  -0.647  -2.707  0.00  0.00    -0.031 A 
ATOM      3  C3  DEN d   1       1.653   0.635  -1.991  0.00  0.00     0.027 A 
ATOM      4  C4  DEN d   1       0.523   1.422   0.190  0.00  0.00     0.027 A 
ATOM      5  C5  DEN d   1      -0.371   1.076   1.179  0.00  0.00    -0.003 A 
ATOM      6  C6  DEN d   1      -1.042  -0.118   1.172  0.00  0.00     0.001 A 
ATOM      7  C7  DEN d   1      -0.795  -1.029   0.179  0.00  0.00     0.017 A 
ATOM      8  C8  DEN d   1       0.099  -0.684  -0.826  0.00  0.00    -0.094 A 
ATOM      9  C9  DEN d   1       0.776   0.523  -0.794  0.00  0.00    -0.072 A 
ENDROOT
TORSDOF 0
ENDMDL
