MODEL 1
REMARK minimizedAffinity -3.52249193
REMARK minimizedRMSD -1
REMARK  0 active torsions:
REMARK  status: ('A' for Active; 'I' for Inactive)
ROOT
ATOM      1  C1  DEN d   1      -0.781  -0.343   1.686  0.00  0.00     0.130 A 
ATOM      2  C2  DEN d   1      -0.577   1.103   1.694  0.00  0.00    -0.031 A 
ATOM      3  C3  DEN d   1       0.126   1.472   0.449  0.00  0.00     0.027 A 
ATOM      4  C4  DEN d   1       0.913  -0.047  -1.481  0.00  0.00     0.027 A 
ATOM      5  C5  DEN d   1       0.975  -1.347  -1.933  0.00  0.00    -0.003 A 
ATOM      6  C6  DEN d   1       0.491  -2.398  -1.201  0.00  0.00     0.001 A 
ATOM      7  C7  DEN d   1      -0.118  -2.163   0.004  0.00  0.00     0.017 A 
ATOM      8  C8  DEN d   1      -0.178  -0.856   0.469  0.00  0.00    -0.094 A 
ATOM      9  C9  DEN d   1       0.306   0.195  -0.292  0.00  0.00    -0.072 A 
ENDROOT
TORSDOF 0
ENDMDL
