MODEL 1
REMARK minimizedAffinity -4.33778191
REMARK minimizedRMSD -1
REMARK  0 active torsions:
REMARK  status: ('A' for Active; 'I' for Inactive)
ROOT
ATOM      1  C1  DEN d   1       0.667   1.203   0.680  0.00  0.00     0.130 A 
ATOM      2  C2  DEN d   1      -0.338   0.441   1.416  0.00  0.00    -0.031 A 
ATOM      3  C3  DEN d   1      -0.608  -0.802   0.666  0.00  0.00     0.027 A 
ATOM      4  C4  DEN d   1       0.429  -1.619  -1.549  0.00  0.00     0.027 A 
ATOM      5  C5  DEN d   1       1.318  -1.308  -2.554  0.00  0.00    -0.003 A 
ATOM      6  C6  DEN d   1       2.022  -0.132  -2.569  0.00  0.00     0.001 A 
ATOM      7  C7  DEN d   1       1.881   0.756  -1.536  0.00  0.00     0.017 A 
ATOM      8  C8  DEN d   1       0.981   0.453  -0.523  0.00  0.00    -0.094 A 
ATOM      9  C9  DEN d   1       0.289  -0.746  -0.519  0.00  0.00    -0.072 A 
ENDROOT
TORSDOF 0
ENDMDL
