MODEL 1
REMARK minimizedAffinity -4.19603205
REMARK minimizedRMSD -1
REMARK  0 active torsions:
REMARK  status: ('A' for Active; 'I' for Inactive)
ROOT
ATOM      1  C1  DEN d   1      -0.648  -0.794   0.137  0.00  0.00     0.130 A 
ATOM      2  C2  DEN d   1      -0.077  -0.169   1.327  0.00  0.00    -0.031 A 
ATOM      3  C3  DEN d   1       1.038   0.698   0.896  0.00  0.00     0.027 A 
ATOM      4  C4  DEN d   1       1.929   1.134  -1.485  0.00  0.00     0.027 A 
ATOM      5  C5  DEN d   1       1.773   0.820  -2.816  0.00  0.00    -0.003 A 
ATOM      6  C6  DEN d   1       0.830  -0.074  -3.250  0.00  0.00     0.001 A 
ATOM      7  C7  DEN d   1      -0.025  -0.650  -2.348  0.00  0.00     0.017 A 
ATOM      8  C8  DEN d   1       0.131  -0.343  -1.003  0.00  0.00    -0.094 A 
ATOM      9  C9  DEN d   1       1.082   0.572  -0.585  0.00  0.00    -0.072 A 
ENDROOT
TORSDOF 0
ENDMDL
