MODEL 1
REMARK minimizedAffinity -2.0261426
REMARK minimizedRMSD -1
REMARK  0 active torsions:
REMARK  status: ('A' for Active; 'I' for Inactive)
ROOT
ATOM      1  N1  IND d   1       6.000   3.055   2.671  0.00  0.00    -0.196 N 
ATOM      2  C2  IND d   1       5.987   4.071   3.585  0.00  0.00     0.054 A 
ATOM      3  C3  IND d   1       5.947   3.574   4.842  0.00  0.00    -0.031 A 
ATOM      4  C4  IND d   1       6.000   1.124   5.633  0.00  0.00     0.051 A 
ATOM      5  C5  IND d   1       5.975  -0.159   5.165  0.00  0.00    -0.031 A 
ATOM      6  C6  IND d   1       5.960  -0.443   3.815  0.00  0.00     0.015 A 
ATOM      7  C7  IND d   1       5.980   0.551   2.878  0.00  0.00    -0.016 A 
ATOM      8  C8  IND d   1       5.998   1.856   3.349  0.00  0.00    -0.047 A 
ATOM      9  C9  IND d   1       5.971   2.151   4.718  0.00  0.00    -0.096 A 
ATOM     10  HN1 IND d   1       6.007   3.149   1.816  0.00  0.00     0.298 HD
ENDROOT
TORSDOF 0
ENDMDL
