MODEL 1
REMARK minimizedAffinity 2.71524286
REMARK minimizedRMSD -1
REMARK  0 active torsions:
REMARK  status: ('A' for Active; 'I' for Inactive)
ROOT
ATOM      1  N1  IND d   1       4.846   0.026   5.506  0.00  0.00    -0.196 N 
ATOM      2  C2  IND d   1       5.507  -1.158   5.333  0.00  0.00     0.054 A 
ATOM      3  C3  IND d   1       5.996  -1.245   4.076  0.00  0.00    -0.031 A 
ATOM      4  C4  IND d   1       5.920   0.483   2.169  0.00  0.00     0.051 A 
ATOM      5  C5  IND d   1       5.395   1.701   1.840  0.00  0.00    -0.031 A 
ATOM      6  C6  IND d   1       4.648   2.439   2.735  0.00  0.00     0.015 A 
ATOM      7  C7  IND d   1       4.406   1.990   4.002  0.00  0.00    -0.016 A 
ATOM      8  C8  IND d   1       4.931   0.750   4.338  0.00  0.00    -0.047 A 
ATOM      9  C9  IND d   1       5.655  -0.023   3.420  0.00  0.00    -0.096 A 
ATOM     10  HN1 IND d   1       4.445   0.277   6.225  0.00  0.00     0.298 HD
ENDROOT
TORSDOF 0
ENDMDL
