MODEL 1
REMARK minimizedAffinity -3.28103113
REMARK minimizedRMSD -1
REMARK  0 active torsions:
REMARK  status: ('A' for Active; 'I' for Inactive)
ROOT
ATOM      1  N1  IND d   1       6.000   2.930   5.307  0.00  0.00    -0.196 N 
ATOM      2  C2  IND d   1       5.854   3.576   4.111  0.00  0.00     0.054 A 
ATOM      3  C3  IND d   1       5.568   2.691   3.130  0.00  0.00    -0.031 A 
ATOM      4  C4  IND d   1       5.191   0.149   3.280  0.00  0.00     0.051 A 
ATOM      5  C5  IND d   1       5.253  -0.899   4.155  0.00  0.00    -0.031 A 
ATOM      6  C6  IND d   1       5.570  -0.721   5.486  0.00  0.00     0.015 A 
ATOM      7  C7  IND d   1       5.828   0.520   5.997  0.00  0.00    -0.016 A 
ATOM      8  C8  IND d   1       5.773   1.586   5.110  0.00  0.00    -0.047 A 
ATOM      9  C9  IND d   1       5.494   1.406   3.749  0.00  0.00    -0.096 A 
ATOM     10  HN1 IND d   1       6.200   3.302   6.057  0.00  0.00     0.298 HD
ENDROOT
TORSDOF 0
ENDMDL
