MODEL 1
REMARK minimizedAffinity -3.33477664
REMARK minimizedRMSD -1
REMARK  0 active torsions:
REMARK  status: ('A' for Active; 'I' for Inactive)
ROOT
ATOM      1  N1  IND d   1       5.521  -0.073   6.000  0.00  0.00    -0.196 N 
ATOM      2  C2  IND d   1       5.614  -1.130   5.138  0.00  0.00     0.054 A 
ATOM      3  C3  IND d   1       5.769  -0.690   3.869  0.00  0.00    -0.031 A 
ATOM      4  C4  IND d   1       5.999   1.718   2.990  0.00  0.00     0.051 A 
ATOM      5  C5  IND d   1       5.940   3.023   3.393  0.00  0.00    -0.031 A 
ATOM      6  C6  IND d   1       5.737   3.369   4.714  0.00  0.00     0.015 A 
ATOM      7  C7  IND d   1       5.596   2.419   5.685  0.00  0.00    -0.016 A 
ATOM      8  C8  IND d   1       5.648   1.094   5.278  0.00  0.00    -0.047 A 
ATOM      9  C9  IND d   1       5.812   0.736   3.934  0.00  0.00    -0.096 A 
ATOM     10  HN1 IND d   1       5.402  -0.127   6.850  0.00  0.00     0.298 HD
ENDROOT
TORSDOF 0
ENDMDL
