MODEL 1
REMARK minimizedAffinity -1.72556806
REMARK minimizedRMSD -1
REMARK  0 active torsions:
REMARK  status: ('A' for Active; 'I' for Inactive)
ROOT
ATOM      1  N1  IND d   1       5.969   2.459   4.076  0.00  0.00    -0.196 N 
ATOM      2  C2  IND d   1       5.972   2.423   2.710  0.00  0.00     0.054 A 
ATOM      3  C3  IND d   1       6.000   1.144   2.273  0.00  0.00    -0.031 A 
ATOM      4  C4  IND d   1       5.941  -1.047   3.623  0.00  0.00     0.051 A 
ATOM      5  C5  IND d   1       5.972  -1.525   4.903  0.00  0.00    -0.031 A 
ATOM      6  C6  IND d   1       6.000  -0.682   5.995  0.00  0.00     0.015 A 
ATOM      7  C7  IND d   1       5.988   0.677   5.847  0.00  0.00    -0.016 A 
ATOM      8  C8  IND d   1       5.965   1.165   4.549  0.00  0.00    -0.047 A 
ATOM      9  C9  IND d   1       5.979   0.315   3.436  0.00  0.00    -0.096 A 
ATOM     10  HN1 IND d   1       5.969   3.170   4.559  0.00  0.00     0.298 HD
ENDROOT
TORSDOF 0
ENDMDL
