MODEL 1
REMARK minimizedAffinity 12.2663317
REMARK minimizedRMSD -1
REMARK  0 active torsions:
REMARK  status: ('A' for Active; 'I' for Inactive)
ROOT
ATOM      1  N1  IND d   1       5.933   4.831   4.907  0.00  0.00    -0.196 N 
ATOM      2  C2  IND d   1       5.947   6.000   4.198  0.00  0.00     0.054 A 
ATOM      3  C3  IND d   1       5.998   5.745   2.872  0.00  0.00    -0.031 A 
ATOM      4  C4  IND d   1       5.963   3.486   1.638  0.00  0.00     0.051 A 
ATOM      5  C5  IND d   1       5.991   2.137   1.859  0.00  0.00    -0.031 A 
ATOM      6  C6  IND d   1       5.998   1.607   3.133  0.00  0.00     0.015 A 
ATOM      7  C7  IND d   1       5.966   2.409   4.238  0.00  0.00    -0.016 A 
ATOM      8  C8  IND d   1       5.945   3.779   4.018  0.00  0.00    -0.047 A 
ATOM      9  C9  IND d   1       5.981   4.324   2.728  0.00  0.00    -0.096 A 
ATOM     10  HN1 IND d   1       5.918   4.764   5.764  0.00  0.00     0.298 HD
ENDROOT
TORSDOF 0
ENDMDL
