MODEL 1
REMARK minimizedAffinity -1.18657839
REMARK minimizedRMSD -1
REMARK  0 active torsions:
REMARK  status: ('A' for Active; 'I' for Inactive)
ROOT
ATOM      1  N1  IND d   1       5.997   0.736   6.000  0.00  0.00    -0.196 N 
ATOM      2  C2  IND d   1       5.974  -0.609   5.756  0.00  0.00     0.054 A 
ATOM      3  C3  IND d   1       5.931  -0.846   4.426  0.00  0.00    -0.031 A 
ATOM      4  C4  IND d   1       5.994   0.822   2.466  0.00  0.00     0.051 A 
ATOM      5  C5  IND d   1       5.979   2.160   2.189  0.00  0.00    -0.031 A 
ATOM      6  C6  IND d   1       5.973   3.111   3.189  0.00  0.00     0.015 A 
ATOM      7  C7  IND d   1       5.991   2.758   4.508  0.00  0.00    -0.016 A 
ATOM      8  C8  IND d   1       5.999   1.400   4.793  0.00  0.00    -0.047 A 
ATOM      9  C9  IND d   1       5.963   0.430   3.783  0.00  0.00    -0.096 A 
ATOM     10  HN1 IND d   1       6.008   1.105   6.776  0.00  0.00     0.298 HD
ENDROOT
TORSDOF 0
ENDMDL
