MODEL 1
REMARK minimizedAffinity -2.13418508
REMARK minimizedRMSD -1
REMARK  0 active torsions:
REMARK  status: ('A' for Active; 'I' for Inactive)
ROOT
ATOM      1  N1  IND d   1       5.153   4.042   4.867  0.00  0.00    -0.196 N 
ATOM      2  C2  IND d   1       5.571   4.844   3.843  0.00  0.00     0.054 A 
ATOM      3  C3  IND d   1       5.997   4.094   2.801  0.00  0.00    -0.031 A 
ATOM      4  C4  IND d   1       5.999   1.535   2.522  0.00  0.00     0.051 A 
ATOM      5  C5  IND d   1       5.745   0.377   3.202  0.00  0.00    -0.031 A 
ATOM      6  C6  IND d   1       5.268   0.381   4.497  0.00  0.00     0.015 A 
ATOM      7  C7  IND d   1       5.016   1.549   5.159  0.00  0.00    -0.016 A 
ATOM      8  C8  IND d   1       5.280   2.727   4.474  0.00  0.00    -0.047 A 
ATOM      9  C9  IND d   1       5.804   2.729   3.175  0.00  0.00    -0.096 A 
ATOM     10  HN1 IND d   1       4.860   4.312   5.629  0.00  0.00     0.298 HD
ENDROOT
TORSDOF 0
ENDMDL
