MODEL 1
REMARK minimizedAffinity -4.0455842
REMARK minimizedRMSD -1
REMARK  0 active torsions:
REMARK  status: ('A' for Active; 'I' for Inactive)
ROOT
ATOM      1  N1  IND d   1       5.994   2.979   4.844  0.00  0.00    -0.196 N 
ATOM      2  C2  IND d   1       5.999   3.686   3.674  0.00  0.00     0.054 A 
ATOM      3  C3  IND d   1       5.749   2.866   2.629  0.00  0.00    -0.031 A 
ATOM      4  C4  IND d   1       5.200   0.351   2.617  0.00  0.00     0.051 A 
ATOM      5  C5  IND d   1       5.115  -0.737   3.440  0.00  0.00    -0.031 A 
ATOM      6  C6  IND d   1       5.320  -0.639   4.801  0.00  0.00     0.015 A 
ATOM      7  C7  IND d   1       5.608   0.558   5.394  0.00  0.00    -0.016 A 
ATOM      8  C8  IND d   1       5.702   1.663   4.560  0.00  0.00    -0.047 A 
ATOM      9  C9  IND d   1       5.537   1.562   3.173  0.00  0.00    -0.096 A 
ATOM     10  HN1 IND d   1       6.148   3.302   5.626  0.00  0.00     0.298 HD
ENDROOT
TORSDOF 0
ENDMDL
