MODEL 1
REMARK minimizedAffinity 0.985616207
REMARK minimizedRMSD -1
REMARK  0 active torsions:
REMARK  status: ('A' for Active; 'I' for Inactive)
ROOT
ATOM      1  N1  IND d   1       5.909   2.463   4.355  0.00  0.00    -0.196 N 
ATOM      2  C2  IND d   1       5.928   2.657   3.002  0.00  0.00     0.054 A 
ATOM      3  C3  IND d   1       5.992   1.470   2.358  0.00  0.00    -0.031 A 
ATOM      4  C4  IND d   1       5.972  -0.917   3.320  0.00  0.00     0.051 A 
ATOM      5  C5  IND d   1       5.999  -1.602   4.503  0.00  0.00    -0.031 A 
ATOM      6  C6  IND d   1       5.995  -0.954   5.721  0.00  0.00     0.015 A 
ATOM      7  C7  IND d   1       5.951   0.409   5.803  0.00  0.00    -0.016 A 
ATOM      8  C8  IND d   1       5.931   1.108   4.604  0.00  0.00    -0.047 A 
ATOM      9  C9  IND d   1       5.978   0.457   3.365  0.00  0.00    -0.096 A 
ATOM     10  HN1 IND d   1       5.887   3.082   4.951  0.00  0.00     0.298 HD
ENDROOT
TORSDOF 0
ENDMDL
