MODEL 1
REMARK minimizedAffinity -1.7983669
REMARK minimizedRMSD -1
REMARK  0 active torsions:
REMARK  status: ('A' for Active; 'I' for Inactive)
ROOT
ATOM      1  N1  IND d   1       6.000   0.525   6.000  0.00  0.00    -0.196 N 
ATOM      2  C2  IND d   1       5.991  -0.802   5.671  0.00  0.00     0.054 A 
ATOM      3  C3  IND d   1       5.950  -0.954   4.328  0.00  0.00    -0.031 A 
ATOM      4  C4  IND d   1       5.995   0.836   2.478  0.00  0.00     0.051 A 
ATOM      5  C5  IND d   1       5.966   2.189   2.287  0.00  0.00    -0.031 A 
ATOM      6  C6  IND d   1       5.949   3.074   3.345  0.00  0.00     0.015 A 
ATOM      7  C7  IND d   1       5.972   2.638   4.640  0.00  0.00    -0.016 A 
ATOM      8  C8  IND d   1       5.995   1.265   4.837  0.00  0.00    -0.047 A 
ATOM      9  C9  IND d   1       5.969   0.360   3.768  0.00  0.00    -0.096 A 
ATOM     10  HN1 IND d   1       6.007   0.844   6.798  0.00  0.00     0.298 HD
ENDROOT
TORSDOF 0
ENDMDL
