MODEL 1
REMARK minimizedAffinity 1.25477147
REMARK minimizedRMSD -1
REMARK  0 active torsions:
REMARK  status: ('A' for Active; 'I' for Inactive)
ROOT
ATOM      1  N1  IND d   1       5.999   1.813   2.239  0.00  0.00    -0.196 N 
ATOM      2  C2  IND d   1       5.984   3.070   2.776  0.00  0.00     0.054 A 
ATOM      3  C3  IND d   1       5.943   3.004   4.126  0.00  0.00    -0.031 A 
ATOM      4  C4  IND d   1       6.000   0.941   5.665  0.00  0.00     0.051 A 
ATOM      5  C5  IND d   1       5.978  -0.426   5.636  0.00  0.00    -0.031 A 
ATOM      6  C6  IND d   1       5.965  -1.130   4.449  0.00  0.00     0.015 A 
ATOM      7  C7  IND d   1       5.985  -0.491   3.242  0.00  0.00    -0.016 A 
ATOM      8  C8  IND d   1       5.999   0.896   3.267  0.00  0.00    -0.047 A 
ATOM      9  C9  IND d   1       5.970   1.617   4.468  0.00  0.00    -0.096 A 
ATOM     10  HN1 IND d   1       6.008   1.626   1.399  0.00  0.00     0.298 HD
ENDROOT
TORSDOF 0
ENDMDL
