MODEL 1
REMARK minimizedAffinity -3.99335861
REMARK minimizedRMSD -1
REMARK  0 active torsions:
REMARK  status: ('A' for Active; 'I' for Inactive)
ROOT
ATOM      1  N1  IND d   1       5.669  -0.676   6.000  0.00  0.00    -0.196 N 
ATOM      2  C2  IND d   1       5.631  -1.685   5.079  0.00  0.00     0.054 A 
ATOM      3  C3  IND d   1       5.691  -1.181   3.826  0.00  0.00    -0.031 A 
ATOM      4  C4  IND d   1       5.957   1.261   3.056  0.00  0.00     0.051 A 
ATOM      5  C5  IND d   1       6.000   2.542   3.532  0.00  0.00    -0.031 A 
ATOM      6  C6  IND d   1       5.936   2.821   4.882  0.00  0.00     0.015 A 
ATOM      7  C7  IND d   1       5.838   1.825   5.811  0.00  0.00    -0.016 A 
ATOM      8  C8  IND d   1       5.787   0.523   5.332  0.00  0.00    -0.047 A 
ATOM      9  C9  IND d   1       5.809   0.236   3.961  0.00  0.00    -0.096 A 
ATOM     10  HN1 IND d   1       5.627  -0.773   6.853  0.00  0.00     0.298 HD
ENDROOT
TORSDOF 0
ENDMDL
