MODEL 1
REMARK minimizedAffinity 0.92799741
REMARK minimizedRMSD -1
REMARK  0 active torsions:
REMARK  status: ('A' for Active; 'I' for Inactive)
ROOT
ATOM      1  N1  IND d   1       5.991   2.341   4.496  0.00  0.00    -0.196 N 
ATOM      2  C2  IND d   1       5.975   1.533   3.393  0.00  0.00     0.054 A 
ATOM      3  C3  IND d   1       5.937   2.277   2.265  0.00  0.00    -0.031 A 
ATOM      4  C4  IND d   1       5.997   4.836   1.991  0.00  0.00     0.051 A 
ATOM      5  C5  IND d   1       5.977   5.997   2.712  0.00  0.00    -0.031 A 
ATOM      6  C6  IND d   1       5.962   5.999   4.092  0.00  0.00     0.015 A 
ATOM      7  C7  IND d   1       5.979   4.834   4.806  0.00  0.00    -0.016 A 
ATOM      8  C8  IND d   1       5.993   3.653   4.077  0.00  0.00    -0.047 A 
ATOM      9  C9  IND d   1       5.965   3.645   2.677  0.00  0.00    -0.096 A 
ATOM     10  HN1 IND d   1       5.998   2.074   5.313  0.00  0.00     0.298 HD
ENDROOT
TORSDOF 0
ENDMDL
