MODEL 1
REMARK minimizedAffinity -0.870875239
REMARK minimizedRMSD -1
REMARK  0 active torsions:
REMARK  status: ('A' for Active; 'I' for Inactive)
ROOT
ATOM      1  N1  IND d   1       5.988   0.005   2.145  0.00  0.00    -0.196 N 
ATOM      2  C2  IND d   1       5.959   1.357   2.350  0.00  0.00     0.054 A 
ATOM      3  C3  IND d   1       5.920   1.631   3.674  0.00  0.00    -0.031 A 
ATOM      4  C4  IND d   1       6.000   0.021   5.681  0.00  0.00     0.051 A 
ATOM      5  C5  IND d   1       5.993  -1.309   5.996  0.00  0.00    -0.031 A 
ATOM      6  C6  IND d   1       5.987  -2.288   5.024  0.00  0.00     0.015 A 
ATOM      7  C7  IND d   1       5.998  -1.973   3.695  0.00  0.00    -0.016 A 
ATOM      8  C8  IND d   1       5.998  -0.624   3.371  0.00  0.00    -0.047 A 
ATOM      9  C9  IND d   1       5.962   0.375   4.353  0.00  0.00    -0.096 A 
ATOM     10  HN1 IND d   1       5.997  -0.386   1.380  0.00  0.00     0.298 HD
ENDROOT
TORSDOF 0
ENDMDL
