MODEL 1
REMARK minimizedAffinity -2.09718037
REMARK minimizedRMSD -1
REMARK  0 active torsions:
REMARK  status: ('A' for Active; 'I' for Inactive)
ROOT
ATOM      1  N1  IND d   1       5.926  -1.185   3.924  0.00  0.00    -0.196 N 
ATOM      2  C2  IND d   1       5.941  -1.493   5.255  0.00  0.00     0.054 A 
ATOM      3  C3  IND d   1       5.994  -0.365   5.998  0.00  0.00    -0.031 A 
ATOM      4  C4  IND d   1       5.959   2.096   5.241  0.00  0.00     0.051 A 
ATOM      5  C5  IND d   1       5.986   2.878   4.121  0.00  0.00    -0.031 A 
ATOM      6  C6  IND d   1       5.992   2.336   2.852  0.00  0.00     0.015 A 
ATOM      7  C7  IND d   1       5.959   0.984   2.655  0.00  0.00    -0.016 A 
ATOM      8  C8  IND d   1       5.939   0.186   3.790  0.00  0.00    -0.047 A 
ATOM      9  C9  IND d   1       5.976   0.730   5.081  0.00  0.00    -0.096 A 
ATOM     10  HN1 IND d   1       5.911  -1.752   3.278  0.00  0.00     0.298 HD
ENDROOT
TORSDOF 0
ENDMDL
