MODEL 1
REMARK minimizedAffinity -1.97338045
REMARK minimizedRMSD -1
REMARK  0 active torsions:
REMARK  status: ('A' for Active; 'I' for Inactive)
ROOT
ATOM      1  N1  IND d   1       5.929   4.196   4.904  0.00  0.00    -0.196 N 
ATOM      2  C2  IND d   1       5.944   4.725   3.643  0.00  0.00     0.054 A 
ATOM      3  C3  IND d   1       5.998   3.739   2.720  0.00  0.00    -0.031 A 
ATOM      4  C4  IND d   1       5.966   1.186   3.049  0.00  0.00     0.051 A 
ATOM      5  C5  IND d   1       5.993   0.225   4.020  0.00  0.00    -0.031 A 
ATOM      6  C6  IND d   1       5.997   0.544   5.363  0.00  0.00     0.015 A 
ATOM      7  C7  IND d   1       5.963   1.843   5.786  0.00  0.00    -0.016 A 
ATOM      8  C8  IND d   1       5.943   2.822   4.802  0.00  0.00    -0.047 A 
ATOM      9  C9  IND d   1       5.981   2.504   3.439  0.00  0.00    -0.096 A 
ATOM     10  HN1 IND d   1       5.913   4.645   5.636  0.00  0.00     0.298 HD
ENDROOT
TORSDOF 0
ENDMDL
