MODEL 1
REMARK minimizedAffinity 5.0510869
REMARK minimizedRMSD -1
REMARK  0 active torsions:
REMARK  status: ('A' for Active; 'I' for Inactive)
ROOT
ATOM      1  C1  DEN d   1       3.015   3.609  -1.522  0.00  0.00     0.130 A 
ATOM      2  C2  DEN d   1       3.253   4.559  -2.606  0.00  0.00    -0.031 A 
ATOM      3  C3  DEN d   1       2.663   4.001  -3.840  0.00  0.00     0.027 A 
ATOM      4  C4  DEN d   1       1.407   1.774  -4.174  0.00  0.00     0.027 A 
ATOM      5  C5  DEN d   1       0.968   0.627  -3.549  0.00  0.00    -0.003 A 
ATOM      6  C6  DEN d   1       1.208   0.381  -2.223  0.00  0.00     0.001 A 
ATOM      7  C7  DEN d   1       1.868   1.315  -1.468  0.00  0.00     0.017 A 
ATOM      8  C8  DEN d   1       2.319   2.470  -2.093  0.00  0.00    -0.094 A 
ATOM      9  C9  DEN d   1       2.056   2.706  -3.432  0.00  0.00    -0.072 A 
ENDROOT
TORSDOF 0
ENDMDL
