MODEL 1
REMARK minimizedAffinity 5.24908638
REMARK minimizedRMSD -1
REMARK  0 active torsions:
REMARK  status: ('A' for Active; 'I' for Inactive)
ROOT
ATOM      1  C1  DEN d   1       0.303  -1.416  -2.663  0.00  0.00     0.130 A 
ATOM      2  C2  DEN d   1       1.169  -1.618  -1.505  0.00  0.00    -0.031 A 
ATOM      3  C3  DEN d   1       2.177  -0.538  -1.494  0.00  0.00     0.027 A 
ATOM      4  C4  DEN d   1       2.474   1.420  -3.146  0.00  0.00     0.027 A 
ATOM      5  C5  DEN d   1       1.986   2.004  -4.295  0.00  0.00    -0.003 A 
ATOM      6  C6  DEN d   1       0.933   1.474  -4.993  0.00  0.00     0.001 A 
ATOM      7  C7  DEN d   1       0.304   0.351  -4.524  0.00  0.00     0.017 A 
ATOM      8  C8  DEN d   1       0.795  -0.247  -3.371  0.00  0.00    -0.094 A 
ATOM      9  C9  DEN d   1       1.853   0.310  -2.673  0.00  0.00    -0.072 A 
ENDROOT
TORSDOF 0
ENDMDL
