MODEL 1
REMARK minimizedAffinity 12.0116673
REMARK minimizedRMSD -1
REMARK  0 active torsions:
REMARK  status: ('A' for Active; 'I' for Inactive)
ROOT
ATOM      1  C1  DEN d   1      -1.550  -4.318   2.278  0.00  0.00     0.130 A 
ATOM      2  C2  DEN d   1      -0.447  -5.155   1.814  0.00  0.00    -0.031 A 
ATOM      3  C3  DEN d   1      -0.402  -5.074   0.340  0.00  0.00     0.027 A 
ATOM      4  C4  DEN d   1      -1.922  -3.738  -1.260  0.00  0.00     0.027 A 
ATOM      5  C5  DEN d   1      -3.004  -2.889  -1.333  0.00  0.00    -0.003 A 
ATOM      6  C6  DEN d   1      -3.693  -2.487  -0.219  0.00  0.00     0.001 A 
ATOM      7  C7  DEN d   1      -3.279  -2.898   1.020  0.00  0.00     0.017 A 
ATOM      8  C8  DEN d   1      -2.193  -3.760   1.101  0.00  0.00    -0.094 A 
ATOM      9  C9  DEN d   1      -1.502  -4.146  -0.035  0.00  0.00    -0.072 A 
ENDROOT
TORSDOF 0
ENDMDL
