MODEL 1
REMARK minimizedAffinity 11.6069822
REMARK minimizedRMSD -1
REMARK  0 active torsions:
REMARK  status: ('A' for Active; 'I' for Inactive)
ROOT
ATOM      1  C1  DEN d   1       3.077  -5.912   1.671  0.00  0.00     0.130 A 
ATOM      2  C2  DEN d   1       1.714  -5.905   2.193  0.00  0.00    -0.031 A 
ATOM      3  C3  DEN d   1       1.789  -5.914   3.667  0.00  0.00     0.027 A 
ATOM      4  C4  DEN d   1       3.875  -5.935   5.185  0.00  0.00     0.027 A 
ATOM      5  C5  DEN d   1       5.252  -5.957   5.200  0.00  0.00    -0.003 A 
ATOM      6  C6  DEN d   1       5.994  -5.999   4.049  0.00  0.00     0.001 A 
ATOM      7  C7  DEN d   1       5.363  -5.976   2.834  0.00  0.00     0.017 A 
ATOM      8  C8  DEN d   1       3.975  -5.961   2.810  0.00  0.00    -0.094 A 
ATOM      9  C9  DEN d   1       3.243  -5.906   3.984  0.00  0.00    -0.072 A 
ENDROOT
TORSDOF 0
ENDMDL
