MODEL 1
REMARK minimizedAffinity 14.2078171
REMARK minimizedRMSD -1
REMARK  0 active torsions:
REMARK  status: ('A' for Active; 'I' for Inactive)
ROOT
ATOM      1  C1  DEN d   1       2.713  -0.718  -0.854  0.00  0.00     0.130 A 
ATOM      2  C2  DEN d   1       3.934  -0.016  -1.239  0.00  0.00    -0.031 A 
ATOM      3  C3  DEN d   1       3.570   1.029  -2.218  0.00  0.00     0.027 A 
ATOM      4  C4  DEN d   1       1.247   1.628  -3.163  0.00  0.00     0.027 A 
ATOM      5  C5  DEN d   1      -0.092   1.303  -3.143  0.00  0.00    -0.003 A 
ATOM      6  C6  DEN d   1      -0.580   0.268  -2.390  0.00  0.00     0.001 A 
ATOM      7  C7  DEN d   1       0.270  -0.451  -1.591  0.00  0.00     0.017 A 
ATOM      8  C8  DEN d   1       1.621  -0.134  -1.612  0.00  0.00    -0.094 A 
ATOM      9  C9  DEN d   1       2.094   0.924  -2.371  0.00  0.00    -0.072 A 
ENDROOT
TORSDOF 0
ENDMDL
