MODEL 1
REMARK minimizedAffinity 14.682271
REMARK minimizedRMSD -1
REMARK  0 active torsions:
REMARK  status: ('A' for Active; 'I' for Inactive)
ROOT
ATOM      1  C1  DEN d   1      -6.000   4.582   3.497  0.00  0.00     0.130 A 
ATOM      2  C2  DEN d   1      -5.627   3.731   2.371  0.00  0.00    -0.031 A 
ATOM      3  C3  DEN d   1      -4.186   3.428   2.485  0.00  0.00     0.027 A 
ATOM      4  C4  DEN d   1      -2.507   4.186   4.290  0.00  0.00     0.027 A 
ATOM      5  C5  DEN d   1      -2.354   4.928   5.440  0.00  0.00    -0.003 A 
ATOM      6  C6  DEN d   1      -3.389   5.629   6.000  0.00  0.00     0.001 A 
ATOM      7  C7  DEN d   1      -4.635   5.566   5.435  0.00  0.00     0.017 A 
ATOM      8  C8  DEN d   1      -4.796   4.826   4.271  0.00  0.00    -0.094 A 
ATOM      9  C9  DEN d   1      -3.740   4.114   3.727  0.00  0.00    -0.072 A 
ENDROOT
TORSDOF 0
ENDMDL
