MODEL 1
REMARK minimizedAffinity 15.4515057
REMARK minimizedRMSD -1
REMARK  0 active torsions:
REMARK  status: ('A' for Active; 'I' for Inactive)
ROOT
ATOM      1  C1  DEN d   1       1.156   3.623  -2.330  0.00  0.00     0.130 A 
ATOM      2  C2  DEN d   1       2.574   3.953  -2.439  0.00  0.00    -0.031 A 
ATOM      3  C3  DEN d   1       3.336   2.688  -2.469  0.00  0.00     0.027 A 
ATOM      4  C4  DEN d   1       2.461   0.264  -2.362  0.00  0.00     0.027 A 
ATOM      5  C5  DEN d   1       1.333  -0.518  -2.253  0.00  0.00    -0.003 A 
ATOM      6  C6  DEN d   1       0.080   0.020  -2.130  0.00  0.00     0.001 A 
ATOM      7  C7  DEN d   1      -0.080   1.381  -2.157  0.00  0.00     0.017 A 
ATOM      8  C8  DEN d   1       1.054   2.176  -2.259  0.00  0.00    -0.094 A 
ATOM      9  C9  DEN d   1       2.311   1.612  -2.395  0.00  0.00    -0.072 A 
ENDROOT
TORSDOF 0
ENDMDL
