MODEL 1
REMARK minimizedAffinity 14.9714108
REMARK minimizedRMSD -1
REMARK  0 active torsions:
REMARK  status: ('A' for Active; 'I' for Inactive)
ROOT
ATOM      1  C1  DEN d   1       0.135   0.558  -4.569  0.00  0.00     0.130 A 
ATOM      2  C2  DEN d   1       0.752   1.840  -4.242  0.00  0.00    -0.031 A 
ATOM      3  C3  DEN d   1       1.479   1.685  -2.966  0.00  0.00     0.027 A 
ATOM      4  C4  DEN d   1       1.712  -0.408  -1.476  0.00  0.00     0.027 A 
ATOM      5  C5  DEN d   1       1.354  -1.730  -1.334  0.00  0.00    -0.003 A 
ATOM      6  C6  DEN d   1       0.543  -2.368  -2.235  0.00  0.00     0.001 A 
ATOM      7  C7  DEN d   1       0.100  -1.696  -3.344  0.00  0.00     0.017 A 
ATOM      8  C8  DEN d   1       0.451  -0.360  -3.490  0.00  0.00    -0.094 A 
ATOM      9  C9  DEN d   1       1.281   0.263  -2.574  0.00  0.00    -0.072 A 
ENDROOT
TORSDOF 0
ENDMDL
