MODEL 1
REMARK minimizedAffinity 1.5544281
REMARK minimizedRMSD -1
REMARK  0 active torsions:
REMARK  status: ('A' for Active; 'I' for Inactive)
ROOT
ATOM      1  C1  DEN d   1       2.007   2.177  -1.348  0.00  0.00     0.130 A 
ATOM      2  C2  DEN d   1       1.231   1.050  -0.838  0.00  0.00    -0.031 A 
ATOM      3  C3  DEN d   1       0.784   0.243  -1.991  0.00  0.00     0.027 A 
ATOM      4  C4  DEN d   1       1.221   0.625  -4.504  0.00  0.00     0.027 A 
ATOM      5  C5  DEN d   1       1.819   1.455  -5.426  0.00  0.00    -0.003 A 
ATOM      6  C6  DEN d   1       2.487   2.593  -5.059  0.00  0.00     0.001 A 
ATOM      7  C7  DEN d   1       2.612   2.909  -3.732  0.00  0.00     0.017 A 
ATOM      8  C8  DEN d   1       2.005   2.080  -2.797  0.00  0.00    -0.094 A 
ATOM      9  C9  DEN d   1       1.345   0.928  -3.187  0.00  0.00    -0.072 A 
ENDROOT
TORSDOF 0
ENDMDL
