MODEL 1
REMARK minimizedAffinity 17.6856365
REMARK minimizedRMSD -1
REMARK  0 active torsions:
REMARK  status: ('A' for Active; 'I' for Inactive)
ROOT
ATOM      1  C1  DEN d   1       2.453  -0.369  -1.200  0.00  0.00     0.130 A 
ATOM      2  C2  DEN d   1       1.642  -1.530  -1.558  0.00  0.00    -0.031 A 
ATOM      3  C3  DEN d   1       1.078  -1.296  -2.902  0.00  0.00     0.027 A 
ATOM      4  C4  DEN d   1       1.386   0.738  -4.459  0.00  0.00     0.027 A 
ATOM      5  C5  DEN d   1       1.977   1.975  -4.586  0.00  0.00    -0.003 A 
ATOM      6  C6  DEN d   1       2.734   2.528  -3.587  0.00  0.00     0.001 A 
ATOM      7  C7  DEN d   1       2.958   1.822  -2.435  0.00  0.00     0.017 A 
ATOM      8  C8  DEN d   1       2.359   0.577  -2.297  0.00  0.00    -0.094 A 
ATOM      9  C9  DEN d   1       1.607   0.030  -3.323  0.00  0.00    -0.072 A 
ENDROOT
TORSDOF 0
ENDMDL
