MODEL 1
REMARK minimizedAffinity 9.68190479
REMARK minimizedRMSD -1
REMARK  0 active torsions:
REMARK  status: ('A' for Active; 'I' for Inactive)
ROOT
ATOM      1  C1  DEN d   1       1.599  -3.308  -1.413  0.00  0.00     0.130 A 
ATOM      2  C2  DEN d   1       0.828  -3.472  -2.642  0.00  0.00    -0.031 A 
ATOM      3  C3  DEN d   1       1.101  -2.309  -3.510  0.00  0.00     0.027 A 
ATOM      4  C4  DEN d   1       2.638  -0.284  -3.075  0.00  0.00     0.027 A 
ATOM      5  C5  DEN d   1       3.491   0.302  -2.166  0.00  0.00    -0.003 A 
ATOM      6  C6  DEN d   1       3.745  -0.251  -0.940  0.00  0.00     0.001 A 
ATOM      7  C7  DEN d   1       3.174  -1.451  -0.605  0.00  0.00     0.017 A 
ATOM      8  C8  DEN d   1       2.307  -2.045  -1.513  0.00  0.00    -0.094 A 
ATOM      9  C9  DEN d   1       2.073  -1.475  -2.753  0.00  0.00    -0.072 A 
ENDROOT
TORSDOF 0
ENDMDL
