MODEL 1
REMARK minimizedAffinity 9.63482189
REMARK minimizedRMSD -1
REMARK  0 active torsions:
REMARK  status: ('A' for Active; 'I' for Inactive)
ROOT
ATOM      1  C1  DEN d   1      -0.014   3.179  -4.691  0.00  0.00     0.130 A 
ATOM      2  C2  DEN d   1      -0.125   2.541  -6.000  0.00  0.00    -0.031 A 
ATOM      3  C3  DEN d   1       0.133   1.097  -5.827  0.00  0.00     0.027 A 
ATOM      4  C4  DEN d   1       0.687  -0.205  -3.670  0.00  0.00     0.027 A 
ATOM      5  C5  DEN d   1       0.902  -0.092  -2.315  0.00  0.00    -0.003 A 
ATOM      6  C6  DEN d   1       0.860   1.114  -1.667  0.00  0.00     0.001 A 
ATOM      7  C7  DEN d   1       0.553   2.251  -2.368  0.00  0.00     0.017 A 
ATOM      8  C8  DEN d   1       0.343   2.146  -3.736  0.00  0.00    -0.094 A 
ATOM      9  C9  DEN d   1       0.377   0.915  -4.371  0.00  0.00    -0.072 A 
ENDROOT
TORSDOF 0
ENDMDL
