MODEL 1
REMARK minimizedAffinity 13.3693132
REMARK minimizedRMSD -1
REMARK  0 active torsions:
REMARK  status: ('A' for Active; 'I' for Inactive)
ROOT
ATOM      1  C1  DEN d   1       1.124   2.060  -5.210  0.00  0.00     0.130 A 
ATOM      2  C2  DEN d   1       0.094   1.389  -5.998  0.00  0.00    -0.031 A 
ATOM      3  C3  DEN d   1      -0.631   0.462  -5.107  0.00  0.00     0.027 A 
ATOM      4  C4  DEN d   1      -0.266   0.006  -2.595  0.00  0.00     0.027 A 
ATOM      5  C5  DEN d   1       0.498   0.329  -1.495  0.00  0.00    -0.003 A 
ATOM      6  C6  DEN d   1       1.538   1.218  -1.564  0.00  0.00     0.001 A 
ATOM      7  C7  DEN d   1       1.813   1.850  -2.747  0.00  0.00     0.017 A 
ATOM      8  C8  DEN d   1       1.052   1.525  -3.862  0.00  0.00    -0.094 A 
ATOM      9  C9  DEN d   1      -0.003   0.633  -3.770  0.00  0.00    -0.072 A 
ENDROOT
TORSDOF 0
ENDMDL
