MODEL 1
REMARK minimizedAffinity 12.9277487
REMARK minimizedRMSD -1
REMARK  0 active torsions:
REMARK  status: ('A' for Active; 'I' for Inactive)
ROOT
ATOM      1  C1  DEN d   1      -2.546   5.657   4.698  0.00  0.00     0.130 A 
ATOM      2  C2  DEN d   1      -3.172   5.943   5.986  0.00  0.00    -0.031 A 
ATOM      3  C3  DEN d   1      -4.563   5.451   5.937  0.00  0.00     0.027 A 
ATOM      4  C4  DEN d   1      -5.802   4.276   4.004  0.00  0.00     0.027 A 
ATOM      5  C5  DEN d   1      -5.687   3.825   2.707  0.00  0.00    -0.003 A 
ATOM      6  C6  DEN d   1      -4.539   3.983   1.978  0.00  0.00     0.001 A 
ATOM      7  C7  DEN d   1      -3.442   4.566   2.556  0.00  0.00     0.017 A 
ATOM      8  C8  DEN d   1      -3.552   5.030   3.860  0.00  0.00    -0.094 A 
ATOM      9  C9  DEN d   1      -4.718   4.851   4.585  0.00  0.00    -0.072 A 
ENDROOT
TORSDOF 0
ENDMDL
