MODEL 1
REMARK minimizedAffinity -6.8551774
REMARK minimizedRMSD -1
REMARK  0 active torsions:
REMARK  status: ('A' for Active; 'I' for Inactive)
ROOT
ATOM      1  C1  DEN d   1      -3.314   2.123   3.605  0.00  0.00     0.130 A 
ATOM      2  C2  DEN d   1      -3.646   1.108   4.600  0.00  0.00    -0.031 A 
ATOM      3  C3  DEN d   1      -3.774  -0.189   3.905  0.00  0.00     0.027 A 
ATOM      4  C4  DEN d   1      -3.487  -0.721   1.398  0.00  0.00     0.027 A 
ATOM      5  C5  DEN d   1      -3.216  -0.181   0.160  0.00  0.00    -0.003 A 
ATOM      6  C6  DEN d   1      -2.994   1.158  -0.020  0.00  0.00     0.001 A 
ATOM      7  C7  DEN d   1      -2.994   1.998   1.062  0.00  0.00     0.017 A 
ATOM      8  C8  DEN d   1      -3.274   1.463   2.312  0.00  0.00    -0.094 A 
ATOM      9  C9  DEN d   1      -3.484   0.104   2.476  0.00  0.00    -0.072 A 
ENDROOT
TORSDOF 0
ENDMDL
