MODEL 1
REMARK minimizedAffinity -1.59091544
REMARK minimizedRMSD -1
REMARK  0 active torsions:
REMARK  status: ('A' for Active; 'I' for Inactive)
ROOT
ATOM      1  C   UNL d   1       0.716  -0.037  -2.428  0.00  0.00     0.078 C 
ATOM      2  C1  UNL d   1       0.185  -1.430  -2.588  0.00  0.00    -0.077 A 
ATOM      3  C2  UNL d   1       0.454  -2.418  -1.632  0.00  0.00    -0.001 A 
ATOM      4  C3  UNL d   1      -0.039  -3.714  -1.798  0.00  0.00     0.003 A 
ATOM      5  C4  UNL d   1      -0.803  -4.033  -2.919  0.00  0.00    -0.005 A 
ATOM      6  C5  UNL d   1      -1.074  -3.058  -3.876  0.00  0.00     0.003 A 
ATOM      7  C6  UNL d   1      -0.582  -1.762  -3.712  0.00  0.00    -0.001 A 
ENDROOT
TORSDOF 0
ENDMDL
