MODEL 1
REMARK minimizedAffinity 4.33321905
REMARK minimizedRMSD -1
REMARK  0 active torsions:
REMARK  status: ('A' for Active; 'I' for Inactive)
ROOT
ATOM      1  C   UNL d   1       2.125   5.998  -1.713  0.00  0.00     0.078 C 
ATOM      2  C1  UNL d   1       1.374   5.072  -0.804  0.00  0.00    -0.077 A 
ATOM      3  C2  UNL d   1       2.051   4.247   0.104  0.00  0.00    -0.001 A 
ATOM      4  C3  UNL d   1       1.340   3.383   0.938  0.00  0.00     0.003 A 
ATOM      5  C4  UNL d   1      -0.051   3.333   0.871  0.00  0.00    -0.005 A 
ATOM      6  C5  UNL d   1      -0.733   4.148  -0.030  0.00  0.00     0.003 A 
ATOM      7  C6  UNL d   1      -0.024   5.013  -0.865  0.00  0.00    -0.001 A 
ENDROOT
TORSDOF 0
ENDMDL
