MODEL 1
REMARK minimizedAffinity 9.02599335
REMARK minimizedRMSD -1
REMARK  0 active torsions:
REMARK  status: ('A' for Active; 'I' for Inactive)
ROOT
ATOM      1  C   UNL d   1      -2.511  -1.553  -3.425  0.00  0.00     0.078 C 
ATOM      2  C1  UNL d   1      -3.029  -0.378  -2.651  0.00  0.00    -0.077 A 
ATOM      3  C2  UNL d   1      -4.293  -0.410  -2.050  0.00  0.00    -0.001 A 
ATOM      4  C3  UNL d   1      -4.767   0.695  -1.341  0.00  0.00     0.003 A 
ATOM      5  C4  UNL d   1      -3.983   1.841  -1.227  0.00  0.00    -0.005 A 
ATOM      6  C5  UNL d   1      -2.725   1.884  -1.824  0.00  0.00     0.003 A 
ATOM      7  C6  UNL d   1      -2.249   0.780  -2.533  0.00  0.00    -0.001 A 
ENDROOT
TORSDOF 0
ENDMDL
