MODEL 1
REMARK minimizedAffinity 1.72272313
REMARK minimizedRMSD -1
REMARK  0 active torsions:
REMARK  status: ('A' for Active; 'I' for Inactive)
ROOT
ATOM      1  C   UNL d   1      -1.040  -2.968  -3.281  0.00  0.00     0.078 C 
ATOM      2  C1  UNL d   1      -1.224  -1.486  -3.142  0.00  0.00    -0.077 A 
ATOM      3  C2  UNL d   1      -0.156  -0.604  -3.346  0.00  0.00    -0.001 A 
ATOM      4  C3  UNL d   1      -0.340   0.772  -3.204  0.00  0.00     0.003 A 
ATOM      5  C4  UNL d   1      -1.591   1.278  -2.855  0.00  0.00    -0.005 A 
ATOM      6  C5  UNL d   1      -2.659   0.408  -2.648  0.00  0.00     0.003 A 
ATOM      7  C6  UNL d   1      -2.477  -0.968  -2.789  0.00  0.00    -0.001 A 
ENDROOT
TORSDOF 0
ENDMDL
