MODEL 1
REMARK minimizedAffinity 2.34286118
REMARK minimizedRMSD -1
REMARK  0 active torsions:
REMARK  status: ('A' for Active; 'I' for Inactive)
ROOT
ATOM      1  C   UNL d   1       2.152  -0.542  -0.627  0.00  0.00     0.078 C 
ATOM      2  C1  UNL d   1       1.133   0.496  -0.990  0.00  0.00    -0.077 A 
ATOM      3  C2  UNL d   1       0.788   1.513  -0.090  0.00  0.00    -0.001 A 
ATOM      4  C3  UNL d   1      -0.170   2.467  -0.437  0.00  0.00     0.003 A 
ATOM      5  C4  UNL d   1      -0.791   2.414  -1.683  0.00  0.00    -0.005 A 
ATOM      6  C5  UNL d   1      -0.456   1.405  -2.584  0.00  0.00     0.003 A 
ATOM      7  C6  UNL d   1       0.502   0.450  -2.239  0.00  0.00    -0.001 A 
ENDROOT
TORSDOF 0
ENDMDL
