MODEL 1
REMARK minimizedAffinity 2.99825335
REMARK minimizedRMSD -1
REMARK  0 active torsions:
REMARK  status: ('A' for Active; 'I' for Inactive)
ROOT
ATOM      1  C   UNL d   1       3.034  -0.984   0.919  0.00  0.00     0.078 C 
ATOM      2  C1  UNL d   1       3.932  -1.819   0.056  0.00  0.00    -0.077 A 
ATOM      3  C2  UNL d   1       4.126  -1.508  -1.296  0.00  0.00    -0.001 A 
ATOM      4  C3  UNL d   1       4.957  -2.300  -2.090  0.00  0.00     0.003 A 
ATOM      5  C4  UNL d   1       5.599  -3.409  -1.542  0.00  0.00    -0.005 A 
ATOM      6  C5  UNL d   1       5.409  -3.728  -0.199  0.00  0.00     0.003 A 
ATOM      7  C6  UNL d   1       4.579  -2.937   0.597  0.00  0.00    -0.001 A 
ENDROOT
TORSDOF 0
ENDMDL
