MODEL 1
REMARK minimizedAffinity 1.97410071
REMARK minimizedRMSD -1
REMARK  0 active torsions:
REMARK  status: ('A' for Active; 'I' for Inactive)
ROOT
ATOM      1  C   UNL d   1       0.546   2.500   0.346  0.00  0.00     0.078 C 
ATOM      2  C1  UNL d   1       0.832   1.103  -0.118  0.00  0.00    -0.077 A 
ATOM      3  C2  UNL d   1       1.287   0.125   0.775  0.00  0.00    -0.001 A 
ATOM      4  C3  UNL d   1       1.559  -1.169   0.327  0.00  0.00     0.003 A 
ATOM      5  C4  UNL d   1       1.380  -1.496  -1.016  0.00  0.00    -0.005 A 
ATOM      6  C5  UNL d   1       0.930  -0.529  -1.912  0.00  0.00     0.003 A 
ATOM      7  C6  UNL d   1       0.658   0.765  -1.466  0.00  0.00    -0.001 A 
ENDROOT
TORSDOF 0
ENDMDL
