MODEL 1
REMARK minimizedAffinity 7.732584
REMARK minimizedRMSD -1
REMARK  0 active torsions:
REMARK  status: ('A' for Active; 'I' for Inactive)
ROOT
ATOM      1  C   UNL d   1       0.316   0.645  -2.435  0.00  0.00     0.078 C 
ATOM      2  C1  UNL d   1      -1.162   0.391  -2.439  0.00  0.00    -0.077 A 
ATOM      3  C2  UNL d   1      -1.673  -0.895  -2.653  0.00  0.00    -0.001 A 
ATOM      4  C3  UNL d   1      -3.051  -1.114  -2.663  0.00  0.00     0.003 A 
ATOM      5  C4  UNL d   1      -3.930  -0.052  -2.461  0.00  0.00    -0.005 A 
ATOM      6  C5  UNL d   1      -3.431   1.232  -2.250  0.00  0.00     0.003 A 
ATOM      7  C6  UNL d   1      -2.053   1.453  -2.239  0.00  0.00    -0.001 A 
ENDROOT
TORSDOF 0
ENDMDL
