MODEL 1
REMARK minimizedAffinity 2.12443304
REMARK minimizedRMSD -1
REMARK  0 active torsions:
REMARK  status: ('A' for Active; 'I' for Inactive)
ROOT
ATOM      1  C   UNL d   1      -4.849   1.643  -3.324  0.00  0.00     0.078 C 
ATOM      2  C1  UNL d   1      -4.879   2.930  -4.093  0.00  0.00    -0.077 A 
ATOM      3  C2  UNL d   1      -5.985   3.275  -4.879  0.00  0.00    -0.001 A 
ATOM      4  C3  UNL d   1      -5.995   4.472  -5.597  0.00  0.00     0.003 A 
ATOM      5  C4  UNL d   1      -4.902   5.333  -5.536  0.00  0.00    -0.005 A 
ATOM      6  C5  UNL d   1      -3.796   4.998  -4.758  0.00  0.00     0.003 A 
ATOM      7  C6  UNL d   1      -3.784   3.801  -4.040  0.00  0.00    -0.001 A 
ENDROOT
TORSDOF 0
ENDMDL
