MODEL 1
REMARK minimizedAffinity -0.243070886
REMARK minimizedRMSD -1
REMARK  0 active torsions:
REMARK  status: ('A' for Active; 'I' for Inactive)
ROOT
ATOM      1  C   UNL d   1       4.891  -5.999   0.657  0.00  0.00     0.078 C 
ATOM      2  C1  UNL d   1       4.935  -5.410  -0.721  0.00  0.00    -0.077 A 
ATOM      3  C2  UNL d   1       3.990  -5.771  -1.690  0.00  0.00    -0.001 A 
ATOM      4  C3  UNL d   1       4.049  -5.223  -2.972  0.00  0.00     0.003 A 
ATOM      5  C4  UNL d   1       5.051  -4.311  -3.298  0.00  0.00    -0.005 A 
ATOM      6  C5  UNL d   1       5.996  -3.947  -2.341  0.00  0.00     0.003 A 
ATOM      7  C6  UNL d   1       5.939  -4.495  -1.059  0.00  0.00    -0.001 A 
ENDROOT
TORSDOF 0
ENDMDL
