MODEL 1
REMARK minimizedAffinity -2.66513562
REMARK minimizedRMSD -1
REMARK  0 active torsions:
REMARK  status: ('A' for Active; 'I' for Inactive)
ROOT
ATOM      1  C   UNL d   1      -1.916   1.940   1.951  0.00  0.00    -0.002 A 
ATOM      2  C1  UNL d   1      -1.317   0.889   2.629  0.00  0.00     0.010 A 
ATOM      3  C2  UNL d   1      -0.453   0.015   1.965  0.00  0.00     0.041 A 
ATOM      4  C3  UNL d   1      -0.197   0.220   0.595  0.00  0.00    -0.075 A 
ATOM      5  S   UNL d   1       0.827  -0.721  -0.423  0.00  0.00     0.015 SA
ATOM      6  C4  UNL d   1       0.494   0.251  -1.783  0.00  0.00     0.022 A 
ATOM      7  C5  UNL d   1      -0.375   1.273  -1.485  0.00  0.00     0.026 A 
ATOM      8  C6  UNL d   1      -0.788   1.273  -0.109  0.00  0.00    -0.082 A 
ATOM      9  C7  UNL d   1      -1.660   2.140   0.592  0.00  0.00     0.045 A 
ENDROOT
TORSDOF 0
ENDMDL
