MODEL 1
REMARK minimizedAffinity -2.29228592
REMARK minimizedRMSD -1
REMARK  0 active torsions:
REMARK  status: ('A' for Active; 'I' for Inactive)
ROOT
ATOM      1  C   UNL d   1      -1.213   2.152   1.890  0.00  0.00    -0.002 A 
ATOM      2  C1  UNL d   1      -2.331   1.744   1.176  0.00  0.00     0.010 A 
ATOM      3  C2  UNL d   1      -2.232   0.731   0.220  0.00  0.00     0.041 A 
ATOM      4  C3  UNL d   1      -0.979   0.128  -0.007  0.00  0.00    -0.075 A 
ATOM      5  S   UNL d   1      -0.619  -1.132  -1.128  0.00  0.00     0.015 SA
ATOM      6  C4  UNL d   1       1.026  -1.158  -0.684  0.00  0.00     0.022 A 
ATOM      7  C5  UNL d   1       1.312  -0.234   0.293  0.00  0.00     0.026 A 
ATOM      8  C6  UNL d   1       0.161   0.522   0.700  0.00  0.00    -0.082 A 
ATOM      9  C7  UNL d   1       0.028   1.552   1.662  0.00  0.00     0.045 A 
ENDROOT
TORSDOF 0
ENDMDL
