MODEL 1
REMARK minimizedAffinity 0.0667047054
REMARK minimizedRMSD -1
REMARK  0 active torsions:
REMARK  status: ('A' for Active; 'I' for Inactive)
ROOT
ATOM      1  C   UNL d   1      -1.327   0.857   2.715  0.00  0.00    -0.002 A 
ATOM      2  C1  UNL d   1      -1.043   2.087   2.139  0.00  0.00     0.010 A 
ATOM      3  C2  UNL d   1      -0.331   2.162   0.940  0.00  0.00     0.041 A 
ATOM      4  C3  UNL d   1       0.093   0.968   0.323  0.00  0.00    -0.075 A 
ATOM      5  S   UNL d   1       0.978   0.816  -1.149  0.00  0.00     0.015 SA
ATOM      6  C4  UNL d   1       0.999  -0.885  -1.047  0.00  0.00     0.022 A 
ATOM      7  C5  UNL d   1       0.352  -1.343   0.077  0.00  0.00     0.026 A 
ATOM      8  C6  UNL d   1      -0.181  -0.282   0.885  0.00  0.00    -0.082 A 
ATOM      9  C7  UNL d   1      -0.904  -0.325   2.101  0.00  0.00     0.045 A 
ENDROOT
TORSDOF 0
ENDMDL
