MODEL 1
REMARK minimizedAffinity -4.49926949
REMARK minimizedRMSD -1
REMARK  0 active torsions:
REMARK  status: ('A' for Active; 'I' for Inactive)
ROOT
ATOM      1  C   UNL d   1      -2.260   2.698   1.455  0.00  0.00    -0.002 A 
ATOM      2  C1  UNL d   1      -1.525   3.590   0.688  0.00  0.00     0.010 A 
ATOM      3  C2  UNL d   1      -0.422   3.153  -0.048  0.00  0.00     0.041 A 
ATOM      4  C3  UNL d   1      -0.069   1.790  -0.002  0.00  0.00    -0.075 A 
ATOM      5  S   UNL d   1       1.242   1.027  -0.822  0.00  0.00     0.015 SA
ATOM      6  C4  UNL d   1       0.856  -0.501  -0.174  0.00  0.00     0.022 A 
ATOM      7  C5  UNL d   1      -0.243  -0.449   0.650  0.00  0.00     0.026 A 
ATOM      8  C6  UNL d   1      -0.795   0.872   0.763  0.00  0.00    -0.082 A 
ATOM      9  C7  UNL d   1      -1.907   1.347   1.499  0.00  0.00     0.045 A 
ENDROOT
TORSDOF 0
ENDMDL
