MODEL 1
REMARK minimizedAffinity -5.89305401
REMARK minimizedRMSD -1
REMARK  0 active torsions:
REMARK  status: ('A' for Active; 'I' for Inactive)
ROOT
ATOM      1  C   UNL d   1      -0.198  -0.395   1.726  0.00  0.00    -0.002 A 
ATOM      2  C1  UNL d   1       0.466  -0.567   0.520  0.00  0.00     0.010 A 
ATOM      3  C2  UNL d   1       0.435   0.431  -0.456  0.00  0.00     0.041 A 
ATOM      4  C3  UNL d   1      -0.280   1.616  -0.196  0.00  0.00    -0.075 A 
ATOM      5  S   UNL d   1      -0.456   2.975  -1.243  0.00  0.00     0.015 SA
ATOM      6  C4  UNL d   1      -1.416   3.815  -0.114  0.00  0.00     0.022 A 
ATOM      7  C5  UNL d   1      -1.608   3.092   1.040  0.00  0.00     0.026 A 
ATOM      8  C6  UNL d   1      -0.956   1.813   1.011  0.00  0.00    -0.082 A 
ATOM      9  C7  UNL d   1      -0.906   0.782   1.980  0.00  0.00     0.045 A 
ENDROOT
TORSDOF 0
ENDMDL
