MODEL 1
REMARK minimizedAffinity -4.60225058
REMARK minimizedRMSD -1
REMARK  0 active torsions:
REMARK  status: ('A' for Active; 'I' for Inactive)
ROOT
ATOM      1  C   UNL d   1      -2.230   2.760   1.109  0.00  0.00    -0.002 A 
ATOM      2  C1  UNL d   1      -1.468   3.589   0.298  0.00  0.00     0.010 A 
ATOM      3  C2  UNL d   1      -0.328   3.102  -0.344  0.00  0.00     0.041 A 
ATOM      4  C3  UNL d   1       0.035   1.753  -0.159  0.00  0.00    -0.075 A 
ATOM      5  S   UNL d   1       1.389   0.937  -0.846  0.00  0.00     0.015 SA
ATOM      6  C4  UNL d   1       0.987  -0.532  -0.080  0.00  0.00     0.022 A 
ATOM      7  C5  UNL d   1      -0.150  -0.420   0.685  0.00  0.00     0.026 A 
ATOM      8  C6  UNL d   1      -0.717   0.898   0.652  0.00  0.00    -0.082 A 
ATOM      9  C7  UNL d   1      -1.867   1.423   1.291  0.00  0.00     0.045 A 
ENDROOT
TORSDOF 0
ENDMDL
