MODEL 1
REMARK minimizedAffinity -4.43943262
REMARK minimizedRMSD -1
REMARK  0 active torsions:
REMARK  status: ('A' for Active; 'I' for Inactive)
ROOT
ATOM      1  C   UNL d   1       1.482   1.696  -1.180  0.00  0.00    -0.002 A 
ATOM      2  C1  UNL d   1       1.745   0.374  -0.851  0.00  0.00     0.010 A 
ATOM      3  C2  UNL d   1       0.840  -0.361  -0.083  0.00  0.00     0.041 A 
ATOM      4  C3  UNL d   1      -0.347   0.261   0.352  0.00  0.00    -0.075 A 
ATOM      5  S   UNL d   1      -1.602  -0.443   1.302  0.00  0.00     0.015 SA
ATOM      6  C4  UNL d   1      -2.517   0.995   1.294  0.00  0.00     0.022 A 
ATOM      7  C5  UNL d   1      -1.895   1.998   0.588  0.00  0.00     0.026 A 
ATOM      8  C6  UNL d   1      -0.635   1.591   0.033  0.00  0.00    -0.082 A 
ATOM      9  C7  UNL d   1       0.304   2.310  -0.746  0.00  0.00     0.045 A 
ENDROOT
TORSDOF 0
ENDMDL
