MODEL 1
REMARK minimizedAffinity -1.15108597
REMARK minimizedRMSD -1
REMARK  0 active torsions:
REMARK  status: ('A' for Active; 'I' for Inactive)
ROOT
ATOM      1  C   UNL d   1       0.469   0.593   0.991  0.00  0.00    -0.002 A 
ATOM      2  C1  UNL d   1      -0.857   0.185   1.007  0.00  0.00     0.010 A 
ATOM      3  C2  UNL d   1      -1.299  -0.826   0.150  0.00  0.00     0.041 A 
ATOM      4  C3  UNL d   1      -0.376  -1.426  -0.729  0.00  0.00    -0.075 A 
ATOM      5  S   UNL d   1      -0.690  -2.683  -1.866  0.00  0.00     0.015 SA
ATOM      6  C4  UNL d   1       0.928  -2.708  -2.399  0.00  0.00     0.022 A 
ATOM      7  C5  UNL d   1       1.704  -1.786  -1.736  0.00  0.00     0.026 A 
ATOM      8  C6  UNL d   1       0.965  -1.032  -0.762  0.00  0.00    -0.082 A 
ATOM      9  C7  UNL d   1       1.381  -0.005   0.118  0.00  0.00     0.045 A 
ENDROOT
TORSDOF 0
ENDMDL
