MODEL 1
REMARK minimizedAffinity -1.68910182
REMARK minimizedRMSD -1
REMARK  0 active torsions:
REMARK  status: ('A' for Active; 'I' for Inactive)
ROOT
ATOM      1  C   UNL d   1      -1.456   2.478   1.496  0.00  0.00    -0.002 A 
ATOM      2  C1  UNL d   1      -0.767   3.338   0.653  0.00  0.00     0.010 A 
ATOM      3  C2  UNL d   1       0.239   2.855  -0.187  0.00  0.00     0.041 A 
ATOM      4  C3  UNL d   1       0.541   1.479  -0.166  0.00  0.00    -0.075 A 
ATOM      5  S   UNL d   1       1.732   0.663  -1.108  0.00  0.00     0.015 SA
ATOM      6  C4  UNL d   1       1.353  -0.847  -0.414  0.00  0.00     0.022 A 
ATOM      7  C5  UNL d   1       0.345  -0.749   0.515  0.00  0.00     0.026 A 
ATOM      8  C6  UNL d   1      -0.140   0.593   0.673  0.00  0.00    -0.082 A 
ATOM      9  C7  UNL d   1      -1.153   1.114   1.514  0.00  0.00     0.045 A 
ENDROOT
TORSDOF 0
ENDMDL
