MODEL 1
REMARK minimizedAffinity -1.36434889
REMARK minimizedRMSD -1
REMARK  0 active torsions:
REMARK  status: ('A' for Active; 'I' for Inactive)
ROOT
ATOM      1  C   UNL d   1      -1.275   2.046   1.579  0.00  0.00    -0.002 A 
ATOM      2  C1  UNL d   1      -0.340   1.496   2.444  0.00  0.00     0.010 A 
ATOM      3  C2  UNL d   1       0.465   0.430   2.036  0.00  0.00     0.041 A 
ATOM      4  C3  UNL d   1       0.314  -0.077   0.730  0.00  0.00    -0.075 A 
ATOM      5  S   UNL d   1       1.190  -1.377   0.012  0.00  0.00     0.015 SA
ATOM      6  C4  UNL d   1       0.344  -1.232  -1.460  0.00  0.00     0.022 A 
ATOM      7  C5  UNL d   1      -0.588  -0.222  -1.422  0.00  0.00     0.026 A 
ATOM      8  C6  UNL d   1      -0.621   0.461  -0.159  0.00  0.00    -0.082 A 
ATOM      9  C7  UNL d   1      -1.422   1.540   0.284  0.00  0.00     0.045 A 
ENDROOT
TORSDOF 0
ENDMDL
