MODEL 1
REMARK minimizedAffinity -3.3156929
REMARK minimizedRMSD -1
REMARK  0 active torsions:
REMARK  status: ('A' for Active; 'I' for Inactive)
ROOT
ATOM      1  C   UNL d   1      -1.153   2.847   1.855  0.00  0.00    -0.002 A 
ATOM      2  C1  UNL d   1      -0.593   3.570   0.811  0.00  0.00     0.010 A 
ATOM      3  C2  UNL d   1       0.036   2.915  -0.250  0.00  0.00     0.041 A 
ATOM      4  C3  UNL d   1       0.090   1.507  -0.245  0.00  0.00    -0.075 A 
ATOM      5  S   UNL d   1       0.807   0.491  -1.439  0.00  0.00     0.015 SA
ATOM      6  C4  UNL d   1       0.386  -0.927  -0.592  0.00  0.00     0.022 A 
ATOM      7  C5  UNL d   1      -0.285  -0.651   0.575  0.00  0.00     0.026 A 
ATOM      8  C6  UNL d   1      -0.467   0.757   0.794  0.00  0.00    -0.082 A 
ATOM      9  C7  UNL d   1      -1.097   1.450   1.856  0.00  0.00     0.045 A 
ENDROOT
TORSDOF 0
ENDMDL
