MODEL 1
REMARK minimizedAffinity 2.81889868
REMARK minimizedRMSD -1
REMARK  0 active torsions:
REMARK  status: ('A' for Active; 'I' for Inactive)
ROOT
ATOM      1  C4' PXY d   1       2.332  -5.895  -5.996  0.00  0.00     0.077 C 
ATOM      2  C1' PXY d   1       3.944  -5.996  -0.446  0.00  0.00     0.077 C 
ATOM      3  C1  PXY d   1       3.533  -5.963  -1.904  0.00  0.00    -0.082 A 
ATOM      4  C2  PXY d   1       2.249  -5.992  -2.222  0.00  0.00     0.003 A 
ATOM      5  C3  PXY d   1       1.860  -5.996  -3.537  0.00  0.00     0.003 A 
ATOM      6  C4  PXY d   1       2.793  -5.916  -4.536  0.00  0.00    -0.082 A 
ATOM      7  C5  PXY d   1       4.105  -5.876  -4.219  0.00  0.00     0.003 A 
ATOM      8  C6  PXY d   1       4.480  -5.914  -2.880  0.00  0.00     0.003 A 
ENDROOT
TORSDOF 0
ENDMDL
