MODEL 1
REMARK minimizedAffinity 1.75153208
REMARK minimizedRMSD -1
REMARK  0 active torsions:
REMARK  status: ('A' for Active; 'I' for Inactive)
ROOT
ATOM      1  C4' PXY d   1       2.987  -5.973  -5.949  0.00  0.00     0.077 C 
ATOM      2  C1' PXY d   1       3.548  -5.998  -0.195  0.00  0.00     0.077 C 
ATOM      3  C1  PXY d   1       3.389  -5.997  -1.703  0.00  0.00    -0.082 A 
ATOM      4  C2  PXY d   1       4.464  -5.992  -2.474  0.00  0.00     0.003 A 
ATOM      5  C3  PXY d   1       4.339  -5.959  -3.839  0.00  0.00     0.003 A 
ATOM      6  C4  PXY d   1       3.100  -5.984  -4.422  0.00  0.00    -0.082 A 
ATOM      7  C5  PXY d   1       1.998  -6.000  -3.642  0.00  0.00     0.003 A 
ATOM      8  C6  PXY d   1       2.147  -5.992  -2.258  0.00  0.00     0.003 A 
ENDROOT
TORSDOF 0
ENDMDL
