MODEL 1
REMARK minimizedAffinity 0.451267481
REMARK minimizedRMSD -1
REMARK  0 active torsions:
REMARK  status: ('A' for Active; 'I' for Inactive)
ROOT
ATOM      1  C4' PXY d   1       4.799  -5.997  -6.000  0.00  0.00     0.077 C 
ATOM      2  C1' PXY d   1       3.232  -5.979  -0.435  0.00  0.00     0.077 C 
ATOM      3  C1  PXY d   1       3.632  -5.989  -1.898  0.00  0.00    -0.082 A 
ATOM      4  C2  PXY d   1       4.914  -5.996  -2.226  0.00  0.00     0.003 A 
ATOM      5  C3  PXY d   1       5.293  -5.973  -3.543  0.00  0.00     0.003 A 
ATOM      6  C4  PXY d   1       4.350  -5.996  -4.536  0.00  0.00    -0.082 A 
ATOM      7  C5  PXY d   1       3.040  -5.999  -4.209  0.00  0.00     0.003 A 
ATOM      8  C6  PXY d   1       2.676  -5.981  -2.866  0.00  0.00     0.003 A 
ENDROOT
TORSDOF 0
ENDMDL
