MODEL 1
REMARK minimizedAffinity -0.638719499
REMARK minimizedRMSD -1
REMARK  0 active torsions:
REMARK  status: ('A' for Active; 'I' for Inactive)
ROOT
ATOM      1  C4' PXY d   1       4.872   3.395  -6.000  0.00  0.00     0.077 C 
ATOM      2  C1' PXY d   1       3.594  -1.863  -3.966  0.00  0.00     0.077 C 
ATOM      3  C1  PXY d   1       3.940  -0.488  -4.503  0.00  0.00    -0.082 A 
ATOM      4  C2  PXY d   1       3.337   0.580  -4.006  0.00  0.00     0.003 A 
ATOM      5  C3  PXY d   1       3.615   1.827  -4.503  0.00  0.00     0.003 A 
ATOM      6  C4  PXY d   1       4.560   1.989  -5.481  0.00  0.00    -0.082 A 
ATOM      7  C5  PXY d   1       5.187   0.905  -5.986  0.00  0.00     0.003 A 
ATOM      8  C6  PXY d   1       4.861  -0.356  -5.497  0.00  0.00     0.003 A 
ENDROOT
TORSDOF 0
ENDMDL
