MODEL 1
REMARK minimizedAffinity 10.0122147
REMARK minimizedRMSD -1
REMARK  0 active torsions:
REMARK  status: ('A' for Active; 'I' for Inactive)
ROOT
ATOM      1  C4' PXY d   1      -3.029   1.515  -2.193  0.00  0.00     0.077 C 
ATOM      2  C1' PXY d   1      -5.605   4.139   2.268  0.00  0.00     0.077 C 
ATOM      3  C1  PXY d   1      -4.918   3.455   1.102  0.00  0.00    -0.082 A 
ATOM      4  C2  PXY d   1      -5.600   3.204  -0.004  0.00  0.00     0.003 A 
ATOM      5  C3  PXY d   1      -5.003   2.558  -1.055  0.00  0.00     0.003 A 
ATOM      6  C4  PXY d   1      -3.680   2.212  -0.995  0.00  0.00    -0.082 A 
ATOM      7  C5  PXY d   1      -2.974   2.474   0.126  0.00  0.00     0.003 A 
ATOM      8  C6  PXY d   1      -3.610   3.094   1.198  0.00  0.00     0.003 A 
ENDROOT
TORSDOF 0
ENDMDL
