MODEL 1
REMARK minimizedAffinity 1.40287554
REMARK minimizedRMSD -1
REMARK  0 active torsions:
REMARK  status: ('A' for Active; 'I' for Inactive)
ROOT
ATOM      1  C4' PXY d   1       3.003  -6.000  -3.707  0.00  0.00     0.077 C 
ATOM      2  C1' PXY d   1       2.422  -5.977   2.045  0.00  0.00     0.077 C 
ATOM      3  C1  PXY d   1       2.586  -5.978   0.538  0.00  0.00    -0.082 A 
ATOM      4  C2  PXY d   1       1.514  -5.967  -0.237  0.00  0.00     0.003 A 
ATOM      5  C3  PXY d   1       1.644  -6.000  -1.602  0.00  0.00     0.003 A 
ATOM      6  C4  PXY d   1       2.885  -5.990  -2.180  0.00  0.00    -0.082 A 
ATOM      7  C5  PXY d   1       3.984  -5.990  -1.396  0.00  0.00     0.003 A 
ATOM      8  C6  PXY d   1       3.830  -5.999  -0.013  0.00  0.00     0.003 A 
ENDROOT
TORSDOF 0
ENDMDL
