MODEL 1
REMARK minimizedAffinity -0.808811188
REMARK minimizedRMSD -1
REMARK  0 active torsions:
REMARK  status: ('A' for Active; 'I' for Inactive)
ROOT
ATOM      1  C4' PXY d   1       2.446  -5.949  -5.876  0.00  0.00     0.077 C 
ATOM      2  C1' PXY d   1       3.306  -5.999  -0.160  0.00  0.00     0.077 C 
ATOM      3  C1  PXY d   1       3.068  -5.992  -1.657  0.00  0.00    -0.082 A 
ATOM      4  C2  PXY d   1       4.102  -5.970  -2.483  0.00  0.00     0.003 A 
ATOM      5  C3  PXY d   1       3.905  -5.931  -3.840  0.00  0.00     0.003 A 
ATOM      6  C4  PXY d   1       2.638  -5.967  -4.357  0.00  0.00    -0.082 A 
ATOM      7  C5  PXY d   1       1.579  -6.000  -3.521  0.00  0.00     0.003 A 
ATOM      8  C6  PXY d   1       1.799  -5.998  -2.147  0.00  0.00     0.003 A 
ENDROOT
TORSDOF 0
ENDMDL
