MODEL 1
REMARK minimizedAffinity 0.400603741
REMARK minimizedRMSD -1
REMARK  0 active torsions:
REMARK  status: ('A' for Active; 'I' for Inactive)
ROOT
ATOM      1  C4' PXY d   1       2.723  -5.911  -5.997  0.00  0.00     0.077 C 
ATOM      2  C1' PXY d   1       3.151  -5.935  -0.232  0.00  0.00     0.077 C 
ATOM      3  C1  PXY d   1       3.050  -5.922  -1.745  0.00  0.00    -0.082 A 
ATOM      4  C2  PXY d   1       1.861  -5.977  -2.321  0.00  0.00     0.003 A 
ATOM      5  C3  PXY d   1       1.753  -5.999  -3.688  0.00  0.00     0.003 A 
ATOM      6  C4  PXY d   1       2.872  -5.911  -4.473  0.00  0.00    -0.082 A 
ATOM      7  C5  PXY d   1       4.088  -5.845  -3.892  0.00  0.00     0.003 A 
ATOM      8  C6  PXY d   1       4.179  -5.865  -2.503  0.00  0.00     0.003 A 
ENDROOT
TORSDOF 0
ENDMDL
