MODEL 1
REMARK minimizedAffinity 0.177598298
REMARK minimizedRMSD -1
REMARK  0 active torsions:
REMARK  status: ('A' for Active; 'I' for Inactive)
ROOT
ATOM      1  C4' PXY d   1       2.857  -5.964  -4.747  0.00  0.00     0.077 C 
ATOM      2  C1' PXY d   1       2.965  -6.000   1.033  0.00  0.00     0.077 C 
ATOM      3  C1  PXY d   1       2.948  -5.985  -0.483  0.00  0.00    -0.082 A 
ATOM      4  C2  PXY d   1       1.791  -5.977  -1.125  0.00  0.00     0.003 A 
ATOM      5  C3  PXY d   1       1.758  -5.996  -2.495  0.00  0.00     0.003 A 
ATOM      6  C4  PXY d   1       2.921  -5.969  -3.217  0.00  0.00    -0.082 A 
ATOM      7  C5  PXY d   1       4.106  -5.966  -2.570  0.00  0.00     0.003 A 
ATOM      8  C6  PXY d   1       4.118  -5.989  -1.178  0.00  0.00     0.003 A 
ENDROOT
TORSDOF 0
ENDMDL
