MODEL 1
REMARK minimizedAffinity 8.63285255
REMARK minimizedRMSD -1
REMARK  0 active torsions:
REMARK  status: ('A' for Active; 'I' for Inactive)
ROOT
ATOM      1  C4' PXY d   1      -0.390   3.764   1.903  0.00  0.00     0.077 C 
ATOM      2  C1' PXY d   1      -5.998   3.419   0.546  0.00  0.00     0.077 C 
ATOM      3  C1  PXY d   1      -4.530   3.520   0.909  0.00  0.00    -0.082 A 
ATOM      4  C2  PXY d   1      -3.622   2.959   0.126  0.00  0.00     0.003 A 
ATOM      5  C3  PXY d   1      -2.293   3.014   0.456  0.00  0.00     0.003 A 
ATOM      6  C4  PXY d   1      -1.883   3.695   1.571  0.00  0.00    -0.082 A 
ATOM      7  C5  PXY d   1      -2.802   4.279   2.369  0.00  0.00     0.003 A 
ATOM      8  C6  PXY d   1      -4.150   4.177   2.038  0.00  0.00     0.003 A 
ENDROOT
TORSDOF 0
ENDMDL
