MODEL 1
REMARK minimizedAffinity 5.99977446
REMARK minimizedRMSD -1
REMARK  0 active torsions:
REMARK  status: ('A' for Active; 'I' for Inactive)
ROOT
ATOM      1  C4' PXY d   1      -4.406   2.359  -4.607  0.00  0.00     0.077 C 
ATOM      2  C1' PXY d   1      -1.451   0.414  -0.036  0.00  0.00     0.077 C 
ATOM      3  C1  PXY d   1      -2.220   0.915  -1.242  0.00  0.00    -0.082 A 
ATOM      4  C2  PXY d   1      -2.641   2.169  -1.275  0.00  0.00     0.003 A 
ATOM      5  C3  PXY d   1      -3.366   2.629  -2.344  0.00  0.00     0.003 A 
ATOM      6  C4  PXY d   1      -3.617   1.813  -3.414  0.00  0.00    -0.082 A 
ATOM      7  C5  PXY d   1      -3.182   0.536  -3.393  0.00  0.00     0.003 A 
ATOM      8  C6  PXY d   1      -2.483   0.076  -2.281  0.00  0.00     0.003 A 
ENDROOT
TORSDOF 0
ENDMDL
