MODEL 1
REMARK minimizedAffinity 6.82333612
REMARK minimizedRMSD -1
REMARK  0 active torsions:
REMARK  status: ('A' for Active; 'I' for Inactive)
ROOT
ATOM      1  C4' PXY d   1       2.850  -5.557   5.860  0.00  0.00     0.077 C 
ATOM      2  C1' PXY d   1       2.241  -1.163   2.154  0.00  0.00     0.077 C 
ATOM      3  C1  PXY d   1       2.414  -2.315   3.124  0.00  0.00    -0.082 A 
ATOM      4  C2  PXY d   1       1.424  -3.174   3.302  0.00  0.00     0.003 A 
ATOM      5  C3  PXY d   1       1.551  -4.203   4.200  0.00  0.00     0.003 A 
ATOM      6  C4  PXY d   1       2.724  -4.385   4.883  0.00  0.00    -0.082 A 
ATOM      7  C5  PXY d   1       3.742  -3.519   4.699  0.00  0.00     0.003 A 
ATOM      8  C6  PXY d   1       3.578  -2.457   3.814  0.00  0.00     0.003 A 
ENDROOT
TORSDOF 0
ENDMDL
