MODEL 1
REMARK minimizedAffinity -1.06412542
REMARK minimizedRMSD -1
REMARK  0 active torsions:
REMARK  status: ('A' for Active; 'I' for Inactive)
ROOT
ATOM      1  C4' PXY d   1       3.775  -1.376  -1.107  0.00  0.00     0.077 C 
ATOM      2  C1' PXY d   1       6.000   0.751  -6.000  0.00  0.00     0.077 C 
ATOM      3  C1  PXY d   1       5.422   0.182  -4.719  0.00  0.00    -0.082 A 
ATOM      4  C2  PXY d   1       4.359   0.749  -4.173  0.00  0.00     0.003 A 
ATOM      5  C3  PXY d   1       3.842   0.267  -2.998  0.00  0.00     0.003 A 
ATOM      6  C4  PXY d   1       4.387  -0.840  -2.404  0.00  0.00    -0.082 A 
ATOM      7  C5  PXY d   1       5.465  -1.432  -2.961  0.00  0.00     0.003 A 
ATOM      8  C6  PXY d   1       5.999  -0.901  -4.132  0.00  0.00     0.003 A 
ENDROOT
TORSDOF 0
ENDMDL
