MODEL 1
REMARK minimizedAffinity 1.69786668
REMARK minimizedRMSD -1
REMARK  0 active torsions:
REMARK  status: ('A' for Active; 'I' for Inactive)
ROOT
ATOM      1  C4' PXY d   1       0.941  -5.112   5.998  0.00  0.00     0.077 C 
ATOM      2  C1' PXY d   1       2.242  -1.140   2.004  0.00  0.00     0.077 C 
ATOM      3  C1  PXY d   1       1.901  -2.191   3.042  0.00  0.00    -0.082 A 
ATOM      4  C2  PXY d   1       1.260  -1.838   4.144  0.00  0.00     0.003 A 
ATOM      5  C3  PXY d   1       0.973  -2.770   5.108  0.00  0.00     0.003 A 
ATOM      6  C4  PXY d   1       1.298  -4.086   4.918  0.00  0.00    -0.082 A 
ATOM      7  C5  PXY d   1       1.942  -4.456   3.791  0.00  0.00     0.003 A 
ATOM      8  C6  PXY d   1       2.261  -3.488   2.844  0.00  0.00     0.003 A 
ENDROOT
TORSDOF 0
ENDMDL
