MODEL 1
REMARK minimizedAffinity -2.89994097
REMARK minimizedRMSD -1
REMARK  0 active torsions:
REMARK  status: ('A' for Active; 'I' for Inactive)
ROOT
ATOM      1  C   UNL d   1       3.697   0.300   0.278  0.00  0.00     0.078 C 
ATOM      2  C1  UNL d   1       3.407   0.766  -1.118  0.00  0.00    -0.077 A 
ATOM      3  C2  UNL d   1       4.445   1.041  -2.016  0.00  0.00    -0.001 A 
ATOM      4  C3  UNL d   1       4.161   1.483  -3.309  0.00  0.00     0.003 A 
ATOM      5  C4  UNL d   1       2.839   1.655  -3.716  0.00  0.00    -0.005 A 
ATOM      6  C5  UNL d   1       1.799   1.385  -2.828  0.00  0.00     0.003 A 
ATOM      7  C6  UNL d   1       2.082   0.943  -1.534  0.00  0.00    -0.001 A 
ENDROOT
TORSDOF 0
ENDMDL
