MODEL 1
REMARK minimizedAffinity -5.31084156
REMARK minimizedRMSD -1
REMARK  0 active torsions:
REMARK  status: ('A' for Active; 'I' for Inactive)
ROOT
ATOM      1  C   UNL d   1       3.745   1.127  -2.185  0.00  0.00     0.078 C 
ATOM      2  C1  UNL d   1       4.319   1.116  -0.800  0.00  0.00    -0.077 A 
ATOM      3  C2  UNL d   1       3.723   0.367   0.222  0.00  0.00    -0.001 A 
ATOM      4  C3  UNL d   1       4.263   0.374   1.509  0.00  0.00     0.003 A 
ATOM      5  C4  UNL d   1       5.401   1.129   1.787  0.00  0.00    -0.005 A 
ATOM      6  C5  UNL d   1       6.000   1.880   0.777  0.00  0.00     0.003 A 
ATOM      7  C6  UNL d   1       5.461   1.874  -0.511  0.00  0.00    -0.001 A 
ENDROOT
TORSDOF 0
ENDMDL
