MODEL 1
REMARK minimizedAffinity -2.89732361
REMARK minimizedRMSD -1
REMARK  0 active torsions:
REMARK  status: ('A' for Active; 'I' for Inactive)
ROOT
ATOM      1  C   UNL d   1       5.288   0.706   0.828  0.00  0.00     0.078 C 
ATOM      2  C1  UNL d   1       4.002   0.703   1.600  0.00  0.00    -0.077 A 
ATOM      3  C2  UNL d   1       2.969   1.594   1.283  0.00  0.00    -0.001 A 
ATOM      4  C3  UNL d   1       1.781   1.586   2.017  0.00  0.00     0.003 A 
ATOM      5  C4  UNL d   1       1.616   0.691   3.072  0.00  0.00    -0.005 A 
ATOM      6  C5  UNL d   1       2.640  -0.197   3.396  0.00  0.00     0.003 A 
ATOM      7  C6  UNL d   1       3.828  -0.191   2.663  0.00  0.00    -0.001 A 
ENDROOT
TORSDOF 0
ENDMDL
