MODEL 1
REMARK minimizedAffinity 5.7207303
REMARK minimizedRMSD -1
REMARK  0 active torsions:
REMARK  status: ('A' for Active; 'I' for Inactive)
ROOT
ATOM      1  C   UNL d   1      -5.711  -4.113  -2.656  0.00  0.00     0.078 C 
ATOM      2  C1  UNL d   1      -4.333  -3.522  -2.620  0.00  0.00    -0.077 A 
ATOM      3  C2  UNL d   1      -3.560  -3.424  -3.783  0.00  0.00    -0.001 A 
ATOM      4  C3  UNL d   1      -2.275  -2.880  -3.733  0.00  0.00     0.003 A 
ATOM      5  C4  UNL d   1      -1.752  -2.432  -2.522  0.00  0.00    -0.005 A 
ATOM      6  C5  UNL d   1      -2.513  -2.528  -1.359  0.00  0.00     0.003 A 
ATOM      7  C6  UNL d   1      -3.798  -3.071  -1.407  0.00  0.00    -0.001 A 
ENDROOT
TORSDOF 0
ENDMDL
