MODEL 1
REMARK minimizedAffinity -4.05372858
REMARK minimizedRMSD -1
REMARK  0 active torsions:
REMARK  status: ('A' for Active; 'I' for Inactive)
ROOT
ATOM      1  C   UNL d   1       3.454   1.813  -2.590  0.00  0.00     0.078 C 
ATOM      2  C1  UNL d   1       3.929   1.320  -1.255  0.00  0.00    -0.077 A 
ATOM      3  C2  UNL d   1       5.289   1.090  -1.014  0.00  0.00    -0.001 A 
ATOM      4  C3  UNL d   1       5.715   0.622   0.230  0.00  0.00     0.003 A 
ATOM      5  C4  UNL d   1       4.789   0.379   1.242  0.00  0.00    -0.005 A 
ATOM      6  C5  UNL d   1       3.433   0.604   1.010  0.00  0.00     0.003 A 
ATOM      7  C6  UNL d   1       3.004   1.071  -0.233  0.00  0.00    -0.001 A 
ENDROOT
TORSDOF 0
ENDMDL
