MODEL 1
REMARK minimizedAffinity -1.17370498
REMARK minimizedRMSD -1
REMARK  0 active torsions:
REMARK  status: ('A' for Active; 'I' for Inactive)
ROOT
ATOM      1  C   UNL d   1       3.670   1.704  -2.374  0.00  0.00     0.078 C 
ATOM      2  C1  UNL d   1       3.583   1.152  -0.983  0.00  0.00    -0.077 A 
ATOM      3  C2  UNL d   1       2.595   1.592  -0.093  0.00  0.00    -0.001 A 
ATOM      4  C3  UNL d   1       2.532   1.076   1.202  0.00  0.00     0.003 A 
ATOM      5  C4  UNL d   1       3.454   0.119   1.620  0.00  0.00    -0.005 A 
ATOM      6  C5  UNL d   1       4.442  -0.323   0.743  0.00  0.00     0.003 A 
ATOM      7  C6  UNL d   1       4.507   0.191  -0.553  0.00  0.00    -0.001 A 
ENDROOT
TORSDOF 0
ENDMDL
