MODEL 1
REMARK minimizedAffinity 6.57994556
REMARK minimizedRMSD -1
REMARK  0 active torsions:
REMARK  status: ('A' for Active; 'I' for Inactive)
ROOT
ATOM      1  C   UNL d   1      -1.119  -2.983  -6.000  0.00  0.00     0.078 C 
ATOM      2  C1  UNL d   1      -1.484  -3.200  -4.562  0.00  0.00    -0.077 A 
ATOM      3  C2  UNL d   1      -2.218  -2.242  -3.851  0.00  0.00    -0.001 A 
ATOM      4  C3  UNL d   1      -2.542  -2.453  -2.510  0.00  0.00     0.003 A 
ATOM      5  C4  UNL d   1      -2.135  -3.620  -1.867  0.00  0.00    -0.005 A 
ATOM      6  C5  UNL d   1      -1.402  -4.578  -2.565  0.00  0.00     0.003 A 
ATOM      7  C6  UNL d   1      -1.077  -4.369  -3.906  0.00  0.00    -0.001 A 
ENDROOT
TORSDOF 0
ENDMDL
