MODEL 1
REMARK minimizedAffinity -0.23976998
REMARK minimizedRMSD -1
REMARK  0 active torsions:
REMARK  status: ('A' for Active; 'I' for Inactive)
ROOT
ATOM      1  C   UNL d   1       5.997  -0.543   1.656  0.00  0.00     0.078 C 
ATOM      2  C1  UNL d   1       4.958   0.442   1.210  0.00  0.00    -0.077 A 
ATOM      3  C2  UNL d   1       3.721   0.011   0.715  0.00  0.00    -0.001 A 
ATOM      4  C3  UNL d   1       2.767   0.938   0.294  0.00  0.00     0.003 A 
ATOM      5  C4  UNL d   1       3.041   2.303   0.362  0.00  0.00    -0.005 A 
ATOM      6  C5  UNL d   1       4.270   2.742   0.851  0.00  0.00     0.003 A 
ATOM      7  C6  UNL d   1       5.225   1.815   1.272  0.00  0.00    -0.001 A 
ENDROOT
TORSDOF 0
ENDMDL
