MODEL 1
REMARK minimizedAffinity 1.79126787
REMARK minimizedRMSD -1
REMARK  0 active torsions:
REMARK  status: ('A' for Active; 'I' for Inactive)
ROOT
ATOM      1  C   UNL d   1       6.000   2.995   1.124  0.00  0.00     0.078 C 
ATOM      2  C1  UNL d   1       5.289   1.694   0.904  0.00  0.00    -0.077 A 
ATOM      3  C2  UNL d   1       4.047   1.650   0.259  0.00  0.00    -0.001 A 
ATOM      4  C3  UNL d   1       3.392   0.432   0.070  0.00  0.00     0.003 A 
ATOM      5  C4  UNL d   1       3.970  -0.751   0.524  0.00  0.00    -0.005 A 
ATOM      6  C5  UNL d   1       5.205  -0.718   1.169  0.00  0.00     0.003 A 
ATOM      7  C6  UNL d   1       5.862   0.499   1.359  0.00  0.00    -0.001 A 
ENDROOT
TORSDOF 0
ENDMDL
