MODEL 1
REMARK minimizedAffinity 1.01596582
REMARK minimizedRMSD -1
REMARK  0 active torsions:
REMARK  status: ('A' for Active; 'I' for Inactive)
ROOT
ATOM      1  C   UNL d   1       2.542   1.197  -1.533  0.00  0.00     0.078 C 
ATOM      2  C1  UNL d   1       2.665   1.461  -3.004  0.00  0.00    -0.077 A 
ATOM      3  C2  UNL d   1       1.663   2.148  -3.700  0.00  0.00    -0.001 A 
ATOM      4  C3  UNL d   1       1.786   2.378  -5.071  0.00  0.00     0.003 A 
ATOM      5  C4  UNL d   1       2.910   1.922  -5.758  0.00  0.00    -0.005 A 
ATOM      6  C5  UNL d   1       3.911   1.236  -5.075  0.00  0.00     0.003 A 
ATOM      7  C6  UNL d   1       3.789   1.005  -3.704  0.00  0.00    -0.001 A 
ENDROOT
TORSDOF 0
ENDMDL
