MODEL 1
REMARK minimizedAffinity 13.3324442
REMARK minimizedRMSD -1
REMARK  0 active torsions:
REMARK  status: ('A' for Active; 'I' for Inactive)
ROOT
ATOM      1  C   UNL d   1       5.048  -0.785   0.748  0.00  0.00     0.078 C 
ATOM      2  C1  UNL d   1       3.911   0.193   0.731  0.00  0.00    -0.077 A 
ATOM      3  C2  UNL d   1       4.025   1.420   0.066  0.00  0.00    -0.001 A 
ATOM      4  C3  UNL d   1       2.962   2.325   0.067  0.00  0.00     0.003 A 
ATOM      5  C4  UNL d   1       1.779   2.013   0.734  0.00  0.00    -0.005 A 
ATOM      6  C5  UNL d   1       1.657   0.796   1.400  0.00  0.00     0.003 A 
ATOM      7  C6  UNL d   1       2.719  -0.110   1.400  0.00  0.00    -0.001 A 
ENDROOT
TORSDOF 0
ENDMDL
