MODEL 1
REMARK minimizedAffinity 0.922131777
REMARK minimizedRMSD -1
REMARK  0 active torsions:
REMARK  status: ('A' for Active; 'I' for Inactive)
ROOT
ATOM      1  C   UNL d   1      -0.745  -3.047   0.944  0.00  0.00     0.078 C 
ATOM      2  C1  UNL d   1      -1.672  -3.325  -0.201  0.00  0.00    -0.077 A 
ATOM      3  C2  UNL d   1      -2.462  -4.480  -0.225  0.00  0.00    -0.001 A 
ATOM      4  C3  UNL d   1      -3.313  -4.731  -1.302  0.00  0.00     0.003 A 
ATOM      5  C4  UNL d   1      -3.382  -3.831  -2.364  0.00  0.00    -0.005 A 
ATOM      6  C5  UNL d   1      -2.598  -2.679  -2.350  0.00  0.00     0.003 A 
ATOM      7  C6  UNL d   1      -1.746  -2.427  -1.274  0.00  0.00    -0.001 A 
ENDROOT
TORSDOF 0
ENDMDL
