MODEL 1
REMARK minimizedAffinity 6.84961319
REMARK minimizedRMSD -1
REMARK  0 active torsions:
REMARK  status: ('A' for Active; 'I' for Inactive)
ROOT
ATOM      1  C   UNL d   1      -4.670  -4.755  -2.299  0.00  0.00     0.078 C 
ATOM      2  C1  UNL d   1      -3.581  -3.729  -2.398  0.00  0.00    -0.077 A 
ATOM      3  C2  UNL d   1      -3.073  -3.103  -1.253  0.00  0.00    -0.001 A 
ATOM      4  C3  UNL d   1      -2.066  -2.143  -1.361  0.00  0.00     0.003 A 
ATOM      5  C4  UNL d   1      -1.559  -1.799  -2.613  0.00  0.00    -0.005 A 
ATOM      6  C5  UNL d   1      -2.060  -2.415  -3.758  0.00  0.00     0.003 A 
ATOM      7  C6  UNL d   1      -3.067  -3.375  -3.652  0.00  0.00    -0.001 A 
ENDROOT
TORSDOF 0
ENDMDL
