MODEL 1
REMARK minimizedAffinity -0.497861952
REMARK minimizedRMSD -1
REMARK  0 active torsions:
REMARK  status: ('A' for Active; 'I' for Inactive)
ROOT
ATOM      1  C   UNL d   1      -1.594  -3.375   1.161  0.00  0.00     0.078 C 
ATOM      2  C1  UNL d   1      -2.214  -3.663  -0.174  0.00  0.00    -0.077 A 
ATOM      3  C2  UNL d   1      -2.888  -4.867  -0.411  0.00  0.00    -0.001 A 
ATOM      4  C3  UNL d   1      -3.452  -5.126  -1.661  0.00  0.00     0.003 A 
ATOM      5  C4  UNL d   1      -3.346  -4.186  -2.685  0.00  0.00    -0.005 A 
ATOM      6  C5  UNL d   1      -2.676  -2.986  -2.459  0.00  0.00     0.003 A 
ATOM      7  C6  UNL d   1      -2.111  -2.726  -1.209  0.00  0.00    -0.001 A 
ENDROOT
TORSDOF 0
ENDMDL
