MODEL 1
REMARK minimizedAffinity 7.38634109
REMARK minimizedRMSD -1
REMARK  0 active torsions:
REMARK  status: ('A' for Active; 'I' for Inactive)
ROOT
ATOM      1  C1  DEN d   1      -0.385   0.922   1.126  0.00  0.00     0.130 A 
ATOM      2  C2  DEN d   1       0.307   0.335  -0.019  0.00  0.00    -0.031 A 
ATOM      3  C3  DEN d   1      -0.714  -0.171  -0.959  0.00  0.00     0.027 A 
ATOM      4  C4  DEN d   1      -3.284  -0.099  -0.755  0.00  0.00     0.027 A 
ATOM      5  C5  DEN d   1      -4.337   0.289   0.044  0.00  0.00    -0.003 A 
ATOM      6  C6  DEN d   1      -4.147   0.879   1.265  0.00  0.00     0.001 A 
ATOM      7  C7  DEN d   1      -2.876   1.140   1.703  0.00  0.00     0.017 A 
ATOM      8  C8  DEN d   1      -1.809   0.745   0.906  0.00  0.00    -0.094 A 
ATOM      9  C9  DEN d   1      -2.022   0.161  -0.331  0.00  0.00    -0.072 A 
ENDROOT
TORSDOF 0
ENDMDL
