MODEL 1
REMARK minimizedAffinity 9.88260841
REMARK minimizedRMSD -1
REMARK  0 active torsions:
REMARK  status: ('A' for Active; 'I' for Inactive)
ROOT
ATOM      1  C1  DEN d   1       1.674   0.011  -0.077  0.00  0.00     0.130 A 
ATOM      2  C2  DEN d   1       2.009  -0.360   1.295  0.00  0.00    -0.031 A 
ATOM      3  C3  DEN d   1       0.855  -1.083   1.867  0.00  0.00     0.027 A 
ATOM      4  C4  DEN d   1      -1.403  -1.665   0.766  0.00  0.00     0.027 A 
ATOM      5  C5  DEN d   1      -2.155  -1.548  -0.382  0.00  0.00    -0.003 A 
ATOM      6  C6  DEN d   1      -1.701  -0.881  -1.488  0.00  0.00     0.001 A 
ATOM      7  C7  DEN d   1      -0.441  -0.342  -1.486  0.00  0.00     0.017 A 
ATOM      8  C8  DEN d   1       0.320  -0.448  -0.329  0.00  0.00    -0.094 A 
ATOM      9  C9  DEN d   1      -0.153  -1.138   0.774  0.00  0.00    -0.072 A 
ENDROOT
TORSDOF 0
ENDMDL
