MODEL 1
REMARK minimizedAffinity 2.65948057
REMARK minimizedRMSD -1
REMARK  0 active torsions:
REMARK  status: ('A' for Active; 'I' for Inactive)
ROOT
ATOM      1  C1  DEN d   1       2.923  -0.275   0.085  0.00  0.00     0.130 A 
ATOM      2  C2  DEN d   1       3.356  -1.629  -0.247  0.00  0.00    -0.031 A 
ATOM      3  C3  DEN d   1       2.187  -2.368  -0.765  0.00  0.00     0.027 A 
ATOM      4  C4  DEN d   1      -0.238  -1.548  -1.087  0.00  0.00     0.027 A 
ATOM      5  C5  DEN d   1      -1.090  -0.477  -0.935  0.00  0.00    -0.003 A 
ATOM      6  C6  DEN d   1      -0.676   0.716  -0.404  0.00  0.00     0.001 A 
ATOM      7  C7  DEN d   1       0.637   0.882  -0.049  0.00  0.00     0.017 A 
ATOM      8  C8  DEN d   1       1.500  -0.196  -0.193  0.00  0.00    -0.094 A 
ATOM      9  C9  DEN d   1       1.065  -1.390  -0.742  0.00  0.00    -0.072 A 
ENDROOT
TORSDOF 0
ENDMDL
