MODEL 1
REMARK minimizedAffinity 0.957344353
REMARK minimizedRMSD -1
REMARK  0 active torsions:
REMARK  status: ('A' for Active; 'I' for Inactive)
ROOT
ATOM      1  C1  DEN d   1       4.387  -0.219  -1.289  0.00  0.00     0.130 A 
ATOM      2  C2  DEN d   1       4.565   1.186  -0.932  0.00  0.00    -0.031 A 
ATOM      3  C3  DEN d   1       3.453   1.576  -0.042  0.00  0.00     0.027 A 
ATOM      4  C4  DEN d   1       1.486   0.146   0.818  0.00  0.00     0.027 A 
ATOM      5  C5  DEN d   1       0.903  -1.101   0.777  0.00  0.00    -0.003 A 
ATOM      6  C6  DEN d   1       1.417  -2.123   0.025  0.00  0.00     0.001 A 
ATOM      7  C7  DEN d   1       2.573  -1.930  -0.683  0.00  0.00     0.017 A 
ATOM      8  C8  DEN d   1       3.163  -0.673  -0.653  0.00  0.00    -0.094 A 
ATOM      9  C9  DEN d   1       2.635   0.344   0.124  0.00  0.00    -0.072 A 
ENDROOT
TORSDOF 0
ENDMDL
