MODEL 1
REMARK minimizedAffinity 7.70640993
REMARK minimizedRMSD -1
REMARK  0 active torsions:
REMARK  status: ('A' for Active; 'I' for Inactive)
ROOT
ATOM      1  C1  DEN d   1       2.421  -2.729  -0.792  0.00  0.00     0.130 A 
ATOM      2  C2  DEN d   1       3.314  -1.580  -0.663  0.00  0.00    -0.031 A 
ATOM      3  C3  DEN d   1       2.482  -0.361  -0.599  0.00  0.00     0.027 A 
ATOM      4  C4  DEN d   1      -0.087  -0.143  -0.682  0.00  0.00     0.027 A 
ATOM      5  C5  DEN d   1      -1.269  -0.840  -0.798  0.00  0.00    -0.003 A 
ATOM      6  C6  DEN d   1      -1.303  -2.200  -0.953  0.00  0.00     0.001 A 
ATOM      7  C7  DEN d   1      -0.133  -2.913  -0.950  0.00  0.00     0.017 A 
ATOM      8  C8  DEN d   1       1.064  -2.216  -0.842  0.00  0.00    -0.094 A 
ATOM      9  C9  DEN d   1       1.076  -0.842  -0.674  0.00  0.00    -0.072 A 
ENDROOT
TORSDOF 0
ENDMDL
