MODEL 1
REMARK minimizedAffinity 4.50699043
REMARK minimizedRMSD -1
REMARK  0 active torsions:
REMARK  status: ('A' for Active; 'I' for Inactive)
ROOT
ATOM      1  C1  DEN d   1       3.065   1.445  -0.015  0.00  0.00     0.130 A 
ATOM      2  C2  DEN d   1       4.455   1.169  -0.368  0.00  0.00    -0.031 A 
ATOM      3  C3  DEN d   1       4.570  -0.269  -0.683  0.00  0.00     0.027 A 
ATOM      4  C4  DEN d   1       2.739  -2.085  -0.664  0.00  0.00     0.027 A 
ATOM      5  C5  DEN d   1       1.407  -2.333  -0.418  0.00  0.00    -0.003 A 
ATOM      6  C6  DEN d   1       0.548  -1.355   0.009  0.00  0.00     0.001 A 
ATOM      7  C7  DEN d   1       1.003  -0.072   0.159  0.00  0.00     0.017 A 
ATOM      8  C8  DEN d   1       2.346   0.185  -0.080  0.00  0.00    -0.094 A 
ATOM      9  C9  DEN d   1       3.196  -0.815  -0.522  0.00  0.00    -0.072 A 
ENDROOT
TORSDOF 0
ENDMDL
