MODEL 1
REMARK minimizedAffinity -0.90100956
REMARK minimizedRMSD -1
REMARK  0 active torsions:
REMARK  status: ('A' for Active; 'I' for Inactive)
ROOT
ATOM      1  C1  DEN d   1      -0.424   1.571  -0.356  0.00  0.00     0.130 A 
ATOM      2  C2  DEN d   1       0.615   2.472   0.136  0.00  0.00    -0.031 A 
ATOM      3  C3  DEN d   1       1.819   1.666   0.422  0.00  0.00     0.027 A 
ATOM      4  C4  DEN d   1       2.175  -0.874   0.148  0.00  0.00     0.027 A 
ATOM      5  C5  DEN d   1       1.577  -2.057  -0.226  0.00  0.00    -0.003 A 
ATOM      6  C6  DEN d   1       0.271  -2.119  -0.633  0.00  0.00     0.001 A 
ATOM      7  C7  DEN d   1      -0.468  -0.968  -0.720  0.00  0.00     0.017 A 
ATOM      8  C8  DEN d   1       0.126   0.228  -0.338  0.00  0.00    -0.094 A 
ATOM      9  C9  DEN d   1       1.451   0.271   0.060  0.00  0.00    -0.072 A 
ENDROOT
TORSDOF 0
ENDMDL
