MODEL 1
REMARK minimizedAffinity 12.2418938
REMARK minimizedRMSD -1
REMARK  0 active torsions:
REMARK  status: ('A' for Active; 'I' for Inactive)
ROOT
ATOM      1  C1  DEN d   1       1.074  -2.025  -1.584  0.00  0.00     0.130 A 
ATOM      2  C2  DEN d   1       1.718  -2.192  -0.284  0.00  0.00    -0.031 A 
ATOM      3  C3  DEN d   1       1.130  -3.379   0.368  0.00  0.00     0.027 A 
ATOM      4  C4  DEN d   1      -0.702  -4.970  -0.507  0.00  0.00     0.027 A 
ATOM      5  C5  DEN d   1      -1.560  -5.227  -1.554  0.00  0.00    -0.003 A 
ATOM      6  C6  DEN d   1      -1.623  -4.422  -2.660  0.00  0.00     0.001 A 
ATOM      7  C7  DEN d   1      -0.782  -3.346  -2.766  0.00  0.00     0.017 A 
ATOM      8  C8  DEN d   1       0.080  -3.076  -1.711  0.00  0.00    -0.094 A 
ATOM      9  C9  DEN d   1       0.138  -3.909  -0.606  0.00  0.00    -0.072 A 
ENDROOT
TORSDOF 0
ENDMDL
