MODEL 1
REMARK minimizedAffinity 4.75220013
REMARK minimizedRMSD -1
REMARK  0 active torsions:
REMARK  status: ('A' for Active; 'I' for Inactive)
ROOT
ATOM      1  C   UNL d   1       5.995   0.448   3.624  0.00  0.00     0.124 A 
ATOM      2  C1  UNL d   1       5.994   1.082   2.389  0.00  0.00     0.062 A 
ATOM      3  C2  UNL d   1       5.995   2.472   2.316  0.00  0.00     0.162 A 
ATOM      4  C3  UNL d   1       5.998   3.238   3.481  0.00  0.00    -0.034 A 
ATOM      5  C4  UNL d   1       5.997   2.593   4.719  0.00  0.00     0.162 A 
ATOM      6  C5  UNL d   1       5.996   1.203   4.787  0.00  0.00     0.062 A 
ATOM      7  F   UNL d   1       5.997   0.593   5.981  0.00  0.00    -0.097 F 
ATOM      8  F1  UNL d   1       6.000   3.299   5.860  0.00  0.00    -0.096 F 
ATOM      9  I   UNL d   1       5.999   5.316   3.376  0.00  0.00    -0.060 I 
ATOM     10  F2  UNL d   1       5.994   3.057   1.109  0.00  0.00    -0.096 F 
ATOM     11  F3  UNL d   1       5.991   0.353   1.263  0.00  0.00    -0.097 F 
ATOM     12  F4  UNL d   1       5.993  -0.890   3.691  0.00  0.00    -0.092 F 
ENDROOT
TORSDOF 0
ENDMDL
