MODEL 1
REMARK minimizedAffinity 5.9901762
REMARK minimizedRMSD -1
REMARK  0 active torsions:
REMARK  status: ('A' for Active; 'I' for Inactive)
ROOT
ATOM      1  C   UNL d   1       5.575   4.807   2.486  0.00  0.00     0.124 A 
ATOM      2  C1  UNL d   1       5.540   3.593   1.813  0.00  0.00     0.062 A 
ATOM      3  C2  UNL d   1       5.660   2.399   2.518  0.00  0.00     0.162 A 
ATOM      4  C3  UNL d   1       5.816   2.412   3.904  0.00  0.00    -0.034 A 
ATOM      5  C4  UNL d   1       5.851   3.636   4.573  0.00  0.00     0.162 A 
ATOM      6  C5  UNL d   1       5.731   4.827   3.865  0.00  0.00     0.062 A 
ATOM      7  F   UNL d   1       5.765   5.999   4.516  0.00  0.00    -0.097 F 
ATOM      8  F1  UNL d   1       6.000   3.685   5.905  0.00  0.00    -0.096 F 
ATOM      9  I   UNL d   1       5.996   0.628   4.960  0.00  0.00    -0.060 I 
ATOM     10  F2  UNL d   1       5.623   1.241   1.842  0.00  0.00    -0.096 F 
ATOM     11  F3  UNL d   1       5.391   3.571   0.481  0.00  0.00    -0.097 F 
ATOM     12  F4  UNL d   1       5.460   5.955   1.806  0.00  0.00    -0.092 F 
ENDROOT
TORSDOF 0
ENDMDL
