MODEL 1
REMARK minimizedAffinity 23.285202
REMARK minimizedRMSD -1
REMARK  0 active torsions:
REMARK  status: ('A' for Active; 'I' for Inactive)
ROOT
ATOM      1  C   UNL d   1      -0.927   3.053   0.814  0.00  0.00     0.124 A 
ATOM      2  C1  UNL d   1      -1.343   1.854   0.252  0.00  0.00     0.062 A 
ATOM      3  C2  UNL d   1      -1.961   0.889   1.041  0.00  0.00     0.162 A 
ATOM      4  C3  UNL d   1      -2.169   1.119   2.401  0.00  0.00    -0.034 A 
ATOM      5  C4  UNL d   1      -1.748   2.327   2.959  0.00  0.00     0.162 A 
ATOM      6  C5  UNL d   1      -1.130   3.289   2.166  0.00  0.00     0.062 A 
ATOM      7  F   UNL d   1      -0.730   4.446   2.711  0.00  0.00    -0.097 F 
ATOM      8  F1  UNL d   1      -1.932   2.580   4.263  0.00  0.00    -0.096 F 
ATOM      9  I   UNL d   1      -3.094  -0.323   3.584  0.00  0.00    -0.060 I 
ATOM     10  F2  UNL d   1      -2.353  -0.261   0.471  0.00  0.00    -0.096 F 
ATOM     11  F3  UNL d   1      -1.147   1.624  -1.055  0.00  0.00    -0.097 F 
ATOM     12  F4  UNL d   1      -0.332   3.980   0.053  0.00  0.00    -0.092 F 
ENDROOT
TORSDOF 0
ENDMDL
