MODEL 1
REMARK minimizedAffinity 5.22662258
REMARK minimizedRMSD -1
REMARK  0 active torsions:
REMARK  status: ('A' for Active; 'I' for Inactive)
ROOT
ATOM      1  C   UNL d   1       4.848  -1.088   2.699  0.00  0.00     0.124 A 
ATOM      2  C1  UNL d   1       4.758   0.147   2.072  0.00  0.00     0.062 A 
ATOM      3  C2  UNL d   1       5.085   1.309   2.764  0.00  0.00     0.162 A 
ATOM      4  C3  UNL d   1       5.508   1.243   4.091  0.00  0.00    -0.034 A 
ATOM      5  C4  UNL d   1       5.595  -0.003   4.716  0.00  0.00     0.162 A 
ATOM      6  C5  UNL d   1       5.267  -1.161   4.020  0.00  0.00     0.062 A 
ATOM      7  F   UNL d   1       5.354  -2.353   4.628  0.00  0.00    -0.097 F 
ATOM      8  F1  UNL d   1       5.998  -0.103   5.992  0.00  0.00    -0.096 F 
ATOM      9  I   UNL d   1       5.999   2.979   5.129  0.00  0.00    -0.060 I 
ATOM     10  F2  UNL d   1       4.989   2.489   2.132  0.00  0.00    -0.096 F 
ATOM     11  F3  UNL d   1       4.352   0.221   0.796  0.00  0.00    -0.097 F 
ATOM     12  F4  UNL d   1       4.531  -2.205   2.032  0.00  0.00    -0.092 F 
ENDROOT
TORSDOF 0
ENDMDL
