MODEL 1
REMARK minimizedAffinity 4.34068727
REMARK minimizedRMSD -1
REMARK  0 active torsions:
REMARK  status: ('A' for Active; 'I' for Inactive)
ROOT
ATOM      1  C   UNL d   1       4.612  -0.044   3.537  0.00  0.00     0.124 A 
ATOM      2  C1  UNL d   1       4.268   0.842   2.526  0.00  0.00     0.062 A 
ATOM      3  C2  UNL d   1       4.506   2.205   2.679  0.00  0.00     0.162 A 
ATOM      4  C3  UNL d   1       5.092   2.690   3.848  0.00  0.00    -0.034 A 
ATOM      5  C4  UNL d   1       5.434   1.792   4.861  0.00  0.00     0.162 A 
ATOM      6  C5  UNL d   1       5.195   0.431   4.703  0.00  0.00     0.062 A 
ATOM      7  F   UNL d   1       5.528  -0.424   5.681  0.00  0.00    -0.097 F 
ATOM      8  F1  UNL d   1       6.000   2.225   5.998  0.00  0.00    -0.096 F 
ATOM      9  I   UNL d   1       5.449   4.727   4.081  0.00  0.00    -0.060 I 
ATOM     10  F2  UNL d   1       4.163   3.039   1.686  0.00  0.00    -0.096 F 
ATOM     11  F3  UNL d   1       3.704   0.385   1.398  0.00  0.00    -0.097 F 
ATOM     12  F4  UNL d   1       4.381  -1.355   3.387  0.00  0.00    -0.092 F 
ENDROOT
TORSDOF 0
ENDMDL
