MODEL 1
REMARK minimizedAffinity 8.05043125
REMARK minimizedRMSD -1
REMARK  0 active torsions:
REMARK  status: ('A' for Active; 'I' for Inactive)
ROOT
ATOM      1  C   UNL d   1       5.962   2.711   3.638  0.00  0.00     0.124 A 
ATOM      2  C1  UNL d   1       5.960   2.003   4.832  0.00  0.00     0.062 A 
ATOM      3  C2  UNL d   1       5.970   0.611   4.820  0.00  0.00     0.162 A 
ATOM      4  C3  UNL d   1       5.984  -0.082   3.610  0.00  0.00    -0.034 A 
ATOM      5  C4  UNL d   1       5.986   0.637   2.413  0.00  0.00     0.162 A 
ATOM      6  C5  UNL d   1       5.975   2.028   2.430  0.00  0.00     0.062 A 
ATOM      7  F   UNL d   1       5.978   2.710   1.276  0.00  0.00    -0.097 F 
ATOM      8  F1  UNL d   1       5.999   0.001   1.232  0.00  0.00    -0.096 F 
ATOM      9  I   UNL d   1       5.999  -2.163   3.588  0.00  0.00    -0.060 I 
ATOM     10  F2  UNL d   1       5.967  -0.047   5.989  0.00  0.00    -0.096 F 
ATOM     11  F3  UNL d   1       5.946   2.661   6.000  0.00  0.00    -0.097 F 
ATOM     12  F4  UNL d   1       5.952   4.050   3.652  0.00  0.00    -0.092 F 
ENDROOT
TORSDOF 0
ENDMDL
