MODEL 1
REMARK minimizedAffinity 3.72219682
REMARK minimizedRMSD -1
REMARK  0 active torsions:
REMARK  status: ('A' for Active; 'I' for Inactive)
ROOT
ATOM      1  C   UNL d   1       5.671  -0.466   3.210  0.00  0.00     0.124 A 
ATOM      2  C1  UNL d   1       5.640   0.030   4.506  0.00  0.00     0.062 A 
ATOM      3  C2  UNL d   1       5.727   1.401   4.733  0.00  0.00     0.162 A 
ATOM      4  C3  UNL d   1       5.846   2.286   3.661  0.00  0.00    -0.034 A 
ATOM      5  C4  UNL d   1       5.877   1.779   2.361  0.00  0.00     0.162 A 
ATOM      6  C5  UNL d   1       5.790   0.409   2.139  0.00  0.00     0.062 A 
ATOM      7  F   UNL d   1       5.820  -0.069   0.886  0.00  0.00    -0.097 F 
ATOM      8  F1  UNL d   1       5.991   2.602   1.307  0.00  0.00    -0.096 F 
ATOM      9  I   UNL d   1       5.977   4.335   3.996  0.00  0.00    -0.060 I 
ATOM     10  F2  UNL d   1       5.695   1.852   5.995  0.00  0.00    -0.096 F 
ATOM     11  F3  UNL d   1       5.526  -0.812   5.542  0.00  0.00    -0.097 F 
ATOM     12  F4  UNL d   1       5.587  -1.785   2.994  0.00  0.00    -0.092 F 
ENDROOT
TORSDOF 0
ENDMDL
