MODEL 1
REMARK minimizedAffinity 5.57561064
REMARK minimizedRMSD -1
REMARK  0 active torsions:
REMARK  status: ('A' for Active; 'I' for Inactive)
ROOT
ATOM      1  C   UNL d   1       5.918   0.031   3.600  0.00  0.00     0.124 A 
ATOM      2  C1  UNL d   1       5.953   0.736   2.405  0.00  0.00     0.062 A 
ATOM      3  C2  UNL d   1       5.965   2.128   2.413  0.00  0.00     0.162 A 
ATOM      4  C3  UNL d   1       5.943   2.825   3.620  0.00  0.00    -0.034 A 
ATOM      5  C4  UNL d   1       5.907   2.110   4.819  0.00  0.00     0.162 A 
ATOM      6  C5  UNL d   1       5.895   0.719   4.806  0.00  0.00     0.062 A 
ATOM      7  F   UNL d   1       5.862   0.040   5.962  0.00  0.00    -0.097 F 
ATOM      8  F1  UNL d   1       5.886   2.748   5.998  0.00  0.00    -0.096 F 
ATOM      9  I   UNL d   1       5.961   4.906   3.636  0.00  0.00    -0.060 I 
ATOM     10  F2  UNL d   1       5.998   2.782   1.242  0.00  0.00    -0.096 F 
ATOM     11  F3  UNL d   1       5.973   0.074   1.239  0.00  0.00    -0.097 F 
ATOM     12  F4  UNL d   1       5.905  -1.308   3.590  0.00  0.00    -0.092 F 
ENDROOT
TORSDOF 0
ENDMDL
