MODEL 1
REMARK minimizedAffinity 26.1767807
REMARK minimizedRMSD -1
REMARK  0 active torsions:
REMARK  status: ('A' for Active; 'I' for Inactive)
ROOT
ATOM      1  C   UNL d   1       4.131   0.543   2.848  0.00  0.00     0.124 A 
ATOM      2  C1  UNL d   1       3.995   1.599   1.958  0.00  0.00     0.062 A 
ATOM      3  C2  UNL d   1       4.527   2.848   2.266  0.00  0.00     0.162 A 
ATOM      4  C3  UNL d   1       5.200   3.048   3.471  0.00  0.00    -0.034 A 
ATOM      5  C4  UNL d   1       5.332   1.981   4.362  0.00  0.00     0.162 A 
ATOM      6  C5  UNL d   1       4.800   0.735   4.049  0.00  0.00     0.062 A 
ATOM      7  F   UNL d   1       4.932  -0.284   4.911  0.00  0.00    -0.097 F 
ATOM      8  F1  UNL d   1       5.974   2.139   5.530  0.00  0.00    -0.096 F 
ATOM      9  I   UNL d   1       5.996   4.914   3.936  0.00  0.00    -0.060 I 
ATOM     10  F2  UNL d   1       4.380   3.850   1.387  0.00  0.00    -0.096 F 
ATOM     11  F3  UNL d   1       3.349   1.416   0.797  0.00  0.00    -0.097 F 
ATOM     12  F4  UNL d   1       3.619  -0.658   2.549  0.00  0.00    -0.092 F 
ENDROOT
TORSDOF 0
ENDMDL
