MODEL 1
REMARK minimizedAffinity 10.463604
REMARK minimizedRMSD -1
REMARK  0 active torsions:
REMARK  status: ('A' for Active; 'I' for Inactive)
ROOT
ATOM      1  C   UNL d   1       5.687   2.815   3.597  0.00  0.00     0.124 A 
ATOM      2  C1  UNL d   1       5.806   2.132   4.800  0.00  0.00     0.062 A 
ATOM      3  C2  UNL d   1       5.884   0.742   4.812  0.00  0.00     0.162 A 
ATOM      4  C3  UNL d   1       5.843   0.025   3.616  0.00  0.00    -0.034 A 
ATOM      5  C4  UNL d   1       5.721   0.719   2.410  0.00  0.00     0.162 A 
ATOM      6  C5  UNL d   1       5.644   2.108   2.404  0.00  0.00     0.062 A 
ATOM      7  F   UNL d   1       5.528   2.765   1.241  0.00  0.00    -0.097 F 
ATOM      8  F1  UNL d   1       5.679   0.060   1.242  0.00  0.00    -0.096 F 
ATOM      9  I   UNL d   1       5.958  -2.053   3.629  0.00  0.00    -0.060 I 
ATOM     10  F2  UNL d   1       5.999   0.109   5.988  0.00  0.00    -0.096 F 
ATOM     11  F3  UNL d   1       5.847   2.813   5.954  0.00  0.00    -0.097 F 
ATOM     12  F4  UNL d   1       5.611   4.152   3.589  0.00  0.00    -0.092 F 
ENDROOT
TORSDOF 0
ENDMDL
