MODEL 1
REMARK minimizedAffinity 9.07140255
REMARK minimizedRMSD -1
REMARK  0 active torsions:
REMARK  status: ('A' for Active; 'I' for Inactive)
ROOT
ATOM      1  C   UNL d   1       5.815   3.666   3.633  0.00  0.00     0.124 A 
ATOM      2  C1  UNL d   1       5.761   2.957   4.824  0.00  0.00     0.062 A 
ATOM      3  C2  UNL d   1       5.775   1.565   4.811  0.00  0.00     0.162 A 
ATOM      4  C3  UNL d   1       5.843   0.873   3.602  0.00  0.00    -0.034 A 
ATOM      5  C4  UNL d   1       5.896   1.594   2.408  0.00  0.00     0.162 A 
ATOM      6  C5  UNL d   1       5.882   2.984   2.426  0.00  0.00     0.062 A 
ATOM      7  F   UNL d   1       5.934   3.668   1.274  0.00  0.00    -0.097 F 
ATOM      8  F1  UNL d   1       5.962   0.960   1.227  0.00  0.00    -0.096 F 
ATOM      9  I   UNL d   1       5.864  -1.208   3.579  0.00  0.00    -0.060 I 
ATOM     10  F2  UNL d   1       5.722   0.905   5.978  0.00  0.00    -0.096 F 
ATOM     11  F3  UNL d   1       5.695   3.613   5.992  0.00  0.00    -0.097 F 
ATOM     12  F4  UNL d   1       5.801   5.005   3.648  0.00  0.00    -0.092 F 
ENDROOT
TORSDOF 0
ENDMDL
