MODEL 1
REMARK minimizedAffinity 0.601067841
REMARK minimizedRMSD -1
REMARK  0 active torsions:
REMARK  status: ('A' for Active; 'I' for Inactive)
ROOT
ATOM      1  C   UNL d   1       5.818   4.620   3.012  0.00  0.00     0.124 A 
ATOM      2  C1  UNL d   1       5.909   3.643   2.030  0.00  0.00     0.062 A 
ATOM      3  C2  UNL d   1       5.911   2.296   2.381  0.00  0.00     0.162 A 
ATOM      4  C3  UNL d   1       5.821   1.917   3.720  0.00  0.00    -0.034 A 
ATOM      5  C4  UNL d   1       5.731   2.905   4.702  0.00  0.00     0.162 A 
ATOM      6  C5  UNL d   1       5.729   4.250   4.347  0.00  0.00     0.062 A 
ATOM      7  F   UNL d   1       5.642   5.192   5.297  0.00  0.00    -0.097 F 
ATOM      8  F1  UNL d   1       5.643   2.576   6.000  0.00  0.00    -0.096 F 
ATOM      9  I   UNL d   1       5.824  -0.096   4.248  0.00  0.00    -0.060 I 
ATOM     10  F2  UNL d   1       6.000   1.374   1.411  0.00  0.00    -0.096 F 
ATOM     11  F3  UNL d   1       5.996   3.998   0.740  0.00  0.00    -0.097 F 
ATOM     12  F4  UNL d   1       5.818   5.915   2.672  0.00  0.00    -0.092 F 
ENDROOT
TORSDOF 0
ENDMDL
