MODEL 1
REMARK minimizedAffinity 7.88270235
REMARK minimizedRMSD -1
REMARK  0 active torsions:
REMARK  status: ('A' for Active; 'I' for Inactive)
ROOT
ATOM      1  C   UNL d   1       5.876   0.020   3.564  0.00  0.00     0.124 A 
ATOM      2  C1  UNL d   1       5.921   0.740   2.378  0.00  0.00     0.062 A 
ATOM      3  C2  UNL d   1       5.956   2.131   2.405  0.00  0.00     0.162 A 
ATOM      4  C3  UNL d   1       5.947   2.812   3.622  0.00  0.00    -0.034 A 
ATOM      5  C4  UNL d   1       5.901   2.082   4.810  0.00  0.00     0.162 A 
ATOM      6  C5  UNL d   1       5.866   0.691   4.779  0.00  0.00     0.062 A 
ATOM      7  F   UNL d   1       5.823  -0.002   5.926  0.00  0.00    -0.097 F 
ATOM      8  F1  UNL d   1       5.891   2.705   5.998  0.00  0.00    -0.096 F 
ATOM      9  I   UNL d   1       5.999   4.893   3.666  0.00  0.00    -0.060 I 
ATOM     10  F2  UNL d   1       5.999   2.801   1.243  0.00  0.00    -0.096 F 
ATOM     11  F3  UNL d   1       5.930   0.094   1.203  0.00  0.00    -0.097 F 
ATOM     12  F4  UNL d   1       5.842  -1.318   3.536  0.00  0.00    -0.092 F 
ENDROOT
TORSDOF 0
ENDMDL
