MODEL 1
REMARK minimizedAffinity 11.3337231
REMARK minimizedRMSD -1
REMARK  0 active torsions:
REMARK  status: ('A' for Active; 'I' for Inactive)
ROOT
ATOM      1  C   UNL d   1       4.308   0.303   3.233  0.00  0.00     0.124 A 
ATOM      2  C1  UNL d   1       4.967   0.494   4.440  0.00  0.00     0.062 A 
ATOM      3  C2  UNL d   1       5.365   1.771   4.825  0.00  0.00     0.162 A 
ATOM      4  C3  UNL d   1       5.104   2.868   4.003  0.00  0.00    -0.034 A 
ATOM      5  C4  UNL d   1       4.442   2.667   2.791  0.00  0.00     0.162 A 
ATOM      6  C5  UNL d   1       4.046   1.389   2.410  0.00  0.00     0.062 A 
ATOM      7  F   UNL d   1       3.410   1.206   1.244  0.00  0.00    -0.097 F 
ATOM      8  F1  UNL d   1       4.176   3.699   1.976  0.00  0.00    -0.096 F 
ATOM      9  I   UNL d   1       5.698   4.779   4.576  0.00  0.00    -0.060 I 
ATOM     10  F2  UNL d   1       6.000   1.927   5.996  0.00  0.00    -0.096 F 
ATOM     11  F3  UNL d   1       5.222  -0.553   5.237  0.00  0.00    -0.097 F 
ATOM     12  F4  UNL d   1       3.927  -0.927   2.865  0.00  0.00    -0.092 F 
ENDROOT
TORSDOF 0
ENDMDL
