MODEL 1
REMARK minimizedAffinity 11.0936527
REMARK minimizedRMSD -1
REMARK  0 active torsions:
REMARK  status: ('A' for Active; 'I' for Inactive)
ROOT
ATOM      1  C   UNL d   1       1.577  -0.125  -0.997  0.00  0.00     0.124 A 
ATOM      2  C1  UNL d   1       2.389   0.892  -0.515  0.00  0.00     0.062 A 
ATOM      3  C2  UNL d   1       1.823   2.069  -0.030  0.00  0.00     0.162 A 
ATOM      4  C3  UNL d   1       0.438   2.234  -0.025  0.00  0.00    -0.034 A 
ATOM      5  C4  UNL d   1      -0.371   1.206  -0.513  0.00  0.00     0.162 A 
ATOM      6  C5  UNL d   1       0.199   0.033  -0.996  0.00  0.00     0.062 A 
ATOM      7  F   UNL d   1      -0.587  -0.949  -1.462  0.00  0.00    -0.097 F 
ATOM      8  F1  UNL d   1      -1.707   1.332  -0.523  0.00  0.00    -0.096 F 
ATOM      9  I   UNL d   1      -0.411   3.991   0.698  0.00  0.00    -0.060 I 
ATOM     10  F2  UNL d   1       2.632   3.035   0.430  0.00  0.00    -0.096 F 
ATOM     11  F3  UNL d   1       3.721   0.743  -0.516  0.00  0.00    -0.097 F 
ATOM     12  F4  UNL d   1       2.124  -1.255  -1.464  0.00  0.00    -0.092 F 
ENDROOT
TORSDOF 0
ENDMDL
