MODEL 1
REMARK minimizedAffinity 5.82410669
REMARK minimizedRMSD -1
REMARK  0 active torsions:
REMARK  status: ('A' for Active; 'I' for Inactive)
ROOT
ATOM      1  O1  BZF d   1      -1.501   4.929  -5.436  0.00  0.00    -0.204 OA
ATOM      2  C2  BZF d   1      -0.282   4.606  -6.000  0.00  0.00     0.174 A 
ATOM      3  C3  BZF d   1       0.116   3.378  -5.608  0.00  0.00    -0.012 A 
ATOM      4  C3A BZF d   1      -0.962   2.867  -4.819  0.00  0.00    -0.107 A 
ATOM      5  C4  BZF d   1      -1.169   1.687  -4.164  0.00  0.00     0.055 A 
ATOM      6  C5  BZF d   1      -2.298   1.531  -3.424  0.00  0.00    -0.016 A 
ATOM      7  C6  BZF d   1      -3.238   2.535  -3.314  0.00  0.00     0.022 A 
ATOM      8  C7  BZF d   1      -3.079   3.721  -3.949  0.00  0.00     0.029 A 
ATOM      9  C7A BZF d   1      -1.955   3.869  -4.724  0.00  0.00     0.058 A 
ENDROOT
TORSDOF 0
ENDMDL
