MODEL 1
REMARK minimizedAffinity -3.02971125
REMARK minimizedRMSD -1
REMARK  0 active torsions:
REMARK  status: ('A' for Active; 'I' for Inactive)
ROOT
ATOM      1  O1  BZF d   1      -2.318   4.568  -5.794  0.00  0.00    -0.204 OA
ATOM      2  C2  BZF d   1      -1.009   4.178  -6.000  0.00  0.00     0.174 A 
ATOM      3  C3  BZF d   1      -0.623   3.283  -5.068  0.00  0.00    -0.012 A 
ATOM      4  C3A BZF d   1      -1.792   3.032  -4.281  0.00  0.00    -0.107 A 
ATOM      5  C4  BZF d   1      -2.047   2.222  -3.212  0.00  0.00     0.055 A 
ATOM      6  C5  BZF d   1      -3.274   2.265  -2.629  0.00  0.00    -0.016 A 
ATOM      7  C6  BZF d   1      -4.266   3.109  -3.086  0.00  0.00     0.022 A 
ATOM      8  C7  BZF d   1      -4.061   3.927  -4.146  0.00  0.00     0.029 A 
ATOM      9  C7A BZF d   1      -2.832   3.862  -4.758  0.00  0.00     0.058 A 
ENDROOT
TORSDOF 0
ENDMDL
