MODEL 1
REMARK minimizedAffinity 15.5222778
REMARK minimizedRMSD -1
REMARK  0 active torsions:
REMARK  status: ('A' for Active; 'I' for Inactive)
ROOT
ATOM      1  O1  BZF d   1       2.062  -3.281  -1.136  0.00  0.00    -0.204 OA
ATOM      2  C2  BZF d   1       1.155  -2.786  -0.219  0.00  0.00     0.174 A 
ATOM      3  C3  BZF d   1       1.599  -2.973   1.041  0.00  0.00    -0.012 A 
ATOM      4  C3A BZF d   1       2.904  -3.542   0.900  0.00  0.00    -0.107 A 
ATOM      5  C4  BZF d   1       3.858  -3.937   1.794  0.00  0.00     0.055 A 
ATOM      6  C5  BZF d   1       4.995  -4.521   1.333  0.00  0.00    -0.016 A 
ATOM      7  C6  BZF d   1       5.208  -4.730  -0.014  0.00  0.00     0.022 A 
ATOM      8  C7  BZF d   1       4.293  -4.351  -0.939  0.00  0.00     0.029 A 
ATOM      9  C7A BZF d   1       3.158  -3.731  -0.478  0.00  0.00     0.058 A 
ENDROOT
TORSDOF 0
ENDMDL
