MODEL 1
REMARK minimizedAffinity 13.9190512
REMARK minimizedRMSD -1
REMARK  0 active torsions:
REMARK  status: ('A' for Active; 'I' for Inactive)
ROOT
ATOM      1  O1  BZF d   1       4.899   5.474   3.187  0.00  0.00    -0.204 OA
ATOM      2  C2  BZF d   1       5.891   5.604   4.140  0.00  0.00     0.174 A 
ATOM      3  C3  BZF d   1       5.358   5.869   5.351  0.00  0.00    -0.012 A 
ATOM      4  C3A BZF d   1       3.941   5.816   5.158  0.00  0.00    -0.107 A 
ATOM      5  C4  BZF d   1       2.874   5.980   5.994  0.00  0.00     0.055 A 
ATOM      6  C5  BZF d   1       1.618   5.937   5.477  0.00  0.00    -0.016 A 
ATOM      7  C6  BZF d   1       1.393   5.739   4.130  0.00  0.00     0.022 A 
ATOM      8  C7  BZF d   1       2.420   5.566   3.263  0.00  0.00     0.029 A 
ATOM      9  C7A BZF d   1       3.690   5.576   3.788  0.00  0.00     0.058 A 
ENDROOT
TORSDOF 0
ENDMDL
