MODEL 1
REMARK minimizedAffinity 7.75935459
REMARK minimizedRMSD -1
REMARK  0 active torsions:
REMARK  status: ('A' for Active; 'I' for Inactive)
ROOT
ATOM      1  O1  BZF d   1       1.398  -4.043  -0.464  0.00  0.00    -0.204 OA
ATOM      2  C2  BZF d   1       2.552  -3.286  -0.406  0.00  0.00     0.174 A 
ATOM      3  C3  BZF d   1       2.391  -2.229   0.415  0.00  0.00    -0.012 A 
ATOM      4  C3A BZF d   1       1.083  -2.382   0.973  0.00  0.00    -0.107 A 
ATOM      5  C4  BZF d   1       0.354  -1.656   1.871  0.00  0.00     0.055 A 
ATOM      6  C5  BZF d   1      -0.921  -2.035   2.148  0.00  0.00    -0.016 A 
ATOM      7  C6  BZF d   1      -1.500  -3.131   1.543  0.00  0.00     0.022 A 
ATOM      8  C7  BZF d   1      -0.815  -3.886   0.650  0.00  0.00     0.029 A 
ATOM      9  C7A BZF d   1       0.485  -3.524   0.392  0.00  0.00     0.058 A 
ENDROOT
TORSDOF 0
ENDMDL
