MODEL 1
REMARK minimizedAffinity 10.8442335
REMARK minimizedRMSD -1
REMARK  0 active torsions:
REMARK  status: ('A' for Active; 'I' for Inactive)
ROOT
ATOM      1  O1  BZF d   1       1.852  -4.274   0.448  0.00  0.00    -0.204 OA
ATOM      2  C2  BZF d   1       1.327  -3.030   0.157  0.00  0.00     0.174 A 
ATOM      3  C3  BZF d   1       2.311  -2.120   0.003  0.00  0.00    -0.012 A 
ATOM      4  C3A BZF d   1       3.530  -2.860   0.119  0.00  0.00    -0.107 A 
ATOM      5  C4  BZF d   1       4.849  -2.515   0.042  0.00  0.00     0.055 A 
ATOM      6  C5  BZF d   1       5.794  -3.462   0.274  0.00  0.00    -0.016 A 
ATOM      7  C6  BZF d   1       5.457  -4.762   0.591  0.00  0.00     0.022 A 
ATOM      8  C7  BZF d   1       4.162  -5.153   0.674  0.00  0.00     0.029 A 
ATOM      9  C7A BZF d   1       3.205  -4.206   0.408  0.00  0.00     0.058 A 
ENDROOT
TORSDOF 0
ENDMDL
