MODEL 1
REMARK minimizedAffinity 9.80577087
REMARK minimizedRMSD -1
REMARK  0 active torsions:
REMARK  status: ('A' for Active; 'I' for Inactive)
ROOT
ATOM      1  O1  BZF d   1      -2.511   4.063  -4.470  0.00  0.00    -0.204 OA
ATOM      2  C2  BZF d   1      -2.985   3.012  -3.709  0.00  0.00     0.174 A 
ATOM      3  C3  BZF d   1      -2.097   1.997  -3.689  0.00  0.00    -0.012 A 
ATOM      4  C3A BZF d   1      -0.959   2.479  -4.411  0.00  0.00    -0.107 A 
ATOM      5  C4  BZF d   1       0.255   1.935  -4.721  0.00  0.00     0.055 A 
ATOM      6  C5  BZF d   1       1.114   2.640  -5.503  0.00  0.00    -0.016 A 
ATOM      7  C6  BZF d   1       0.790   3.887  -5.997  0.00  0.00     0.022 A 
ATOM      8  C7  BZF d   1      -0.401   4.469  -5.713  0.00  0.00     0.029 A 
ATOM      9  C7A BZF d   1      -1.258   3.773  -4.895  0.00  0.00     0.058 A 
ENDROOT
TORSDOF 0
ENDMDL
