MODEL 1
REMARK minimizedAffinity -1.75931334
REMARK minimizedRMSD -1
REMARK  0 active torsions:
REMARK  status: ('A' for Active; 'I' for Inactive)
ROOT
ATOM      1  O1  BZF d   1      -1.342   4.304  -5.331  0.00  0.00    -0.204 OA
ATOM      2  C2  BZF d   1      -0.149   4.108  -5.999  0.00  0.00     0.174 A 
ATOM      3  C3  BZF d   1       0.317   2.860  -5.791  0.00  0.00    -0.012 A 
ATOM      4  C3A BZF d   1      -0.692   2.206  -5.015  0.00  0.00    -0.107 A 
ATOM      5  C4  BZF d   1      -0.815   0.945  -4.506  0.00  0.00     0.055 A 
ATOM      6  C5  BZF d   1      -1.891   0.648  -3.730  0.00  0.00    -0.016 A 
ATOM      7  C6  BZF d   1      -2.858   1.588  -3.439  0.00  0.00     0.022 A 
ATOM      8  C7  BZF d   1      -2.781   2.851  -3.925  0.00  0.00     0.029 A 
ATOM      9  C7A BZF d   1      -1.713   3.145  -4.737  0.00  0.00     0.058 A 
ENDROOT
TORSDOF 0
ENDMDL
