MODEL 1
REMARK minimizedAffinity 7.64413452
REMARK minimizedRMSD -1
REMARK  0 active torsions:
REMARK  status: ('A' for Active; 'I' for Inactive)
ROOT
ATOM      1  O1  BZF d   1      -2.317   4.213  -4.147  0.00  0.00    -0.204 OA
ATOM      2  C2  BZF d   1      -2.715   3.151  -3.358  0.00  0.00     0.174 A 
ATOM      3  C3  BZF d   1      -1.832   2.135  -3.442  0.00  0.00    -0.012 A 
ATOM      4  C3A BZF d   1      -0.771   2.626  -4.268  0.00  0.00    -0.107 A 
ATOM      5  C4  BZF d   1       0.404   2.087  -4.706  0.00  0.00     0.055 A 
ATOM      6  C5  BZF d   1       1.182   2.802  -5.560  0.00  0.00    -0.016 A 
ATOM      7  C6  BZF d   1       0.813   4.057  -6.000  0.00  0.00     0.022 A 
ATOM      8  C7  BZF d   1      -0.342   4.636  -5.589  0.00  0.00     0.029 A 
ATOM      9  C7A BZF d   1      -1.114   3.928  -4.700  0.00  0.00     0.058 A 
ENDROOT
TORSDOF 0
ENDMDL
