MODEL 1
REMARK minimizedAffinity -2.61561894
REMARK minimizedRMSD -1
REMARK  1 active torsions:
REMARK  status: ('A' for Active; 'I' for Inactive)
REMARK    1  A    between atoms: C1_2  and  C2_3 
ROOT
ATOM      1  C2  UNL d   1      -1.028  -1.819   0.698  0.00  0.00    -0.077 A 
ATOM      2  C3  UNL d   1      -0.495  -1.368  -0.518  0.00  0.00     0.002 A 
ATOM      3  C4  UNL d   1       0.048  -0.085  -0.618  0.00  0.00     0.002 A 
ATOM      4  C5  UNL d   1       0.067   0.754   0.493  0.00  0.00    -0.004 A 
ATOM      5  C6  UNL d   1      -0.463   0.316   1.706  0.00  0.00     0.002 A 
ATOM      6  C7  UNL d   1      -1.008  -0.965   1.808  0.00  0.00     0.002 A 
ENDROOT
BRANCH   1   7
ATOM      7  C1  UNL d   1      -1.570  -3.219   0.821  0.00  0.00     0.055 C 
ATOM      8  C   UNL d   1      -2.997  -3.309   0.300  0.00  0.00     0.019 C 
ENDBRANCH   1   7
TORSDOF 1
ENDMDL
