MODEL 1
REMARK minimizedAffinity -3.45408201
REMARK minimizedRMSD -1
REMARK  1 active torsions:
REMARK  status: ('A' for Active; 'I' for Inactive)
REMARK    1  A    between atoms: C1_2  and  C2_3 
ROOT
ATOM      1  C2  UNL d   1       0.846  -1.335  -0.215  0.00  0.00    -0.077 A 
ATOM      2  C3  UNL d   1       0.484  -0.286   0.641  0.00  0.00     0.002 A 
ATOM      3  C4  UNL d   1       0.149   0.967   0.122  0.00  0.00     0.002 A 
ATOM      4  C5  UNL d   1       0.169   1.180  -1.254  0.00  0.00    -0.004 A 
ATOM      5  C6  UNL d   1       0.529   0.143  -2.114  0.00  0.00     0.002 A 
ATOM      6  C7  UNL d   1       0.865  -1.108  -1.597  0.00  0.00     0.002 A 
ENDROOT
BRANCH   1   7
ATOM      7  C1  UNL d   1       1.160  -2.700   0.339  0.00  0.00     0.055 C 
ATOM      8  C   UNL d   1      -0.085  -3.574   0.396  0.00  0.00     0.019 C 
ENDBRANCH   1   7
TORSDOF 1
ENDMDL
