MODEL 1
REMARK minimizedAffinity -3.74484134
REMARK minimizedRMSD -1
REMARK  1 active torsions:
REMARK  status: ('A' for Active; 'I' for Inactive)
REMARK    1  A    between atoms: C1_2  and  C2_3 
ROOT
ATOM      1  C2  UNL d   1      -0.523  -1.025  -0.121  0.00  0.00    -0.077 A 
ATOM      2  C3  UNL d   1       0.691  -1.044  -0.822  0.00  0.00     0.002 A 
ATOM      3  C4  UNL d   1       1.220  -2.250  -1.286  0.00  0.00     0.002 A 
ATOM      4  C5  UNL d   1       0.540  -3.445  -1.058  0.00  0.00    -0.004 A 
ATOM      5  C6  UNL d   1      -0.668  -3.437  -0.361  0.00  0.00     0.002 A 
ATOM      6  C7  UNL d   1      -1.197  -2.232   0.105  0.00  0.00     0.002 A 
ENDROOT
BRANCH   1   7
ATOM      7  C1  UNL d   1      -1.120   0.280   0.337  0.00  0.00     0.055 C 
ATOM      8  C   UNL d   1      -2.383   0.054   1.154  0.00  0.00     0.019 C 
ENDBRANCH   1   7
TORSDOF 1
ENDMDL
