MODEL 1
REMARK minimizedAffinity -3.13943481
REMARK minimizedRMSD -1
REMARK  1 active torsions:
REMARK  status: ('A' for Active; 'I' for Inactive)
REMARK    1  A    between atoms: C1_2  and  C2_3 
ROOT
ATOM      1  C2  UNL d   1      -0.889  -1.945   0.154  0.00  0.00    -0.077 A 
ATOM      2  C3  UNL d   1      -1.512  -0.892   0.838  0.00  0.00     0.002 A 
ATOM      3  C4  UNL d   1      -1.011   0.408   0.741  0.00  0.00     0.002 A 
ATOM      4  C5  UNL d   1       0.112   0.667  -0.041  0.00  0.00    -0.004 A 
ATOM      5  C6  UNL d   1       0.740  -0.374  -0.724  0.00  0.00     0.002 A 
ATOM      6  C7  UNL d   1       0.241  -1.674  -0.628  0.00  0.00     0.002 A 
ENDROOT
BRANCH   1   7
ATOM      7  C1  UNL d   1      -1.458  -3.338   0.217  0.00  0.00     0.055 C 
ATOM      8  C   UNL d   1      -2.925  -3.320   0.618  0.00  0.00     0.019 C 
ENDBRANCH   1   7
TORSDOF 1
ENDMDL
