MODEL 1
REMARK minimizedAffinity -5.32023048
REMARK minimizedRMSD -1
REMARK  1 active torsions:
REMARK  status: ('A' for Active; 'I' for Inactive)
REMARK    1  A    between atoms: C1_2  and  C2_3 
ROOT
ATOM      1  C2  UNL d   1      -0.278   0.349   0.181  0.00  0.00    -0.077 A 
ATOM      2  C3  UNL d   1       0.438  -0.742  -0.331  0.00  0.00     0.002 A 
ATOM      3  C4  UNL d   1       0.155  -2.038   0.103  0.00  0.00     0.002 A 
ATOM      4  C5  UNL d   1      -0.846  -2.256   1.047  0.00  0.00    -0.004 A 
ATOM      5  C6  UNL d   1      -1.562  -1.177   1.564  0.00  0.00     0.002 A 
ATOM      6  C7  UNL d   1      -1.280   0.120   1.132  0.00  0.00     0.002 A 
ENDROOT
BRANCH   1   7
ATOM      7  C1  UNL d   1      -0.008   1.743  -0.323  0.00  0.00     0.055 C 
ATOM      8  C   UNL d   1       1.352   2.246   0.141  0.00  0.00     0.019 C 
ENDBRANCH   1   7
TORSDOF 1
ENDMDL
