MODEL 1
REMARK minimizedAffinity -4.56023121
REMARK minimizedRMSD -1
REMARK  1 active torsions:
REMARK  status: ('A' for Active; 'I' for Inactive)
REMARK    1  A    between atoms: C1_2  and  C2_3 
ROOT
ATOM      1  C2  UNL d   1      -1.543  -1.879   0.822  0.00  0.00    -0.077 A 
ATOM      2  C3  UNL d   1      -1.403  -0.493   0.980  0.00  0.00     0.002 A 
ATOM      3  C4  UNL d   1      -0.377   0.192   0.327  0.00  0.00     0.002 A 
ATOM      4  C5  UNL d   1       0.514  -0.499  -0.491  0.00  0.00    -0.004 A 
ATOM      5  C6  UNL d   1       0.385  -1.878  -0.653  0.00  0.00     0.002 A 
ATOM      6  C7  UNL d   1      -0.639  -2.565   0.000  0.00  0.00     0.002 A 
ENDROOT
BRANCH   1   7
ATOM      7  C1  UNL d   1      -2.678  -2.613   1.487  0.00  0.00     0.055 C 
ATOM      8  C   UNL d   1      -3.744  -3.014   0.477  0.00  0.00     0.019 C 
ENDBRANCH   1   7
TORSDOF 1
ENDMDL
