MODEL 1
REMARK minimizedAffinity -5.43962336
REMARK minimizedRMSD -1
REMARK  1 active torsions:
REMARK  status: ('A' for Active; 'I' for Inactive)
REMARK    1  A    between atoms: C1_2  and  C2_3 
ROOT
ATOM      1  C2  UNL d   1       0.062  -0.111   0.358  0.00  0.00    -0.077 A 
ATOM      2  C3  UNL d   1      -0.687  -0.751   1.356  0.00  0.00     0.002 A 
ATOM      3  C4  UNL d   1      -0.765  -2.144   1.396  0.00  0.00     0.002 A 
ATOM      4  C5  UNL d   1      -0.094  -2.909   0.445  0.00  0.00    -0.004 A 
ATOM      5  C6  UNL d   1       0.652  -2.283  -0.553  0.00  0.00     0.002 A 
ATOM      6  C7  UNL d   1       0.730  -0.890  -0.595  0.00  0.00     0.002 A 
ENDROOT
BRANCH   1   7
ATOM      7  C1  UNL d   1       0.188   1.390   0.342  0.00  0.00     0.055 C 
ATOM      8  C   UNL d   1       1.644   1.822   0.248  0.00  0.00     0.019 C 
ENDBRANCH   1   7
TORSDOF 1
ENDMDL
