MODEL 1
REMARK minimizedAffinity -5.21026087
REMARK minimizedRMSD -1
REMARK  1 active torsions:
REMARK  status: ('A' for Active; 'I' for Inactive)
REMARK    1  A    between atoms: C1_2  and  C2_3 
ROOT
ATOM      1  C2  UNL d   1      -0.265  -0.570   0.433  0.00  0.00    -0.077 A 
ATOM      2  C3  UNL d   1      -1.236  -1.154   1.259  0.00  0.00     0.002 A 
ATOM      3  C4  UNL d   1      -1.424  -2.538   1.258  0.00  0.00     0.002 A 
ATOM      4  C5  UNL d   1      -0.642  -3.348   0.438  0.00  0.00    -0.004 A 
ATOM      5  C6  UNL d   1       0.325  -2.777  -0.388  0.00  0.00     0.002 A 
ATOM      6  C7  UNL d   1       0.514  -1.394  -0.390  0.00  0.00     0.002 A 
ENDROOT
BRANCH   1   7
ATOM      7  C1  UNL d   1      -0.027   0.917   0.469  0.00  0.00     0.055 C 
ATOM      8  C   UNL d   1      -0.162   1.533  -0.916  0.00  0.00     0.019 C 
ENDBRANCH   1   7
TORSDOF 1
ENDMDL
