MODEL 1
REMARK minimizedAffinity -4.86069155
REMARK minimizedRMSD -1
REMARK  1 active torsions:
REMARK  status: ('A' for Active; 'I' for Inactive)
REMARK    1  A    between atoms: C1_2  and  C2_3 
ROOT
ATOM      1  C2  UNL d   1       0.044  -0.679   0.336  0.00  0.00    -0.077 A 
ATOM      2  C3  UNL d   1       0.747  -1.411  -0.631  0.00  0.00     0.002 A 
ATOM      3  C4  UNL d   1       0.392  -2.731  -0.915  0.00  0.00     0.002 A 
ATOM      4  C5  UNL d   1      -0.670  -3.329  -0.238  0.00  0.00    -0.004 A 
ATOM      5  C6  UNL d   1      -1.374  -2.610   0.727  0.00  0.00     0.002 A 
ATOM      6  C7  UNL d   1      -1.019  -1.291   1.012  0.00  0.00     0.002 A 
ENDROOT
BRANCH   1   7
ATOM      7  C1  UNL d   1       0.395   0.760   0.608  0.00  0.00     0.055 C 
ATOM      8  C   UNL d   1      -0.018   1.659  -0.550  0.00  0.00     0.019 C 
ENDBRANCH   1   7
TORSDOF 1
ENDMDL
