MODEL 1
REMARK minimizedAffinity -4.79132128
REMARK minimizedRMSD -1
REMARK  1 active torsions:
REMARK  status: ('A' for Active; 'I' for Inactive)
REMARK    1  A    between atoms: C1_2  and  C2_3 
ROOT
ATOM      1  C2  UNL d   1      -0.293  -0.297   0.404  0.00  0.00    -0.077 A 
ATOM      2  C3  UNL d   1       0.606  -1.172  -0.222  0.00  0.00     0.002 A 
ATOM      3  C4  UNL d   1       0.430  -2.553  -0.127  0.00  0.00     0.002 A 
ATOM      4  C5  UNL d   1      -0.647  -3.072   0.588  0.00  0.00    -0.004 A 
ATOM      5  C6  UNL d   1      -1.546  -2.211   1.216  0.00  0.00     0.002 A 
ATOM      6  C7  UNL d   1      -1.370  -0.830   1.124  0.00  0.00     0.002 A 
ENDROOT
BRANCH   1   7
ATOM      7  C1  UNL d   1      -0.132   1.194   0.262  0.00  0.00     0.055 C 
ATOM      8  C   UNL d   1      -0.130   1.613  -1.201  0.00  0.00     0.019 C 
ENDBRANCH   1   7
TORSDOF 1
ENDMDL
