MODEL 1
REMARK minimizedAffinity -5.10958481
REMARK minimizedRMSD -1
REMARK  1 active torsions:
REMARK  status: ('A' for Active; 'I' for Inactive)
REMARK    1  A    between atoms: C1_2  and  C2_3 
ROOT
ATOM      1  C2  UNL d   1      -0.346  -0.486   0.134  0.00  0.00    -0.077 A 
ATOM      2  C3  UNL d   1       0.558  -1.431  -0.372  0.00  0.00     0.002 A 
ATOM      3  C4  UNL d   1       0.504  -2.759   0.055  0.00  0.00     0.002 A 
ATOM      4  C5  UNL d   1      -0.454  -3.154   0.986  0.00  0.00    -0.004 A 
ATOM      5  C6  UNL d   1      -1.356  -2.222   1.497  0.00  0.00     0.002 A 
ATOM      6  C7  UNL d   1      -1.302  -0.893   1.072  0.00  0.00     0.002 A 
ENDROOT
BRANCH   1   7
ATOM      7  C1  UNL d   1      -0.321   0.936  -0.363  0.00  0.00     0.055 C 
ATOM      8  C   UNL d   1       0.798   1.732   0.293  0.00  0.00     0.019 C 
ENDBRANCH   1   7
TORSDOF 1
ENDMDL
