MODEL 1
REMARK minimizedAffinity -4.26360226
REMARK minimizedRMSD -1
REMARK  1 active torsions:
REMARK  status: ('A' for Active; 'I' for Inactive)
REMARK    1  A    between atoms: C1_2  and  C2_3 
ROOT
ATOM      1  C2  UNL d   1      -0.393  -0.450   0.385  0.00  0.00    -0.077 A 
ATOM      2  C3  UNL d   1       0.820  -1.011  -0.038  0.00  0.00     0.002 A 
ATOM      3  C4  UNL d   1       0.978  -2.397  -0.088  0.00  0.00     0.002 A 
ATOM      4  C5  UNL d   1      -0.074  -3.234   0.279  0.00  0.00    -0.004 A 
ATOM      5  C6  UNL d   1      -1.284  -2.686   0.703  0.00  0.00     0.002 A 
ATOM      6  C7  UNL d   1      -1.443  -1.300   0.755  0.00  0.00     0.002 A 
ENDROOT
BRANCH   1   7
ATOM      7  C1  UNL d   1      -0.582   1.044   0.393  0.00  0.00     0.055 C 
ATOM      8  C   UNL d   1       0.715   1.768   0.057  0.00  0.00     0.019 C 
ENDBRANCH   1   7
TORSDOF 1
ENDMDL
