MODEL 1
REMARK minimizedAffinity -2.20591688
REMARK minimizedRMSD -1
REMARK  1 active torsions:
REMARK  status: ('A' for Active; 'I' for Inactive)
REMARK    1  A    between atoms: C1_2  and  C2_3 
ROOT
ATOM      1  C2  UNL d   1      -0.285  -0.380  -0.393  0.00  0.00    -0.077 A 
ATOM      2  C3  UNL d   1       0.675  -1.338  -0.746  0.00  0.00     0.002 A 
ATOM      3  C4  UNL d   1       0.407  -2.699  -0.587  0.00  0.00     0.002 A 
ATOM      4  C5  UNL d   1      -0.823  -3.114  -0.080  0.00  0.00    -0.004 A 
ATOM      5  C6  UNL d   1      -1.784  -2.169   0.276  0.00  0.00     0.002 A 
ATOM      6  C7  UNL d   1      -1.517  -0.808   0.119  0.00  0.00     0.002 A 
ENDROOT
BRANCH   1   7
ATOM      7  C1  UNL d   1      -0.016   1.087  -0.609  0.00  0.00     0.055 C 
ATOM      8  C   UNL d   1       0.811   1.671   0.526  0.00  0.00     0.019 C 
ENDBRANCH   1   7
TORSDOF 1
ENDMDL
