MODEL 1
REMARK minimizedAffinity -5.09572315
REMARK minimizedRMSD -1
REMARK  1 active torsions:
REMARK  status: ('A' for Active; 'I' for Inactive)
REMARK    1  A    between atoms: C1_2  and  C2_3 
ROOT
ATOM      1  C2  UNL d   1      -0.010  -0.740  -0.708  0.00  0.00    -0.077 A 
ATOM      2  C3  UNL d   1       0.328  -1.795  -1.568  0.00  0.00     0.002 A 
ATOM      3  C4  UNL d   1       0.212  -3.119  -1.141  0.00  0.00     0.002 A 
ATOM      4  C5  UNL d   1      -0.246  -3.400   0.145  0.00  0.00    -0.004 A 
ATOM      5  C6  UNL d   1      -0.582  -2.358   1.008  0.00  0.00     0.002 A 
ATOM      6  C7  UNL d   1      -0.466  -1.034   0.583  0.00  0.00     0.002 A 
ENDROOT
BRANCH   1   7
ATOM      7  C1  UNL d   1       0.068   0.687  -1.184  0.00  0.00     0.055 C 
ATOM      8  C   UNL d   1       0.056   1.662  -0.015  0.00  0.00     0.019 C 
ENDBRANCH   1   7
TORSDOF 1
ENDMDL
