MODEL 1
REMARK minimizedAffinity 9.61006165
REMARK minimizedRMSD -1
REMARK  0 active torsions:
REMARK  status: ('A' for Active; 'I' for Inactive)
ROOT
ATOM      1  C   UNL d   1      -1.487  -0.946   3.860  0.00  0.00     0.124 A 
ATOM      2  C1  UNL d   1      -0.343  -0.649   3.133  0.00  0.00     0.062 A 
ATOM      3  C2  UNL d   1      -0.446  -0.137   1.842  0.00  0.00     0.162 A 
ATOM      4  C3  UNL d   1      -1.700   0.082   1.271  0.00  0.00    -0.034 A 
ATOM      5  C4  UNL d   1      -2.846  -0.220   2.008  0.00  0.00     0.162 A 
ATOM      6  C5  UNL d   1      -2.737  -0.732   3.297  0.00  0.00     0.062 A 
ATOM      7  F   UNL d   1      -3.844  -1.018   3.998  0.00  0.00    -0.097 F 
ATOM      8  F1  UNL d   1      -4.067  -0.022   1.489  0.00  0.00    -0.096 F 
ATOM      9  I   UNL d   1      -1.859   0.847  -0.658  0.00  0.00    -0.060 I 
ATOM     10  F2  UNL d   1       0.676   0.141   1.163  0.00  0.00    -0.096 F 
ATOM     11  F3  UNL d   1       0.866  -0.857   3.674  0.00  0.00    -0.097 F 
ATOM     12  F4  UNL d   1      -1.385  -1.440   5.100  0.00  0.00    -0.092 F 
ENDROOT
TORSDOF 0
ENDMDL
