MODEL 1
REMARK minimizedAffinity 14.2168846
REMARK minimizedRMSD -1
REMARK  0 active torsions:
REMARK  status: ('A' for Active; 'I' for Inactive)
ROOT
ATOM      1  C   UNL d   1      -2.944  -0.623   2.999  0.00  0.00     0.124 A 
ATOM      2  C1  UNL d   1      -1.719  -1.087   3.459  0.00  0.00     0.062 A 
ATOM      3  C2  UNL d   1      -0.559  -0.841   2.731  0.00  0.00     0.162 A 
ATOM      4  C3  UNL d   1      -0.617  -0.126   1.535  0.00  0.00    -0.034 A 
ATOM      5  C4  UNL d   1      -1.852   0.337   1.077  0.00  0.00     0.162 A 
ATOM      6  C5  UNL d   1      -3.009   0.088   1.809  0.00  0.00     0.062 A 
ATOM      7  F   UNL d   1      -4.191   0.537   1.362  0.00  0.00    -0.097 F 
ATOM      8  F1  UNL d   1      -1.944   1.027  -0.069  0.00  0.00    -0.096 F 
ATOM      9  I   UNL d   1       1.116   0.244   0.443  0.00  0.00    -0.060 I 
ATOM     10  F2  UNL d   1       0.611  -1.301   3.200  0.00  0.00    -0.096 F 
ATOM     11  F3  UNL d   1      -1.653  -1.775   4.608  0.00  0.00    -0.097 F 
ATOM     12  F4  UNL d   1      -4.059  -0.862   3.701  0.00  0.00    -0.092 F 
ENDROOT
TORSDOF 0
ENDMDL
