MODEL 1
REMARK minimizedAffinity 16.1391468
REMARK minimizedRMSD -1
REMARK  0 active torsions:
REMARK  status: ('A' for Active; 'I' for Inactive)
ROOT
ATOM      1  C   UNL d   1      -2.569   0.661   1.015  0.00  0.00     0.124 A 
ATOM      2  C1  UNL d   1      -2.253  -0.161  -0.058  0.00  0.00     0.062 A 
ATOM      3  C2  UNL d   1      -0.947  -0.216  -0.536  0.00  0.00     0.162 A 
ATOM      4  C3  UNL d   1       0.054   0.551   0.060  0.00  0.00    -0.034 A 
ATOM      5  C4  UNL d   1      -0.272   1.376   1.139  0.00  0.00     0.162 A 
ATOM      6  C5  UNL d   1      -1.579   1.428   1.613  0.00  0.00     0.062 A 
ATOM      7  F   UNL d   1      -1.883   2.222   2.650  0.00  0.00    -0.097 F 
ATOM      8  F1  UNL d   1       0.666   2.127   1.735  0.00  0.00    -0.096 F 
ATOM      9  I   UNL d   1       2.008   0.471  -0.651  0.00  0.00    -0.060 I 
ATOM     10  F2  UNL d   1      -0.670  -1.019  -1.574  0.00  0.00    -0.096 F 
ATOM     11  F3  UNL d   1      -3.208  -0.902  -0.637  0.00  0.00    -0.097 F 
ATOM     12  F4  UNL d   1      -3.827   0.713   1.473  0.00  0.00    -0.092 F 
ENDROOT
TORSDOF 0
ENDMDL
