MODEL 1
REMARK minimizedAffinity 7.39891195
REMARK minimizedRMSD -1
REMARK  0 active torsions:
REMARK  status: ('A' for Active; 'I' for Inactive)
ROOT
ATOM      1  C   UNL d   1       1.423   1.200  -1.741  0.00  0.00     0.124 A 
ATOM      2  C1  UNL d   1       2.200   1.434  -0.615  0.00  0.00     0.062 A 
ATOM      3  C2  UNL d   1       1.770   0.998   0.635  0.00  0.00     0.162 A 
ATOM      4  C3  UNL d   1       0.557   0.322   0.766  0.00  0.00    -0.034 A 
ATOM      5  C4  UNL d   1      -0.219   0.091  -0.371  0.00  0.00     0.162 A 
ATOM      6  C5  UNL d   1       0.214   0.529  -1.618  0.00  0.00     0.062 A 
ATOM      7  F   UNL d   1      -0.538   0.302  -2.705  0.00  0.00    -0.097 F 
ATOM      8  F1  UNL d   1      -1.391  -0.555  -0.281  0.00  0.00    -0.096 F 
ATOM      9  I   UNL d   1      -0.088  -0.332   2.633  0.00  0.00    -0.060 I 
ATOM     10  F2  UNL d   1       2.542   1.238   1.706  0.00  0.00    -0.096 F 
ATOM     11  F3  UNL d   1       3.368   2.083  -0.731  0.00  0.00    -0.097 F 
ATOM     12  F4  UNL d   1       1.838   1.622  -2.942  0.00  0.00    -0.092 F 
ENDROOT
TORSDOF 0
ENDMDL
