MODEL 1
REMARK minimizedAffinity 6.56347466
REMARK minimizedRMSD -1
REMARK  0 active torsions:
REMARK  status: ('A' for Active; 'I' for Inactive)
ROOT
ATOM      1  C   UNL d   1      -1.075  -1.186   3.782  0.00  0.00     0.124 A 
ATOM      2  C1  UNL d   1      -2.397  -0.843   3.535  0.00  0.00     0.062 A 
ATOM      3  C2  UNL d   1      -2.762  -0.301   2.306  0.00  0.00     0.162 A 
ATOM      4  C3  UNL d   1      -1.803  -0.099   1.313  0.00  0.00    -0.034 A 
ATOM      5  C4  UNL d   1      -0.475  -0.445   1.569  0.00  0.00     0.162 A 
ATOM      6  C5  UNL d   1      -0.116  -0.986   2.799  0.00  0.00     0.062 A 
ATOM      7  F   UNL d   1       1.162  -1.317   3.035  0.00  0.00    -0.097 F 
ATOM      8  F1  UNL d   1       0.472  -0.264   0.637  0.00  0.00    -0.096 F 
ATOM      9  I   UNL d   1      -2.345   0.712  -0.525  0.00  0.00    -0.060 I 
ATOM     10  F2  UNL d   1      -4.047   0.021   2.095  0.00  0.00    -0.096 F 
ATOM     11  F3  UNL d   1      -3.326  -1.034   4.483  0.00  0.00    -0.097 F 
ATOM     12  F4  UNL d   1      -0.726  -1.706   4.965  0.00  0.00    -0.092 F 
ENDROOT
TORSDOF 0
ENDMDL
