MODEL 1
REMARK minimizedAffinity 18.7750168
REMARK minimizedRMSD -1
REMARK  0 active torsions:
REMARK  status: ('A' for Active; 'I' for Inactive)
ROOT
ATOM      1  C   UNL d   1      -2.590  -0.746   2.942  0.00  0.00     0.124 A 
ATOM      2  C1  UNL d   1      -2.604   0.075   1.824  0.00  0.00     0.062 A 
ATOM      3  C2  UNL d   1      -1.414   0.588   1.316  0.00  0.00     0.162 A 
ATOM      4  C3  UNL d   1      -0.198   0.279   1.926  0.00  0.00    -0.034 A 
ATOM      5  C4  UNL d   1      -0.191  -0.547   3.051  0.00  0.00     0.162 A 
ATOM      6  C5  UNL d   1      -1.384  -1.057   3.555  0.00  0.00     0.062 A 
ATOM      7  F   UNL d   1      -1.367  -1.850   4.635  0.00  0.00    -0.097 F 
ATOM      8  F1  UNL d   1       0.960  -0.864   3.662  0.00  0.00    -0.096 F 
ATOM      9  I   UNL d   1       1.584   1.044   1.169  0.00  0.00    -0.060 I 
ATOM     10  F2  UNL d   1      -1.458   1.379   0.234  0.00  0.00    -0.096 F 
ATOM     11  F3  UNL d   1      -3.768   0.378   1.231  0.00  0.00    -0.097 F 
ATOM     12  F4  UNL d   1      -3.736  -1.237   3.430  0.00  0.00    -0.092 F 
ENDROOT
TORSDOF 0
ENDMDL
