MODEL 1
REMARK minimizedAffinity 5.34503508
REMARK minimizedRMSD -1
REMARK  0 active torsions:
REMARK  status: ('A' for Active; 'I' for Inactive)
ROOT
ATOM      1  C   UNL d   1      -2.464  -0.705   2.909  0.00  0.00     0.124 A 
ATOM      2  C1  UNL d   1      -1.216  -1.019   3.429  0.00  0.00     0.062 A 
ATOM      3  C2  UNL d   1      -0.060  -0.632   2.758  0.00  0.00     0.162 A 
ATOM      4  C3  UNL d   1      -0.146   0.076   1.559  0.00  0.00    -0.034 A 
ATOM      5  C4  UNL d   1      -1.405   0.387   1.041  0.00  0.00     0.162 A 
ATOM      6  C5  UNL d   1      -2.557  -0.002   1.716  0.00  0.00     0.062 A 
ATOM      7  F   UNL d   1      -3.762   0.302   1.211  0.00  0.00    -0.097 F 
ATOM      8  F1  UNL d   1      -1.524   1.067  -0.109  0.00  0.00    -0.096 F 
ATOM      9  I   UNL d   1       1.580   0.657   0.552  0.00  0.00    -0.060 I 
ATOM     10  F2  UNL d   1       1.132  -0.949   3.284  0.00  0.00    -0.096 F 
ATOM     11  F3  UNL d   1      -1.124  -1.699   4.581  0.00  0.00    -0.097 F 
ATOM     12  F4  UNL d   1      -3.575  -1.080   3.556  0.00  0.00    -0.092 F 
ENDROOT
TORSDOF 0
ENDMDL
