MODEL 1
REMARK minimizedAffinity 3.78615737
REMARK minimizedRMSD -1
REMARK  0 active torsions:
REMARK  status: ('A' for Active; 'I' for Inactive)
ROOT
ATOM      1  C   UNL d   1      -1.759  -1.056   2.237  0.00  0.00     0.124 A 
ATOM      2  C1  UNL d   1      -1.820  -1.861   3.365  0.00  0.00     0.062 A 
ATOM      3  C2  UNL d   1      -0.668  -2.118   4.105  0.00  0.00     0.162 A 
ATOM      4  C3  UNL d   1       0.553  -1.567   3.718  0.00  0.00    -0.034 A 
ATOM      5  C4  UNL d   1       0.606  -0.758   2.582  0.00  0.00     0.162 A 
ATOM      6  C5  UNL d   1      -0.547  -0.505   1.846  0.00  0.00     0.062 A 
ATOM      7  F   UNL d   1      -0.487   0.274   0.756  0.00  0.00    -0.097 F 
ATOM      8  F1  UNL d   1       1.764  -0.212   2.182  0.00  0.00    -0.096 F 
ATOM      9  I   UNL d   1       2.277  -1.948   4.821  0.00  0.00    -0.060 I 
ATOM     10  F2  UNL d   1      -0.756  -2.900   5.191  0.00  0.00    -0.096 F 
ATOM     11  F3  UNL d   1      -2.990  -2.395   3.745  0.00  0.00    -0.097 F 
ATOM     12  F4  UNL d   1      -2.868  -0.811   1.527  0.00  0.00    -0.092 F 
ENDROOT
TORSDOF 0
ENDMDL
