MODEL 1
REMARK minimizedAffinity -3.95443416
REMARK minimizedRMSD -1
REMARK  0 active torsions:
REMARK  status: ('A' for Active; 'I' for Inactive)
ROOT
ATOM      1  C   UNL d   1      -4.556   1.866  -1.564  0.00  0.00     0.078 C 
ATOM      2  C1  UNL d   1      -4.986   2.072  -2.986  0.00  0.00    -0.077 A 
ATOM      3  C2  UNL d   1      -5.596   3.266  -3.390  0.00  0.00    -0.001 A 
ATOM      4  C3  UNL d   1      -5.999   3.440  -4.715  0.00  0.00     0.003 A 
ATOM      5  C4  UNL d   1      -5.798   2.424  -5.647  0.00  0.00    -0.005 A 
ATOM      6  C5  UNL d   1      -5.193   1.231  -5.254  0.00  0.00     0.003 A 
ATOM      7  C6  UNL d   1      -4.790   1.055  -3.929  0.00  0.00    -0.001 A 
ENDROOT
TORSDOF 0
ENDMDL
