MODEL 1
REMARK minimizedAffinity 1.31546748
REMARK minimizedRMSD -1
REMARK  0 active torsions:
REMARK  status: ('A' for Active; 'I' for Inactive)
ROOT
ATOM      1  C   UNL d   1       1.180  -0.511   0.307  0.00  0.00     0.078 C 
ATOM      2  C1  UNL d   1       0.402   0.468  -0.521  0.00  0.00    -0.077 A 
ATOM      3  C2  UNL d   1      -0.972   0.304  -0.730  0.00  0.00    -0.001 A 
ATOM      4  C3  UNL d   1      -1.682   1.217  -1.511  0.00  0.00     0.003 A 
ATOM      5  C4  UNL d   1      -1.025   2.301  -2.090  0.00  0.00    -0.005 A 
ATOM      6  C5  UNL d   1       0.343   2.472  -1.890  0.00  0.00     0.003 A 
ATOM      7  C6  UNL d   1       1.054   1.559  -1.109  0.00  0.00    -0.001 A 
ENDROOT
TORSDOF 0
ENDMDL
