MODEL 1
REMARK minimizedAffinity 2.34341288
REMARK minimizedRMSD -1
REMARK  0 active torsions:
REMARK  status: ('A' for Active; 'I' for Inactive)
ROOT
ATOM      1  C   UNL d   1      -4.122   1.748  -1.612  0.00  0.00     0.078 C 
ATOM      2  C1  UNL d   1      -4.668   1.926  -2.997  0.00  0.00    -0.077 A 
ATOM      3  C2  UNL d   1      -5.490   3.015  -3.313  0.00  0.00    -0.001 A 
ATOM      4  C3  UNL d   1      -6.000   3.163  -4.604  0.00  0.00     0.003 A 
ATOM      5  C4  UNL d   1      -5.695   2.225  -5.589  0.00  0.00    -0.005 A 
ATOM      6  C5  UNL d   1      -4.880   1.137  -5.283  0.00  0.00     0.003 A 
ATOM      7  C6  UNL d   1      -4.369   0.987  -3.992  0.00  0.00    -0.001 A 
ENDROOT
TORSDOF 0
ENDMDL
