MODEL 1
REMARK minimizedAffinity 1.46442795
REMARK minimizedRMSD -1
REMARK  0 active torsions:
REMARK  status: ('A' for Active; 'I' for Inactive)
ROOT
ATOM      1  C   UNL d   1       0.061   1.796  -0.323  0.00  0.00     0.078 C 
ATOM      2  C1  UNL d   1       0.347   2.867   0.686  0.00  0.00    -0.077 A 
ATOM      3  C2  UNL d   1       0.905   4.092   0.300  0.00  0.00    -0.001 A 
ATOM      4  C3  UNL d   1       1.175   5.076   1.252  0.00  0.00     0.003 A 
ATOM      5  C4  UNL d   1       0.892   4.846   2.597  0.00  0.00    -0.005 A 
ATOM      6  C5  UNL d   1       0.338   3.629   2.991  0.00  0.00     0.003 A 
ATOM      7  C6  UNL d   1       0.068   2.644   2.040  0.00  0.00    -0.001 A 
ENDROOT
TORSDOF 0
ENDMDL
