MODEL 1
REMARK minimizedAffinity 3.05750918
REMARK minimizedRMSD -1
REMARK  0 active torsions:
REMARK  status: ('A' for Active; 'I' for Inactive)
ROOT
ATOM      1  C   UNL d   1      -2.436   3.005  -3.794  0.00  0.00     0.078 C 
ATOM      2  C1  UNL d   1      -3.684   3.344  -4.553  0.00  0.00    -0.077 A 
ATOM      3  C2  UNL d   1      -4.783   2.476  -4.559  0.00  0.00    -0.001 A 
ATOM      4  C3  UNL d   1      -5.934   2.800  -5.278  0.00  0.00     0.003 A 
ATOM      5  C4  UNL d   1      -5.998   3.991  -5.998  0.00  0.00    -0.005 A 
ATOM      6  C5  UNL d   1      -4.909   4.860  -6.000  0.00  0.00     0.003 A 
ATOM      7  C6  UNL d   1      -3.756   4.538  -5.281  0.00  0.00    -0.001 A 
ENDROOT
TORSDOF 0
ENDMDL
