MODEL 1
REMARK minimizedAffinity -1.65400469
REMARK minimizedRMSD -1
REMARK  0 active torsions:
REMARK  status: ('A' for Active; 'I' for Inactive)
ROOT
ATOM      1  C   UNL d   1       0.424   1.749  -0.258  0.00  0.00     0.078 C 
ATOM      2  C1  UNL d   1       0.466   2.997   0.572  0.00  0.00    -0.077 A 
ATOM      3  C2  UNL d   1       0.750   4.240  -0.007  0.00  0.00    -0.001 A 
ATOM      4  C3  UNL d   1       0.796   5.392   0.780  0.00  0.00     0.003 A 
ATOM      5  C4  UNL d   1       0.560   5.312   2.151  0.00  0.00    -0.005 A 
ATOM      6  C5  UNL d   1       0.279   4.079   2.737  0.00  0.00     0.003 A 
ATOM      7  C6  UNL d   1       0.233   2.927   1.952  0.00  0.00    -0.001 A 
ENDROOT
TORSDOF 0
ENDMDL
