MODEL 1
REMARK minimizedAffinity -0.364320129
REMARK minimizedRMSD -1
REMARK  0 active torsions:
REMARK  status: ('A' for Active; 'I' for Inactive)
ROOT
ATOM      1  C   UNL d   1      -4.779   2.651  -1.825  0.00  0.00     0.078 C 
ATOM      2  C1  UNL d   1      -5.136   2.739  -3.279  0.00  0.00    -0.077 A 
ATOM      3  C2  UNL d   1      -5.651   3.922  -3.824  0.00  0.00    -0.001 A 
ATOM      4  C3  UNL d   1      -5.988   3.987  -5.177  0.00  0.00     0.003 A 
ATOM      5  C4  UNL d   1      -5.815   2.872  -5.996  0.00  0.00    -0.005 A 
ATOM      6  C5  UNL d   1      -5.305   1.691  -5.461  0.00  0.00     0.003 A 
ATOM      7  C6  UNL d   1      -4.967   1.624  -4.109  0.00  0.00    -0.001 A 
ENDROOT
TORSDOF 0
ENDMDL
