MODEL 1
REMARK minimizedAffinity -1.54369342
REMARK minimizedRMSD -1
REMARK  0 active torsions:
REMARK  status: ('A' for Active; 'I' for Inactive)
ROOT
ATOM      1  C   UNL d   1       0.349  -3.296  -2.461  0.00  0.00     0.078 C 
ATOM      2  C1  UNL d   1       0.275  -1.863  -2.026  0.00  0.00    -0.077 A 
ATOM      3  C2  UNL d   1      -0.090  -0.853  -2.925  0.00  0.00    -0.001 A 
ATOM      4  C3  UNL d   1      -0.146   0.477  -2.508  0.00  0.00     0.003 A 
ATOM      5  C4  UNL d   1       0.163   0.811  -1.190  0.00  0.00    -0.005 A 
ATOM      6  C5  UNL d   1       0.529  -0.186  -0.289  0.00  0.00     0.003 A 
ATOM      7  C6  UNL d   1       0.585  -1.517  -0.704  0.00  0.00    -0.001 A 
ENDROOT
TORSDOF 0
ENDMDL
