MODEL 1
REMARK minimizedAffinity 5.220397
REMARK minimizedRMSD -1
REMARK  0 active torsions:
REMARK  status: ('A' for Active; 'I' for Inactive)
ROOT
ATOM      1  C   UNL d   1      -5.518   4.103  -5.261  0.00  0.00     0.078 C 
ATOM      2  C1  UNL d   1      -5.177   2.714  -4.809  0.00  0.00    -0.077 A 
ATOM      3  C2  UNL d   1      -4.035   2.467  -4.038  0.00  0.00    -0.001 A 
ATOM      4  C3  UNL d   1      -3.724   1.168  -3.633  0.00  0.00     0.003 A 
ATOM      5  C4  UNL d   1      -4.550   0.106  -3.995  0.00  0.00    -0.005 A 
ATOM      6  C5  UNL d   1      -5.688   0.342  -4.764  0.00  0.00     0.003 A 
ATOM      7  C6  UNL d   1      -6.000   1.640  -5.170  0.00  0.00    -0.001 A 
ENDROOT
TORSDOF 0
ENDMDL
