MODEL 1
REMARK minimizedAffinity -1.40344179
REMARK minimizedRMSD -1
REMARK  0 active torsions:
REMARK  status: ('A' for Active; 'I' for Inactive)
ROOT
ATOM      1  C   UNL d   1       2.535  -3.157   5.060  0.00  0.00     0.078 C 
ATOM      2  C1  UNL d   1       1.330  -2.681   4.305  0.00  0.00    -0.077 A 
ATOM      3  C2  UNL d   1       0.040  -2.859   4.819  0.00  0.00    -0.001 A 
ATOM      4  C3  UNL d   1      -1.073  -2.419   4.100  0.00  0.00     0.003 A 
ATOM      5  C4  UNL d   1      -0.907  -1.800   2.863  0.00  0.00    -0.005 A 
ATOM      6  C5  UNL d   1       0.373  -1.621   2.342  0.00  0.00     0.003 A 
ATOM      7  C6  UNL d   1       1.487  -2.060   3.059  0.00  0.00    -0.001 A 
ENDROOT
TORSDOF 0
ENDMDL
