MODEL 1
REMARK minimizedAffinity 3.95431447
REMARK minimizedRMSD -1
REMARK  0 active torsions:
REMARK  status: ('A' for Active; 'I' for Inactive)
ROOT
ATOM      1  C   UNL d   1      -2.424   2.238  -2.032  0.00  0.00     0.078 C 
ATOM      2  C1  UNL d   1      -1.496   1.462  -1.145  0.00  0.00    -0.077 A 
ATOM      3  C2  UNL d   1      -1.894   0.249  -0.571  0.00  0.00    -0.001 A 
ATOM      4  C3  UNL d   1      -1.023  -0.458   0.260  0.00  0.00     0.003 A 
ATOM      5  C4  UNL d   1       0.250   0.042   0.525  0.00  0.00    -0.005 A 
ATOM      6  C5  UNL d   1       0.654   1.249  -0.040  0.00  0.00     0.003 A 
ATOM      7  C6  UNL d   1      -0.215   1.957  -0.871  0.00  0.00    -0.001 A 
ENDROOT
TORSDOF 0
ENDMDL
