MODEL 1
REMARK minimizedAffinity -3.20349264
REMARK minimizedRMSD -1
REMARK  0 active torsions:
REMARK  status: ('A' for Active; 'I' for Inactive)
ROOT
ATOM      1  C   UNL d   1      -3.514   1.951  -2.440  0.00  0.00     0.078 C 
ATOM      2  C1  UNL d   1      -4.363   1.952  -3.676  0.00  0.00    -0.077 A 
ATOM      3  C2  UNL d   1      -4.551   0.783  -4.423  0.00  0.00    -0.001 A 
ATOM      4  C3  UNL d   1      -5.335   0.802  -5.578  0.00  0.00     0.003 A 
ATOM      5  C4  UNL d   1      -5.937   1.987  -5.996  0.00  0.00    -0.005 A 
ATOM      6  C5  UNL d   1      -5.753   3.156  -5.261  0.00  0.00     0.003 A 
ATOM      7  C6  UNL d   1      -4.969   3.139  -4.106  0.00  0.00    -0.001 A 
ENDROOT
TORSDOF 0
ENDMDL
