MODEL 1
REMARK minimizedAffinity -3.65057683
REMARK minimizedRMSD -1
REMARK  0 active torsions:
REMARK  status: ('A' for Active; 'I' for Inactive)
ROOT
ATOM      1  C   UNL d   1      -5.254   4.125  -5.673  0.00  0.00     0.078 C 
ATOM      2  C1  UNL d   1      -5.183   3.535  -4.296  0.00  0.00    -0.077 A 
ATOM      3  C2  UNL d   1      -4.739   2.222  -4.095  0.00  0.00    -0.001 A 
ATOM      4  C3  UNL d   1      -4.687   1.683  -2.809  0.00  0.00     0.003 A 
ATOM      5  C4  UNL d   1      -5.079   2.449  -1.713  0.00  0.00    -0.005 A 
ATOM      6  C5  UNL d   1      -5.524   3.756  -1.903  0.00  0.00     0.003 A 
ATOM      7  C6  UNL d   1      -5.576   4.297  -3.188  0.00  0.00    -0.001 A 
ENDROOT
TORSDOF 0
ENDMDL
