MODEL 1
REMARK minimizedAffinity 0.666360617
REMARK minimizedRMSD -1
REMARK  0 active torsions:
REMARK  status: ('A' for Active; 'I' for Inactive)
ROOT
ATOM      1  C   UNL d   1       4.406  -4.116  -1.505  0.00  0.00     0.078 C 
ATOM      2  C1  UNL d   1       3.234  -3.961  -2.427  0.00  0.00    -0.077 A 
ATOM      3  C2  UNL d   1       3.418  -3.728  -3.795  0.00  0.00    -0.001 A 
ATOM      4  C3  UNL d   1       2.317  -3.576  -4.640  0.00  0.00     0.003 A 
ATOM      5  C4  UNL d   1       1.025  -3.654  -4.126  0.00  0.00    -0.005 A 
ATOM      6  C5  UNL d   1       0.831  -3.883  -2.765  0.00  0.00     0.003 A 
ATOM      7  C6  UNL d   1       1.931  -4.036  -1.919  0.00  0.00    -0.001 A 
ENDROOT
TORSDOF 0
ENDMDL
