MODEL 1
REMARK minimizedAffinity -1.4055022
REMARK minimizedRMSD -1
REMARK  0 active torsions:
REMARK  status: ('A' for Active; 'I' for Inactive)
ROOT
ATOM      1  C   UNL d   1      -0.046   0.439   2.256  0.00  0.00     0.078 C 
ATOM      2  C1  UNL d   1       0.221   1.761   2.910  0.00  0.00    -0.077 A 
ATOM      3  C2  UNL d   1       0.835   2.804   2.205  0.00  0.00    -0.001 A 
ATOM      4  C3  UNL d   1       1.086   4.026   2.829  0.00  0.00     0.003 A 
ATOM      5  C4  UNL d   1       0.728   4.218   4.162  0.00  0.00    -0.005 A 
ATOM      6  C5  UNL d   1       0.119   3.186   4.873  0.00  0.00     0.003 A 
ATOM      7  C6  UNL d   1      -0.134   1.962   4.250  0.00  0.00    -0.001 A 
ENDROOT
TORSDOF 0
ENDMDL
