MODEL 1
REMARK minimizedAffinity 0.925321996
REMARK minimizedRMSD -1
REMARK  0 active torsions:
REMARK  status: ('A' for Active; 'I' for Inactive)
ROOT
ATOM      1  C   UNL d   1       0.346   2.236   3.000  0.00  0.00     0.078 C 
ATOM      2  C1  UNL d   1       0.341   3.552   2.282  0.00  0.00    -0.077 A 
ATOM      3  C2  UNL d   1      -0.061   4.726   2.932  0.00  0.00    -0.001 A 
ATOM      4  C3  UNL d   1      -0.071   5.943   2.248  0.00  0.00     0.003 A 
ATOM      5  C4  UNL d   1       0.320   5.998   0.912  0.00  0.00    -0.005 A 
ATOM      6  C5  UNL d   1       0.719   4.835   0.257  0.00  0.00     0.003 A 
ATOM      7  C6  UNL d   1       0.729   3.617   0.938  0.00  0.00    -0.001 A 
ENDROOT
TORSDOF 0
ENDMDL
