MODEL 1
REMARK minimizedAffinity 1.59771812
REMARK minimizedRMSD -1
REMARK  0 active torsions:
REMARK  status: ('A' for Active; 'I' for Inactive)
ROOT
ATOM      1  C   UNL d   1      -5.979   5.959  -5.737  0.00  0.00     0.078 C 
ATOM      2  C1  UNL d   1      -5.316   5.641  -4.430  0.00  0.00    -0.077 A 
ATOM      3  C2  UNL d   1      -5.918   5.983  -3.213  0.00  0.00    -0.001 A 
ATOM      4  C3  UNL d   1      -5.284   5.689  -2.005  0.00  0.00     0.003 A 
ATOM      5  C4  UNL d   1      -4.044   5.053  -2.001  0.00  0.00    -0.005 A 
ATOM      6  C5  UNL d   1      -3.437   4.710  -3.207  0.00  0.00     0.003 A 
ATOM      7  C6  UNL d   1      -4.069   5.003  -4.417  0.00  0.00    -0.001 A 
ENDROOT
TORSDOF 0
ENDMDL
