MODEL 1
REMARK minimizedAffinity 7.8172555
REMARK minimizedRMSD -1
REMARK  2 active torsions:
REMARK  status: ('A' for Active; 'I' for Inactive)
REMARK    1  A    between atoms: C2'_3  and  C1'_4 
REMARK    2  A    between atoms: C1'_4  and  C1_5 
ROOT
ATOM      1  C1  I4B d   1       4.075  -0.070   3.510  0.00  0.00    -0.075 A 
ATOM      2  C2  I4B d   1       3.927   1.220   3.063  0.00  0.00     0.003 A 
ATOM      3  C3  I4B d   1       4.832   2.227   3.479  0.00  0.00     0.002 A 
ATOM      4  C4  I4B d   1       5.832   1.913   4.376  0.00  0.00    -0.004 A 
ATOM      5  C5  I4B d   1       5.995   0.601   4.811  0.00  0.00     0.002 A 
ATOM      6  C6  I4B d   1       5.118  -0.400   4.366  0.00  0.00     0.003 A 
ENDROOT
BRANCH   1   7
ATOM      7  C1' I4B d   1       3.083  -1.101   3.077  0.00  0.00     0.060 C 
BRANCH   7   8
ATOM      8  C2' I4B d   1       2.406  -1.648   4.317  0.00  0.00    -0.013 C 
ATOM      9  C4' I4B d   1       0.975  -1.188   4.405  0.00  0.00     0.013 C 
ATOM     10  C3' I4B d   1       2.491  -3.144   4.270  0.00  0.00     0.013 C 
ENDBRANCH   7   8
ENDBRANCH   1   7
TORSDOF 2
ENDMDL
