MODEL 1
REMARK minimizedAffinity 11.1086206
REMARK minimizedRMSD -1
REMARK  2 active torsions:
REMARK  status: ('A' for Active; 'I' for Inactive)
REMARK    1  A    between atoms: C2'_3  and  C1'_4 
REMARK    2  A    between atoms: C1'_4  and  C1_5 
ROOT
ATOM      1  C1  I4B d   1       4.938   2.901   4.017  0.00  0.00    -0.075 A 
ATOM      2  C2  I4B d   1       5.684   2.542   5.112  0.00  0.00     0.003 A 
ATOM      3  C3  I4B d   1       5.999   1.182   5.345  0.00  0.00     0.002 A 
ATOM      4  C4  I4B d   1       5.509   0.214   4.492  0.00  0.00    -0.004 A 
ATOM      5  C5  I4B d   1       4.772   0.582   3.370  0.00  0.00     0.002 A 
ATOM      6  C6  I4B d   1       4.494   1.934   3.123  0.00  0.00     0.003 A 
ENDROOT
BRANCH   1   7
ATOM      7  C1' I4B d   1       4.595   4.343   3.819  0.00  0.00     0.060 C 
BRANCH   7   8
ATOM      8  C2' I4B d   1       5.889   5.130   3.789  0.00  0.00    -0.013 C 
ATOM      9  C4' I4B d   1       5.971   5.999   2.561  0.00  0.00     0.013 C 
ATOM     10  C3' I4B d   1       5.960   5.953   5.040  0.00  0.00     0.013 C 
ENDBRANCH   7   8
ENDBRANCH   1   7
TORSDOF 2
ENDMDL
