MODEL 1
REMARK minimizedAffinity 3.74603534
REMARK minimizedRMSD -1
REMARK  2 active torsions:
REMARK  status: ('A' for Active; 'I' for Inactive)
REMARK    1  A    between atoms: C2'_3  and  C1'_4 
REMARK    2  A    between atoms: C1'_4  and  C1_5 
ROOT
ATOM      1  C1  I4B d   1      -1.785   1.362  -0.347  0.00  0.00    -0.075 A 
ATOM      2  C2  I4B d   1      -1.420   2.460   0.391  0.00  0.00     0.003 A 
ATOM      3  C3  I4B d   1      -2.330   3.528   0.579  0.00  0.00     0.002 A 
ATOM      4  C4  I4B d   1      -3.569   3.480  -0.027  0.00  0.00    -0.004 A 
ATOM      5  C5  I4B d   1      -3.946   2.356  -0.756  0.00  0.00     0.002 A 
ATOM      6  C6  I4B d   1      -3.054   1.285  -0.908  0.00  0.00     0.003 A 
ENDROOT
BRANCH   1   7
ATOM      7  C1' I4B d   1      -0.787   0.267  -0.553  0.00  0.00     0.060 C 
BRANCH   7   8
ATOM      8  C2' I4B d   1      -1.522  -1.056  -0.468  0.00  0.00    -0.013 C 
ATOM      9  C4' I4B d   1      -0.762  -2.148  -1.173  0.00  0.00     0.013 C 
ATOM     10  C3' I4B d   1      -1.719  -1.383   0.983  0.00  0.00     0.013 C 
ENDBRANCH   7   8
ENDBRANCH   1   7
TORSDOF 2
ENDMDL
