MODEL 1
REMARK minimizedAffinity -1.38386524
REMARK minimizedRMSD -1
REMARK  2 active torsions:
REMARK  status: ('A' for Active; 'I' for Inactive)
REMARK    1  A    between atoms: C2'_3  and  C1'_4 
REMARK    2  A    between atoms: C1'_4  and  C1_5 
ROOT
ATOM      1  C1  I4B d   1      -2.324   1.053   1.166  0.00  0.00    -0.075 A 
ATOM      2  C2  I4B d   1      -1.829  -0.201   0.907  0.00  0.00     0.003 A 
ATOM      3  C3  I4B d   1      -1.986  -1.239   1.857  0.00  0.00     0.002 A 
ATOM      4  C4  I4B d   1      -2.595  -0.968   3.066  0.00  0.00    -0.004 A 
ATOM      5  C5  I4B d   1      -3.117   0.298   3.317  0.00  0.00     0.002 A 
ATOM      6  C6  I4B d   1      -2.992   1.312   2.356  0.00  0.00     0.003 A 
ENDROOT
BRANCH   1   7
ATOM      7  C1' I4B d   1      -2.113   2.134   0.155  0.00  0.00     0.060 C 
BRANCH   7   8
ATOM      8  C2' I4B d   1      -3.449   2.437  -0.492  0.00  0.00    -0.013 C 
ATOM      9  C4' I4B d   1      -4.437   1.327  -0.247  0.00  0.00     0.013 C 
ATOM     10  C3' I4B d   1      -3.947   3.738   0.063  0.00  0.00     0.013 C 
ENDBRANCH   7   8
ENDBRANCH   1   7
TORSDOF 2
ENDMDL
