MODEL 1
REMARK minimizedAffinity 0.704964638
REMARK minimizedRMSD -1
REMARK  2 active torsions:
REMARK  status: ('A' for Active; 'I' for Inactive)
REMARK    1  A    between atoms: C2'_3  and  C1'_4 
REMARK    2  A    between atoms: C1'_4  and  C1_5 
ROOT
ATOM      1  C1  I4B d   1      -3.042   1.432   1.134  0.00  0.00    -0.075 A 
ATOM      2  C2  I4B d   1      -3.870   1.506   0.043  0.00  0.00     0.003 A 
ATOM      3  C3  I4B d   1      -4.278   2.766  -0.459  0.00  0.00     0.002 A 
ATOM      4  C4  I4B d   1      -3.878   3.917   0.188  0.00  0.00    -0.004 A 
ATOM      5  C5  I4B d   1      -3.019   3.841   1.281  0.00  0.00     0.002 A 
ATOM      6  C6  I4B d   1      -2.588   2.591   1.750  0.00  0.00     0.003 A 
ENDROOT
BRANCH   1   7
ATOM      7  C1' I4B d   1      -2.657   0.085   1.657  0.00  0.00     0.060 C 
BRANCH   7   8
ATOM      8  C2' I4B d   1      -2.650   0.156   3.171  0.00  0.00    -0.013 C 
ATOM      9  C4' I4B d   1      -3.928  -0.391   3.749  0.00  0.00     0.013 C 
ATOM     10  C3' I4B d   1      -1.460  -0.612   3.665  0.00  0.00     0.013 C 
ENDBRANCH   7   8
ENDBRANCH   1   7
TORSDOF 2
ENDMDL
