MODEL 1
REMARK minimizedAffinity -1.74503553
REMARK minimizedRMSD -1
REMARK  2 active torsions:
REMARK  status: ('A' for Active; 'I' for Inactive)
REMARK    1  A    between atoms: C2'_3  and  C1'_4 
REMARK    2  A    between atoms: C1'_4  and  C1_5 
ROOT
ATOM      1  C1  I4B d   1      -3.552   1.704   0.656  0.00  0.00    -0.075 A 
ATOM      2  C2  I4B d   1      -2.589   1.915  -0.299  0.00  0.00     0.003 A 
ATOM      3  C3  I4B d   1      -2.403   3.205  -0.851  0.00  0.00     0.002 A 
ATOM      4  C4  I4B d   1      -3.229   4.238  -0.458  0.00  0.00    -0.004 A 
ATOM      5  C5  I4B d   1      -4.189   4.028   0.528  0.00  0.00     0.002 A 
ATOM      6  C6  I4B d   1      -4.344   2.756   1.097  0.00  0.00     0.003 A 
ENDROOT
BRANCH   1   7
ATOM      7  C1' I4B d   1      -3.744   0.321   1.193  0.00  0.00     0.060 C 
BRANCH   7   8
ATOM      8  C2' I4B d   1      -2.459  -0.095   1.880  0.00  0.00    -0.013 C 
ATOM      9  C4' I4B d   1      -2.664  -0.265   3.362  0.00  0.00     0.013 C 
ATOM     10  C3' I4B d   1      -1.990  -1.372   1.248  0.00  0.00     0.013 C 
ENDBRANCH   7   8
ENDBRANCH   1   7
TORSDOF 2
ENDMDL
