MODEL 1
REMARK minimizedAffinity 2.08725333
REMARK minimizedRMSD -1
REMARK  2 active torsions:
REMARK  status: ('A' for Active; 'I' for Inactive)
REMARK    1  A    between atoms: C2'_3  and  C1'_4 
REMARK    2  A    between atoms: C1'_4  and  C1_5 
ROOT
ATOM      1  C1  I4B d   1      -3.775  -0.368   1.203  0.00  0.00    -0.075 A 
ATOM      2  C2  I4B d   1      -5.089  -0.087   1.485  0.00  0.00     0.003 A 
ATOM      3  C3  I4B d   1      -5.999   0.191   0.437  0.00  0.00     0.002 A 
ATOM      4  C4  I4B d   1      -5.545   0.226  -0.866  0.00  0.00    -0.004 A 
ATOM      5  C5  I4B d   1      -4.218  -0.082  -1.152  0.00  0.00     0.002 A 
ATOM      6  C6  I4B d   1      -3.330  -0.393  -0.112  0.00  0.00     0.003 A 
ENDROOT
BRANCH   1   7
ATOM      7  C1' I4B d   1      -2.833  -0.624   2.337  0.00  0.00     0.060 C 
BRANCH   7   8
ATOM      8  C2' I4B d   1      -3.653  -0.753   3.605  0.00  0.00    -0.013 C 
ATOM      9  C4' I4B d   1      -3.268  -1.984   4.381  0.00  0.00     0.013 C 
ATOM     10  C3' I4B d   1      -3.443   0.489   4.419  0.00  0.00     0.013 C 
ENDBRANCH   7   8
ENDBRANCH   1   7
TORSDOF 2
ENDMDL
