MODEL 1
REMARK minimizedAffinity -2.56811237
REMARK minimizedRMSD -1
REMARK  2 active torsions:
REMARK  status: ('A' for Active; 'I' for Inactive)
REMARK    1  A    between atoms: C2'_3  and  C1'_4 
REMARK    2  A    between atoms: C1'_4  and  C1_5 
ROOT
ATOM      1  C1  I4B d   1       3.406  -0.770   1.690  0.00  0.00    -0.075 A 
ATOM      2  C2  I4B d   1       4.373  -1.203   2.563  0.00  0.00     0.003 A 
ATOM      3  C3  I4B d   1       5.032  -0.281   3.412  0.00  0.00     0.002 A 
ATOM      4  C4  I4B d   1       4.730   1.063   3.319  0.00  0.00    -0.004 A 
ATOM      5  C5  I4B d   1       3.734   1.497   2.450  0.00  0.00     0.002 A 
ATOM      6  C6  I4B d   1       3.058   0.573   1.639  0.00  0.00     0.003 A 
ENDROOT
BRANCH   1   7
ATOM      7  C1' I4B d   1       2.754  -1.767   0.785  0.00  0.00     0.060 C 
BRANCH   7   8
ATOM      8  C2' I4B d   1       1.256  -1.555   0.860  0.00  0.00    -0.013 C 
ATOM      9  C4' I4B d   1       0.734  -0.899  -0.391  0.00  0.00     0.013 C 
ATOM     10  C3' I4B d   1       0.610  -2.891   1.080  0.00  0.00     0.013 C 
ENDBRANCH   7   8
ENDBRANCH   1   7
TORSDOF 2
ENDMDL
