MODEL 1
REMARK minimizedAffinity 4.35575914
REMARK minimizedRMSD -1
REMARK  2 active torsions:
REMARK  status: ('A' for Active; 'I' for Inactive)
REMARK    1  A    between atoms: C2'_3  and  C1'_4 
REMARK    2  A    between atoms: C1'_4  and  C1_5 
ROOT
ATOM      1  C1  I4B d   1       4.093  -0.405   3.528  0.00  0.00    -0.075 A 
ATOM      2  C2  I4B d   1       5.044  -0.628   4.492  0.00  0.00     0.003 A 
ATOM      3  C3  I4B d   1       6.000   0.371   4.795  0.00  0.00     0.002 A 
ATOM      4  C4  I4B d   1       6.000   1.551   4.079  0.00  0.00    -0.004 A 
ATOM      5  C5  I4B d   1       5.021   1.785   3.118  0.00  0.00     0.002 A 
ATOM      6  C6  I4B d   1       4.053   0.806   2.849  0.00  0.00     0.003 A 
ENDROOT
BRANCH   1   7
ATOM      7  C1' I4B d   1       3.118  -1.495   3.210  0.00  0.00     0.060 C 
BRANCH   7   8
ATOM      8  C2' I4B d   1       2.432  -1.898   4.500  0.00  0.00    -0.013 C 
ATOM      9  C4' I4B d   1       0.981  -1.495   4.493  0.00  0.00     0.013 C 
ATOM     10  C3' I4B d   1       2.582  -3.381   4.660  0.00  0.00     0.013 C 
ENDBRANCH   7   8
ENDBRANCH   1   7
TORSDOF 2
ENDMDL
