MODEL 1
REMARK minimizedAffinity 0.84319067
REMARK minimizedRMSD -1
REMARK  2 active torsions:
REMARK  status: ('A' for Active; 'I' for Inactive)
REMARK    1  A    between atoms: C2'_3  and  C1'_4 
REMARK    2  A    between atoms: C1'_4  and  C1_5 
ROOT
ATOM      1  C1  I4B d   1       5.958   3.209   4.894  0.00  0.00    -0.075 A 
ATOM      2  C2  I4B d   1       5.998   4.023   5.999  0.00  0.00     0.003 A 
ATOM      3  C3  I4B d   1       5.991   5.431   5.849  0.00  0.00     0.002 A 
ATOM      4  C4  I4B d   1       5.995   5.979   4.582  0.00  0.00    -0.004 A 
ATOM      5  C5  I4B d   1       5.931   5.153   3.464  0.00  0.00     0.002 A 
ATOM      6  C6  I4B d   1       5.900   3.759   3.620  0.00  0.00     0.003 A 
ENDROOT
BRANCH   1   7
ATOM      7  C1' I4B d   1       6.000   1.727   5.089  0.00  0.00     0.060 C 
BRANCH   7   8
ATOM      8  C2' I4B d   1       5.950   1.075   3.722  0.00  0.00    -0.013 C 
ATOM      9  C4' I4B d   1       5.978  -0.427   3.833  0.00  0.00     0.013 C 
ATOM     10  C3' I4B d   1       4.705   1.544   3.030  0.00  0.00     0.013 C 
ENDBRANCH   7   8
ENDBRANCH   1   7
TORSDOF 2
ENDMDL
