MODEL 1
REMARK minimizedAffinity 5.86015701
REMARK minimizedRMSD -1
REMARK  2 active torsions:
REMARK  status: ('A' for Active; 'I' for Inactive)
REMARK    1  A    between atoms: C2'_3  and  C1'_4 
REMARK    2  A    between atoms: C1'_4  and  C1_5 
ROOT
ATOM      1  C1  I4B d   1       5.827   3.551   3.772  0.00  0.00    -0.075 A 
ATOM      2  C2  I4B d   1       6.000   3.611   5.133  0.00  0.00     0.003 A 
ATOM      3  C3  I4B d   1       5.879   4.847   5.813  0.00  0.00     0.002 A 
ATOM      4  C4  I4B d   1       5.636   5.998   5.093  0.00  0.00    -0.004 A 
ATOM      5  C5  I4B d   1       5.439   5.932   3.716  0.00  0.00     0.002 A 
ATOM      6  C6  I4B d   1       5.522   4.700   3.053  0.00  0.00     0.003 A 
ENDROOT
BRANCH   1   7
ATOM      7  C1' I4B d   1       5.994   2.235   3.082  0.00  0.00     0.060 C 
BRANCH   7   8
ATOM      8  C2' I4B d   1       4.647   1.541   3.067  0.00  0.00    -0.013 C 
ATOM      9  C4' I4B d   1       3.846   1.932   1.853  0.00  0.00     0.013 C 
ATOM     10  C3' I4B d   1       4.887   0.062   3.103  0.00  0.00     0.013 C 
ENDBRANCH   7   8
ENDBRANCH   1   7
TORSDOF 2
ENDMDL
