MODEL 1
REMARK minimizedAffinity 4.45941114
REMARK minimizedRMSD -1
REMARK  2 active torsions:
REMARK  status: ('A' for Active; 'I' for Inactive)
REMARK    1  A    between atoms: C2'_3  and  C1'_4 
REMARK    2  A    between atoms: C1'_4  and  C1_5 
ROOT
ATOM      1  C1  I4B d   1       5.098   2.499   3.839  0.00  0.00    -0.075 A 
ATOM      2  C2  I4B d   1       5.643   2.050   5.016  0.00  0.00     0.003 A 
ATOM      3  C3  I4B d   1       6.000   0.687   5.162  0.00  0.00     0.002 A 
ATOM      4  C4  I4B d   1       5.749  -0.195   4.131  0.00  0.00    -0.004 A 
ATOM      5  C5  I4B d   1       5.218   0.267   2.930  0.00  0.00     0.002 A 
ATOM      6  C6  I4B d   1       4.901   1.625   2.778  0.00  0.00     0.003 A 
ENDROOT
BRANCH   1   7
ATOM      7  C1' I4B d   1       4.702   3.938   3.731  0.00  0.00     0.060 C 
BRANCH   7   8
ATOM      8  C2' I4B d   1       5.943   4.780   3.943  0.00  0.00    -0.013 C 
ATOM      9  C4' I4B d   1       5.934   5.997   3.056  0.00  0.00     0.013 C 
ATOM     10  C3' I4B d   1       6.000   5.166   5.391  0.00  0.00     0.013 C 
ENDBRANCH   7   8
ENDBRANCH   1   7
TORSDOF 2
ENDMDL
