MODEL 1
REMARK minimizedAffinity -0.0436342619
REMARK minimizedRMSD -1
REMARK  0 active torsions:
REMARK  status: ('A' for Active; 'I' for Inactive)
ROOT
ATOM      1  O1  BZF d   1       2.043   3.159  -1.589  0.00  0.00    -0.204 OA
ATOM      2  C2  BZF d   1       1.392   3.939  -0.653  0.00  0.00     0.174 A 
ATOM      3  C3  BZF d   1       0.707   3.169   0.217  0.00  0.00    -0.012 A 
ATOM      4  C3A BZF d   1       1.019   1.821  -0.146  0.00  0.00    -0.107 A 
ATOM      5  C4  BZF d   1       0.655   0.605   0.357  0.00  0.00     0.055 A 
ATOM      6  C5  BZF d   1       1.076  -0.523  -0.273  0.00  0.00    -0.016 A 
ATOM      7  C6  BZF d   1       1.857  -0.472  -1.409  0.00  0.00     0.022 A 
ATOM      8  C7  BZF d   1       2.248   0.711  -1.942  0.00  0.00     0.029 A 
ATOM      9  C7A BZF d   1       1.851   1.852  -1.289  0.00  0.00     0.058 A 
ENDROOT
TORSDOF 0
ENDMDL
