MODEL 1
REMARK minimizedAffinity 4.0182085
REMARK minimizedRMSD -1
REMARK  0 active torsions:
REMARK  status: ('A' for Active; 'I' for Inactive)
ROOT
ATOM      1  O1  BZF d   1       2.057   3.559  -1.798  0.00  0.00    -0.204 OA
ATOM      2  C2  BZF d   1       1.419   4.378  -0.886  0.00  0.00     0.174 A 
ATOM      3  C3  BZF d   1       0.751   3.645   0.029  0.00  0.00    -0.012 A 
ATOM      4  C3A BZF d   1       1.061   2.283  -0.280  0.00  0.00    -0.107 A 
ATOM      5  C4  BZF d   1       0.709   1.089   0.282  0.00  0.00     0.055 A 
ATOM      6  C5  BZF d   1       1.123  -0.064  -0.305  0.00  0.00    -0.016 A 
ATOM      7  C6  BZF d   1       1.884  -0.061  -1.455  0.00  0.00     0.022 A 
ATOM      8  C7  BZF d   1       2.263   1.098  -2.046  0.00  0.00     0.029 A 
ATOM      9  C7A BZF d   1       1.874   2.266  -1.437  0.00  0.00     0.058 A 
ENDROOT
TORSDOF 0
ENDMDL
