MODEL 1
REMARK minimizedAffinity -5.24321079
REMARK minimizedRMSD -1
REMARK  0 active torsions:
REMARK  status: ('A' for Active; 'I' for Inactive)
ROOT
ATOM      1  O1  BZF d   1       1.556   3.831   0.763  0.00  0.00    -0.204 OA
ATOM      2  C2  BZF d   1       1.456   4.721  -0.289  0.00  0.00     0.174 A 
ATOM      3  C3  BZF d   1       1.291   4.065  -1.456  0.00  0.00    -0.012 A 
ATOM      4  C3A BZF d   1       1.194   2.683  -1.100  0.00  0.00    -0.107 A 
ATOM      5  C4  BZF d   1       1.008   1.539  -1.822  0.00  0.00     0.055 A 
ATOM      6  C5  BZF d   1       1.035   0.341  -1.180  0.00  0.00    -0.016 A 
ATOM      7  C6  BZF d   1       1.250   0.251   0.179  0.00  0.00     0.022 A 
ATOM      8  C7  BZF d   1       1.434   1.358   0.938  0.00  0.00     0.029 A 
ATOM      9  C7A BZF d   1       1.375   2.572   0.298  0.00  0.00     0.058 A 
ENDROOT
TORSDOF 0
ENDMDL
