MODEL 1
REMARK minimizedAffinity -4.53223658
REMARK minimizedRMSD -1
REMARK  0 active torsions:
REMARK  status: ('A' for Active; 'I' for Inactive)
ROOT
ATOM      1  O1  BZF d   1       1.820   0.603  -2.203  0.00  0.00    -0.204 OA
ATOM      2  C2  BZF d   1       1.766  -0.645  -1.612  0.00  0.00     0.174 A 
ATOM      3  C3  BZF d   1       1.370  -0.549  -0.326  0.00  0.00    -0.012 A 
ATOM      4  C3A BZF d   1       1.074   0.837  -0.126  0.00  0.00    -0.107 A 
ATOM      5  C4  BZF d   1       0.620   1.555   0.943  0.00  0.00     0.055 A 
ATOM      6  C5  BZF d   1       0.507   2.905   0.832  0.00  0.00    -0.016 A 
ATOM      7  C6  BZF d   1       0.843   3.568  -0.329  0.00  0.00     0.022 A 
ATOM      8  C7  BZF d   1       1.293   2.898  -1.418  0.00  0.00     0.029 A 
ATOM      9  C7A BZF d   1       1.377   1.531  -1.320  0.00  0.00     0.058 A 
ENDROOT
TORSDOF 0
ENDMDL
