MODEL 1
REMARK minimizedAffinity -1.54563153
REMARK minimizedRMSD -1
REMARK  0 active torsions:
REMARK  status: ('A' for Active; 'I' for Inactive)
ROOT
ATOM      1  O1  BZF d   1       1.220   0.535  -1.764  0.00  0.00    -0.204 OA
ATOM      2  C2  BZF d   1       0.909  -0.205  -0.639  0.00  0.00     0.174 A 
ATOM      3  C3  BZF d   1       0.860   0.584   0.454  0.00  0.00    -0.012 A 
ATOM      4  C3A BZF d   1       1.067   1.914  -0.032  0.00  0.00    -0.107 A 
ATOM      5  C4  BZF d   1       1.112   3.138   0.571  0.00  0.00     0.055 A 
ATOM      6  C5  BZF d   1       1.407   4.233  -0.177  0.00  0.00    -0.016 A 
ATOM      7  C6  BZF d   1       1.667   4.140  -1.529  0.00  0.00     0.022 A 
ATOM      8  C7  BZF d   1       1.630   2.948  -2.173  0.00  0.00     0.029 A 
ATOM      9  C7A BZF d   1       1.300   1.844  -1.426  0.00  0.00     0.058 A 
ENDROOT
TORSDOF 0
ENDMDL
