MODEL 1
REMARK minimizedAffinity 1.09927392
REMARK minimizedRMSD -1
REMARK  0 active torsions:
REMARK  status: ('A' for Active; 'I' for Inactive)
ROOT
ATOM      1  O1  BZF d   1       1.495   3.428  -0.087  0.00  0.00    -0.204 OA
ATOM      2  C2  BZF d   1       1.185   3.915  -1.342  0.00  0.00     0.174 A 
ATOM      3  C3  BZF d   1       0.958   2.904  -2.205  0.00  0.00    -0.012 A 
ATOM      4  C3A BZF d   1       1.048   1.711  -1.420  0.00  0.00    -0.107 A 
ATOM      5  C4  BZF d   1       0.903   0.384  -1.707  0.00  0.00     0.055 A 
ATOM      6  C5  BZF d   1       1.126  -0.532  -0.729  0.00  0.00    -0.016 A 
ATOM      7  C6  BZF d   1       1.501  -0.157   0.545  0.00  0.00     0.022 A 
ATOM      8  C7  BZF d   1       1.653   1.147   0.879  0.00  0.00     0.029 A 
ATOM      9  C7A BZF d   1       1.395   2.077  -0.099  0.00  0.00     0.058 A 
ENDROOT
TORSDOF 0
ENDMDL
