MODEL 1
REMARK minimizedAffinity -1.45651793
REMARK minimizedRMSD -1
REMARK  0 active torsions:
REMARK  status: ('A' for Active; 'I' for Inactive)
ROOT
ATOM      1  O1  BZF d   1       1.136   2.930   1.100  0.00  0.00    -0.204 OA
ATOM      2  C2  BZF d   1       1.301   4.083   0.357  0.00  0.00     0.174 A 
ATOM      3  C3  BZF d   1       1.453   3.791  -0.951  0.00  0.00    -0.012 A 
ATOM      4  C3A BZF d   1       1.287   2.373  -1.042  0.00  0.00    -0.107 A 
ATOM      5  C4  BZF d   1       1.311   1.490  -2.084  0.00  0.00     0.055 A 
ATOM      6  C5  BZF d   1       1.187   0.161  -1.826  0.00  0.00    -0.016 A 
ATOM      7  C6  BZF d   1       1.042  -0.319  -0.541  0.00  0.00     0.022 A 
ATOM      8  C7  BZF d   1       1.007   0.519   0.524  0.00  0.00     0.029 A 
ATOM      9  C7A BZF d   1       1.100   1.865   0.264  0.00  0.00     0.058 A 
ENDROOT
TORSDOF 0
ENDMDL
