MODEL 1
REMARK minimizedAffinity 1.25965512
REMARK minimizedRMSD -1
REMARK  0 active torsions:
REMARK  status: ('A' for Active; 'I' for Inactive)
ROOT
ATOM      1  O1  BZF d   1       1.794   3.236  -2.589  0.00  0.00    -0.204 OA
ATOM      2  C2  BZF d   1       1.985   4.441  -1.941  0.00  0.00     0.174 A 
ATOM      3  C3  BZF d   1       1.810   4.302  -0.611  0.00  0.00    -0.012 A 
ATOM      4  C3A BZF d   1       1.580   2.905  -0.406  0.00  0.00    -0.107 A 
ATOM      5  C4  BZF d   1       1.354   2.144   0.705  0.00  0.00     0.055 A 
ATOM      6  C5  BZF d   1       1.094   0.819   0.556  0.00  0.00    -0.016 A 
ATOM      7  C6  BZF d   1       1.049   0.223  -0.687  0.00  0.00     0.022 A 
ATOM      8  C7  BZF d   1       1.272   0.936  -1.818  0.00  0.00     0.029 A 
ATOM      9  C7A BZF d   1       1.566   2.269  -1.669  0.00  0.00     0.058 A 
ENDROOT
TORSDOF 0
ENDMDL
