MODEL 1
REMARK minimizedAffinity -1.74550188
REMARK minimizedRMSD -1
REMARK  0 active torsions:
REMARK  status: ('A' for Active; 'I' for Inactive)
ROOT
ATOM      1  O1  BZF d   1       1.477   4.093   1.062  0.00  0.00    -0.204 OA
ATOM      2  C2  BZF d   1       1.725   5.122   0.174  0.00  0.00     0.174 A 
ATOM      3  C3  BZF d   1       1.788   4.658  -1.091  0.00  0.00    -0.012 A 
ATOM      4  C3A BZF d   1       1.474   3.265  -0.997  0.00  0.00    -0.107 A 
ATOM      5  C4  BZF d   1       1.360   2.264  -1.919  0.00  0.00     0.055 A 
ATOM      6  C5  BZF d   1       1.113   0.998  -1.492  0.00  0.00    -0.016 A 
ATOM      7  C6  BZF d   1       0.978   0.697  -0.152  0.00  0.00     0.022 A 
ATOM      8  C7  BZF d   1       1.077   1.657   0.799  0.00  0.00     0.029 A 
ATOM      9  C7A BZF d   1       1.295   2.943   0.368  0.00  0.00     0.058 A 
ENDROOT
TORSDOF 0
ENDMDL
