MODEL 1
REMARK minimizedAffinity 8.50810909
REMARK minimizedRMSD -1
REMARK  0 active torsions:
REMARK  status: ('A' for Active; 'I' for Inactive)
ROOT
ATOM      1  O1  BZF d   1       1.688   0.483   0.183  0.00  0.00    -0.204 OA
ATOM      2  C2  BZF d   1       1.584  -0.522  -0.760  0.00  0.00     0.174 A 
ATOM      3  C3  BZF d   1       1.132  -0.034  -1.932  0.00  0.00    -0.012 A 
ATOM      4  C3A BZF d   1       1.027   1.380  -1.736  0.00  0.00    -0.107 A 
ATOM      5  C4  BZF d   1       0.648   2.414  -2.543  0.00  0.00     0.055 A 
ATOM      6  C5  BZF d   1       0.587   3.669  -2.023  0.00  0.00    -0.016 A 
ATOM      7  C6  BZF d   1       0.893   3.924  -0.703  0.00  0.00     0.022 A 
ATOM      8  C7  BZF d   1       1.280   2.931   0.135  0.00  0.00     0.029 A 
ATOM      9  C7A BZF d   1       1.374   1.667  -0.395  0.00  0.00     0.058 A 
ENDROOT
TORSDOF 0
ENDMDL
