MODEL 1
REMARK minimizedAffinity 4.9138484
REMARK minimizedRMSD -1
REMARK  0 active torsions:
REMARK  status: ('A' for Active; 'I' for Inactive)
ROOT
ATOM      1  O1  BZF d   1       1.832   1.083  -0.117  0.00  0.00    -0.204 OA
ATOM      2  C2  BZF d   1       1.731   1.158  -1.493  0.00  0.00     0.174 A 
ATOM      3  C3  BZF d   1       1.553   2.434  -1.891  0.00  0.00    -0.012 A 
ATOM      4  C3A BZF d   1       1.635   3.216  -0.695  0.00  0.00    -0.107 A 
ATOM      5  C4  BZF d   1       1.552   4.555  -0.441  0.00  0.00     0.055 A 
ATOM      6  C5  BZF d   1       1.599   4.988   0.846  0.00  0.00    -0.016 A 
ATOM      7  C6  BZF d   1       1.723   4.110   1.903  0.00  0.00     0.022 A 
ATOM      8  C7  BZF d   1       1.814   2.773   1.701  0.00  0.00     0.029 A 
ATOM      9  C7A BZF d   1       1.800   2.335   0.399  0.00  0.00     0.058 A 
ENDROOT
TORSDOF 0
ENDMDL
