MODEL 1
REMARK minimizedAffinity -2.41988969
REMARK minimizedRMSD -1
REMARK  0 active torsions:
REMARK  status: ('A' for Active; 'I' for Inactive)
ROOT
ATOM      1  O1  BZF d   1       1.391   4.297   0.172  0.00  0.00    -0.204 OA
ATOM      2  C2  BZF d   1       1.576   4.997  -1.004  0.00  0.00     0.174 A 
ATOM      3  C3  BZF d   1       1.541   4.167  -2.066  0.00  0.00    -0.012 A 
ATOM      4  C3A BZF d   1       1.229   2.879  -1.526  0.00  0.00    -0.107 A 
ATOM      5  C4  BZF d   1       1.043   1.647  -2.085  0.00  0.00     0.055 A 
ATOM      6  C5  BZF d   1       0.822   0.580  -1.272  0.00  0.00    -0.016 A 
ATOM      7  C6  BZF d   1       0.788   0.708   0.101  0.00  0.00     0.022 A 
ATOM      8  C7  BZF d   1       0.962   1.910   0.701  0.00  0.00     0.029 A 
ATOM      9  C7A BZF d   1       1.152   2.996  -0.119  0.00  0.00     0.058 A 
ENDROOT
TORSDOF 0
ENDMDL
