MODEL 1
REMARK minimizedAffinity -1.39130616
REMARK minimizedRMSD -1
REMARK  0 active torsions:
REMARK  status: ('A' for Active; 'I' for Inactive)
ROOT
ATOM      1  O1  BZF d   1       1.354   3.828  -0.788  0.00  0.00    -0.204 OA
ATOM      2  C2  BZF d   1       1.242   3.849  -2.165  0.00  0.00     0.174 A 
ATOM      3  C3  BZF d   1       1.238   2.597  -2.664  0.00  0.00    -0.012 A 
ATOM      4  C3A BZF d   1       1.262   1.736  -1.521  0.00  0.00    -0.107 A 
ATOM      5  C4  BZF d   1       1.256   0.379  -1.368  0.00  0.00     0.055 A 
ATOM      6  C5  BZF d   1       1.360  -0.145  -0.118  0.00  0.00    -0.016 A 
ATOM      7  C6  BZF d   1       1.478   0.658   0.998  0.00  0.00     0.022 A 
ATOM      8  C7  BZF d   1       1.484   2.009   0.896  0.00  0.00     0.029 A 
ATOM      9  C7A BZF d   1       1.345   2.542  -0.362  0.00  0.00     0.058 A 
ENDROOT
TORSDOF 0
ENDMDL
