MODEL 1
REMARK minimizedAffinity 4.96831083
REMARK minimizedRMSD -1
REMARK  0 active torsions:
REMARK  status: ('A' for Active; 'I' for Inactive)
ROOT
ATOM      1  O1  BZF d   1       1.864   3.179  -0.570  0.00  0.00    -0.204 OA
ATOM      2  C2  BZF d   1       1.441   3.495  -1.847  0.00  0.00     0.174 A 
ATOM      3  C3  BZF d   1       1.044   2.387  -2.506  0.00  0.00    -0.012 A 
ATOM      4  C3A BZF d   1       1.142   1.325  -1.553  0.00  0.00    -0.107 A 
ATOM      5  C4  BZF d   1       0.872  -0.012  -1.605  0.00  0.00     0.055 A 
ATOM      6  C5  BZF d   1       1.145  -0.785  -0.522  0.00  0.00    -0.016 A 
ATOM      7  C6  BZF d   1       1.694  -0.255   0.628  0.00  0.00     0.022 A 
ATOM      8  C7  BZF d   1       1.976   1.067   0.729  0.00  0.00     0.029 A 
ATOM      9  C7A BZF d   1       1.669   1.856  -0.353  0.00  0.00     0.058 A 
ENDROOT
TORSDOF 0
ENDMDL
