MODEL 1
REMARK minimizedAffinity 7.24289465
REMARK minimizedRMSD -1
REMARK  0 active torsions:
REMARK  status: ('A' for Active; 'I' for Inactive)
ROOT
ATOM      1  O1  BZF d   1       2.740   5.129  -2.189  0.00  0.00    -0.204 OA
ATOM      2  C2  BZF d   1       2.549   6.000  -1.133  0.00  0.00     0.174 A 
ATOM      3  C3  BZF d   1       1.751   5.448  -0.196  0.00  0.00    -0.012 A 
ATOM      4  C3A BZF d   1       1.498   4.117  -0.654  0.00  0.00    -0.107 A 
ATOM      5  C4  BZF d   1       0.784   3.069  -0.146  0.00  0.00     0.055 A 
ATOM      6  C5  BZF d   1       0.676   1.928  -0.876  0.00  0.00    -0.016 A 
ATOM      7  C6  BZF d   1       1.264   1.802  -2.117  0.00  0.00     0.022 A 
ATOM      8  C7  BZF d   1       1.987   2.811  -2.660  0.00  0.00     0.029 A 
ATOM      9  C7A BZF d   1       2.125   3.954  -1.911  0.00  0.00     0.058 A 
ENDROOT
TORSDOF 0
ENDMDL
