MODEL 1
REMARK minimizedAffinity -3.09532881
REMARK minimizedRMSD -1
REMARK  0 active torsions:
REMARK  status: ('A' for Active; 'I' for Inactive)
ROOT
ATOM      1  O1  BZF d   1       1.088   1.797   0.935  0.00  0.00    -0.204 OA
ATOM      2  C2  BZF d   1       0.883   0.709   0.108  0.00  0.00     0.174 A 
ATOM      3  C3  BZF d   1       0.874   1.088  -1.186  0.00  0.00    -0.012 A 
ATOM      4  C3A BZF d   1       1.179   2.485  -1.172  0.00  0.00    -0.107 A 
ATOM      5  C4  BZF d   1       1.329   3.423  -2.153  0.00  0.00     0.055 A 
ATOM      6  C5  BZF d   1       1.555   4.717  -1.801  0.00  0.00    -0.016 A 
ATOM      7  C6  BZF d   1       1.630   5.107  -0.480  0.00  0.00     0.022 A 
ATOM      8  C7  BZF d   1       1.492   4.212   0.528  0.00  0.00     0.029 A 
ATOM      9  C7A BZF d   1       1.298   2.898   0.175  0.00  0.00     0.058 A 
ENDROOT
TORSDOF 0
ENDMDL
