MODEL 1
REMARK minimizedAffinity 3.62978792
REMARK minimizedRMSD -1
REMARK  0 active torsions:
REMARK  status: ('A' for Active; 'I' for Inactive)
ROOT
ATOM      1  O1  BZF d   1       1.329  -2.467   0.116  0.00  0.00    -0.204 OA
ATOM      2  C2  BZF d   1       0.669  -3.088  -0.927  0.00  0.00     0.174 A 
ATOM      3  C3  BZF d   1       0.170  -2.177  -1.787  0.00  0.00    -0.012 A 
ATOM      4  C3A BZF d   1       0.620  -0.910  -1.297  0.00  0.00    -0.107 A 
ATOM      5  C4  BZF d   1       0.462   0.374  -1.732  0.00  0.00     0.055 A 
ATOM      6  C5  BZF d   1       0.967   1.391  -0.985  0.00  0.00    -0.016 A 
ATOM      7  C6  BZF d   1       1.630   1.160   0.203  0.00  0.00     0.022 A 
ATOM      8  C7  BZF d   1       1.815  -0.097   0.672  0.00  0.00     0.029 A 
ATOM      9  C7A BZF d   1       1.335  -1.129  -0.097  0.00  0.00     0.058 A 
ENDROOT
TORSDOF 0
ENDMDL
