MODEL 1
REMARK minimizedAffinity -0.644494593
REMARK minimizedRMSD -1
REMARK  0 active torsions:
REMARK  status: ('A' for Active; 'I' for Inactive)
ROOT
ATOM      1  O1  BZF d   1       1.670   4.980   0.914  0.00  0.00    -0.204 OA
ATOM      2  C2  BZF d   1       1.803   5.955  -0.055  0.00  0.00     0.174 A 
ATOM      3  C3  BZF d   1       1.941   5.399  -1.277  0.00  0.00    -0.012 A 
ATOM      4  C3A BZF d   1       1.798   3.991  -1.068  0.00  0.00    -0.107 A 
ATOM      5  C4  BZF d   1       1.821   2.911  -1.903  0.00  0.00     0.055 A 
ATOM      6  C5  BZF d   1       1.724   1.664  -1.373  0.00  0.00    -0.016 A 
ATOM      7  C6  BZF d   1       1.607   1.460  -0.013  0.00  0.00     0.022 A 
ATOM      8  C7  BZF d   1       1.574   2.500   0.854  0.00  0.00     0.029 A 
ATOM      9  C7A BZF d   1       1.639   3.763   0.319  0.00  0.00     0.058 A 
ENDROOT
TORSDOF 0
ENDMDL
