MODEL 1
REMARK minimizedAffinity -2.48172235
REMARK minimizedRMSD -1
REMARK  0 active torsions:
REMARK  status: ('A' for Active; 'I' for Inactive)
ROOT
ATOM      1  O1  BZF d   1       1.174   3.974   0.609  0.00  0.00    -0.204 OA
ATOM      2  C2  BZF d   1       1.405   4.781  -0.488  0.00  0.00     0.174 A 
ATOM      3  C3  BZF d   1       1.669   4.039  -1.582  0.00  0.00    -0.012 A 
ATOM      4  C3A BZF d   1       1.508   2.680  -1.163  0.00  0.00    -0.107 A 
ATOM      5  C4  BZF d   1       1.620   1.480  -1.804  0.00  0.00     0.055 A 
ATOM      6  C5  BZF d   1       1.470   0.333  -1.091  0.00  0.00    -0.016 A 
ATOM      7  C6  BZF d   1       1.214   0.350   0.265  0.00  0.00     0.022 A 
ATOM      8  C7  BZF d   1       1.090   1.516   0.944  0.00  0.00     0.029 A 
ATOM      9  C7A BZF d   1       1.208   2.677   0.219  0.00  0.00     0.058 A 
ENDROOT
TORSDOF 0
ENDMDL
