MODEL 1
REMARK minimizedAffinity 8.40891743
REMARK minimizedRMSD -1
REMARK  1 active torsions:
REMARK  status: ('A' for Active; 'I' for Inactive)
REMARK    1  A    between atoms: C1_2  and  C2_3 
ROOT
ATOM      1  C2  UNL d   1       1.208  -1.189  -0.580  0.00  0.00    -0.076 A 
ATOM      2  C3  UNL d   1       0.327  -1.532  -1.621  0.00  0.00     0.004 A 
ATOM      3  C4  UNL d   1      -1.050  -1.579  -1.409  0.00  0.00    -0.003 A 
ATOM      4  C5  UNL d   1      -1.569  -1.282  -0.154  0.00  0.00     0.000 A 
ATOM      5  C6  UNL d   1      -0.711  -0.923   0.886  0.00  0.00     0.000 A 
ATOM      6  C7  UNL d   1       0.678  -0.856   0.685  0.00  0.00    -0.073 A 
ATOM      7  C8  UNL d   1       1.557  -0.469   1.843  0.00  0.00     0.078 C 
ENDROOT
BRANCH   1   8
ATOM      8  C1  UNL d   1       2.693  -1.182  -0.861  0.00  0.00     0.053 C 
ATOM      9  C   UNL d   1       3.081  -2.145  -1.972  0.00  0.00     0.018 C 
ENDBRANCH   1   8
TORSDOF 1
ENDMDL
