MODEL 1
REMARK minimizedAffinity 0.843827069
REMARK minimizedRMSD -1
REMARK  1 active torsions:
REMARK  status: ('A' for Active; 'I' for Inactive)
REMARK    1  A    between atoms: C1_2  and  C2_3 
ROOT
ATOM      1  C2  UNL d   1       2.738  -0.096  -0.165  0.00  0.00    -0.076 A 
ATOM      2  C3  UNL d   1       2.985  -1.178  -1.028  0.00  0.00     0.004 A 
ATOM      3  C4  UNL d   1       2.233  -2.349  -0.945  0.00  0.00    -0.003 A 
ATOM      4  C5  UNL d   1       1.220  -2.456   0.002  0.00  0.00     0.000 A 
ATOM      5  C6  UNL d   1       0.949  -1.386   0.854  0.00  0.00     0.000 A 
ATOM      6  C7  UNL d   1       1.688  -0.193   0.773  0.00  0.00    -0.073 A 
ATOM      7  C8  UNL d   1       1.357   0.927   1.721  0.00  0.00     0.078 C 
ENDROOT
BRANCH   1   8
ATOM      8  C1  UNL d   1       3.604   1.137  -0.284  0.00  0.00     0.053 C 
ATOM      9  C   UNL d   1       4.921   0.859  -0.992  0.00  0.00     0.018 C 
ENDBRANCH   1   8
TORSDOF 1
ENDMDL
