MODEL 1
REMARK minimizedAffinity 5.79633379
REMARK minimizedRMSD -1
REMARK  1 active torsions:
REMARK  status: ('A' for Active; 'I' for Inactive)
REMARK    1  A    between atoms: C1_2  and  C2_3 
ROOT
ATOM      1  C2  UNL d   1       1.893  -0.724  -0.553  0.00  0.00    -0.076 A 
ATOM      2  C3  UNL d   1       2.476  -1.999  -0.646  0.00  0.00     0.004 A 
ATOM      3  C4  UNL d   1       1.687  -3.141  -0.773  0.00  0.00    -0.003 A 
ATOM      4  C5  UNL d   1       0.302  -3.026  -0.810  0.00  0.00     0.000 A 
ATOM      5  C6  UNL d   1      -0.293  -1.767  -0.737  0.00  0.00     0.000 A 
ATOM      6  C7  UNL d   1       0.489  -0.604  -0.625  0.00  0.00    -0.073 A 
ATOM      7  C8  UNL d   1      -0.206   0.728  -0.543  0.00  0.00     0.078 C 
ENDROOT
BRANCH   1   8
ATOM      8  C1  UNL d   1       2.799   0.476  -0.389  0.00  0.00     0.053 C 
ATOM      9  C   UNL d   1       4.052   0.382  -1.246  0.00  0.00     0.018 C 
ENDBRANCH   1   8
TORSDOF 1
ENDMDL
