MODEL 1
REMARK minimizedAffinity 9.08771992
REMARK minimizedRMSD -1
REMARK  1 active torsions:
REMARK  status: ('A' for Active; 'I' for Inactive)
REMARK    1  A    between atoms: C1_2  and  C2_3 
ROOT
ATOM      1  C2  UNL d   1       1.947  -2.358  -1.135  0.00  0.00    -0.076 A 
ATOM      2  C3  UNL d   1       2.582  -3.287  -1.977  0.00  0.00     0.004 A 
ATOM      3  C4  UNL d   1       3.729  -2.942  -2.691  0.00  0.00    -0.003 A 
ATOM      4  C5  UNL d   1       4.260  -1.663  -2.572  0.00  0.00     0.000 A 
ATOM      5  C6  UNL d   1       3.654  -0.734  -1.727  0.00  0.00     0.000 A 
ATOM      6  C7  UNL d   1       2.507  -1.070  -0.989  0.00  0.00    -0.073 A 
ATOM      7  C8  UNL d   1       1.890  -0.027  -0.097  0.00  0.00     0.078 C 
ENDROOT
BRANCH   1   8
ATOM      8  C1  UNL d   1       0.691  -2.780  -0.407  0.00  0.00     0.053 C 
ATOM      9  C   UNL d   1      -0.573  -2.428  -1.176  0.00  0.00     0.018 C 
ENDBRANCH   1   8
TORSDOF 1
ENDMDL
