MODEL 1
REMARK minimizedAffinity -0.395331323
REMARK minimizedRMSD -1
REMARK  1 active torsions:
REMARK  status: ('A' for Active; 'I' for Inactive)
REMARK    1  A    between atoms: C1_2  and  C2_3 
ROOT
ATOM      1  C2  UNL d   1       0.987   0.638  -0.112  0.00  0.00    -0.076 A 
ATOM      2  C3  UNL d   1      -0.124  -0.222  -0.161  0.00  0.00     0.004 A 
ATOM      3  C4  UNL d   1       0.041  -1.602  -0.271  0.00  0.00    -0.003 A 
ATOM      4  C5  UNL d   1       1.320  -2.144  -0.333  0.00  0.00     0.000 A 
ATOM      5  C6  UNL d   1       2.434  -1.308  -0.267  0.00  0.00     0.000 A 
ATOM      6  C7  UNL d   1       2.285   0.084  -0.140  0.00  0.00    -0.073 A 
ATOM      7  C8  UNL d   1       3.521   0.939  -0.080  0.00  0.00     0.078 C 
ENDROOT
BRANCH   1   8
ATOM      8  C1  UNL d   1       0.747   2.128  -0.020  0.00  0.00     0.053 C 
ATOM      9  C   UNL d   1      -0.283   2.487   1.040  0.00  0.00     0.018 C 
ENDBRANCH   1   8
TORSDOF 1
ENDMDL
