MODEL 1
REMARK minimizedAffinity 10.5102272
REMARK minimizedRMSD -1
REMARK  1 active torsions:
REMARK  status: ('A' for Active; 'I' for Inactive)
REMARK    1  A    between atoms: C1_2  and  C2_3 
ROOT
ATOM      1  C2  UNL d   1      -1.256  -4.393  -2.235  0.00  0.00    -0.076 A 
ATOM      2  C3  UNL d   1      -0.762  -3.241  -2.873  0.00  0.00     0.004 A 
ATOM      3  C4  UNL d   1       0.218  -2.453  -2.273  0.00  0.00    -0.003 A 
ATOM      4  C5  UNL d   1       0.721  -2.804  -1.025  0.00  0.00     0.000 A 
ATOM      5  C6  UNL d   1       0.256  -3.952  -0.386  0.00  0.00     0.000 A 
ATOM      6  C7  UNL d   1      -0.720  -4.767  -0.984  0.00  0.00    -0.073 A 
ATOM      7  C8  UNL d   1      -1.190  -5.991  -0.247  0.00  0.00     0.078 C 
ENDROOT
BRANCH   1   8
ATOM      8  C1  UNL d   1      -2.338  -5.194  -2.923  0.00  0.00     0.053 C 
ATOM      9  C   UNL d   1      -1.827  -5.929  -4.152  0.00  0.00     0.018 C 
ENDBRANCH   1   8
TORSDOF 1
ENDMDL
