MODEL 1
REMARK minimizedAffinity -2.86119246
REMARK minimizedRMSD -1
REMARK  0 active torsions:
REMARK  status: ('A' for Active; 'I' for Inactive)
ROOT
ATOM      1  C   UNL d   1      -1.703  -0.140   2.917  0.00  0.00     0.124 A 
ATOM      2  C1  UNL d   1      -2.535   0.152   1.846  0.00  0.00     0.062 A 
ATOM      3  C2  UNL d   1      -2.013   0.242   0.558  0.00  0.00     0.162 A 
ATOM      4  C3  UNL d   1      -0.651   0.038   0.335  0.00  0.00    -0.034 A 
ATOM      5  C4  UNL d   1       0.179  -0.255   1.418  0.00  0.00     0.162 A 
ATOM      6  C5  UNL d   1      -0.347  -0.344   2.703  0.00  0.00     0.062 A 
ATOM      7  F   UNL d   1       0.459  -0.627   3.737  0.00  0.00    -0.097 F 
ATOM      8  F1  UNL d   1       1.493  -0.457   1.239  0.00  0.00    -0.096 F 
ATOM      9  I   UNL d   1       0.133   0.171  -1.588  0.00  0.00    -0.060 I 
ATOM     10  F2  UNL d   1      -2.841   0.526  -0.458  0.00  0.00    -0.096 F 
ATOM     11  F3  UNL d   1      -3.845   0.350   2.051  0.00  0.00    -0.097 F 
ATOM     12  F4  UNL d   1      -2.207  -0.225   4.155  0.00  0.00    -0.092 F 
ENDROOT
TORSDOF 0
ENDMDL
