MODEL 1
REMARK minimizedAffinity -4.61445189
REMARK minimizedRMSD -1
REMARK  0 active torsions:
REMARK  status: ('A' for Active; 'I' for Inactive)
ROOT
ATOM      1  C   UNL d   1      -2.001  -0.309   2.387  0.00  0.00     0.124 A 
ATOM      2  C1  UNL d   1      -2.706   0.111   1.267  0.00  0.00     0.062 A 
ATOM      3  C2  UNL d   1      -2.042   0.324   0.062  0.00  0.00     0.162 A 
ATOM      4  C3  UNL d   1      -0.666   0.117  -0.030  0.00  0.00    -0.034 A 
ATOM      5  C4  UNL d   1       0.036  -0.304   1.101  0.00  0.00     0.162 A 
ATOM      6  C5  UNL d   1      -0.632  -0.515   2.303  0.00  0.00     0.062 A 
ATOM      7  F   UNL d   1       0.051  -0.920   3.384  0.00  0.00    -0.097 F 
ATOM      8  F1  UNL d   1       1.360  -0.512   1.048  0.00  0.00    -0.096 F 
ATOM      9  I   UNL d   1       0.330   0.435  -1.829  0.00  0.00    -0.060 I 
ATOM     10  F2  UNL d   1      -2.748   0.729  -1.004  0.00  0.00    -0.096 F 
ATOM     11  F3  UNL d   1      -4.029   0.312   1.345  0.00  0.00    -0.097 F 
ATOM     12  F4  UNL d   1      -2.642  -0.512   3.545  0.00  0.00    -0.092 F 
ENDROOT
TORSDOF 0
ENDMDL
