MODEL 1
REMARK minimizedAffinity -4.54296207
REMARK minimizedRMSD -1
REMARK  0 active torsions:
REMARK  status: ('A' for Active; 'I' for Inactive)
ROOT
ATOM      1  C   UNL d   1      -1.788   0.106   2.361  0.00  0.00     0.124 A 
ATOM      2  C1  UNL d   1      -0.481  -0.353   2.266  0.00  0.00     0.062 A 
ATOM      3  C2  UNL d   1       0.156  -0.401   1.029  0.00  0.00     0.162 A 
ATOM      4  C3  UNL d   1      -0.513   0.011  -0.123  0.00  0.00    -0.034 A 
ATOM      5  C4  UNL d   1      -1.828   0.470  -0.020  0.00  0.00     0.162 A 
ATOM      6  C5  UNL d   1      -2.460   0.516   1.218  0.00  0.00     0.062 A 
ATOM      7  F   UNL d   1      -3.722   0.959   1.308  0.00  0.00    -0.097 F 
ATOM      8  F1  UNL d   1      -2.500   0.874  -1.108  0.00  0.00    -0.096 F 
ATOM      9  I   UNL d   1       0.436  -0.059  -1.974  0.00  0.00    -0.060 I 
ATOM     10  F2  UNL d   1       1.419  -0.848   0.967  0.00  0.00    -0.096 F 
ATOM     11  F3  UNL d   1       0.170  -0.751   3.368  0.00  0.00    -0.097 F 
ATOM     12  F4  UNL d   1      -2.399   0.150   3.552  0.00  0.00    -0.092 F 
ENDROOT
TORSDOF 0
ENDMDL
