MODEL 1
REMARK minimizedAffinity -1.14871883
REMARK minimizedRMSD -1
REMARK  0 active torsions:
REMARK  status: ('A' for Active; 'I' for Inactive)
ROOT
ATOM      1  C   UNL d   1       1.022   0.451  -0.736  0.00  0.00     0.124 A 
ATOM      2  C1  UNL d   1      -0.340   0.186  -0.726  0.00  0.00     0.062 A 
ATOM      3  C2  UNL d   1      -0.983  -0.131   0.467  0.00  0.00     0.162 A 
ATOM      4  C3  UNL d   1      -0.264  -0.183   1.662  0.00  0.00    -0.034 A 
ATOM      5  C4  UNL d   1       1.106   0.084   1.644  0.00  0.00     0.162 A 
ATOM      6  C5  UNL d   1       1.744   0.400   0.449  0.00  0.00     0.062 A 
ATOM      7  F   UNL d   1       3.060   0.656   0.441  0.00  0.00    -0.097 F 
ATOM      8  F1  UNL d   1       1.827   0.042   2.774  0.00  0.00    -0.096 F 
ATOM      9  I   UNL d   1      -1.222  -0.657   3.448  0.00  0.00    -0.060 I 
ATOM     10  F2  UNL d   1      -2.300  -0.383   0.447  0.00  0.00    -0.096 F 
ATOM     11  F3  UNL d   1      -1.039   0.234  -1.869  0.00  0.00    -0.097 F 
ATOM     12  F4  UNL d   1       1.638   0.755  -1.885  0.00  0.00    -0.092 F 
ENDROOT
TORSDOF 0
ENDMDL
