MODEL 1
REMARK minimizedAffinity -3.48658156
REMARK minimizedRMSD -1
REMARK  0 active torsions:
REMARK  status: ('A' for Active; 'I' for Inactive)
ROOT
ATOM      1  C   UNL d   1      -1.792   0.029   2.802  0.00  0.00     0.124 A 
ATOM      2  C1  UNL d   1      -2.628   0.060   1.694  0.00  0.00     0.062 A 
ATOM      3  C2  UNL d   1      -2.089   0.119   0.412  0.00  0.00     0.162 A 
ATOM      4  C3  UNL d   1      -0.706   0.146   0.231  0.00  0.00    -0.034 A 
ATOM      5  C4  UNL d   1       0.128   0.115   1.350  0.00  0.00     0.162 A 
ATOM      6  C5  UNL d   1      -0.416   0.056   2.629  0.00  0.00     0.062 A 
ATOM      7  F   UNL d   1       0.393   0.026   3.698  0.00  0.00    -0.097 F 
ATOM      8  F1  UNL d   1       1.462   0.140   1.211  0.00  0.00    -0.096 F 
ATOM      9  I   UNL d   1       0.104   0.234  -1.685  0.00  0.00    -0.060 I 
ATOM     10  F2  UNL d   1      -2.920   0.149  -0.640  0.00  0.00    -0.096 F 
ATOM     11  F3  UNL d   1      -3.958   0.035   1.859  0.00  0.00    -0.097 F 
ATOM     12  F4  UNL d   1      -2.314  -0.027   4.034  0.00  0.00    -0.092 F 
ENDROOT
TORSDOF 0
ENDMDL
