MODEL 1
REMARK minimizedAffinity -4.30387735
REMARK minimizedRMSD -1
REMARK  0 active torsions:
REMARK  status: ('A' for Active; 'I' for Inactive)
ROOT
ATOM      1  C   UNL d   1      -0.915   1.200  -0.902  0.00  0.00     0.124 A 
ATOM      2  C1  UNL d   1      -2.114   0.942  -0.252  0.00  0.00     0.062 A 
ATOM      3  C2  UNL d   1      -2.114   0.365   1.015  0.00  0.00     0.162 A 
ATOM      4  C3  UNL d   1      -0.910   0.042   1.641  0.00  0.00    -0.034 A 
ATOM      5  C4  UNL d   1       0.292   0.303   0.980  0.00  0.00     0.162 A 
ATOM      6  C5  UNL d   1       0.286   0.880  -0.286  0.00  0.00     0.062 A 
ATOM      7  F   UNL d   1       1.446   1.128  -0.912  0.00  0.00    -0.097 F 
ATOM      8  F1  UNL d   1       1.468   0.005   1.553  0.00  0.00    -0.096 F 
ATOM      9  I   UNL d   1      -0.905  -0.821   3.534  0.00  0.00    -0.060 I 
ATOM     10  F2  UNL d   1      -3.288   0.128   1.619  0.00  0.00    -0.096 F 
ATOM     11  F3  UNL d   1      -3.276   1.249  -0.846  0.00  0.00    -0.097 F 
ATOM     12  F4  UNL d   1      -0.918   1.754  -2.121  0.00  0.00    -0.092 F 
ENDROOT
TORSDOF 0
ENDMDL
