MODEL 1
REMARK minimizedAffinity -4.80469465
REMARK minimizedRMSD -1
REMARK  0 active torsions:
REMARK  status: ('A' for Active; 'I' for Inactive)
ROOT
ATOM      1  C   UNL d   1      -2.060  -0.302   2.421  0.00  0.00     0.124 A 
ATOM      2  C1  UNL d   1      -2.757   0.203   1.333  0.00  0.00     0.062 A 
ATOM      3  C2  UNL d   1      -2.103   0.428   0.125  0.00  0.00     0.162 A 
ATOM      4  C3  UNL d   1      -0.743   0.146  -0.002  0.00  0.00    -0.034 A 
ATOM      5  C4  UNL d   1      -0.048  -0.361   1.097  0.00  0.00     0.162 A 
ATOM      6  C5  UNL d   1      -0.706  -0.584   2.302  0.00  0.00     0.062 A 
ATOM      7  F   UNL d   1      -0.030  -1.072   3.353  0.00  0.00    -0.097 F 
ATOM      8  F1  UNL d   1       1.261  -0.643   1.010  0.00  0.00    -0.096 F 
ATOM      9  I   UNL d   1       0.239   0.480  -1.806  0.00  0.00    -0.060 I 
ATOM     10  F2  UNL d   1      -2.802   0.916  -0.910  0.00  0.00    -0.096 F 
ATOM     11  F3  UNL d   1      -4.065   0.477   1.445  0.00  0.00    -0.097 F 
ATOM     12  F4  UNL d   1      -2.691  -0.516   3.582  0.00  0.00    -0.092 F 
ENDROOT
TORSDOF 0
ENDMDL
