MODEL 1
REMARK minimizedAffinity -3.09624839
REMARK minimizedRMSD -1
REMARK  0 active torsions:
REMARK  status: ('A' for Active; 'I' for Inactive)
ROOT
ATOM      1  C   UNL d   1      -1.762  -0.019   2.358  0.00  0.00     0.124 A 
ATOM      2  C1  UNL d   1      -0.449  -0.468   2.318  0.00  0.00     0.062 A 
ATOM      3  C2  UNL d   1       0.273  -0.413   1.129  0.00  0.00     0.162 A 
ATOM      4  C3  UNL d   1      -0.315   0.095  -0.029  0.00  0.00    -0.034 A 
ATOM      5  C4  UNL d   1      -1.636   0.544   0.019  0.00  0.00     0.162 A 
ATOM      6  C5  UNL d   1      -2.354   0.487   1.210  0.00  0.00     0.062 A 
ATOM      7  F   UNL d   1      -3.622   0.922   1.247  0.00  0.00    -0.097 F 
ATOM      8  F1  UNL d   1      -2.232   1.039  -1.076  0.00  0.00    -0.096 F 
ATOM      9  I   UNL d   1       0.762   0.179  -1.808  0.00  0.00    -0.060 I 
ATOM     10  F2  UNL d   1       1.540  -0.855   1.119  0.00  0.00    -0.096 F 
ATOM     11  F3  UNL d   1       0.124  -0.958   3.426  0.00  0.00    -0.097 F 
ATOM     12  F4  UNL d   1      -2.455  -0.074   3.503  0.00  0.00    -0.092 F 
ENDROOT
TORSDOF 0
ENDMDL
