MODEL 1
REMARK minimizedAffinity -4.64900064
REMARK minimizedRMSD -1
REMARK  0 active torsions:
REMARK  status: ('A' for Active; 'I' for Inactive)
ROOT
ATOM      1  C   UNL d   1      -2.035  -0.576   2.793  0.00  0.00     0.124 A 
ATOM      2  C1  UNL d   1      -2.779   0.083   1.824  0.00  0.00     0.062 A 
ATOM      3  C2  UNL d   1      -2.184   0.470   0.627  0.00  0.00     0.162 A 
ATOM      4  C3  UNL d   1      -0.836   0.199   0.392  0.00  0.00    -0.034 A 
ATOM      5  C4  UNL d   1      -0.093  -0.462   1.372  0.00  0.00     0.162 A 
ATOM      6  C5  UNL d   1      -0.693  -0.847   2.566  0.00  0.00     0.062 A 
ATOM      7  F   UNL d   1       0.028  -1.483   3.501  0.00  0.00    -0.097 F 
ATOM      8  F1  UNL d   1       1.205  -0.738   1.178  0.00  0.00    -0.096 F 
ATOM      9  I   UNL d   1       0.058   0.777  -1.397  0.00  0.00    -0.060 I 
ATOM     10  F2  UNL d   1      -2.927   1.105  -0.291  0.00  0.00    -0.096 F 
ATOM     11  F3  UNL d   1      -4.075   0.347   2.042  0.00  0.00    -0.097 F 
ATOM     12  F4  UNL d   1      -2.610  -0.946   3.945  0.00  0.00    -0.092 F 
ENDROOT
TORSDOF 0
ENDMDL
