MODEL 1
REMARK minimizedAffinity -4.75703192
REMARK minimizedRMSD -1
REMARK  0 active torsions:
REMARK  status: ('A' for Active; 'I' for Inactive)
ROOT
ATOM      1  C   UNL d   1      -1.378   0.225   2.628  0.00  0.00     0.124 A 
ATOM      2  C1  UNL d   1      -0.011   0.332   2.408  0.00  0.00     0.062 A 
ATOM      3  C2  UNL d   1       0.483   0.437   1.111  0.00  0.00     0.162 A 
ATOM      4  C3  UNL d   1      -0.390   0.435   0.023  0.00  0.00    -0.034 A 
ATOM      5  C4  UNL d   1      -1.763   0.326   0.252  0.00  0.00     0.162 A 
ATOM      6  C5  UNL d   1      -2.252   0.221   1.550  0.00  0.00     0.062 A 
ATOM      7  F   UNL d   1      -3.572   0.118   1.761  0.00  0.00    -0.097 F 
ATOM      8  F1  UNL d   1      -2.631   0.321  -0.771  0.00  0.00    -0.096 F 
ATOM      9  I   UNL d   1       0.344   0.591  -1.918  0.00  0.00    -0.060 I 
ATOM     10  F2  UNL d   1       1.807   0.539   0.928  0.00  0.00    -0.096 F 
ATOM     11  F3  UNL d   1       0.835   0.335   3.447  0.00  0.00    -0.097 F 
ATOM     12  F4  UNL d   1      -1.850   0.123   3.877  0.00  0.00    -0.092 F 
ENDROOT
TORSDOF 0
ENDMDL
