MODEL 1
REMARK minimizedAffinity -3.55135965
REMARK minimizedRMSD -1
REMARK  0 active torsions:
REMARK  status: ('A' for Active; 'I' for Inactive)
ROOT
ATOM      1  C   UNL d   1      -1.715   0.682   2.615  0.00  0.00     0.124 A 
ATOM      2  C1  UNL d   1      -0.428   0.182   2.478  0.00  0.00     0.062 A 
ATOM      3  C2  UNL d   1       0.099  -0.056   1.212  0.00  0.00     0.162 A 
ATOM      4  C3  UNL d   1      -0.661   0.207   0.072  0.00  0.00    -0.034 A 
ATOM      5  C4  UNL d   1      -1.955   0.709   0.218  0.00  0.00     0.162 A 
ATOM      6  C5  UNL d   1      -2.477   0.946   1.486  0.00  0.00     0.062 A 
ATOM      7  F   UNL d   1      -3.721   1.429   1.617  0.00  0.00    -0.097 F 
ATOM      8  F1  UNL d   1      -2.713   0.974  -0.856  0.00  0.00    -0.096 F 
ATOM      9  I   UNL d   1       0.124  -0.148  -1.823  0.00  0.00    -0.060 I 
ATOM     10  F2  UNL d   1       1.346  -0.541   1.109  0.00  0.00    -0.096 F 
ATOM     11  F3  UNL d   1       0.311  -0.074   3.567  0.00  0.00    -0.097 F 
ATOM     12  F4  UNL d   1      -2.220   0.910   3.835  0.00  0.00    -0.092 F 
ENDROOT
TORSDOF 0
ENDMDL
