MODEL 1
REMARK minimizedAffinity -1.57813978
REMARK minimizedRMSD -1
REMARK  0 active torsions:
REMARK  status: ('A' for Active; 'I' for Inactive)
ROOT
ATOM      1  C   UNL d   1      -2.700   0.178   1.560  0.00  0.00     0.124 A 
ATOM      2  C1  UNL d   1      -1.869  -0.330   2.549  0.00  0.00     0.062 A 
ATOM      3  C2  UNL d   1      -0.487  -0.234   2.420  0.00  0.00     0.162 A 
ATOM      4  C3  UNL d   1       0.075   0.374   1.297  0.00  0.00    -0.034 A 
ATOM      5  C4  UNL d   1      -0.767   0.882   0.306  0.00  0.00     0.162 A 
ATOM      6  C5  UNL d   1      -2.148   0.784   0.440  0.00  0.00     0.062 A 
ATOM      7  F   UNL d   1      -2.949   1.276  -0.517  0.00  0.00    -0.097 F 
ATOM      8  F1  UNL d   1      -0.260   1.474  -0.786  0.00  0.00    -0.096 F 
ATOM      9  I   UNL d   1       2.142   0.520   1.101  0.00  0.00    -0.060 I 
ATOM     10  F2  UNL d   1       0.292  -0.735   3.391  0.00  0.00    -0.096 F 
ATOM     11  F3  UNL d   1      -2.400  -0.917   3.632  0.00  0.00    -0.097 F 
ATOM     12  F4  UNL d   1      -4.030   0.084   1.686  0.00  0.00    -0.092 F 
ENDROOT
TORSDOF 0
ENDMDL
