MODEL 1
REMARK minimizedAffinity -4.48212814
REMARK minimizedRMSD -1
REMARK  0 active torsions:
REMARK  status: ('A' for Active; 'I' for Inactive)
ROOT
ATOM      1  C   UNL d   1      -1.488  -0.538   2.823  0.00  0.00     0.124 A 
ATOM      2  C1  UNL d   1      -0.138  -0.671   2.527  0.00  0.00     0.062 A 
ATOM      3  C2  UNL d   1       0.333  -0.362   1.254  0.00  0.00     0.162 A 
ATOM      4  C3  UNL d   1      -0.546   0.084   0.268  0.00  0.00    -0.034 A 
ATOM      5  C4  UNL d   1      -1.902   0.214   0.573  0.00  0.00     0.162 A 
ATOM      6  C5  UNL d   1      -2.368  -0.096   1.846  0.00  0.00     0.062 A 
ATOM      7  F   UNL d   1      -3.673   0.034   2.130  0.00  0.00    -0.097 F 
ATOM      8  F1  UNL d   1      -2.775   0.640  -0.352  0.00  0.00    -0.096 F 
ATOM      9  I   UNL d   1       0.154   0.546  -1.637  0.00  0.00    -0.060 I 
ATOM     10  F2  UNL d   1       1.642  -0.500   0.996  0.00  0.00    -0.096 F 
ATOM     11  F3  UNL d   1       0.714  -1.099   3.469  0.00  0.00    -0.097 F 
ATOM     12  F4  UNL d   1      -1.939  -0.837   4.049  0.00  0.00    -0.092 F 
ENDROOT
TORSDOF 0
ENDMDL
