MODEL 1
REMARK minimizedAffinity -5.7863884
REMARK minimizedRMSD -1
REMARK  0 active torsions:
REMARK  status: ('A' for Active; 'I' for Inactive)
ROOT
ATOM      1  C   UNL d   1      -2.126  -0.262   2.571  0.00  0.00     0.124 A 
ATOM      2  C1  UNL d   1      -2.671   0.202   1.381  0.00  0.00     0.062 A 
ATOM      3  C2  UNL d   1      -1.870   0.341   0.252  0.00  0.00     0.162 A 
ATOM      4  C3  UNL d   1      -0.515   0.014   0.305  0.00  0.00    -0.034 A 
ATOM      5  C4  UNL d   1       0.026  -0.451   1.505  0.00  0.00     0.162 A 
ATOM      6  C5  UNL d   1      -0.779  -0.588   2.631  0.00  0.00     0.062 A 
ATOM      7  F   UNL d   1      -0.251  -1.036   3.780  0.00  0.00    -0.097 F 
ATOM      8  F1  UNL d   1       1.325  -0.774   1.591  0.00  0.00    -0.096 F 
ATOM      9  I   UNL d   1       0.686   0.220  -1.382  0.00  0.00    -0.060 I 
ATOM     10  F2  UNL d   1      -2.424   0.791  -0.884  0.00  0.00    -0.096 F 
ATOM     11  F3  UNL d   1      -3.973   0.519   1.320  0.00  0.00    -0.097 F 
ATOM     12  F4  UNL d   1      -2.899  -0.393   3.657  0.00  0.00    -0.092 F 
ENDROOT
TORSDOF 0
ENDMDL
