MODEL 1
REMARK minimizedAffinity 1.9616363
REMARK minimizedRMSD -1
REMARK  0 active torsions:
REMARK  status: ('A' for Active; 'I' for Inactive)
ROOT
ATOM      1  C   UNL d   1      -2.111   0.859   0.373  0.00  0.00     0.124 A 
ATOM      2  C1  UNL d   1      -1.786   0.726   1.715  0.00  0.00     0.062 A 
ATOM      3  C2  UNL d   1      -0.462   0.530   2.099  0.00  0.00     0.162 A 
ATOM      4  C3  UNL d   1       0.547   0.467   1.137  0.00  0.00    -0.034 A 
ATOM      5  C4  UNL d   1       0.212   0.601  -0.211  0.00  0.00     0.162 A 
ATOM      6  C5  UNL d   1      -1.113   0.797  -0.589  0.00  0.00     0.062 A 
ATOM      7  F   UNL d   1      -1.425   0.925  -1.887  0.00  0.00    -0.097 F 
ATOM      8  F1  UNL d   1       1.157   0.545  -1.161  0.00  0.00    -0.096 F 
ATOM      9  I   UNL d   1       2.527   0.174   1.706  0.00  0.00    -0.060 I 
ATOM     10  F2  UNL d   1      -0.176   0.404   3.403  0.00  0.00    -0.096 F 
ATOM     11  F3  UNL d   1      -2.749   0.785   2.646  0.00  0.00    -0.097 F 
ATOM     12  F4  UNL d   1      -3.386   1.047   0.007  0.00  0.00    -0.092 F 
ENDROOT
TORSDOF 0
ENDMDL
