MODEL 1
REMARK minimizedAffinity -2.23263526
REMARK minimizedRMSD -1
REMARK  2 active torsions:
REMARK  status: ('A' for Active; 'I' for Inactive)
REMARK    1  A    between atoms: C1_2  and  C2_3 
REMARK    2  A    between atoms: C2_3  and  C3_4 
ROOT
ATOM      1  C3  UNL d   1       0.704   0.380   0.699  0.00  0.00    -0.075 A 
ATOM      2  C4  UNL d   1       0.624   0.196  -0.689  0.00  0.00     0.002 A 
ATOM      3  C5  UNL d   1      -0.379   0.822  -1.430  0.00  0.00     0.002 A 
ATOM      4  C6  UNL d   1      -1.318   1.630  -0.794  0.00  0.00    -0.004 A 
ATOM      5  C7  UNL d   1      -1.259   1.806   0.587  0.00  0.00     0.002 A 
ATOM      6  C8  UNL d   1      -0.254   1.185   1.330  0.00  0.00     0.002 A 
ENDROOT
BRANCH   1   7
ATOM      7  C2  UNL d   1       1.804  -0.270   1.502  0.00  0.00     0.056 C 
BRANCH   7   8
ATOM      8  C1  UNL d   1       3.061  -0.597   0.689  0.00  0.00     0.007 C 
ATOM      9  C   UNL d   1       4.353  -0.384   1.467  0.00  0.00     0.009 C 
ENDBRANCH   7   8
ENDBRANCH   1   7
TORSDOF 2
ENDMDL
