MODEL 1
REMARK minimizedAffinity -1.91879046
REMARK minimizedRMSD -1
REMARK  2 active torsions:
REMARK  status: ('A' for Active; 'I' for Inactive)
REMARK    1  A    between atoms: C1_2  and  C2_3 
REMARK    2  A    between atoms: C2_3  and  C3_4 
ROOT
ATOM      1  C3  UNL d   1       2.061  -0.610   0.635  0.00  0.00    -0.075 A 
ATOM      2  C4  UNL d   1       1.386  -0.320  -0.559  0.00  0.00     0.002 A 
ATOM      3  C5  UNL d   1       0.151   0.329  -0.536  0.00  0.00     0.002 A 
ATOM      4  C6  UNL d   1      -0.427   0.688   0.680  0.00  0.00    -0.004 A 
ATOM      5  C7  UNL d   1       0.227   0.391   1.873  0.00  0.00     0.002 A 
ATOM      6  C8  UNL d   1       1.464  -0.255   1.853  0.00  0.00     0.002 A 
ENDROOT
BRANCH   1   7
ATOM      7  C2  UNL d   1       3.411  -1.286   0.615  0.00  0.00     0.056 C 
BRANCH   7   8
ATOM      8  C1  UNL d   1       4.419  -0.695   1.606  0.00  0.00     0.007 C 
ATOM      9  C   UNL d   1       4.646  -1.575   2.828  0.00  0.00     0.009 C 
ENDBRANCH   7   8
ENDBRANCH   1   7
TORSDOF 2
ENDMDL
