MODEL 1
REMARK minimizedAffinity -4.46746206
REMARK minimizedRMSD -1
REMARK  2 active torsions:
REMARK  status: ('A' for Active; 'I' for Inactive)
REMARK    1  A    between atoms: C1_2  and  C2_3 
REMARK    2  A    between atoms: C2_3  and  C3_4 
ROOT
ATOM      1  C3  UNL d   1      -0.311   0.821   0.145  0.00  0.00    -0.075 A 
ATOM      2  C4  UNL d   1      -0.287   1.568  -1.042  0.00  0.00     0.002 A 
ATOM      3  C5  UNL d   1      -0.734   2.889  -1.056  0.00  0.00     0.002 A 
ATOM      4  C6  UNL d   1      -1.218   3.477   0.110  0.00  0.00    -0.004 A 
ATOM      5  C7  UNL d   1      -1.261   2.739   1.291  0.00  0.00     0.002 A 
ATOM      6  C8  UNL d   1      -0.811   1.418   1.309  0.00  0.00     0.002 A 
ENDROOT
BRANCH   1   7
ATOM      7  C2  UNL d   1       0.198  -0.601   0.173  0.00  0.00     0.056 C 
BRANCH   7   8
ATOM      8  C1  UNL d   1      -0.271  -1.455  -1.009  0.00  0.00     0.007 C 
ATOM      9  C   UNL d   1      -0.144  -2.951  -0.757  0.00  0.00     0.009 C 
ENDBRANCH   7   8
ENDBRANCH   1   7
TORSDOF 2
ENDMDL
