MODEL 1
REMARK minimizedAffinity -2.54859686
REMARK minimizedRMSD -1
REMARK  2 active torsions:
REMARK  status: ('A' for Active; 'I' for Inactive)
REMARK    1  A    between atoms: C1_2  and  C2_3 
REMARK    2  A    between atoms: C2_3  and  C3_4 
ROOT
ATOM      1  C3  UNL d   1      -0.204   2.823   0.830  0.00  0.00    -0.075 A 
ATOM      2  C4  UNL d   1       0.702   1.754   0.891  0.00  0.00     0.002 A 
ATOM      3  C5  UNL d   1       0.618   0.702  -0.022  0.00  0.00     0.002 A 
ATOM      4  C6  UNL d   1      -0.376   0.700  -0.998  0.00  0.00    -0.004 A 
ATOM      5  C7  UNL d   1      -1.292   1.748  -1.057  0.00  0.00     0.002 A 
ATOM      6  C8  UNL d   1      -1.208   2.804  -0.148  0.00  0.00     0.002 A 
ENDROOT
BRANCH   1   7
ATOM      7  C2  UNL d   1      -0.101   3.979   1.796  0.00  0.00     0.056 C 
BRANCH   7   8
ATOM      8  C1  UNL d   1       1.323   4.250   2.294  0.00  0.00     0.007 C 
ATOM      9  C   UNL d   1       1.923   5.530   1.729  0.00  0.00     0.009 C 
ENDBRANCH   7   8
ENDBRANCH   1   7
TORSDOF 2
ENDMDL
