MODEL 1
REMARK minimizedAffinity 5.99639034
REMARK minimizedRMSD -1
REMARK  1 active torsions:
REMARK  status: ('A' for Active; 'I' for Inactive)
REMARK    1  A    between atoms: C1_2  and  C2_3 
ROOT
ATOM      1  C2  UNL d   1       3.630   4.824  -5.354  0.00  0.00    -0.077 A 
ATOM      2  C3  UNL d   1       2.965   5.978  -5.792  0.00  0.00     0.002 A 
ATOM      3  C4  UNL d   1       1.578   5.975  -5.955  0.00  0.00     0.002 A 
ATOM      4  C5  UNL d   1       0.845   4.823  -5.679  0.00  0.00    -0.004 A 
ATOM      5  C6  UNL d   1       1.497   3.670  -5.245  0.00  0.00     0.002 A 
ATOM      6  C7  UNL d   1       2.883   3.670  -5.082  0.00  0.00     0.002 A 
ENDROOT
BRANCH   1   7
ATOM      7  C1  UNL d   1       5.119   4.839  -5.130  0.00  0.00     0.055 C 
ATOM      8  C   UNL d   1       5.796   5.901  -5.985  0.00  0.00     0.019 C 
ENDBRANCH   1   7
TORSDOF 1
ENDMDL
