MODEL 1
REMARK minimizedAffinity 2.84493327
REMARK minimizedRMSD -1
REMARK  1 active torsions:
REMARK  status: ('A' for Active; 'I' for Inactive)
REMARK    1  A    between atoms: C1_2  and  C2_3 
ROOT
ATOM      1  C2  UNL d   1       1.801  -1.676   2.155  0.00  0.00    -0.077 A 
ATOM      2  C3  UNL d   1       1.498  -1.845   0.797  0.00  0.00     0.002 A 
ATOM      3  C4  UNL d   1       2.184  -2.791   0.032  0.00  0.00     0.002 A 
ATOM      4  C5  UNL d   1       3.174  -3.577   0.617  0.00  0.00    -0.004 A 
ATOM      5  C6  UNL d   1       3.484  -3.415   1.967  0.00  0.00     0.002 A 
ATOM      6  C7  UNL d   1       2.801  -2.470   2.733  0.00  0.00     0.002 A 
ENDROOT
BRANCH   1   7
ATOM      7  C1  UNL d   1       1.029  -0.692   2.993  0.00  0.00     0.055 C 
ATOM      8  C   UNL d   1      -0.449  -1.051   3.049  0.00  0.00     0.019 C 
ENDBRANCH   1   7
TORSDOF 1
ENDMDL
