MODEL 1
REMARK minimizedAffinity 4.22994757
REMARK minimizedRMSD -1
REMARK  1 active torsions:
REMARK  status: ('A' for Active; 'I' for Inactive)
REMARK    1  A    between atoms: C1_2  and  C2_3 
ROOT
ATOM      1  C2  UNL d   1      -0.495   1.813   2.362  0.00  0.00    -0.077 A 
ATOM      2  C3  UNL d   1       0.862   1.812   2.716  0.00  0.00     0.002 A 
ATOM      3  C4  UNL d   1       1.660   2.928   2.458  0.00  0.00     0.002 A 
ATOM      4  C5  UNL d   1       1.111   4.054   1.849  0.00  0.00    -0.004 A 
ATOM      5  C6  UNL d   1      -0.237   4.064   1.490  0.00  0.00     0.002 A 
ATOM      6  C7  UNL d   1      -1.036   2.949   1.746  0.00  0.00     0.002 A 
ENDROOT
BRANCH   1   7
ATOM      7  C1  UNL d   1      -1.369   0.629   2.684  0.00  0.00     0.055 C 
ATOM      8  C   UNL d   1      -0.568  -0.665   2.691  0.00  0.00     0.019 C 
ENDBRANCH   1   7
TORSDOF 1
ENDMDL
