MODEL 1
REMARK minimizedAffinity 9.30698586
REMARK minimizedRMSD -1
REMARK  1 active torsions:
REMARK  status: ('A' for Active; 'I' for Inactive)
REMARK    1  A    between atoms: C1_2  and  C2_3 
ROOT
ATOM      1  C2  UNL d   1       4.853  -4.193   0.183  0.00  0.00    -0.077 A 
ATOM      2  C3  UNL d   1       3.531  -4.623   0.000  0.00  0.00     0.002 A 
ATOM      3  C4  UNL d   1       2.467  -3.860   0.485  0.00  0.00     0.002 A 
ATOM      4  C5  UNL d   1       2.713  -2.662   1.151  0.00  0.00    -0.004 A 
ATOM      5  C6  UNL d   1       4.024  -2.226   1.340  0.00  0.00     0.002 A 
ATOM      6  C7  UNL d   1       5.089  -2.988   0.858  0.00  0.00     0.002 A 
ENDROOT
BRANCH   1   7
ATOM      7  C1  UNL d   1       6.000  -4.989  -0.382  0.00  0.00     0.055 C 
ATOM      8  C   UNL d   1       5.518  -6.000  -1.412  0.00  0.00     0.019 C 
ENDBRANCH   1   7
TORSDOF 1
ENDMDL
