MODEL 1
REMARK minimizedAffinity 10.9334488
REMARK minimizedRMSD -1
REMARK  1 active torsions:
REMARK  status: ('A' for Active; 'I' for Inactive)
REMARK    1  A    between atoms: C1_2  and  C2_3 
ROOT
ATOM      1  C2  UNL d   1       3.909  -3.994   2.302  0.00  0.00    -0.077 A 
ATOM      2  C3  UNL d   1       4.770  -4.134   1.204  0.00  0.00     0.002 A 
ATOM      3  C4  UNL d   1       4.391  -3.664  -0.055  0.00  0.00     0.002 A 
ATOM      4  C5  UNL d   1       3.154  -3.048  -0.227  0.00  0.00    -0.004 A 
ATOM      5  C6  UNL d   1       2.289  -2.906   0.858  0.00  0.00     0.002 A 
ATOM      6  C7  UNL d   1       2.666  -3.376   2.117  0.00  0.00     0.002 A 
ENDROOT
BRANCH   1   7
ATOM      7  C1  UNL d   1       4.336  -4.456   3.670  0.00  0.00     0.055 C 
ATOM      8  C   UNL d   1       4.537  -3.279   4.614  0.00  0.00     0.019 C 
ENDBRANCH   1   7
TORSDOF 1
ENDMDL
