MODEL 1
REMARK minimizedAffinity 8.33348083
REMARK minimizedRMSD -1
REMARK  1 active torsions:
REMARK  status: ('A' for Active; 'I' for Inactive)
REMARK    1  A    between atoms: C1_2  and  C2_3 
ROOT
ATOM      1  C2  UNL d   1       2.976  -2.665   2.137  0.00  0.00    -0.077 A 
ATOM      2  C3  UNL d   1       2.806  -2.644   0.745  0.00  0.00     0.002 A 
ATOM      3  C4  UNL d   1       1.763  -1.914   0.172  0.00  0.00     0.002 A 
ATOM      4  C5  UNL d   1       0.885  -1.197   0.982  0.00  0.00    -0.004 A 
ATOM      5  C6  UNL d   1       1.045  -1.213   2.367  0.00  0.00     0.002 A 
ATOM      6  C7  UNL d   1       2.086  -1.943   2.942  0.00  0.00     0.002 A 
ENDROOT
BRANCH   1   7
ATOM      7  C1  UNL d   1       4.130  -3.411   2.753  0.00  0.00     0.055 C 
ATOM      8  C   UNL d   1       4.488  -2.846   4.120  0.00  0.00     0.019 C 
ENDBRANCH   1   7
TORSDOF 1
ENDMDL
