MODEL 1
REMARK minimizedAffinity 6.40778589
REMARK minimizedRMSD -1
REMARK  1 active torsions:
REMARK  status: ('A' for Active; 'I' for Inactive)
REMARK    1  A    between atoms: C1_2  and  C2_3 
ROOT
ATOM      1  C2  UNL d   1       3.677  -2.465   1.200  0.00  0.00    -0.077 A 
ATOM      2  C3  UNL d   1       3.449  -3.792   0.812  0.00  0.00     0.002 A 
ATOM      3  C4  UNL d   1       2.162  -4.222   0.485  0.00  0.00     0.002 A 
ATOM      4  C5  UNL d   1       1.093  -3.329   0.540  0.00  0.00    -0.004 A 
ATOM      5  C6  UNL d   1       1.309  -2.007   0.927  0.00  0.00     0.002 A 
ATOM      6  C7  UNL d   1       2.595  -1.577   1.255  0.00  0.00     0.002 A 
ENDROOT
BRANCH   1   7
ATOM      7  C1  UNL d   1       5.073  -1.987   1.504  0.00  0.00     0.055 C 
ATOM      8  C   UNL d   1       6.000  -2.191   0.315  0.00  0.00     0.019 C 
ENDBRANCH   1   7
TORSDOF 1
ENDMDL
