MODEL 1
REMARK minimizedAffinity -4.25022364
REMARK minimizedRMSD -1
REMARK  0 active torsions:
REMARK  status: ('A' for Active; 'I' for Inactive)
ROOT
ATOM      1  C   UNL d   1       1.050   0.791   2.221  0.00  0.00     0.023 A 
ATOM      2  C1  UNL d   1       1.249   0.461   0.881  0.00  0.00     0.003 A 
ATOM      3  C2  UNL d   1       0.183  -0.009   0.111  0.00  0.00     0.048 A 
ATOM      4  C3  UNL d   1      -1.080  -0.144   0.688  0.00  0.00     0.023 A 
ATOM      5  C4  UNL d   1      -1.283   0.187   2.028  0.00  0.00     0.048 A 
ATOM      6  C5  UNL d   1      -0.214   0.654   2.794  0.00  0.00     0.003 A 
ATOM      7  I   UNL d   1      -2.668  -0.842  -0.457  0.00  0.00    -0.146 I 
ENDROOT
TORSDOF 0
ENDMDL
