MODEL 1
REMARK minimizedAffinity -1.02784264
REMARK minimizedRMSD -1
REMARK  0 active torsions:
REMARK  status: ('A' for Active; 'I' for Inactive)
ROOT
ATOM      1  C   UNL d   1      -0.086   1.161   3.187  0.00  0.00     0.023 A 
ATOM      2  C1  UNL d   1       1.020   0.723   2.458  0.00  0.00     0.003 A 
ATOM      3  C2  UNL d   1       0.848   0.197   1.176  0.00  0.00     0.048 A 
ATOM      4  C3  UNL d   1      -0.431   0.112   0.629  0.00  0.00     0.023 A 
ATOM      5  C4  UNL d   1      -1.541   0.550   1.354  0.00  0.00     0.048 A 
ATOM      6  C5  UNL d   1      -1.365   1.074   2.636  0.00  0.00     0.003 A 
ATOM      7  I   UNL d   1      -0.689  -0.670  -1.280  0.00  0.00    -0.146 I 
ENDROOT
TORSDOF 0
ENDMDL
