MODEL 1
REMARK minimizedAffinity 1.89920366
REMARK minimizedRMSD -1
REMARK  0 active torsions:
REMARK  status: ('A' for Active; 'I' for Inactive)
ROOT
ATOM      1  C   UNL d   1      -3.094  -0.384  -0.711  0.00  0.00     0.023 A 
ATOM      2  C1  UNL d   1      -1.995  -0.942  -1.365  0.00  0.00     0.003 A 
ATOM      3  C2  UNL d   1      -0.741  -0.940  -0.751  0.00  0.00     0.048 A 
ATOM      4  C3  UNL d   1      -0.593  -0.379   0.517  0.00  0.00     0.023 A 
ATOM      5  C4  UNL d   1      -1.690   0.179   1.175  0.00  0.00     0.048 A 
ATOM      6  C5  UNL d   1      -2.942   0.176   0.557  0.00  0.00     0.003 A 
ATOM      7  I   UNL d   1       1.273  -0.375   1.433  0.00  0.00    -0.146 I 
ENDROOT
TORSDOF 0
ENDMDL
