MODEL 1
REMARK minimizedAffinity 8.59591007
REMARK minimizedRMSD -1
REMARK  0 active torsions:
REMARK  status: ('A' for Active; 'I' for Inactive)
ROOT
ATOM      1  C   UNL d   1      -0.759  -0.530   2.532  0.00  0.00     0.023 A 
ATOM      2  C1  UNL d   1       0.292  -1.448   2.543  0.00  0.00     0.003 A 
ATOM      3  C2  UNL d   1       1.580  -1.034   2.887  0.00  0.00     0.048 A 
ATOM      4  C3  UNL d   1       1.810   0.301   3.220  0.00  0.00     0.023 A 
ATOM      5  C4  UNL d   1       0.763   1.223   3.212  0.00  0.00     0.048 A 
ATOM      6  C5  UNL d   1      -0.523   0.804   2.866  0.00  0.00     0.003 A 
ATOM      7  I   UNL d   1       3.727   0.920   3.734  0.00  0.00    -0.146 I 
ENDROOT
TORSDOF 0
ENDMDL
