MODEL 1
REMARK minimizedAffinity -2.24466705
REMARK minimizedRMSD -1
REMARK  0 active torsions:
REMARK  status: ('A' for Active; 'I' for Inactive)
ROOT
ATOM      1  C   UNL d   1      -2.131  -0.335  -0.197  0.00  0.00     0.023 A 
ATOM      2  C1  UNL d   1      -1.261   0.266   0.713  0.00  0.00     0.003 A 
ATOM      3  C2  UNL d   1       0.096  -0.064   0.705  0.00  0.00     0.048 A 
ATOM      4  C3  UNL d   1       0.577  -0.993  -0.216  0.00  0.00     0.023 A 
ATOM      5  C4  UNL d   1      -0.290  -1.596  -1.129  0.00  0.00     0.048 A 
ATOM      6  C5  UNL d   1      -1.646  -1.264  -1.117  0.00  0.00     0.003 A 
ATOM      7  I   UNL d   1       2.596  -1.484  -0.230  0.00  0.00    -0.146 I 
ENDROOT
TORSDOF 0
ENDMDL
