MODEL 1
REMARK minimizedAffinity 3.01887989
REMARK minimizedRMSD -1
REMARK  0 active torsions:
REMARK  status: ('A' for Active; 'I' for Inactive)
ROOT
ATOM      1  C   UNL d   1       0.364  -5.130  -5.321  0.00  0.00     0.023 A 
ATOM      2  C1  UNL d   1       0.785  -5.673  -4.107  0.00  0.00     0.003 A 
ATOM      3  C2  UNL d   1       0.799  -4.883  -2.955  0.00  0.00     0.048 A 
ATOM      4  C3  UNL d   1       0.389  -3.552  -3.024  0.00  0.00     0.023 A 
ATOM      5  C4  UNL d   1      -0.034  -3.005  -4.237  0.00  0.00     0.048 A 
ATOM      6  C5  UNL d   1      -0.045  -3.798  -5.386  0.00  0.00     0.003 A 
ATOM      7  I   UNL d   1       0.408  -2.376  -1.311  0.00  0.00    -0.146 I 
ENDROOT
TORSDOF 0
ENDMDL
