MODEL 1
REMARK minimizedAffinity 2.70297694
REMARK minimizedRMSD -1
REMARK  0 active torsions:
REMARK  status: ('A' for Active; 'I' for Inactive)
ROOT
ATOM      1  C   UNL d   1      -2.910  -0.957   3.717  0.00  0.00     0.023 A 
ATOM      2  C1  UNL d   1      -1.779  -1.757   3.879  0.00  0.00     0.003 A 
ATOM      3  C2  UNL d   1      -0.568  -1.385   3.291  0.00  0.00     0.048 A 
ATOM      4  C3  UNL d   1      -0.495  -0.210   2.544  0.00  0.00     0.023 A 
ATOM      5  C4  UNL d   1      -1.624   0.594   2.379  0.00  0.00     0.048 A 
ATOM      6  C5  UNL d   1      -2.832   0.218   2.968  0.00  0.00     0.003 A 
ATOM      7  I   UNL d   1       1.306   0.346   1.668  0.00  0.00    -0.146 I 
ENDROOT
TORSDOF 0
ENDMDL
