MODEL 1
REMARK minimizedAffinity 6.7992115
REMARK minimizedRMSD -1
REMARK  0 active torsions:
REMARK  status: ('A' for Active; 'I' for Inactive)
ROOT
ATOM      1  C   UNL d   1       5.212   4.540   4.196  0.00  0.00     0.023 A 
ATOM      2  C1  UNL d   1       4.685   5.439   3.269  0.00  0.00     0.003 A 
ATOM      3  C2  UNL d   1       3.803   4.990   2.283  0.00  0.00     0.048 A 
ATOM      4  C3  UNL d   1       3.452   3.641   2.232  0.00  0.00     0.023 A 
ATOM      5  C4  UNL d   1       3.976   2.739   3.159  0.00  0.00     0.048 A 
ATOM      6  C5  UNL d   1       4.858   3.192   4.142  0.00  0.00     0.003 A 
ATOM      7  I   UNL d   1       2.140   2.970   0.767  0.00  0.00    -0.146 I 
ENDROOT
TORSDOF 0
ENDMDL
