MODEL 1
REMARK minimizedAffinity 0.749183893
REMARK minimizedRMSD -1
REMARK  1 active torsions:
REMARK  status: ('A' for Active; 'I' for Inactive)
REMARK    1  A    between atoms: C1_2  and  C2_3 
ROOT
ATOM      1  C2  UNL d   1      -1.382  -2.220  -1.948  0.00  0.00    -0.081 A 
ATOM      2  C3  UNL d   1      -0.606  -1.384  -1.135  0.00  0.00     0.006 A 
ATOM      3  C4  UNL d   1       0.228  -0.419  -1.703  0.00  0.00     0.002 A 
ATOM      4  C5  UNL d   1       0.296  -0.268  -3.093  0.00  0.00    -0.080 A 
ATOM      5  C6  UNL d   1       1.165   0.784  -3.715  0.00  0.00     0.076 C 
ATOM      6  C7  UNL d   1      -0.465  -1.115  -3.905  0.00  0.00     0.002 A 
ATOM      7  C8  UNL d   1      -1.300  -2.080  -3.337  0.00  0.00     0.006 A 
ENDROOT
BRANCH   1   8
ATOM      8  C1  UNL d   1      -2.331  -3.217  -1.336  0.00  0.00     0.054 C 
ATOM      9  C   UNL d   1      -3.757  -2.992  -1.818  0.00  0.00     0.018 C 
ENDBRANCH   1   8
TORSDOF 1
ENDMDL
