MODEL 1
REMARK minimizedAffinity -2.65782833
REMARK minimizedRMSD -1
REMARK  1 active torsions:
REMARK  status: ('A' for Active; 'I' for Inactive)
REMARK    1  A    between atoms: C1_2  and  C2_3 
ROOT
ATOM      1  C2  UNL d   1      -0.543  -0.979  -0.552  0.00  0.00    -0.081 A 
ATOM      2  C3  UNL d   1       0.717  -0.533  -0.135  0.00  0.00     0.006 A 
ATOM      3  C4  UNL d   1       0.831   0.405   0.893  0.00  0.00     0.002 A 
ATOM      4  C5  UNL d   1      -0.311   0.906   1.527  0.00  0.00    -0.080 A 
ATOM      5  C6  UNL d   1      -0.200   1.890   2.654  0.00  0.00     0.076 C 
ATOM      6  C7  UNL d   1      -1.570   0.474   1.099  0.00  0.00     0.002 A 
ATOM      7  C8  UNL d   1      -1.685  -0.464   0.070  0.00  0.00     0.006 A 
ENDROOT
BRANCH   1   8
ATOM      8  C1  UNL d   1      -0.667  -2.038  -1.618  0.00  0.00     0.054 C 
ATOM      9  C   UNL d   1      -1.784  -3.020  -1.294  0.00  0.00     0.018 C 
ENDBRANCH   1   8
TORSDOF 1
ENDMDL
