MODEL 1
REMARK minimizedAffinity -1.6027633
REMARK minimizedRMSD -1
REMARK  1 active torsions:
REMARK  status: ('A' for Active; 'I' for Inactive)
REMARK    1  A    between atoms: C1_2  and  C2_3 
ROOT
ATOM      1  C2  UNL d   1      -0.993  -1.376  -1.125  0.00  0.00    -0.081 A 
ATOM      2  C3  UNL d   1       0.375  -1.081  -1.072  0.00  0.00     0.006 A 
ATOM      3  C4  UNL d   1       0.849  -0.070  -0.233  0.00  0.00     0.002 A 
ATOM      4  C5  UNL d   1      -0.035   0.658   0.571  0.00  0.00    -0.080 A 
ATOM      5  C6  UNL d   1       0.465   1.725   1.498  0.00  0.00     0.076 C 
ATOM      6  C7  UNL d   1      -1.403   0.375   0.505  0.00  0.00     0.002 A 
ATOM      7  C8  UNL d   1      -1.878  -0.636  -0.334  0.00  0.00     0.006 A 
ENDROOT
BRANCH   1   8
ATOM      8  C1  UNL d   1      -1.500  -2.509  -1.980  0.00  0.00     0.054 C 
ATOM      9  C   UNL d   1      -2.858  -3.000  -1.500  0.00  0.00     0.018 C 
ENDBRANCH   1   8
TORSDOF 1
ENDMDL
