MODEL 1
REMARK minimizedAffinity -3.80766535
REMARK minimizedRMSD -1
REMARK  1 active torsions:
REMARK  status: ('A' for Active; 'I' for Inactive)
REMARK    1  A    between atoms: C1_2  and  C2_3 
ROOT
ATOM      1  C2  UNL d   1       0.987   0.085  -0.278  0.00  0.00    -0.081 A 
ATOM      2  C3  UNL d   1      -0.405   0.232  -0.251  0.00  0.00     0.006 A 
ATOM      3  C4  UNL d   1      -1.031   0.860   0.828  0.00  0.00     0.002 A 
ATOM      4  C5  UNL d   1      -0.275   1.358   1.895  0.00  0.00    -0.080 A 
ATOM      5  C6  UNL d   1      -0.931   2.061   3.045  0.00  0.00     0.076 C 
ATOM      6  C7  UNL d   1       1.115   1.196   1.877  0.00  0.00     0.002 A 
ATOM      7  C8  UNL d   1       1.740   0.568   0.798  0.00  0.00     0.006 A 
ENDROOT
BRANCH   1   8
ATOM      8  C1  UNL d   1       1.670  -0.534  -1.471  0.00  0.00     0.054 C 
ATOM      9  C   UNL d   1       1.673   0.415  -2.661  0.00  0.00     0.018 C 
ENDBRANCH   1   8
TORSDOF 1
ENDMDL
