MODEL 1
REMARK minimizedAffinity -0.348793954
REMARK minimizedRMSD -1
REMARK  1 active torsions:
REMARK  status: ('A' for Active; 'I' for Inactive)
REMARK    1  A    between atoms: C1_2  and  C2_3 
ROOT
ATOM      1  C2  UNL d   1       1.505   0.903  -4.224  0.00  0.00    -0.081 A 
ATOM      2  C3  UNL d   1       0.858  -0.099  -3.491  0.00  0.00     0.006 A 
ATOM      3  C4  UNL d   1      -0.310  -0.691  -3.978  0.00  0.00     0.002 A 
ATOM      4  C5  UNL d   1      -0.846  -0.297  -5.209  0.00  0.00    -0.080 A 
ATOM      5  C6  UNL d   1      -2.082  -0.945  -5.757  0.00  0.00     0.076 C 
ATOM      6  C7  UNL d   1      -0.210   0.717  -5.933  0.00  0.00     0.002 A 
ATOM      7  C8  UNL d   1       0.958   1.310  -5.446  0.00  0.00     0.006 A 
ENDROOT
BRANCH   1   8
ATOM      8  C1  UNL d   1       2.799   1.498  -3.733  0.00  0.00     0.054 C 
ATOM      9  C   UNL d   1       3.933   0.485  -3.797  0.00  0.00     0.018 C 
ENDBRANCH   1   8
TORSDOF 1
ENDMDL
