MODEL 1
REMARK minimizedAffinity -4.94628859
REMARK minimizedRMSD -1
REMARK  1 active torsions:
REMARK  status: ('A' for Active; 'I' for Inactive)
REMARK    1  A    between atoms: C1_2  and  C2_3 
ROOT
ATOM      1  C2  UNL d   1       0.066   0.291   2.220  0.00  0.00    -0.081 A 
ATOM      2  C3  UNL d   1       0.371  -0.572   3.280  0.00  0.00     0.006 A 
ATOM      3  C4  UNL d   1      -0.646  -1.260   3.948  0.00  0.00     0.002 A 
ATOM      4  C5  UNL d   1      -1.981  -1.103   3.561  0.00  0.00    -0.080 A 
ATOM      5  C6  UNL d   1      -3.079  -1.859   4.249  0.00  0.00     0.076 C 
ATOM      6  C7  UNL d   1      -2.287  -0.228   2.514  0.00  0.00     0.002 A 
ATOM      7  C8  UNL d   1      -1.271   0.461   1.847  0.00  0.00     0.006 A 
ENDROOT
BRANCH   1   8
ATOM      8  C1  UNL d   1       1.166   0.984   1.457  0.00  0.00     0.054 C 
ATOM      9  C   UNL d   1       1.185   0.550  -0.002  0.00  0.00     0.018 C 
ENDBRANCH   1   8
TORSDOF 1
ENDMDL
