MODEL 1
REMARK minimizedAffinity -2.84796
REMARK minimizedRMSD -1
REMARK  1 active torsions:
REMARK  status: ('A' for Active; 'I' for Inactive)
REMARK    1  A    between atoms: C1_2  and  C2_3 
ROOT
ATOM      1  C2  UNL d   1      -0.968  -1.432  -0.539  0.00  0.00    -0.081 A 
ATOM      2  C3  UNL d   1      -1.168  -2.591  -1.299  0.00  0.00     0.006 A 
ATOM      3  C4  UNL d   1      -2.453  -3.109  -1.477  0.00  0.00     0.002 A 
ATOM      4  C5  UNL d   1      -3.560  -2.472  -0.906  0.00  0.00    -0.080 A 
ATOM      5  C6  UNL d   1      -4.948  -3.000  -1.114  0.00  0.00     0.076 C 
ATOM      6  C7  UNL d   1      -3.359  -1.324  -0.133  0.00  0.00     0.002 A 
ATOM      7  C8  UNL d   1      -2.074  -0.806   0.046  0.00  0.00     0.006 A 
ENDROOT
BRANCH   1   8
ATOM      8  C1  UNL d   1       0.409  -0.835  -0.399  0.00  0.00     0.054 C 
ATOM      9  C   UNL d   1       0.523   0.002   0.866  0.00  0.00     0.018 C 
ENDBRANCH   1   8
TORSDOF 1
ENDMDL
