MODEL 1
REMARK minimizedAffinity -2.43847513
REMARK minimizedRMSD -1
REMARK  0 active torsions:
REMARK  status: ('A' for Active; 'I' for Inactive)
ROOT
ATOM      1  C   UNL d   1      -1.123   0.736  -1.518  0.00  0.00     0.077 C 
ATOM      2  C1  UNL d   1       0.019   0.846  -0.551  0.00  0.00    -0.074 A 
ATOM      3  C2  UNL d   1       0.505  -0.281   0.119  0.00  0.00    -0.005 A 
ATOM      4  C3  UNL d   1       1.573  -0.165   1.008  0.00  0.00     0.006 A 
ATOM      5  C4  UNL d   1       2.165   1.078   1.236  0.00  0.00    -0.005 A 
ATOM      6  C5  UNL d   1       1.694   2.216   0.574  0.00  0.00    -0.074 A 
ATOM      7  C6  UNL d   1       2.326   3.557   0.800  0.00  0.00     0.077 C 
ATOM      8  C7  UNL d   1       0.624   2.090  -0.323  0.00  0.00    -0.001 A 
ENDROOT
TORSDOF 0
ENDMDL
