MODEL 1
REMARK minimizedAffinity -5.27558851
REMARK minimizedRMSD -1
REMARK  0 active torsions:
REMARK  status: ('A' for Active; 'I' for Inactive)
ROOT
ATOM      1  C   UNL d   1       1.446   0.507   0.122  0.00  0.00     0.077 C 
ATOM      2  C1  UNL d   1       0.093  -0.110  -0.074  0.00  0.00    -0.074 A 
ATOM      3  C2  UNL d   1      -0.776   0.365  -1.062  0.00  0.00    -0.005 A 
ATOM      4  C3  UNL d   1      -2.028  -0.224  -1.239  0.00  0.00     0.006 A 
ATOM      5  C4  UNL d   1      -2.423  -1.292  -0.432  0.00  0.00    -0.005 A 
ATOM      6  C5  UNL d   1      -1.566  -1.781   0.560  0.00  0.00    -0.074 A 
ATOM      7  C6  UNL d   1      -1.971  -2.935   1.429  0.00  0.00     0.077 C 
ATOM      8  C7  UNL d   1      -0.307  -1.188   0.727  0.00  0.00    -0.001 A 
ENDROOT
TORSDOF 0
ENDMDL
