MODEL 1
REMARK minimizedAffinity -4.68082142
REMARK minimizedRMSD -1
REMARK  0 active torsions:
REMARK  status: ('A' for Active; 'I' for Inactive)
ROOT
ATOM      1  C   UNL d   1       1.649   0.377   0.116  0.00  0.00     0.077 C 
ATOM      2  C1  UNL d   1       0.273   0.006  -0.351  0.00  0.00    -0.074 A 
ATOM      3  C2  UNL d   1      -0.389   0.770  -1.317  0.00  0.00    -0.005 A 
ATOM      4  C3  UNL d   1      -1.665   0.408  -1.749  0.00  0.00     0.006 A 
ATOM      5  C4  UNL d   1      -2.291  -0.722  -1.219  0.00  0.00    -0.005 A 
ATOM      6  C5  UNL d   1      -1.644  -1.499  -0.254  0.00  0.00    -0.074 A 
ATOM      7  C6  UNL d   1      -2.298  -2.722   0.318  0.00  0.00     0.077 C 
ATOM      8  C7  UNL d   1      -0.359  -1.132   0.170  0.00  0.00    -0.001 A 
ENDROOT
TORSDOF 0
ENDMDL
