MODEL 1
REMARK minimizedAffinity -5.10100079
REMARK minimizedRMSD -1
REMARK  0 active torsions:
REMARK  status: ('A' for Active; 'I' for Inactive)
ROOT
ATOM      1  C   UNL d   1      -1.637  -2.968   1.064  0.00  0.00     0.077 C 
ATOM      2  C1  UNL d   1      -1.260  -1.703   0.352  0.00  0.00    -0.074 A 
ATOM      3  C2  UNL d   1      -2.094  -1.153  -0.627  0.00  0.00    -0.005 A 
ATOM      4  C3  UNL d   1      -1.735   0.029  -1.274  0.00  0.00     0.006 A 
ATOM      5  C4  UNL d   1      -0.540   0.672  -0.950  0.00  0.00    -0.005 A 
ATOM      6  C5  UNL d   1       0.307   0.138   0.027  0.00  0.00    -0.074 A 
ATOM      7  C6  UNL d   1       1.590   0.821   0.394  0.00  0.00     0.077 C 
ATOM      8  C7  UNL d   1      -0.065  -1.047   0.677  0.00  0.00    -0.001 A 
ENDROOT
TORSDOF 0
ENDMDL
