MODEL 1
REMARK minimizedAffinity -3.50457287
REMARK minimizedRMSD -1
REMARK  0 active torsions:
REMARK  status: ('A' for Active; 'I' for Inactive)
ROOT
ATOM      1  C   UNL d   1      -1.134   0.395  -1.226  0.00  0.00     0.077 C 
ATOM      2  C1  UNL d   1       0.055   0.310  -0.316  0.00  0.00    -0.074 A 
ATOM      3  C2  UNL d   1       0.562  -0.929   0.090  0.00  0.00    -0.005 A 
ATOM      4  C3  UNL d   1       1.675  -0.993   0.928  0.00  0.00     0.006 A 
ATOM      5  C4  UNL d   1       2.292   0.179   1.368  0.00  0.00    -0.005 A 
ATOM      6  C5  UNL d   1       1.799   1.427   0.972  0.00  0.00    -0.074 A 
ATOM      7  C6  UNL d   1       2.456   2.696   1.428  0.00  0.00     0.077 C 
ATOM      8  C7  UNL d   1       0.685   1.482   0.124  0.00  0.00    -0.001 A 
ENDROOT
TORSDOF 0
ENDMDL
