MODEL 1
REMARK minimizedAffinity -0.898226619
REMARK minimizedRMSD -1
REMARK  0 active torsions:
REMARK  status: ('A' for Active; 'I' for Inactive)
ROOT
ATOM      1  C   UNL d   1      -2.874  -2.575   0.188  0.00  0.00     0.077 C 
ATOM      2  C1  UNL d   1      -1.617  -1.756   0.149  0.00  0.00    -0.074 A 
ATOM      3  C2  UNL d   1      -0.666  -1.851   1.170  0.00  0.00    -0.005 A 
ATOM      4  C3  UNL d   1       0.502  -1.091   1.116  0.00  0.00     0.006 A 
ATOM      5  C4  UNL d   1       0.730  -0.230   0.042  0.00  0.00    -0.005 A 
ATOM      6  C5  UNL d   1      -0.209  -0.123  -0.989  0.00  0.00    -0.074 A 
ATOM      7  C6  UNL d   1       0.026   0.790  -2.156  0.00  0.00     0.077 C 
ATOM      8  C7  UNL d   1      -1.377  -0.895  -0.931  0.00  0.00    -0.001 A 
ENDROOT
TORSDOF 0
ENDMDL
