MODEL 1
REMARK minimizedAffinity -4.41561985
REMARK minimizedRMSD -1
REMARK  0 active torsions:
REMARK  status: ('A' for Active; 'I' for Inactive)
ROOT
ATOM      1  C   UNL d   1       1.250   0.590   0.449  0.00  0.00     0.077 C 
ATOM      2  C1  UNL d   1       0.032  -0.089  -0.105  0.00  0.00    -0.074 A 
ATOM      3  C2  UNL d   1      -0.630   0.425  -1.225  0.00  0.00    -0.005 A 
ATOM      4  C3  UNL d   1      -1.755  -0.222  -1.735  0.00  0.00     0.006 A 
ATOM      5  C4  UNL d   1      -2.229  -1.387  -1.131  0.00  0.00    -0.005 A 
ATOM      6  C5  UNL d   1      -1.580  -1.916  -0.011  0.00  0.00    -0.074 A 
ATOM      7  C6  UNL d   1      -2.071  -3.173   0.644  0.00  0.00     0.077 C 
ATOM      8  C7  UNL d   1      -0.445  -1.264   0.491  0.00  0.00    -0.001 A 
ENDROOT
TORSDOF 0
ENDMDL
