MODEL 1
REMARK minimizedAffinity -2.47727442
REMARK minimizedRMSD -1
REMARK  0 active torsions:
REMARK  status: ('A' for Active; 'I' for Inactive)
ROOT
ATOM      1  C   UNL d   1       3.810   3.994  -1.309  0.00  0.00     0.077 C 
ATOM      2  C1  UNL d   1       3.005   3.288  -0.257  0.00  0.00    -0.074 A 
ATOM      3  C2  UNL d   1       2.648   3.936   0.929  0.00  0.00    -0.005 A 
ATOM      4  C3  UNL d   1       1.892   3.270   1.894  0.00  0.00     0.006 A 
ATOM      5  C4  UNL d   1       1.486   1.952   1.682  0.00  0.00    -0.005 A 
ATOM      6  C5  UNL d   1       1.833   1.288   0.501  0.00  0.00    -0.074 A 
ATOM      7  C6  UNL d   1       1.397  -0.125   0.252  0.00  0.00     0.077 C 
ATOM      8  C7  UNL d   1       2.587   1.967  -0.467  0.00  0.00    -0.001 A 
ENDROOT
TORSDOF 0
ENDMDL
