MODEL 1
REMARK minimizedAffinity -3.02700186
REMARK minimizedRMSD -1
REMARK  0 active torsions:
REMARK  status: ('A' for Active; 'I' for Inactive)
ROOT
ATOM      1  C   UNL d   1      -0.882  -0.196  -0.765  0.00  0.00     0.077 C 
ATOM      2  C1  UNL d   1       0.257   0.569  -0.161  0.00  0.00    -0.074 A 
ATOM      3  C2  UNL d   1       1.579   0.145  -0.332  0.00  0.00    -0.005 A 
ATOM      4  C3  UNL d   1       2.629   0.872   0.228  0.00  0.00     0.006 A 
ATOM      5  C4  UNL d   1       2.369   2.029   0.963  0.00  0.00    -0.005 A 
ATOM      6  C5  UNL d   1       1.054   2.470   1.144  0.00  0.00    -0.074 A 
ATOM      7  C6  UNL d   1       0.758   3.717   1.923  0.00  0.00     0.077 C 
ATOM      8  C7  UNL d   1       0.005   1.737   0.572  0.00  0.00    -0.001 A 
ENDROOT
TORSDOF 0
ENDMDL
