MODEL 1
REMARK minimizedAffinity -3.75095248
REMARK minimizedRMSD -1
REMARK  0 active torsions:
REMARK  status: ('A' for Active; 'I' for Inactive)
ROOT
ATOM      1  C   UNL d   1      -3.413  -1.120  -0.729  0.00  0.00     0.077 C 
ATOM      2  C1  UNL d   1      -2.123  -1.148   0.035  0.00  0.00    -0.074 A 
ATOM      3  C2  UNL d   1      -1.898  -2.105   1.030  0.00  0.00    -0.005 A 
ATOM      4  C3  UNL d   1      -0.689  -2.125   1.726  0.00  0.00     0.006 A 
ATOM      5  C4  UNL d   1       0.305  -1.189   1.435  0.00  0.00    -0.005 A 
ATOM      6  C5  UNL d   1       0.098  -0.226   0.443  0.00  0.00    -0.074 A 
ATOM      7  C6  UNL d   1       1.159   0.780   0.111  0.00  0.00     0.077 C 
ATOM      8  C7  UNL d   1      -1.116  -0.217  -0.257  0.00  0.00    -0.001 A 
ENDROOT
TORSDOF 0
ENDMDL
