MODEL 1
REMARK minimizedAffinity -0.96917665
REMARK minimizedRMSD -1
REMARK  0 active torsions:
REMARK  status: ('A' for Active; 'I' for Inactive)
ROOT
ATOM      1  C   UNL d   1       1.560   0.624  -0.217  0.00  0.00     0.077 C 
ATOM      2  C1  UNL d   1       0.203   0.431  -0.826  0.00  0.00    -0.074 A 
ATOM      3  C2  UNL d   1      -0.774   1.428  -0.734  0.00  0.00    -0.005 A 
ATOM      4  C3  UNL d   1      -2.028   1.238  -1.314  0.00  0.00     0.006 A 
ATOM      5  C4  UNL d   1      -2.318   0.052  -1.990  0.00  0.00    -0.005 A 
ATOM      6  C5  UNL d   1      -1.353  -0.955  -2.093  0.00  0.00    -0.074 A 
ATOM      7  C6  UNL d   1      -1.645  -2.231  -2.824  0.00  0.00     0.077 C 
ATOM      8  C7  UNL d   1      -0.093  -0.754  -1.514  0.00  0.00    -0.001 A 
ENDROOT
TORSDOF 0
ENDMDL
