MODEL 1
REMARK minimizedAffinity -2.98916268
REMARK minimizedRMSD -1
REMARK  0 active torsions:
REMARK  status: ('A' for Active; 'I' for Inactive)
ROOT
ATOM      1  C   UNL d   1      -1.280   0.390  -1.176  0.00  0.00     0.077 C 
ATOM      2  C1  UNL d   1       0.050   0.773  -0.599  0.00  0.00    -0.074 A 
ATOM      3  C2  UNL d   1       1.216   0.096  -0.971  0.00  0.00    -0.005 A 
ATOM      4  C3  UNL d   1       2.448   0.469  -0.433  0.00  0.00     0.006 A 
ATOM      5  C4  UNL d   1       2.526   1.520   0.481  0.00  0.00    -0.005 A 
ATOM      6  C5  UNL d   1       1.370   2.209   0.865  0.00  0.00    -0.074 A 
ATOM      7  C6  UNL d   1       1.438   3.347   1.839  0.00  0.00     0.077 C 
ATOM      8  C7  UNL d   1       0.138   1.833   0.314  0.00  0.00    -0.001 A 
ENDROOT
TORSDOF 0
ENDMDL
