MODEL 1
REMARK minimizedAffinity -4.99279785
REMARK minimizedRMSD -1
REMARK  0 active torsions:
REMARK  status: ('A' for Active; 'I' for Inactive)
ROOT
ATOM      1  C   UNL d   1      -1.122  -3.143   1.716  0.00  0.00     0.077 C 
ATOM      2  C1  UNL d   1      -1.856  -2.219   0.790  0.00  0.00    -0.074 A 
ATOM      3  C2  UNL d   1      -3.209  -2.417   0.500  0.00  0.00    -0.005 A 
ATOM      4  C3  UNL d   1      -3.880  -1.543  -0.356  0.00  0.00     0.006 A 
ATOM      5  C4  UNL d   1      -3.205  -0.464  -0.928  0.00  0.00    -0.005 A 
ATOM      6  C5  UNL d   1      -1.852  -0.250  -0.649  0.00  0.00    -0.074 A 
ATOM      7  C6  UNL d   1      -1.114   0.910  -1.249  0.00  0.00     0.077 C 
ATOM      8  C7  UNL d   1      -1.187  -1.128   0.217  0.00  0.00    -0.001 A 
ENDROOT
TORSDOF 0
ENDMDL
