MODEL 1
REMARK minimizedAffinity -2.44232321
REMARK minimizedRMSD -1
REMARK  0 active torsions:
REMARK  status: ('A' for Active; 'I' for Inactive)
ROOT
ATOM      1  C   UNL d   1       0.888   0.765   0.346  0.00  0.00     0.077 C 
ATOM      2  C1  UNL d   1      -0.153  -0.276   0.059  0.00  0.00    -0.074 A 
ATOM      3  C2  UNL d   1      -1.024  -0.142  -1.026  0.00  0.00    -0.005 A 
ATOM      4  C3  UNL d   1      -1.980  -1.124  -1.286  0.00  0.00     0.006 A 
ATOM      5  C4  UNL d   1      -2.075  -2.248  -0.465  0.00  0.00    -0.005 A 
ATOM      6  C5  UNL d   1      -1.211  -2.400   0.625  0.00  0.00    -0.074 A 
ATOM      7  C6  UNL d   1      -1.293  -3.606   1.512  0.00  0.00     0.077 C 
ATOM      8  C7  UNL d   1      -0.248  -1.412   0.875  0.00  0.00    -0.001 A 
ENDROOT
TORSDOF 0
ENDMDL
