MODEL 1
REMARK minimizedAffinity -1.652758
REMARK minimizedRMSD -1
REMARK  0 active torsions:
REMARK  status: ('A' for Active; 'I' for Inactive)
ROOT
ATOM      1  C   UNL d   1      -1.767  -0.161  -1.026  0.00  0.00     0.077 C 
ATOM      2  C1  UNL d   1      -0.532  -0.188  -0.175  0.00  0.00    -0.074 A 
ATOM      3  C2  UNL d   1      -0.384  -1.130   0.848  0.00  0.00    -0.005 A 
ATOM      4  C3  UNL d   1       0.774  -1.148   1.625  0.00  0.00     0.006 A 
ATOM      5  C4  UNL d   1       1.795  -0.226   1.387  0.00  0.00    -0.005 A 
ATOM      6  C5  UNL d   1       1.665   0.723   0.368  0.00  0.00    -0.074 A 
ATOM      7  C6  UNL d   1       2.756   1.714   0.093  0.00  0.00     0.077 C 
ATOM      8  C7  UNL d   1       0.501   0.730  -0.413  0.00  0.00    -0.001 A 
ENDROOT
TORSDOF 0
ENDMDL
