MODEL 1
REMARK minimizedAffinity -4.79565668
REMARK minimizedRMSD -1
REMARK  0 active torsions:
REMARK  status: ('A' for Active; 'I' for Inactive)
ROOT
ATOM      1  C   UNL d   1      -2.047  -3.001   1.286  0.00  0.00     0.077 C 
ATOM      2  C1  UNL d   1      -1.601  -1.830   0.462  0.00  0.00    -0.074 A 
ATOM      3  C2  UNL d   1      -2.353  -1.395  -0.633  0.00  0.00    -0.005 A 
ATOM      4  C3  UNL d   1      -1.931  -0.298  -1.385  0.00  0.00     0.006 A 
ATOM      5  C4  UNL d   1      -0.754   0.372  -1.050  0.00  0.00    -0.005 A 
ATOM      6  C5  UNL d   1       0.011  -0.048   0.043  0.00  0.00    -0.074 A 
ATOM      7  C6  UNL d   1       1.273   0.667   0.423  0.00  0.00     0.077 C 
ATOM      8  C7  UNL d   1      -0.424  -1.147   0.797  0.00  0.00    -0.001 A 
ENDROOT
TORSDOF 0
ENDMDL
