MODEL 1
REMARK minimizedAffinity 5.45450449
REMARK minimizedRMSD -1
REMARK  0 active torsions:
REMARK  status: ('A' for Active; 'I' for Inactive)
ROOT
ATOM      1  C   UNL d   1       2.245   1.831  -0.009  0.00  0.00     0.124 A 
ATOM      2  C1  UNL d   1       3.203   1.777  -1.011  0.00  0.00     0.062 A 
ATOM      3  C2  UNL d   1       4.276   0.897  -0.907  0.00  0.00     0.162 A 
ATOM      4  C3  UNL d   1       4.396   0.061   0.203  0.00  0.00    -0.034 A 
ATOM      5  C4  UNL d   1       3.428   0.121   1.208  0.00  0.00     0.162 A 
ATOM      6  C5  UNL d   1       2.358   1.003   1.099  0.00  0.00     0.062 A 
ATOM      7  F   UNL d   1       1.432   1.053   2.069  0.00  0.00    -0.097 F 
ATOM      8  F1  UNL d   1       3.512  -0.668   2.289  0.00  0.00    -0.096 F 
ATOM      9  I   UNL d   1       5.998  -1.258   0.362  0.00  0.00    -0.060 I 
ATOM     10  F2  UNL d   1       5.188   0.866  -1.891  0.00  0.00    -0.096 F 
ATOM     11  F3  UNL d   1       3.097   2.577  -2.082  0.00  0.00    -0.097 F 
ATOM     12  F4  UNL d   1       1.214   2.680  -0.111  0.00  0.00    -0.092 F 
ENDROOT
TORSDOF 0
ENDMDL
