MODEL 1
REMARK minimizedAffinity 14.1344728
REMARK minimizedRMSD -1
REMARK  0 active torsions:
REMARK  status: ('A' for Active; 'I' for Inactive)
ROOT
ATOM      1  C   UNL d   1       4.687   0.619  -0.144  0.00  0.00     0.124 A 
ATOM      2  C1  UNL d   1       4.903  -0.272   0.898  0.00  0.00     0.062 A 
ATOM      3  C2  UNL d   1       3.989  -0.362   1.944  0.00  0.00     0.162 A 
ATOM      4  C3  UNL d   1       2.849   0.441   1.952  0.00  0.00    -0.034 A 
ATOM      5  C4  UNL d   1       2.638   1.336   0.902  0.00  0.00     0.162 A 
ATOM      6  C5  UNL d   1       3.555   1.422  -0.142  0.00  0.00     0.062 A 
ATOM      7  F   UNL d   1       3.344   2.283  -1.147  0.00  0.00    -0.097 F 
ATOM      8  F1  UNL d   1       1.553   2.123   0.879  0.00  0.00    -0.096 F 
ATOM      9  I   UNL d   1       1.480   0.311   3.515  0.00  0.00    -0.060 I 
ATOM     10  F2  UNL d   1       4.224  -1.232   2.937  0.00  0.00    -0.096 F 
ATOM     11  F3  UNL d   1       5.997  -1.049   0.898  0.00  0.00    -0.097 F 
ATOM     12  F4  UNL d   1       5.568   0.704  -1.149  0.00  0.00    -0.092 F 
ENDROOT
TORSDOF 0
ENDMDL
