MODEL 1
REMARK minimizedAffinity 15.3605709
REMARK minimizedRMSD -1
REMARK  0 active torsions:
REMARK  status: ('A' for Active; 'I' for Inactive)
ROOT
ATOM      1  C   UNL d   1       1.875   0.768   2.503  0.00  0.00     0.124 A 
ATOM      2  C1  UNL d   1       2.672  -0.080   3.260  0.00  0.00     0.062 A 
ATOM      3  C2  UNL d   1       3.850  -0.595   2.727  0.00  0.00     0.162 A 
ATOM      4  C3  UNL d   1       4.239  -0.263   1.429  0.00  0.00    -0.034 A 
ATOM      5  C4  UNL d   1       3.432   0.589   0.673  0.00  0.00     0.162 A 
ATOM      6  C5  UNL d   1       2.256   1.101   1.211  0.00  0.00     0.062 A 
ATOM      7  F   UNL d   1       1.487   1.920   0.478  0.00  0.00    -0.097 F 
ATOM      8  F1  UNL d   1       3.776   0.928  -0.578  0.00  0.00    -0.096 F 
ATOM      9  I   UNL d   1       6.000  -1.032   0.628  0.00  0.00    -0.060 I 
ATOM     10  F2  UNL d   1       4.601  -1.412   3.481  0.00  0.00    -0.096 F 
ATOM     11  F3  UNL d   1       2.306  -0.404   4.508  0.00  0.00    -0.097 F 
ATOM     12  F4  UNL d   1       0.742   1.261   3.018  0.00  0.00    -0.092 F 
ENDROOT
TORSDOF 0
ENDMDL
