MODEL 1
REMARK minimizedAffinity 23.1225357
REMARK minimizedRMSD -1
REMARK  0 active torsions:
REMARK  status: ('A' for Active; 'I' for Inactive)
ROOT
ATOM      1  C   UNL d   1       2.383  -0.751   3.617  0.00  0.00     0.124 A 
ATOM      2  C1  UNL d   1       3.702  -0.808   4.048  0.00  0.00     0.062 A 
ATOM      3  C2  UNL d   1       4.735  -0.932   3.124  0.00  0.00     0.162 A 
ATOM      4  C3  UNL d   1       4.455  -0.997   1.759  0.00  0.00    -0.034 A 
ATOM      5  C4  UNL d   1       3.127  -0.940   1.334  0.00  0.00     0.162 A 
ATOM      6  C5  UNL d   1       2.097  -0.816   2.261  0.00  0.00     0.062 A 
ATOM      7  F   UNL d   1       0.824  -0.761   1.843  0.00  0.00    -0.097 F 
ATOM      8  F1  UNL d   1       2.822  -1.000   0.029  0.00  0.00    -0.096 F 
ATOM      9  I   UNL d   1       5.998  -1.182   0.375  0.00  0.00    -0.060 I 
ATOM     10  F2  UNL d   1       6.000  -0.985   3.569  0.00  0.00    -0.096 F 
ATOM     11  F3  UNL d   1       3.981  -0.746   5.358  0.00  0.00    -0.097 F 
ATOM     12  F4  UNL d   1       1.391  -0.633   4.508  0.00  0.00    -0.092 F 
ENDROOT
TORSDOF 0
ENDMDL
