MODEL 1
REMARK minimizedAffinity 30.5360889
REMARK minimizedRMSD -1
REMARK  0 active torsions:
REMARK  status: ('A' for Active; 'I' for Inactive)
ROOT
ATOM      1  C   UNL d   1      -3.952  -2.994  -4.840  0.00  0.00     0.124 A 
ATOM      2  C1  UNL d   1      -2.573  -3.143  -4.771  0.00  0.00     0.062 A 
ATOM      3  C2  UNL d   1      -1.907  -2.934  -3.567  0.00  0.00     0.162 A 
ATOM      4  C3  UNL d   1      -2.618  -2.575  -2.422  0.00  0.00    -0.034 A 
ATOM      5  C4  UNL d   1      -4.004  -2.426  -2.500  0.00  0.00     0.162 A 
ATOM      6  C5  UNL d   1      -4.665  -2.636  -3.705  0.00  0.00     0.062 A 
ATOM      7  F   UNL d   1      -5.997  -2.492  -3.771  0.00  0.00    -0.097 F 
ATOM      8  F1  UNL d   1      -4.718  -2.081  -1.418  0.00  0.00    -0.096 F 
ATOM      9  I   UNL d   1      -1.625  -2.261  -0.620  0.00  0.00    -0.060 I 
ATOM     10  F2  UNL d   1      -0.574  -3.085  -3.529  0.00  0.00    -0.096 F 
ATOM     11  F3  UNL d   1      -1.882  -3.488  -5.866  0.00  0.00    -0.097 F 
ATOM     12  F4  UNL d   1      -4.590  -3.195  -6.000  0.00  0.00    -0.092 F 
ENDROOT
TORSDOF 0
ENDMDL
