MODEL 1
REMARK minimizedAffinity 25.7715244
REMARK minimizedRMSD -1
REMARK  0 active torsions:
REMARK  status: ('A' for Active; 'I' for Inactive)
ROOT
ATOM      1  C   UNL d   1       4.180   0.787  -0.704  0.00  0.00     0.124 A 
ATOM      2  C1  UNL d   1       4.517  -0.023   0.372  0.00  0.00     0.062 A 
ATOM      3  C2  UNL d   1       3.676  -0.103   1.478  0.00  0.00     0.162 A 
ATOM      4  C3  UNL d   1       2.488   0.628   1.514  0.00  0.00    -0.034 A 
ATOM      5  C4  UNL d   1       2.156   1.440   0.428  0.00  0.00     0.162 A 
ATOM      6  C5  UNL d   1       3.000   1.517  -0.675  0.00  0.00     0.062 A 
ATOM      7  F   UNL d   1       2.673   2.300  -1.713  0.00  0.00    -0.097 F 
ATOM      8  F1  UNL d   1       1.022   2.156   0.430  0.00  0.00    -0.096 F 
ATOM      9  I   UNL d   1       1.228   0.510   3.166  0.00  0.00    -0.060 I 
ATOM     10  F2  UNL d   1       4.027  -0.893   2.504  0.00  0.00    -0.096 F 
ATOM     11  F3  UNL d   1       5.656  -0.729   0.347  0.00  0.00    -0.097 F 
ATOM     12  F4  UNL d   1       4.991   0.863  -1.767  0.00  0.00    -0.092 F 
ENDROOT
TORSDOF 0
ENDMDL
