MODEL 1
REMARK minimizedAffinity 18.3014412
REMARK minimizedRMSD -1
REMARK  0 active torsions:
REMARK  status: ('A' for Active; 'I' for Inactive)
ROOT
ATOM      1  C   UNL d   1       4.839   0.392   0.009  0.00  0.00     0.124 A 
ATOM      2  C1  UNL d   1       3.858   1.341  -0.244  0.00  0.00     0.062 A 
ATOM      3  C2  UNL d   1       2.650   1.300   0.446  0.00  0.00     0.162 A 
ATOM      4  C3  UNL d   1       2.416   0.308   1.398  0.00  0.00    -0.034 A 
ATOM      5  C4  UNL d   1       3.407  -0.644   1.646  0.00  0.00     0.162 A 
ATOM      6  C5  UNL d   1       4.613  -0.599   0.954  0.00  0.00     0.062 A 
ATOM      7  F   UNL d   1       5.559  -1.517   1.200  0.00  0.00    -0.097 F 
ATOM      8  F1  UNL d   1       3.215  -1.612   2.555  0.00  0.00    -0.096 F 
ATOM      9  I   UNL d   1       0.612   0.244   2.432  0.00  0.00    -0.060 I 
ATOM     10  F2  UNL d   1       1.721   2.230   0.181  0.00  0.00    -0.096 F 
ATOM     11  F3  UNL d   1       4.074   2.298  -1.157  0.00  0.00    -0.097 F 
ATOM     12  F4  UNL d   1       6.000   0.432  -0.657  0.00  0.00    -0.092 F 
ENDROOT
TORSDOF 0
ENDMDL
