MODEL 1
REMARK minimizedAffinity 29.0299797
REMARK minimizedRMSD -1
REMARK  0 active torsions:
REMARK  status: ('A' for Active; 'I' for Inactive)
ROOT
ATOM      1  C   UNL d   1      -2.969  -2.381  -1.446  0.00  0.00     0.124 A 
ATOM      2  C1  UNL d   1      -3.818  -2.779  -2.469  0.00  0.00     0.062 A 
ATOM      3  C2  UNL d   1      -3.338  -2.898  -3.770  0.00  0.00     0.162 A 
ATOM      4  C3  UNL d   1      -2.002  -2.620  -4.056  0.00  0.00    -0.034 A 
ATOM      5  C4  UNL d   1      -1.154  -2.219  -3.021  0.00  0.00     0.162 A 
ATOM      6  C5  UNL d   1      -1.639  -2.101  -1.723  0.00  0.00     0.062 A 
ATOM      7  F   UNL d   1      -0.817  -1.717  -0.735  0.00  0.00    -0.097 F 
ATOM      8  F1  UNL d   1       0.136  -1.943  -3.261  0.00  0.00    -0.096 F 
ATOM      9  I   UNL d   1      -1.281  -2.796  -6.000  0.00  0.00    -0.060 I 
ATOM     10  F2  UNL d   1      -4.181  -3.285  -4.739  0.00  0.00    -0.096 F 
ATOM     11  F3  UNL d   1      -5.105  -3.049  -2.204  0.00  0.00    -0.097 F 
ATOM     12  F4  UNL d   1      -3.434  -2.267  -0.195  0.00  0.00    -0.092 F 
ENDROOT
TORSDOF 0
ENDMDL
