MODEL 1
REMARK minimizedAffinity 30.2417717
REMARK minimizedRMSD -1
REMARK  0 active torsions:
REMARK  status: ('A' for Active; 'I' for Inactive)
ROOT
ATOM      1  C   UNL d   1      -5.114   2.071   4.873  0.00  0.00     0.124 A 
ATOM      2  C1  UNL d   1      -4.527   2.635   3.749  0.00  0.00     0.062 A 
ATOM      3  C2  UNL d   1      -4.187   1.835   2.661  0.00  0.00     0.162 A 
ATOM      4  C3  UNL d   1      -4.434   0.463   2.692  0.00  0.00    -0.034 A 
ATOM      5  C4  UNL d   1      -5.024  -0.097   3.827  0.00  0.00     0.162 A 
ATOM      6  C5  UNL d   1      -5.362   0.706   4.911  0.00  0.00     0.062 A 
ATOM      7  F   UNL d   1      -5.929   0.160   5.997  0.00  0.00    -0.097 F 
ATOM      8  F1  UNL d   1      -5.276  -1.413   3.890  0.00  0.00    -0.096 F 
ATOM      9  I   UNL d   1      -3.927  -0.737   1.069  0.00  0.00    -0.060 I 
ATOM     10  F2  UNL d   1      -3.620   2.406   1.588  0.00  0.00    -0.096 F 
ATOM     11  F3  UNL d   1      -4.285   3.953   3.710  0.00  0.00    -0.097 F 
ATOM     12  F4  UNL d   1      -5.439   2.843   5.918  0.00  0.00    -0.092 F 
ENDROOT
TORSDOF 0
ENDMDL
