MODEL 1
REMARK minimizedAffinity 23.7610416
REMARK minimizedRMSD -1
REMARK  0 active torsions:
REMARK  status: ('A' for Active; 'I' for Inactive)
ROOT
ATOM      1  C   UNL d   1      -4.840   2.210   4.871  0.00  0.00     0.124 A 
ATOM      2  C1  UNL d   1      -3.637   2.782   5.259  0.00  0.00     0.062 A 
ATOM      3  C2  UNL d   1      -2.431   2.199   4.884  0.00  0.00     0.162 A 
ATOM      4  C3  UNL d   1      -2.421   1.036   4.114  0.00  0.00    -0.034 A 
ATOM      5  C4  UNL d   1      -3.635   0.465   3.727  0.00  0.00     0.162 A 
ATOM      6  C5  UNL d   1      -4.838   1.052   4.105  0.00  0.00     0.062 A 
ATOM      7  F   UNL d   1      -6.000   0.498   3.729  0.00  0.00    -0.097 F 
ATOM      8  F1  UNL d   1      -3.662  -0.653   2.987  0.00  0.00    -0.096 F 
ATOM      9  I   UNL d   1      -0.619   0.160   3.550  0.00  0.00    -0.060 I 
ATOM     10  F2  UNL d   1      -1.283   2.774   5.273  0.00  0.00    -0.096 F 
ATOM     11  F3  UNL d   1      -3.636   3.900   6.000  0.00  0.00    -0.097 F 
ATOM     12  F4  UNL d   1      -6.000   2.773   5.235  0.00  0.00    -0.092 F 
ENDROOT
TORSDOF 0
ENDMDL
