MODEL 1
REMARK minimizedAffinity 22.9396458
REMARK minimizedRMSD -1
REMARK  0 active torsions:
REMARK  status: ('A' for Active; 'I' for Inactive)
ROOT
ATOM      1  C   UNL d   1       3.182  -0.250   1.839  0.00  0.00     0.124 A 
ATOM      2  C1  UNL d   1       2.436   0.641   1.079  0.00  0.00     0.062 A 
ATOM      3  C2  UNL d   1       1.352   1.307   1.644  0.00  0.00     0.162 A 
ATOM      4  C3  UNL d   1       1.008   1.085   2.978  0.00  0.00    -0.034 A 
ATOM      5  C4  UNL d   1       1.762   0.187   3.735  0.00  0.00     0.162 A 
ATOM      6  C5  UNL d   1       2.844  -0.476   3.166  0.00  0.00     0.062 A 
ATOM      7  F   UNL d   1       3.563  -1.337   3.901  0.00  0.00    -0.097 F 
ATOM      8  F1  UNL d   1       1.458  -0.050   5.020  0.00  0.00    -0.096 F 
ATOM      9  I   UNL d   1      -0.612   2.079   3.827  0.00  0.00    -0.060 I 
ATOM     10  F2  UNL d   1       0.650   2.162   0.887  0.00  0.00    -0.096 F 
ATOM     11  F3  UNL d   1       2.760   0.860  -0.203  0.00  0.00    -0.097 F 
ATOM     12  F4  UNL d   1       4.223  -0.890   1.292  0.00  0.00    -0.092 F 
ENDROOT
TORSDOF 0
ENDMDL
