MODEL 1
REMARK minimizedAffinity 22.7586403
REMARK minimizedRMSD -1
REMARK  0 active torsions:
REMARK  status: ('A' for Active; 'I' for Inactive)
ROOT
ATOM      1  C   UNL d   1       3.720  -0.817   2.264  0.00  0.00     0.124 A 
ATOM      2  C1  UNL d   1       2.862  -0.329   1.288  0.00  0.00     0.062 A 
ATOM      3  C2  UNL d   1       1.722   0.382   1.649  0.00  0.00     0.162 A 
ATOM      4  C3  UNL d   1       1.432   0.610   2.994  0.00  0.00    -0.034 A 
ATOM      5  C4  UNL d   1       2.298   0.115   3.971  0.00  0.00     0.162 A 
ATOM      6  C5  UNL d   1       3.437  -0.595   3.604  0.00  0.00     0.062 A 
ATOM      7  F   UNL d   1       4.264  -1.066   4.549  0.00  0.00    -0.097 F 
ATOM      8  F1  UNL d   1       2.049   0.316   5.274  0.00  0.00    -0.096 F 
ATOM      9  I   UNL d   1      -0.273   1.672   3.539  0.00  0.00    -0.060 I 
ATOM     10  F2  UNL d   1       0.911   0.841   0.685  0.00  0.00    -0.096 F 
ATOM     11  F3  UNL d   1       3.133  -0.544  -0.008  0.00  0.00    -0.097 F 
ATOM     12  F4  UNL d   1       4.816  -1.502   1.913  0.00  0.00    -0.092 F 
ENDROOT
TORSDOF 0
ENDMDL
