MODEL 1
REMARK minimizedAffinity 16.8936958
REMARK minimizedRMSD -1
REMARK  0 active torsions:
REMARK  status: ('A' for Active; 'I' for Inactive)
ROOT
ATOM      1  C   UNL d   1      -2.365   5.750  -1.636  0.00  0.00     0.124 A 
ATOM      2  C1  UNL d   1      -2.049   5.555  -0.298  0.00  0.00     0.062 A 
ATOM      3  C2  UNL d   1      -3.061   5.383   0.642  0.00  0.00     0.162 A 
ATOM      4  C3  UNL d   1      -4.399   5.406   0.249  0.00  0.00    -0.034 A 
ATOM      5  C4  UNL d   1      -4.709   5.604  -1.098  0.00  0.00     0.162 A 
ATOM      6  C5  UNL d   1      -3.694   5.774  -2.034  0.00  0.00     0.062 A 
ATOM      7  F   UNL d   1      -4.002   5.963  -3.326  0.00  0.00    -0.097 F 
ATOM      8  F1  UNL d   1      -5.985   5.631  -1.510  0.00  0.00    -0.096 F 
ATOM      9  I   UNL d   1      -5.914   5.150   1.652  0.00  0.00    -0.060 I 
ATOM     10  F2  UNL d   1      -2.726   5.197   1.928  0.00  0.00    -0.096 F 
ATOM     11  F3  UNL d   1      -0.766   5.532   0.089  0.00  0.00    -0.097 F 
ATOM     12  F4  UNL d   1      -1.390   5.916  -2.538  0.00  0.00    -0.092 F 
ENDROOT
TORSDOF 0
ENDMDL
