MODEL 1
REMARK minimizedAffinity 34.7480621
REMARK minimizedRMSD -1
REMARK  0 active torsions:
REMARK  status: ('A' for Active; 'I' for Inactive)
ROOT
ATOM      1  C   UNL d   1       2.253  -0.318   1.780  0.00  0.00     0.124 A 
ATOM      2  C1  UNL d   1       1.931  -0.152   3.120  0.00  0.00     0.062 A 
ATOM      3  C2  UNL d   1       2.905  -0.315   4.100  0.00  0.00     0.162 A 
ATOM      4  C3  UNL d   1       4.213  -0.645   3.744  0.00  0.00    -0.034 A 
ATOM      5  C4  UNL d   1       4.530  -0.811   2.395  0.00  0.00     0.162 A 
ATOM      6  C5  UNL d   1       3.552  -0.647   1.419  0.00  0.00     0.062 A 
ATOM      7  F   UNL d   1       3.865  -0.808   0.125  0.00  0.00    -0.097 F 
ATOM      8  F1  UNL d   1       5.777  -1.128   2.017  0.00  0.00    -0.096 F 
ATOM      9  I   UNL d   1       5.674  -0.889   5.206  0.00  0.00    -0.060 I 
ATOM     10  F2  UNL d   1       2.566  -0.149   5.387  0.00  0.00    -0.096 F 
ATOM     11  F3  UNL d   1       0.676   0.165   3.472  0.00  0.00    -0.097 F 
ATOM     12  F4  UNL d   1       1.313  -0.162   0.840  0.00  0.00    -0.092 F 
ENDROOT
TORSDOF 0
ENDMDL
