MODEL 1
REMARK minimizedAffinity 13.056056
REMARK minimizedRMSD -1
REMARK  0 active torsions:
REMARK  status: ('A' for Active; 'I' for Inactive)
ROOT
ATOM      1  C   UNL d   1      -4.241  -0.140   3.283  0.00  0.00     0.124 A 
ATOM      2  C1  UNL d   1      -3.353   0.858   2.906  0.00  0.00     0.062 A 
ATOM      3  C2  UNL d   1      -3.352   2.082   3.569  0.00  0.00     0.162 A 
ATOM      4  C3  UNL d   1      -4.241   2.314   4.618  0.00  0.00    -0.034 A 
ATOM      5  C4  UNL d   1      -5.132   1.306   4.992  0.00  0.00     0.162 A 
ATOM      6  C5  UNL d   1      -5.129   0.085   4.326  0.00  0.00     0.062 A 
ATOM      7  F   UNL d   1      -5.988  -0.878   4.692  0.00  0.00    -0.097 F 
ATOM      8  F1  UNL d   1      -6.000   1.497   5.996  0.00  0.00    -0.096 F 
ATOM      9  I   UNL d   1      -4.242   4.143   5.613  0.00  0.00    -0.060 I 
ATOM     10  F2  UNL d   1      -2.483   3.028   3.183  0.00  0.00    -0.096 F 
ATOM     11  F3  UNL d   1      -2.495   0.643   1.898  0.00  0.00    -0.097 F 
ATOM     12  F4  UNL d   1      -4.241  -1.316   2.643  0.00  0.00    -0.092 F 
ENDROOT
TORSDOF 0
ENDMDL
