MODEL 1
REMARK minimizedAffinity 23.484211
REMARK minimizedRMSD -1
REMARK  0 active torsions:
REMARK  status: ('A' for Active; 'I' for Inactive)
ROOT
ATOM      1  C   UNL d   1       1.350   0.137   2.502  0.00  0.00     0.124 A 
ATOM      2  C1  UNL d   1       1.911   0.484   1.281  0.00  0.00     0.062 A 
ATOM      3  C2  UNL d   1       3.199   0.068   0.959  0.00  0.00     0.162 A 
ATOM      4  C3  UNL d   1       3.936  -0.701   1.859  0.00  0.00    -0.034 A 
ATOM      5  C4  UNL d   1       3.366  -1.045   3.086  0.00  0.00     0.162 A 
ATOM      6  C5  UNL d   1       2.078  -0.627   3.403  0.00  0.00     0.062 A 
ATOM      7  F   UNL d   1       1.538  -0.964   4.584  0.00  0.00    -0.097 F 
ATOM      8  F1  UNL d   1       4.047  -1.784   3.975  0.00  0.00    -0.096 F 
ATOM      9  I   UNL d   1       5.863  -1.325   1.380  0.00  0.00    -0.060 I 
ATOM     10  F2  UNL d   1       3.716   0.419  -0.229  0.00  0.00    -0.096 F 
ATOM     11  F3  UNL d   1       1.210   1.223   0.409  0.00  0.00    -0.097 F 
ATOM     12  F4  UNL d   1       0.110   0.539   2.810  0.00  0.00    -0.092 F 
ENDROOT
TORSDOF 0
ENDMDL
