MODEL 1
REMARK minimizedAffinity 19.4418812
REMARK minimizedRMSD -1
REMARK  0 active torsions:
REMARK  status: ('A' for Active; 'I' for Inactive)
ROOT
ATOM      1  C   UNL d   1       3.418   4.535  -2.680  0.00  0.00     0.124 A 
ATOM      2  C1  UNL d   1       2.884   4.484  -3.960  0.00  0.00     0.062 A 
ATOM      3  C2  UNL d   1       3.094   3.367  -4.762  0.00  0.00     0.162 A 
ATOM      4  C3  UNL d   1       3.842   2.289  -4.287  0.00  0.00    -0.034 A 
ATOM      5  C4  UNL d   1       4.377   2.348  -2.999  0.00  0.00     0.162 A 
ATOM      6  C5  UNL d   1       4.164   3.467  -2.201  0.00  0.00     0.062 A 
ATOM      7  F   UNL d   1       4.681   3.514  -0.964  0.00  0.00    -0.097 F 
ATOM      8  F1  UNL d   1       5.101   1.330  -2.510  0.00  0.00    -0.096 F 
ATOM      9  I   UNL d   1       4.159   0.617  -5.484  0.00  0.00    -0.060 I 
ATOM     10  F2  UNL d   1       2.566   3.345  -5.995  0.00  0.00    -0.096 F 
ATOM     11  F3  UNL d   1       2.164   5.515  -4.425  0.00  0.00    -0.097 F 
ATOM     12  F4  UNL d   1       3.215   5.612  -1.910  0.00  0.00    -0.092 F 
ENDROOT
TORSDOF 0
ENDMDL
