MODEL 1
REMARK minimizedAffinity -3.87076426
REMARK minimizedRMSD -1
REMARK  0 active torsions:
REMARK  status: ('A' for Active; 'I' for Inactive)
ROOT
ATOM      1  C   UNL d   1      -0.395  -0.641   0.563  0.00  0.00     0.172 C 
ATOM      2  N   UNL d   1       0.434  -0.653  -0.619  0.00  0.00    -0.070 N 
ATOM      3  C1  UNL d   1       0.954   0.450  -1.241  0.00  0.00    -0.004 A 
ATOM      4  C2  UNL d   1       1.683   0.018  -2.328  0.00  0.00    -0.047 A 
ATOM      5  C3  UNL d   1       1.598  -1.394  -2.361  0.00  0.00    -0.047 A 
ATOM      6  C4  UNL d   1       0.818  -1.783  -1.292  0.00  0.00    -0.004 A 
ENDROOT
TORSDOF 0
ENDMDL
