MODEL 1
REMARK minimizedAffinity -3.09620523
REMARK minimizedRMSD -1
REMARK  0 active torsions:
REMARK  status: ('A' for Active; 'I' for Inactive)
ROOT
ATOM      1  C   UNL d   1      -0.375   0.130   0.359  0.00  0.00     0.172 C 
ATOM      2  N   UNL d   1       0.276  -0.004  -0.923  0.00  0.00    -0.070 N 
ATOM      3  C1  UNL d   1       1.613   0.169  -1.162  0.00  0.00    -0.004 A 
ATOM      4  C2  UNL d   1       1.833  -0.047  -2.505  0.00  0.00    -0.047 A 
ATOM      5  C3  UNL d   1       0.585  -0.359  -3.094  0.00  0.00    -0.047 A 
ATOM      6  C4  UNL d   1      -0.362  -0.325  -2.092  0.00  0.00    -0.004 A 
ENDROOT
TORSDOF 0
ENDMDL
