MODEL 1
REMARK minimizedAffinity 2.91340256
REMARK minimizedRMSD -1
REMARK  0 active torsions:
REMARK  status: ('A' for Active; 'I' for Inactive)
ROOT
ATOM      1  C   UNL d   1       1.153   3.016  -1.013  0.00  0.00     0.172 C 
ATOM      2  N   UNL d   1       1.565   1.758  -1.591  0.00  0.00    -0.070 N 
ATOM      3  C1  UNL d   1       0.823   0.994  -2.452  0.00  0.00    -0.004 A 
ATOM      4  C2  UNL d   1       1.566  -0.122  -2.773  0.00  0.00    -0.047 A 
ATOM      5  C3  UNL d   1       2.796  -0.026  -2.080  0.00  0.00    -0.047 A 
ATOM      6  C4  UNL d   1       2.769   1.148  -1.356  0.00  0.00    -0.004 A 
ENDROOT
TORSDOF 0
ENDMDL
