MODEL 1
REMARK minimizedAffinity -3.08524466
REMARK minimizedRMSD -1
REMARK  0 active torsions:
REMARK  status: ('A' for Active; 'I' for Inactive)
ROOT
ATOM      1  C   UNL d   1       1.587   0.262  -2.963  0.00  0.00     0.172 C 
ATOM      2  N   UNL d   1       1.048   0.307  -1.624  0.00  0.00    -0.070 N 
ATOM      3  C1  UNL d   1       0.226  -0.633  -1.062  0.00  0.00    -0.004 A 
ATOM      4  C2  UNL d   1      -0.065  -0.226   0.222  0.00  0.00    -0.047 A 
ATOM      5  C3  UNL d   1       0.604   1.002   0.439  0.00  0.00    -0.047 A 
ATOM      6  C4  UNL d   1       1.286   1.308  -0.720  0.00  0.00    -0.004 A 
ENDROOT
TORSDOF 0
ENDMDL
