MODEL 1
REMARK minimizedAffinity -2.70988703
REMARK minimizedRMSD -1
REMARK  0 active torsions:
REMARK  status: ('A' for Active; 'I' for Inactive)
ROOT
ATOM      1  C   UNL d   1       1.011   0.188  -3.088  0.00  0.00     0.172 C 
ATOM      2  N   UNL d   1       0.599   0.041  -1.712  0.00  0.00    -0.070 N 
ATOM      3  C1  UNL d   1       0.005  -1.068  -1.170  0.00  0.00    -0.004 A 
ATOM      4  C2  UNL d   1      -0.230  -0.812   0.163  0.00  0.00    -0.047 A 
ATOM      5  C3  UNL d   1       0.238   0.496   0.433  0.00  0.00    -0.047 A 
ATOM      6  C4  UNL d   1       0.746   1.001  -0.745  0.00  0.00    -0.004 A 
ENDROOT
TORSDOF 0
ENDMDL
