MODEL 1
REMARK minimizedAffinity -3.5570538
REMARK minimizedRMSD -1
REMARK  0 active torsions:
REMARK  status: ('A' for Active; 'I' for Inactive)
ROOT
ATOM      1  C   UNL d   1       1.690  -0.123  -2.562  0.00  0.00     0.172 C 
ATOM      2  N   UNL d   1       0.975  -0.379  -1.334  0.00  0.00    -0.070 N 
ATOM      3  C1  UNL d   1       0.459   0.573  -0.496  0.00  0.00    -0.004 A 
ATOM      4  C2  UNL d   1      -0.146  -0.075   0.559  0.00  0.00    -0.047 A 
ATOM      5  C3  UNL d   1       0.014  -1.465   0.349  0.00  0.00    -0.047 A 
ATOM      6  C4  UNL d   1       0.711  -1.625  -0.830  0.00  0.00    -0.004 A 
ENDROOT
TORSDOF 0
ENDMDL
