MODEL 1
REMARK minimizedAffinity -4.12398672
REMARK minimizedRMSD -1
REMARK  0 active torsions:
REMARK  status: ('A' for Active; 'I' for Inactive)
ROOT
ATOM      1  C   UNL d   1      -0.778  -0.189   0.673  0.00  0.00     0.172 C 
ATOM      2  N   UNL d   1       0.113   0.077  -0.431  0.00  0.00    -0.070 N 
ATOM      3  C1  UNL d   1       0.732   1.272  -0.687  0.00  0.00    -0.004 A 
ATOM      4  C2  UNL d   1       1.494   1.117  -1.824  0.00  0.00    -0.047 A 
ATOM      5  C3  UNL d   1       1.327  -0.216  -2.268  0.00  0.00    -0.047 A 
ATOM      6  C4  UNL d   1       0.467  -0.837  -1.388  0.00  0.00    -0.004 A 
ENDROOT
TORSDOF 0
ENDMDL
