MODEL 1
REMARK minimizedAffinity -2.20206308
REMARK minimizedRMSD -1
REMARK  0 active torsions:
REMARK  status: ('A' for Active; 'I' for Inactive)
ROOT
ATOM      1  C   UNL d   1      -0.548  -0.171   0.432  0.00  0.00     0.172 C 
ATOM      2  N   UNL d   1       0.246   0.034  -0.757  0.00  0.00    -0.070 N 
ATOM      3  C1  UNL d   1       0.841   1.210  -1.126  0.00  0.00    -0.004 A 
ATOM      4  C2  UNL d   1       1.504   0.993  -2.315  0.00  0.00    -0.047 A 
ATOM      5  C3  UNL d   1       1.299  -0.361  -2.672  0.00  0.00    -0.047 A 
ATOM      6  C4  UNL d   1       0.517  -0.931  -1.690  0.00  0.00    -0.004 A 
ENDROOT
TORSDOF 0
ENDMDL
