MODEL 1
REMARK minimizedAffinity -3.67838645
REMARK minimizedRMSD -1
REMARK  0 active torsions:
REMARK  status: ('A' for Active; 'I' for Inactive)
ROOT
ATOM      1  C   UNL d   1      -0.482  -0.869   0.590  0.00  0.00     0.172 C 
ATOM      2  N   UNL d   1       0.079  -0.329  -0.626  0.00  0.00    -0.070 N 
ATOM      3  C1  UNL d   1      -0.322  -0.643  -1.898  0.00  0.00    -0.004 A 
ATOM      4  C2  UNL d   1       0.456   0.080  -2.776  0.00  0.00    -0.047 A 
ATOM      5  C3  UNL d   1       1.356   0.855  -2.006  0.00  0.00    -0.047 A 
ATOM      6  C4  UNL d   1       1.101   0.582  -0.678  0.00  0.00    -0.004 A 
ENDROOT
TORSDOF 0
ENDMDL
