MODEL 1
REMARK minimizedAffinity -2.57588339
REMARK minimizedRMSD -1
REMARK  0 active torsions:
REMARK  status: ('A' for Active; 'I' for Inactive)
ROOT
ATOM      1  C   UNL d   1      -0.881  -0.251   0.917  0.00  0.00     0.172 C 
ATOM      2  N   UNL d   1       0.102  -0.006  -0.113  0.00  0.00    -0.070 N 
ATOM      3  C1  UNL d   1       1.094   0.936  -0.062  0.00  0.00    -0.004 A 
ATOM      4  C2  UNL d   1       1.817   0.852  -1.233  0.00  0.00    -0.047 A 
ATOM      5  C3  UNL d   1       1.237  -0.176  -2.015  0.00  0.00    -0.047 A 
ATOM      6  C4  UNL d   1       0.178  -0.690  -1.298  0.00  0.00    -0.004 A 
ENDROOT
TORSDOF 0
ENDMDL
