MODEL 1
REMARK minimizedAffinity -1.36934221
REMARK minimizedRMSD -1
REMARK  0 active torsions:
REMARK  status: ('A' for Active; 'I' for Inactive)
ROOT
ATOM      1  C   UNL d   1       2.068   0.601  -1.901  0.00  0.00     0.172 C 
ATOM      2  N   UNL d   1       1.024   0.375  -0.930  0.00  0.00    -0.070 N 
ATOM      3  C1  UNL d   1       0.526   1.310  -0.062  0.00  0.00    -0.004 A 
ATOM      4  C2  UNL d   1      -0.454   0.703   0.695  0.00  0.00    -0.047 A 
ATOM      5  C3  UNL d   1      -0.547  -0.642   0.267  0.00  0.00    -0.047 A 
ATOM      6  C4  UNL d   1       0.379  -0.818  -0.740  0.00  0.00    -0.004 A 
ENDROOT
TORSDOF 0
ENDMDL
