MODEL 1
REMARK minimizedAffinity -3.651788
REMARK minimizedRMSD -1
REMARK  0 active torsions:
REMARK  status: ('A' for Active; 'I' for Inactive)
ROOT
ATOM      1  C   UNL d   1      -0.725  -0.278   1.301  0.00  0.00     0.172 C 
ATOM      2  N   UNL d   1       0.081  -0.011   0.133  0.00  0.00    -0.070 N 
ATOM      3  C1  UNL d   1       0.978   1.015  -0.000  0.00  0.00    -0.004 A 
ATOM      4  C2  UNL d   1       1.540   0.924  -1.256  0.00  0.00    -0.047 A 
ATOM      5  C3  UNL d   1       0.960  -0.196  -1.899  0.00  0.00    -0.047 A 
ATOM      6  C4  UNL d   1       0.060  -0.756  -1.016  0.00  0.00    -0.004 A 
ENDROOT
TORSDOF 0
ENDMDL
