MODEL 1
REMARK minimizedAffinity -2.33661222
REMARK minimizedRMSD -1
REMARK  0 active torsions:
REMARK  status: ('A' for Active; 'I' for Inactive)
ROOT
ATOM      1  C   UNL d   1      -0.960  -0.374   1.884  0.00  0.00     0.172 C 
ATOM      2  N   UNL d   1      -2.292   0.177   1.974  0.00  0.00    -0.070 N 
ATOM      3  C1  UNL d   1      -3.456  -0.503   1.730  0.00  0.00    -0.004 A 
ATOM      4  C2  UNL d   1      -4.503   0.371   1.924  0.00  0.00    -0.047 A 
ATOM      5  C3  UNL d   1      -3.950   1.620   2.296  0.00  0.00    -0.047 A 
ATOM      6  C4  UNL d   1      -2.580   1.471   2.319  0.00  0.00    -0.004 A 
ENDROOT
TORSDOF 0
ENDMDL
