MODEL 1
REMARK minimizedAffinity 0.271819741
REMARK minimizedRMSD -1
REMARK  0 active torsions:
REMARK  status: ('A' for Active; 'I' for Inactive)
ROOT
ATOM      1  C   UNL d   1      -5.819   3.764  -5.915  0.00  0.00     0.172 C 
ATOM      2  N   UNL d   1      -4.529   4.411  -5.947  0.00  0.00    -0.070 N 
ATOM      3  C1  UNL d   1      -3.317   3.774  -5.958  0.00  0.00    -0.004 A 
ATOM      4  C2  UNL d   1      -2.333   4.739  -5.990  0.00  0.00    -0.047 A 
ATOM      5  C3  UNL d   1      -2.977   6.000  -5.997  0.00  0.00    -0.047 A 
ATOM      6  C4  UNL d   1      -4.335   5.767  -5.970  0.00  0.00    -0.004 A 
ENDROOT
TORSDOF 0
ENDMDL
