MODEL 1
REMARK minimizedAffinity -1.68787873
REMARK minimizedRMSD -1
REMARK  0 active torsions:
REMARK  status: ('A' for Active; 'I' for Inactive)
ROOT
ATOM      1  C   UNL d   1      -2.247   2.403  -5.983  0.00  0.00     0.172 C 
ATOM      2  N   UNL d   1      -3.674   2.180  -5.987  0.00  0.00    -0.070 N 
ATOM      3  C1  UNL d   1      -4.291   0.958  -6.000  0.00  0.00    -0.004 A 
ATOM      4  C2  UNL d   1      -5.652   1.172  -5.999  0.00  0.00    -0.047 A 
ATOM      5  C3  UNL d   1      -5.860   2.572  -5.987  0.00  0.00    -0.047 A 
ATOM      6  C4  UNL d   1      -4.619   3.172  -5.980  0.00  0.00    -0.004 A 
ENDROOT
TORSDOF 0
ENDMDL
