MODEL 1
REMARK minimizedAffinity -3.47261763
REMARK minimizedRMSD -1
REMARK  0 active torsions:
REMARK  status: ('A' for Active; 'I' for Inactive)
ROOT
ATOM      1  C   UNL d   1      -0.357  -0.326   0.088  0.00  0.00     0.172 C 
ATOM      2  N   UNL d   1       0.559  -0.141  -1.012  0.00  0.00    -0.070 N 
ATOM      3  C1  UNL d   1       1.184   1.032  -1.342  0.00  0.00    -0.004 A 
ATOM      4  C2  UNL d   1       1.972   0.794  -2.447  0.00  0.00    -0.047 A 
ATOM      5  C3  UNL d   1       1.815  -0.570  -2.794  0.00  0.00    -0.047 A 
ATOM      6  C4  UNL d   1       0.935  -1.124  -1.889  0.00  0.00    -0.004 A 
ENDROOT
TORSDOF 0
ENDMDL
