MODEL 1
REMARK minimizedAffinity -3.31354547
REMARK minimizedRMSD -1
REMARK  0 active torsions:
REMARK  status: ('A' for Active; 'I' for Inactive)
ROOT
ATOM      1  C   UNL d   1      -0.408   0.942   2.569  0.00  0.00     0.077 C 
ATOM      2  C1  UNL d   1       0.061   0.546   1.200  0.00  0.00    -0.074 A 
ATOM      3  C2  UNL d   1      -0.622   0.969   0.056  0.00  0.00    -0.005 A 
ATOM      4  C3  UNL d   1      -0.168   0.601  -1.211  0.00  0.00     0.006 A 
ATOM      5  C4  UNL d   1       0.971  -0.193  -1.345  0.00  0.00    -0.005 A 
ATOM      6  C5  UNL d   1       1.668  -0.626  -0.212  0.00  0.00    -0.074 A 
ATOM      7  C6  UNL d   1       2.900  -1.472  -0.340  0.00  0.00     0.077 C 
ATOM      8  C7  UNL d   1       1.209  -0.246   1.057  0.00  0.00    -0.001 A 
ENDROOT
TORSDOF 0
ENDMDL
