MODEL 1
REMARK minimizedAffinity -4.28169346
REMARK minimizedRMSD -1
REMARK  0 active torsions:
REMARK  status: ('A' for Active; 'I' for Inactive)
ROOT
ATOM      1  C   UNL d   1      -0.187   1.755   2.955  0.00  0.00     0.077 C 
ATOM      2  C1  UNL d   1       0.485   0.844   1.972  0.00  0.00    -0.074 A 
ATOM      3  C2  UNL d   1       1.666   0.173   2.304  0.00  0.00    -0.005 A 
ATOM      4  C3  UNL d   1       2.274  -0.679   1.382  0.00  0.00     0.006 A 
ATOM      5  C4  UNL d   1       1.708  -0.869   0.121  0.00  0.00    -0.005 A 
ATOM      6  C5  UNL d   1       0.527  -0.207  -0.229  0.00  0.00    -0.074 A 
ATOM      7  C6  UNL d   1      -0.100  -0.408  -1.576  0.00  0.00     0.077 C 
ATOM      8  C7  UNL d   1      -0.082   0.642   0.705  0.00  0.00    -0.001 A 
ENDROOT
TORSDOF 0
ENDMDL
