MODEL 1
REMARK minimizedAffinity -5.52853346
REMARK minimizedRMSD -1
REMARK  0 active torsions:
REMARK  status: ('A' for Active; 'I' for Inactive)
ROOT
ATOM      1  C   UNL d   1       0.960   0.799  -3.039  0.00  0.00     0.077 C 
ATOM      2  C1  UNL d   1       0.681   0.348  -1.636  0.00  0.00    -0.074 A 
ATOM      3  C2  UNL d   1       1.069  -0.923  -1.199  0.00  0.00    -0.005 A 
ATOM      4  C3  UNL d   1       0.811  -1.325   0.111  0.00  0.00     0.006 A 
ATOM      5  C4  UNL d   1       0.164  -0.462   0.996  0.00  0.00    -0.005 A 
ATOM      6  C5  UNL d   1      -0.230   0.813   0.578  0.00  0.00    -0.074 A 
ATOM      7  C6  UNL d   1      -0.918   1.756   1.519  0.00  0.00     0.077 C 
ATOM      8  C7  UNL d   1       0.038   1.212  -0.739  0.00  0.00    -0.001 A 
ENDROOT
TORSDOF 0
ENDMDL
