MODEL 1
REMARK minimizedAffinity -4.10222864
REMARK minimizedRMSD -1
REMARK  0 active torsions:
REMARK  status: ('A' for Active; 'I' for Inactive)
ROOT
ATOM      1  C   UNL d   1      -3.065  -0.813   3.151  0.00  0.00     0.077 C 
ATOM      2  C1  UNL d   1      -2.080   0.067   2.441  0.00  0.00    -0.074 A 
ATOM      3  C2  UNL d   1      -1.433   1.109   3.112  0.00  0.00    -0.005 A 
ATOM      4  C3  UNL d   1      -0.512   1.914   2.440  0.00  0.00     0.006 A 
ATOM      5  C4  UNL d   1      -0.230   1.684   1.093  0.00  0.00    -0.005 A 
ATOM      6  C5  UNL d   1      -0.867   0.646   0.406  0.00  0.00    -0.074 A 
ATOM      7  C6  UNL d   1      -0.568   0.380  -1.040  0.00  0.00     0.077 C 
ATOM      8  C7  UNL d   1      -1.786  -0.162   1.089  0.00  0.00    -0.001 A 
ENDROOT
TORSDOF 0
ENDMDL
