MODEL 1
REMARK minimizedAffinity -4.2113142
REMARK minimizedRMSD -1
REMARK  0 active torsions:
REMARK  status: ('A' for Active; 'I' for Inactive)
ROOT
ATOM      1  C   UNL d   1      -1.196   1.357   2.698  0.00  0.00     0.077 C 
ATOM      2  C1  UNL d   1      -0.806   0.339   1.667  0.00  0.00    -0.074 A 
ATOM      3  C2  UNL d   1      -1.696  -0.038   0.657  0.00  0.00    -0.005 A 
ATOM      4  C3  UNL d   1      -1.316  -0.979  -0.300  0.00  0.00     0.006 A 
ATOM      5  C4  UNL d   1      -0.044  -1.551  -0.256  0.00  0.00    -0.005 A 
ATOM      6  C5  UNL d   1       0.860  -1.186   0.746  0.00  0.00    -0.074 A 
ATOM      7  C6  UNL d   1       2.234  -1.784   0.802  0.00  0.00     0.077 C 
ATOM      8  C7  UNL d   1       0.473  -0.234   1.700  0.00  0.00    -0.001 A 
ENDROOT
TORSDOF 0
ENDMDL
