MODEL 1
REMARK minimizedAffinity -5.12326574
REMARK minimizedRMSD -1
REMARK  0 active torsions:
REMARK  status: ('A' for Active; 'I' for Inactive)
ROOT
ATOM      1  C   UNL d   1       0.493  -0.162  -1.424  0.00  0.00     0.077 C 
ATOM      2  C1  UNL d   1       0.595  -0.208   0.072  0.00  0.00    -0.074 A 
ATOM      3  C2  UNL d   1       1.663  -0.858   0.700  0.00  0.00    -0.005 A 
ATOM      4  C3  UNL d   1       1.750  -0.884   2.092  0.00  0.00     0.006 A 
ATOM      5  C4  UNL d   1       0.771  -0.262   2.868  0.00  0.00    -0.005 A 
ATOM      6  C5  UNL d   1      -0.303   0.393   2.258  0.00  0.00    -0.074 A 
ATOM      7  C6  UNL d   1      -1.358   1.075   3.078  0.00  0.00     0.077 C 
ATOM      8  C7  UNL d   1      -0.379   0.421   0.859  0.00  0.00    -0.001 A 
ENDROOT
TORSDOF 0
ENDMDL
