MODEL 1
REMARK minimizedAffinity -5.38055325
REMARK minimizedRMSD -1
REMARK  0 active torsions:
REMARK  status: ('A' for Active; 'I' for Inactive)
ROOT
ATOM      1  C   UNL d   1       0.137   0.990   4.504  0.00  0.00     0.077 C 
ATOM      2  C1  UNL d   1       0.284   0.498   3.095  0.00  0.00    -0.074 A 
ATOM      3  C2  UNL d   1       1.504  -0.006   2.633  0.00  0.00    -0.005 A 
ATOM      4  C3  UNL d   1       1.622  -0.469   1.323  0.00  0.00     0.006 A 
ATOM      5  C4  UNL d   1       0.524  -0.432   0.463  0.00  0.00    -0.005 A 
ATOM      6  C5  UNL d   1      -0.704   0.068   0.907  0.00  0.00    -0.074 A 
ATOM      7  C6  UNL d   1      -1.896   0.106  -0.002  0.00  0.00     0.077 C 
ATOM      8  C7  UNL d   1      -0.817   0.525   2.227  0.00  0.00    -0.001 A 
ENDROOT
TORSDOF 0
ENDMDL
