MODEL 1
REMARK minimizedAffinity 9.36629677
REMARK minimizedRMSD -1
REMARK  0 active torsions:
REMARK  status: ('A' for Active; 'I' for Inactive)
ROOT
ATOM      1  C   UNL d   1      -0.742   2.614   2.859  0.00  0.00     0.077 C 
ATOM      2  C1  UNL d   1       0.481   2.573   1.992  0.00  0.00    -0.074 A 
ATOM      3  C2  UNL d   1       0.856   3.681   1.226  0.00  0.00    -0.005 A 
ATOM      4  C3  UNL d   1       2.002   3.632   0.432  0.00  0.00     0.006 A 
ATOM      5  C4  UNL d   1       2.783   2.476   0.396  0.00  0.00    -0.005 A 
ATOM      6  C5  UNL d   1       2.424   1.359   1.157  0.00  0.00    -0.074 A 
ATOM      7  C6  UNL d   1       3.258   0.112   1.137  0.00  0.00     0.077 C 
ATOM      8  C7  UNL d   1       1.275   1.418   1.957  0.00  0.00    -0.001 A 
ENDROOT
TORSDOF 0
ENDMDL
