MODEL 1
REMARK minimizedAffinity 10.5812845
REMARK minimizedRMSD -1
REMARK  0 active torsions:
REMARK  status: ('A' for Active; 'I' for Inactive)
ROOT
ATOM      1  C   UNL d   1       1.159  -5.209  -5.971  0.00  0.00     0.077 C 
ATOM      2  C1  UNL d   1       0.021  -4.426  -5.387  0.00  0.00    -0.074 A 
ATOM      3  C2  UNL d   1      -0.435  -3.254  -6.000  0.00  0.00    -0.005 A 
ATOM      4  C3  UNL d   1      -1.501  -2.542  -5.450  0.00  0.00     0.006 A 
ATOM      5  C4  UNL d   1      -2.121  -2.994  -4.285  0.00  0.00    -0.005 A 
ATOM      6  C5  UNL d   1      -1.680  -4.164  -3.659  0.00  0.00    -0.074 A 
ATOM      7  C6  UNL d   1      -2.342  -4.669  -2.411  0.00  0.00     0.077 C 
ATOM      8  C7  UNL d   1      -0.613  -4.878  -4.221  0.00  0.00    -0.001 A 
ENDROOT
TORSDOF 0
ENDMDL
