MODEL 1
REMARK minimizedAffinity 11.2200441
REMARK minimizedRMSD -1
REMARK  0 active torsions:
REMARK  status: ('A' for Active; 'I' for Inactive)
ROOT
ATOM      1  C   UNL d   1       1.191   3.132   0.408  0.00  0.00     0.077 C 
ATOM      2  C1  UNL d   1       2.024   1.985  -0.083  0.00  0.00    -0.074 A 
ATOM      3  C2  UNL d   1       2.220   0.849   0.707  0.00  0.00    -0.005 A 
ATOM      4  C3  UNL d   1       2.989  -0.214   0.233  0.00  0.00     0.006 A 
ATOM      5  C4  UNL d   1       3.569  -0.151  -1.035  0.00  0.00    -0.005 A 
ATOM      6  C5  UNL d   1       3.382   0.977  -1.840  0.00  0.00    -0.074 A 
ATOM      7  C6  UNL d   1       3.990   1.057  -3.209  0.00  0.00     0.077 C 
ATOM      8  C7  UNL d   1       2.602   2.038  -1.359  0.00  0.00    -0.001 A 
ENDROOT
TORSDOF 0
ENDMDL
