MODEL 1
REMARK minimizedAffinity -0.662221909
REMARK minimizedRMSD -1
REMARK  0 active torsions:
REMARK  status: ('A' for Active; 'I' for Inactive)
ROOT
ATOM      1  C   UNL d   1       5.017  -0.955   2.294  0.00  0.00     0.077 C 
ATOM      2  C1  UNL d   1       4.378   0.161   1.522  0.00  0.00    -0.074 A 
ATOM      3  C2  UNL d   1       2.993   0.353   1.550  0.00  0.00    -0.005 A 
ATOM      4  C3  UNL d   1       2.414   1.401   0.834  0.00  0.00     0.006 A 
ATOM      5  C4  UNL d   1       3.212   2.266   0.084  0.00  0.00    -0.005 A 
ATOM      6  C5  UNL d   1       4.599   2.089   0.045  0.00  0.00    -0.074 A 
ATOM      7  C6  UNL d   1       5.473   3.015  -0.748  0.00  0.00     0.077 C 
ATOM      8  C7  UNL d   1       5.174   1.038   0.772  0.00  0.00    -0.001 A 
ENDROOT
TORSDOF 0
ENDMDL
