MODEL 1
REMARK minimizedAffinity 5.4972024
REMARK minimizedRMSD -1
REMARK  0 active torsions:
REMARK  status: ('A' for Active; 'I' for Inactive)
ROOT
ATOM      1  C   UNL d   1      -2.264  -2.602  -3.679  0.00  0.00     0.077 C 
ATOM      2  C1  UNL d   1      -2.586  -2.681  -2.217  0.00  0.00    -0.074 A 
ATOM      3  C2  UNL d   1      -3.890  -2.936  -1.780  0.00  0.00    -0.005 A 
ATOM      4  C3  UNL d   1      -4.172  -3.017  -0.417  0.00  0.00     0.006 A 
ATOM      5  C4  UNL d   1      -3.155  -2.844   0.523  0.00  0.00    -0.005 A 
ATOM      6  C5  UNL d   1      -1.844  -2.590   0.105  0.00  0.00    -0.074 A 
ATOM      7  C6  UNL d   1      -0.738  -2.411   1.101  0.00  0.00     0.077 C 
ATOM      8  C7  UNL d   1      -1.568  -2.517  -1.267  0.00  0.00    -0.001 A 
ENDROOT
TORSDOF 0
ENDMDL
