MODEL 1
REMARK minimizedAffinity 6.86424732
REMARK minimizedRMSD -1
REMARK  0 active torsions:
REMARK  status: ('A' for Active; 'I' for Inactive)
ROOT
ATOM      1  C   UNL d   1      -4.743  -5.999  -1.470  0.00  0.00     0.077 C 
ATOM      2  C1  UNL d   1      -3.754  -4.951  -1.884  0.00  0.00    -0.074 A 
ATOM      3  C2  UNL d   1      -4.025  -3.592  -1.696  0.00  0.00    -0.005 A 
ATOM      4  C3  UNL d   1      -3.090  -2.629  -2.078  0.00  0.00     0.006 A 
ATOM      5  C4  UNL d   1      -1.878  -3.015  -2.650  0.00  0.00    -0.005 A 
ATOM      6  C5  UNL d   1      -1.589  -4.369  -2.845  0.00  0.00    -0.074 A 
ATOM      7  C6  UNL d   1      -0.286  -4.801  -3.450  0.00  0.00     0.077 C 
ATOM      8  C7  UNL d   1      -2.530  -5.331  -2.453  0.00  0.00    -0.001 A 
ENDROOT
TORSDOF 0
ENDMDL
