MODEL 1
REMARK minimizedAffinity 14.1139984
REMARK minimizedRMSD -1
REMARK  0 active torsions:
REMARK  status: ('A' for Active; 'I' for Inactive)
ROOT
ATOM      1  C   UNL d   1      -0.041   3.408   1.762  0.00  0.00     0.077 C 
ATOM      2  C1  UNL d   1       0.965   2.299   1.839  0.00  0.00    -0.074 A 
ATOM      3  C2  UNL d   1       1.887   2.091   0.808  0.00  0.00    -0.005 A 
ATOM      4  C3  UNL d   1       2.823   1.061   0.897  0.00  0.00     0.006 A 
ATOM      5  C4  UNL d   1       2.847   0.229   2.018  0.00  0.00    -0.005 A 
ATOM      6  C5  UNL d   1       1.934   0.422   3.059  0.00  0.00    -0.074 A 
ATOM      7  C6  UNL d   1       1.952  -0.457   4.275  0.00  0.00     0.077 C 
ATOM      8  C7  UNL d   1       1.001   1.464   2.965  0.00  0.00    -0.001 A 
ENDROOT
TORSDOF 0
ENDMDL
