MODEL 1
REMARK minimizedAffinity 3.24477363
REMARK minimizedRMSD -1
REMARK  0 active torsions:
REMARK  status: ('A' for Active; 'I' for Inactive)
ROOT
ATOM      1  C   UNL d   1       4.937   2.270  -1.648  0.00  0.00     0.077 C 
ATOM      2  C1  UNL d   1       4.406   1.518  -0.463  0.00  0.00    -0.074 A 
ATOM      3  C2  UNL d   1       5.225   0.647   0.262  0.00  0.00    -0.005 A 
ATOM      4  C3  UNL d   1       4.720  -0.037   1.367  0.00  0.00     0.006 A 
ATOM      5  C4  UNL d   1       3.392   0.142   1.758  0.00  0.00    -0.005 A 
ATOM      6  C5  UNL d   1       2.558   1.009   1.045  0.00  0.00    -0.074 A 
ATOM      7  C6  UNL d   1       1.131   1.220   1.457  0.00  0.00     0.077 C 
ATOM      8  C7  UNL d   1       3.075   1.699  -0.060  0.00  0.00    -0.001 A 
ENDROOT
TORSDOF 0
ENDMDL
