MODEL 1
REMARK minimizedAffinity 13.302042
REMARK minimizedRMSD -1
REMARK  0 active torsions:
REMARK  status: ('A' for Active; 'I' for Inactive)
ROOT
ATOM      1  C   UNL d   1       0.401   0.024   2.392  0.00  0.00     0.077 C 
ATOM      2  C1  UNL d   1       1.626   0.374   1.600  0.00  0.00    -0.074 A 
ATOM      3  C2  UNL d   1       1.680   1.549   0.842  0.00  0.00    -0.005 A 
ATOM      4  C3  UNL d   1       2.829   1.866   0.118  0.00  0.00     0.006 A 
ATOM      5  C4  UNL d   1       3.934   1.014   0.144  0.00  0.00    -0.005 A 
ATOM      6  C5  UNL d   1       3.898  -0.164   0.897  0.00  0.00    -0.074 A 
ATOM      7  C6  UNL d   1       5.080  -1.086   0.944  0.00  0.00     0.077 C 
ATOM      8  C7  UNL d   1       2.743  -0.473   1.627  0.00  0.00    -0.001 A 
ENDROOT
TORSDOF 0
ENDMDL
