MODEL 1
REMARK minimizedAffinity 15.4772739
REMARK minimizedRMSD -1
REMARK  0 active torsions:
REMARK  status: ('A' for Active; 'I' for Inactive)
ROOT
ATOM      1  C   UNL d   1      -6.000  -2.904  -4.656  0.00  0.00     0.077 C 
ATOM      2  C1  UNL d   1      -5.162  -3.503  -3.565  0.00  0.00    -0.074 A 
ATOM      3  C2  UNL d   1      -5.402  -4.801  -3.105  0.00  0.00    -0.005 A 
ATOM      4  C3  UNL d   1      -4.609  -5.348  -2.096  0.00  0.00     0.006 A 
ATOM      5  C4  UNL d   1      -3.569  -4.603  -1.539  0.00  0.00    -0.005 A 
ATOM      6  C5  UNL d   1      -3.313  -3.303  -1.987  0.00  0.00    -0.074 A 
ATOM      7  C6  UNL d   1      -2.194  -2.492  -1.405  0.00  0.00     0.077 C 
ATOM      8  C7  UNL d   1      -4.111  -2.763  -3.005  0.00  0.00    -0.001 A 
ENDROOT
TORSDOF 0
ENDMDL
