MODEL 1
REMARK minimizedAffinity 8.12723255
REMARK minimizedRMSD -1
REMARK  0 active torsions:
REMARK  status: ('A' for Active; 'I' for Inactive)
ROOT
ATOM      1  C   UNL d   1      -5.947  -6.000   0.962  0.00  0.00     0.077 C 
ATOM      2  C1  UNL d   1      -5.170  -4.972   0.194  0.00  0.00    -0.074 A 
ATOM      3  C2  UNL d   1      -3.792  -5.110  -0.002  0.00  0.00    -0.005 A 
ATOM      4  C3  UNL d   1      -3.084  -4.151  -0.726  0.00  0.00     0.006 A 
ATOM      5  C4  UNL d   1      -3.746  -3.046  -1.262  0.00  0.00    -0.005 A 
ATOM      6  C5  UNL d   1      -5.124  -2.891  -1.077  0.00  0.00    -0.074 A 
ATOM      7  C6  UNL d   1      -5.852  -1.714  -1.654  0.00  0.00     0.077 C 
ATOM      8  C7  UNL d   1      -5.829  -3.862  -0.354  0.00  0.00    -0.001 A 
ENDROOT
TORSDOF 0
ENDMDL
