MODEL 1
REMARK minimizedAffinity 6.16763878
REMARK minimizedRMSD -1
REMARK  0 active torsions:
REMARK  status: ('A' for Active; 'I' for Inactive)
ROOT
ATOM      1  C   UNL d   1      -5.631   5.189   5.986  0.00  0.00     0.077 C 
ATOM      2  C1  UNL d   1      -5.311   3.806   5.502  0.00  0.00    -0.074 A 
ATOM      3  C2  UNL d   1      -5.998   2.693   6.000  0.00  0.00    -0.005 A 
ATOM      4  C3  UNL d   1      -5.696   1.414   5.533  0.00  0.00     0.006 A 
ATOM      5  C4  UNL d   1      -4.706   1.234   4.566  0.00  0.00    -0.005 A 
ATOM      6  C5  UNL d   1      -4.010   2.335   4.056  0.00  0.00    -0.074 A 
ATOM      7  C6  UNL d   1      -2.950   2.160   3.009  0.00  0.00     0.077 C 
ATOM      8  C7  UNL d   1      -4.324   3.618   4.525  0.00  0.00    -0.001 A 
ENDROOT
TORSDOF 0
ENDMDL
