MODEL 1
REMARK minimizedAffinity 6.96281672
REMARK minimizedRMSD -1
REMARK  0 active torsions:
REMARK  status: ('A' for Active; 'I' for Inactive)
ROOT
ATOM      1  C   UNL d   1      -2.575  -5.670   0.215  0.00  0.00     0.077 C 
ATOM      2  C1  UNL d   1      -3.233  -4.390  -0.207  0.00  0.00    -0.074 A 
ATOM      3  C2  UNL d   1      -4.233  -3.804   0.575  0.00  0.00    -0.005 A 
ATOM      4  C3  UNL d   1      -4.829  -2.608   0.175  0.00  0.00     0.006 A 
ATOM      5  C4  UNL d   1      -4.431  -1.986  -1.009  0.00  0.00    -0.005 A 
ATOM      6  C5  UNL d   1      -3.431  -2.557  -1.803  0.00  0.00    -0.074 A 
ATOM      7  C6  UNL d   1      -2.985  -1.897  -3.074  0.00  0.00     0.077 C 
ATOM      8  C7  UNL d   1      -2.833  -3.755  -1.391  0.00  0.00    -0.001 A 
ENDROOT
TORSDOF 0
ENDMDL
