MODEL 1
REMARK minimizedAffinity 0.826218247
REMARK minimizedRMSD -1
REMARK  0 active torsions:
REMARK  status: ('A' for Active; 'I' for Inactive)
ROOT
ATOM      1  C   UNL d   1      -0.958   2.406   2.197  0.00  0.00     0.077 C 
ATOM      2  C1  UNL d   1      -2.117   1.721   2.860  0.00  0.00    -0.074 A 
ATOM      3  C2  UNL d   1      -2.505   0.433   2.477  0.00  0.00    -0.005 A 
ATOM      4  C3  UNL d   1      -3.578  -0.195   3.109  0.00  0.00     0.006 A 
ATOM      5  C4  UNL d   1      -4.273   0.457   4.129  0.00  0.00    -0.005 A 
ATOM      6  C5  UNL d   1      -3.898   1.745   4.526  0.00  0.00    -0.074 A 
ATOM      7  C6  UNL d   1      -4.627   2.456   5.626  0.00  0.00     0.077 C 
ATOM      8  C7  UNL d   1      -2.814   2.367   3.891  0.00  0.00    -0.001 A 
ENDROOT
TORSDOF 0
ENDMDL
