MODEL 1
REMARK minimizedAffinity 1.38246453
REMARK minimizedRMSD -1
REMARK  0 active torsions:
REMARK  status: ('A' for Active; 'I' for Inactive)
ROOT
ATOM      1  C   UNL d   1      -2.537   0.039   2.428  0.00  0.00     0.077 C 
ATOM      2  C1  UNL d   1      -1.188   0.690   2.350  0.00  0.00    -0.074 A 
ATOM      3  C2  UNL d   1      -1.063   2.049   2.043  0.00  0.00    -0.005 A 
ATOM      4  C3  UNL d   1       0.197   2.643   1.983  0.00  0.00     0.006 A 
ATOM      5  C4  UNL d   1       1.343   1.886   2.229  0.00  0.00    -0.005 A 
ATOM      6  C5  UNL d   1       1.238   0.527   2.538  0.00  0.00    -0.074 A 
ATOM      7  C6  UNL d   1       2.459  -0.299   2.814  0.00  0.00     0.077 C 
ATOM      8  C7  UNL d   1      -0.032  -0.062   2.603  0.00  0.00    -0.001 A 
ENDROOT
TORSDOF 0
ENDMDL
