MODEL 1
REMARK minimizedAffinity 14.3582487
REMARK minimizedRMSD -1
REMARK  1 active torsions:
REMARK  status: ('A' for Active; 'I' for Inactive)
REMARK    1  A    between atoms: N_2  and  C1_3 
ROOT
ATOM      1  C1  UNL d   1       3.653  -0.541  -4.521  0.00  0.00     0.143 A 
ATOM      2  C2  UNL d   1       4.511  -1.539  -4.997  0.00  0.00    -0.057 A 
ATOM      3  C3  UNL d   1       5.672  -1.218  -5.713  0.00  0.00     0.033 A 
ATOM      4  C4  UNL d   1       5.980   0.110  -5.990  0.00  0.00    -0.042 A 
ATOM      5  C5  UNL d   1       5.128   1.117  -5.548  0.00  0.00     0.033 A 
ATOM      6  C6  UNL d   1       3.975   0.790  -4.829  0.00  0.00    -0.057 A 
ENDROOT
BRANCH   1   7
ATOM      7  N   UNL d   1       2.435  -0.801  -3.890  0.00  0.00    -0.732 N 
ATOM      8  C   UNL d   1       2.374  -1.666  -2.732  0.00  0.00     0.284 C 
ATOM      9  H3  UNL d   1       1.849   0.029  -3.820  0.00  0.00     0.395 HD
ENDBRANCH   1   7
TORSDOF 1
ENDMDL
