MODEL 1
REMARK minimizedAffinity 6.55171585
REMARK minimizedRMSD -1
REMARK  1 active torsions:
REMARK  status: ('A' for Active; 'I' for Inactive)
REMARK    1  A    between atoms: N_2  and  C1_3 
ROOT
ATOM      1  C1  UNL d   1       1.047  -3.849   0.829  0.00  0.00     0.143 A 
ATOM      2  C2  UNL d   1       1.959  -2.793   0.726  0.00  0.00    -0.057 A 
ATOM      3  C3  UNL d   1       2.050  -1.813   1.721  0.00  0.00     0.033 A 
ATOM      4  C4  UNL d   1       1.207  -1.855   2.826  0.00  0.00    -0.042 A 
ATOM      5  C5  UNL d   1       0.276  -2.881   2.938  0.00  0.00     0.033 A 
ATOM      6  C6  UNL d   1       0.194  -3.861   1.944  0.00  0.00    -0.057 A 
ENDROOT
BRANCH   1   7
ATOM      7  N   UNL d   1       0.841  -4.800  -0.174  0.00  0.00    -0.732 N 
ATOM      8  C   UNL d   1       1.192  -4.510  -1.548  0.00  0.00     0.284 C 
ATOM      9  H3  UNL d   1       1.083  -5.741   0.127  0.00  0.00     0.395 HD
ENDBRANCH   1   7
TORSDOF 1
ENDMDL
