MODEL 1
REMARK minimizedAffinity 8.45996857
REMARK minimizedRMSD -1
REMARK  1 active torsions:
REMARK  status: ('A' for Active; 'I' for Inactive)
REMARK    1  A    between atoms: N_2  and  C1_3 
ROOT
ATOM      1  C1  UNL d   1       0.940  -3.036   0.655  0.00  0.00     0.143 A 
ATOM      2  C2  UNL d   1       0.016  -2.081   1.094  0.00  0.00    -0.057 A 
ATOM      3  C3  UNL d   1       0.435  -0.891   1.701  0.00  0.00     0.033 A 
ATOM      4  C4  UNL d   1       1.788  -0.647   1.907  0.00  0.00    -0.042 A 
ATOM      5  C5  UNL d   1       2.723  -1.593   1.502  0.00  0.00     0.033 A 
ATOM      6  C6  UNL d   1       2.300  -2.776   0.890  0.00  0.00    -0.057 A 
ENDROOT
BRANCH   1   7
ATOM      7  N   UNL d   1       0.584  -4.282   0.134  0.00  0.00    -0.732 N 
ATOM      8  C   UNL d   1       1.307  -5.475   0.516  0.00  0.00     0.284 C 
ATOM      9  H3  UNL d   1      -0.425  -4.407   0.081  0.00  0.00     0.395 HD
ENDBRANCH   1   7
TORSDOF 1
ENDMDL
