MODEL 1
REMARK minimizedAffinity 7.00382328
REMARK minimizedRMSD -1
REMARK  1 active torsions:
REMARK  status: ('A' for Active; 'I' for Inactive)
REMARK    1  A    between atoms: N_2  and  C1_3 
ROOT
ATOM      1  C1  UNL d   1       1.894  -2.895   2.250  0.00  0.00     0.143 A 
ATOM      2  C2  UNL d   1       2.232  -1.790   1.461  0.00  0.00    -0.057 A 
ATOM      3  C3  UNL d   1       1.739  -0.512   1.751  0.00  0.00     0.033 A 
ATOM      4  C4  UNL d   1       0.874  -0.321   2.823  0.00  0.00    -0.042 A 
ATOM      5  C5  UNL d   1       0.505  -1.409   3.607  0.00  0.00     0.033 A 
ATOM      6  C6  UNL d   1       1.005  -2.681   3.315  0.00  0.00    -0.057 A 
ENDROOT
BRANCH   1   7
ATOM      7  N   UNL d   1       2.272  -4.207   1.955  0.00  0.00    -0.732 N 
ATOM      8  C   UNL d   1       1.770  -5.314   2.740  0.00  0.00     0.284 C 
ATOM      9  H3  UNL d   1       2.301  -4.387   0.954  0.00  0.00     0.395 HD
ENDBRANCH   1   7
TORSDOF 1
ENDMDL
