MODEL 1
REMARK minimizedAffinity 6.47110224
REMARK minimizedRMSD -1
REMARK  1 active torsions:
REMARK  status: ('A' for Active; 'I' for Inactive)
REMARK    1  A    between atoms: N_2  and  C1_3 
ROOT
ATOM      1  C1  UNL d   1       0.818   0.234   3.073  0.00  0.00     0.143 A 
ATOM      2  C2  UNL d   1       1.307  -0.359   1.904  0.00  0.00    -0.057 A 
ATOM      3  C3  UNL d   1       1.544  -1.737   1.834  0.00  0.00     0.033 A 
ATOM      4  C4  UNL d   1       1.324  -2.545   2.945  0.00  0.00    -0.042 A 
ATOM      5  C5  UNL d   1       0.863  -1.973   4.125  0.00  0.00     0.033 A 
ATOM      6  C6  UNL d   1       0.621  -0.597   4.187  0.00  0.00    -0.057 A 
ENDROOT
BRANCH   1   7
ATOM      7  N   UNL d   1       0.655   1.612   3.237  0.00  0.00    -0.732 N 
ATOM      8  C   UNL d   1       1.738   2.523   2.934  0.00  0.00     0.284 C 
ATOM      9  H3  UNL d   1      -0.259   1.934   2.927  0.00  0.00     0.395 HD
ENDBRANCH   1   7
TORSDOF 1
ENDMDL
