MODEL 1
REMARK minimizedAffinity 0.682077467
REMARK minimizedRMSD -1
REMARK  1 active torsions:
REMARK  status: ('A' for Active; 'I' for Inactive)
REMARK    1  A    between atoms: N_2  and  C1_3 
ROOT
ATOM      1  C1  UNL d   1      -3.437   2.919   0.557  0.00  0.00     0.143 A 
ATOM      2  C2  UNL d   1      -4.135   3.557  -0.474  0.00  0.00    -0.057 A 
ATOM      3  C3  UNL d   1      -5.398   4.121  -0.256  0.00  0.00     0.033 A 
ATOM      4  C4  UNL d   1      -5.999   4.032   0.995  0.00  0.00    -0.042 A 
ATOM      5  C5  UNL d   1      -5.335   3.381   2.029  0.00  0.00     0.033 A 
ATOM      6  C6  UNL d   1      -4.071   2.825   1.806  0.00  0.00    -0.057 A 
ENDROOT
BRANCH   1   7
ATOM      7  N   UNL d   1      -2.222   2.253   0.379  0.00  0.00    -0.732 N 
ATOM      8  C   UNL d   1      -2.026   1.368  -0.750  0.00  0.00     0.284 C 
ATOM      9  H3  UNL d   1      -1.421   2.844   0.588  0.00  0.00     0.395 HD
ENDBRANCH   1   7
TORSDOF 1
ENDMDL
