MODEL 1
REMARK minimizedAffinity -2.75948524
REMARK minimizedRMSD -1
REMARK  1 active torsions:
REMARK  status: ('A' for Active; 'I' for Inactive)
REMARK    1  A    between atoms: N_2  and  C1_3 
ROOT
ATOM      1  C1  UNL d   1      -4.769  -4.875  -4.084  0.00  0.00     0.143 A 
ATOM      2  C2  UNL d   1      -5.182  -3.785  -3.310  0.00  0.00    -0.057 A 
ATOM      3  C3  UNL d   1      -5.039  -3.787  -1.917  0.00  0.00     0.033 A 
ATOM      4  C4  UNL d   1      -4.503  -4.895  -1.269  0.00  0.00    -0.042 A 
ATOM      5  C5  UNL d   1      -4.108  -5.999  -2.015  0.00  0.00     0.033 A 
ATOM      6  C6  UNL d   1      -4.248  -5.989  -3.406  0.00  0.00    -0.057 A 
ENDROOT
BRANCH   1   7
ATOM      7  N   UNL d   1      -4.975  -4.974  -5.462  0.00  0.00    -0.732 N 
ATOM      8  C   UNL d   1      -5.991  -5.857  -5.993  0.00  0.00     0.284 C 
ATOM      9  H3  UNL d   1      -4.924  -4.071  -5.928  0.00  0.00     0.395 HD
ENDBRANCH   1   7
TORSDOF 1
ENDMDL
