MODEL 1
REMARK minimizedAffinity -5.9276495
REMARK minimizedRMSD -1
REMARK  3 active torsions:
REMARK  status: ('A' for Active; 'I' for Inactive)
REMARK    1  A    between atoms: C3'_2  and  C2'_3 
REMARK    2  A    between atoms: C2'_3  and  C1'_4 
REMARK    3  A    between atoms: C1'_4  and  C1_5 
ROOT
ATOM      1  C1  N4B d   1       0.319  -0.004  -0.082  0.00  0.00    -0.075 A 
ATOM      2  C2  N4B d   1       1.715  -0.202   0.001  0.00  0.00     0.002 A 
ATOM      3  C3  N4B d   1       2.217  -1.248   0.736  0.00  0.00     0.002 A 
ATOM      4  C4  N4B d   1       1.348  -2.093   1.410  0.00  0.00    -0.004 A 
ATOM      5  C5  N4B d   1       0.000  -1.910   1.304  0.00  0.00     0.002 A 
ATOM      6  C6  N4B d   1      -0.519  -0.865   0.565  0.00  0.00     0.002 A 
ENDROOT
BRANCH   1   7
ATOM      7  C1' N4B d   1      -0.274   1.176  -0.803  0.00  0.00     0.057 C 
BRANCH   7   8
ATOM      8  C2' N4B d   1      -1.796   1.089  -0.738  0.00  0.00     0.009 C 
BRANCH   8   9
ATOM      9  C3' N4B d   1      -2.458   1.847  -1.876  0.00  0.00     0.004 C 
ATOM     10  C4' N4B d   1      -1.468   2.520  -2.778  0.00  0.00     0.003 C 
ENDBRANCH   8   9
ENDBRANCH   7   8
ENDBRANCH   1   7
TORSDOF 3
ENDMDL
