MODEL 1
REMARK minimizedAffinity -4.96609831
REMARK minimizedRMSD -1
REMARK  3 active torsions:
REMARK  status: ('A' for Active; 'I' for Inactive)
REMARK    1  A    between atoms: C3'_2  and  C2'_3 
REMARK    2  A    between atoms: C2'_3  and  C1'_4 
REMARK    3  A    between atoms: C1'_4  and  C1_5 
ROOT
ATOM      1  C1  N4B d   1       0.230   0.200   0.130  0.00  0.00    -0.075 A 
ATOM      2  C2  N4B d   1       0.047  -1.002   0.848  0.00  0.00     0.002 A 
ATOM      3  C3  N4B d   1       0.994  -1.994   0.777  0.00  0.00     0.002 A 
ATOM      4  C4  N4B d   1       2.117  -1.816  -0.016  0.00  0.00    -0.004 A 
ATOM      5  C5  N4B d   1       2.299  -0.642  -0.686  0.00  0.00     0.002 A 
ATOM      6  C6  N4B d   1       1.358   0.366  -0.621  0.00  0.00     0.002 A 
ENDROOT
BRANCH   1   7
ATOM      7  C1' N4B d   1      -0.817   1.280   0.107  0.00  0.00     0.057 C 
BRANCH   7   8
ATOM      8  C2' N4B d   1      -0.873   1.894  -1.288  0.00  0.00     0.009 C 
BRANCH   8   9
ATOM      9  C3' N4B d   1      -2.154   1.530  -2.019  0.00  0.00     0.004 C 
ATOM     10  C4' N4B d   1      -2.156   1.984  -3.449  0.00  0.00     0.003 C 
ENDBRANCH   8   9
ENDBRANCH   7   8
ENDBRANCH   1   7
TORSDOF 3
ENDMDL
