MODEL 1
REMARK minimizedAffinity -3.40312147
REMARK minimizedRMSD -1
REMARK  3 active torsions:
REMARK  status: ('A' for Active; 'I' for Inactive)
REMARK    1  A    between atoms: C3'_2  and  C2'_3 
REMARK    2  A    between atoms: C2'_3  and  C1'_4 
REMARK    3  A    between atoms: C1'_4  and  C1_5 
ROOT
ATOM      1  C1  N4B d   1      -0.545   0.820  -0.009  0.00  0.00    -0.075 A 
ATOM      2  C2  N4B d   1      -0.075  -0.467   0.331  0.00  0.00     0.002 A 
ATOM      3  C3  N4B d   1       1.272  -0.734   0.310  0.00  0.00     0.002 A 
ATOM      4  C4  N4B d   1       2.162   0.262  -0.065  0.00  0.00    -0.004 A 
ATOM      5  C5  N4B d   1       1.702   1.510  -0.368  0.00  0.00     0.002 A 
ATOM      6  C6  N4B d   1       0.351   1.793  -0.347  0.00  0.00     0.002 A 
ENDROOT
BRANCH   1   7
ATOM      7  C1' N4B d   1      -2.014   1.135  -0.083  0.00  0.00     0.057 C 
BRANCH   7   8
ATOM      8  C2' N4B d   1      -2.535   0.771  -1.470  0.00  0.00     0.009 C 
BRANCH   8   9
ATOM      9  C3' N4B d   1      -2.361   1.909  -2.460  0.00  0.00     0.004 C 
ATOM     10  C4' N4B d   1      -2.209   1.432  -3.874  0.00  0.00     0.003 C 
ENDBRANCH   8   9
ENDBRANCH   7   8
ENDBRANCH   1   7
TORSDOF 3
ENDMDL
