MODEL 1
REMARK minimizedAffinity -1.6828928
REMARK minimizedRMSD -1
REMARK  3 active torsions:
REMARK  status: ('A' for Active; 'I' for Inactive)
REMARK    1  A    between atoms: C3'_2  and  C2'_3 
REMARK    2  A    between atoms: C2'_3  and  C1'_4 
REMARK    3  A    between atoms: C1'_4  and  C1_5 
ROOT
ATOM      1  C1  N4B d   1      -0.234   0.651  -0.222  0.00  0.00    -0.075 A 
ATOM      2  C2  N4B d   1      -1.151  -0.144   0.499  0.00  0.00     0.002 A 
ATOM      3  C3  N4B d   1      -0.694  -1.127   1.343  0.00  0.00     0.002 A 
ATOM      4  C4  N4B d   1       0.670  -1.344   1.466  0.00  0.00    -0.004 A 
ATOM      5  C5  N4B d   1       1.551  -0.555   0.785  0.00  0.00     0.002 A 
ATOM      6  C6  N4B d   1       1.105   0.438  -0.063  0.00  0.00     0.002 A 
ENDROOT
BRANCH   1   7
ATOM      7  C1' N4B d   1      -0.688   1.680  -1.221  0.00  0.00     0.057 C 
BRANCH   7   8
ATOM      8  C2' N4B d   1      -1.901   1.144  -1.975  0.00  0.00     0.009 C 
BRANCH   8   9
ATOM      9  C3' N4B d   1      -1.910   1.591  -3.427  0.00  0.00     0.004 C 
ATOM     10  C4' N4B d   1      -1.160   2.871  -3.646  0.00  0.00     0.003 C 
ENDBRANCH   8   9
ENDBRANCH   7   8
ENDBRANCH   1   7
TORSDOF 3
ENDMDL
