MODEL 1
REMARK minimizedAffinity -4.17649698
REMARK minimizedRMSD -1
REMARK  3 active torsions:
REMARK  status: ('A' for Active; 'I' for Inactive)
REMARK    1  A    between atoms: C3'_2  and  C2'_3 
REMARK    2  A    between atoms: C2'_3  and  C1'_4 
REMARK    3  A    between atoms: C1'_4  and  C1_5 
ROOT
ATOM      1  C1  N4B d   1      -0.017  -0.543  -0.130  0.00  0.00    -0.075 A 
ATOM      2  C2  N4B d   1      -0.492  -1.785   0.345  0.00  0.00     0.002 A 
ATOM      3  C3  N4B d   1       0.392  -2.717   0.832  0.00  0.00     0.002 A 
ATOM      4  C4  N4B d   1       1.750  -2.437   0.837  0.00  0.00    -0.004 A 
ATOM      5  C5  N4B d   1       2.198  -1.224   0.400  0.00  0.00     0.002 A 
ATOM      6  C6  N4B d   1       1.321  -0.277  -0.089  0.00  0.00     0.002 A 
ENDROOT
BRANCH   1   7
ATOM      7  C1' N4B d   1      -0.936   0.473  -0.751  0.00  0.00     0.057 C 
BRANCH   7   8
ATOM      8  C2' N4B d   1      -0.805   0.406  -2.269  0.00  0.00     0.009 C 
BRANCH   8   9
ATOM      9  C3' N4B d   1      -2.102   0.774  -2.969  0.00  0.00     0.004 C 
ATOM     10  C4' N4B d   1      -2.043   2.117  -3.633  0.00  0.00     0.003 C 
ENDBRANCH   8   9
ENDBRANCH   7   8
ENDBRANCH   1   7
TORSDOF 3
ENDMDL
