MODEL 1
REMARK minimizedAffinity 6.05433798
REMARK minimizedRMSD -1
REMARK  0 active torsions:
REMARK  status: ('A' for Active; 'I' for Inactive)
ROOT
ATOM      1  N1  IND d   1       2.141   4.159   4.752  0.00  0.00    -0.196 N 
ATOM      2  C2  IND d   1       1.481   5.173   5.387  0.00  0.00     0.054 A 
ATOM      3  C3  IND d   1       2.361   5.998   5.997  0.00  0.00    -0.031 A 
ATOM      4  C4  IND d   1       4.934   5.932   6.000  0.00  0.00     0.051 A 
ATOM      5  C5  IND d   1       5.992   5.171   5.587  0.00  0.00    -0.031 A 
ATOM      6  C6  IND d   1       5.818   4.013   4.858  0.00  0.00     0.015 A 
ATOM      7  C7  IND d   1       4.573   3.576   4.503  0.00  0.00    -0.016 A 
ATOM      8  C8  IND d   1       3.496   4.341   4.926  0.00  0.00    -0.047 A 
ATOM      9  C9  IND d   1       3.665   5.495   5.703  0.00  0.00    -0.096 A 
ATOM     10  HN1 IND d   1       1.773   3.515   4.316  0.00  0.00     0.298 HD
ENDROOT
TORSDOF 0
ENDMDL
