MODEL 1
REMARK minimizedAffinity 7.66130447
REMARK minimizedRMSD -1
REMARK  0 active torsions:
REMARK  status: ('A' for Active; 'I' for Inactive)
ROOT
ATOM      1  N1  IND d   1       2.566   3.972   4.037  0.00  0.00    -0.196 N 
ATOM      2  C2  IND d   1       1.761   5.060   4.229  0.00  0.00     0.054 A 
ATOM      3  C3  IND d   1       2.403   5.997   4.963  0.00  0.00    -0.031 A 
ATOM      4  C4  IND d   1       4.814   5.998   5.865  0.00  0.00     0.051 A 
ATOM      5  C5  IND d   1       5.923   5.208   5.975  0.00  0.00    -0.031 A 
ATOM      6  C6  IND d   1       5.973   3.941   5.430  0.00  0.00     0.015 A 
ATOM      7  C7  IND d   1       4.913   3.419   4.743  0.00  0.00    -0.016 A 
ATOM      8  C8  IND d   1       3.782   4.216   4.636  0.00  0.00    -0.047 A 
ATOM      9  C9  IND d   1       3.711   5.486   5.223  0.00  0.00    -0.096 A 
ATOM     10  HN1 IND d   1       2.349   3.256   3.613  0.00  0.00     0.298 HD
ENDROOT
TORSDOF 0
ENDMDL
