MODEL 1
REMARK minimizedAffinity 8.91134357
REMARK minimizedRMSD -1
REMARK  0 active torsions:
REMARK  status: ('A' for Active; 'I' for Inactive)
ROOT
ATOM      1  N1  IND d   1       5.179   4.126   4.222  0.00  0.00    -0.196 N 
ATOM      2  C2  IND d   1       5.996   4.676   5.170  0.00  0.00     0.054 A 
ATOM      3  C3  IND d   1       5.289   5.495   5.982  0.00  0.00    -0.031 A 
ATOM      4  C4  IND d   1       2.765   6.000   5.999  0.00  0.00     0.051 A 
ATOM      5  C5  IND d   1       1.614   5.761   5.303  0.00  0.00    -0.031 A 
ATOM      6  C6  IND d   1       1.591   4.946   4.190  0.00  0.00     0.015 A 
ATOM      7  C7  IND d   1       2.722   4.328   3.736  0.00  0.00    -0.016 A 
ATOM      8  C8  IND d   1       3.894   4.574   4.437  0.00  0.00    -0.047 A 
ATOM      9  C9  IND d   1       3.932   5.434   5.542  0.00  0.00    -0.096 A 
ATOM     10  HN1 IND d   1       5.427   3.590   3.597  0.00  0.00     0.298 HD
ENDROOT
TORSDOF 0
ENDMDL
