MODEL 1
REMARK minimizedAffinity 21.1877689
REMARK minimizedRMSD -1
REMARK  0 active torsions:
REMARK  status: ('A' for Active; 'I' for Inactive)
ROOT
ATOM      1  N1  IND d   1      -6.000   4.710  -5.559  0.00  0.00    -0.196 N 
ATOM      2  C2  IND d   1      -5.894   5.925  -4.942  0.00  0.00     0.054 A 
ATOM      3  C3  IND d   1      -4.737   6.000  -4.246  0.00  0.00    -0.031 A 
ATOM      4  C4  IND d   1      -2.825   4.286  -4.064  0.00  0.00     0.051 A 
ATOM      5  C5  IND d   1      -2.481   3.013  -4.424  0.00  0.00    -0.031 A 
ATOM      6  C6  IND d   1      -3.308   2.226  -5.198  0.00  0.00     0.015 A 
ATOM      7  C7  IND d   1      -4.511   2.689  -5.653  0.00  0.00    -0.016 A 
ATOM      8  C8  IND d   1      -4.866   3.978  -5.284  0.00  0.00    -0.047 A 
ATOM      9  C9  IND d   1      -4.049   4.767  -4.463  0.00  0.00    -0.096 A 
ATOM     10  HN1 IND d   1      -6.663   4.448  -6.039  0.00  0.00     0.298 HD
ENDROOT
TORSDOF 0
ENDMDL
