MODEL 1
REMARK minimizedAffinity 7.29283762
REMARK minimizedRMSD -1
REMARK  0 active torsions:
REMARK  status: ('A' for Active; 'I' for Inactive)
ROOT
ATOM      1  N1  IND d   1      -0.486   1.215  -3.264  0.00  0.00    -0.196 N 
ATOM      2  C2  IND d   1      -1.388   2.216  -3.493  0.00  0.00     0.054 A 
ATOM      3  C3  IND d   1      -2.560   1.943  -2.877  0.00  0.00    -0.031 A 
ATOM      4  C4  IND d   1      -3.186  -0.038  -1.357  0.00  0.00     0.051 A 
ATOM      5  C5  IND d   1      -2.704  -1.226  -0.883  0.00  0.00    -0.031 A 
ATOM      6  C6  IND d   1      -1.432  -1.668  -1.181  0.00  0.00     0.015 A 
ATOM      7  C7  IND d   1      -0.586  -0.931  -1.960  0.00  0.00    -0.016 A 
ATOM      8  C8  IND d   1      -1.074   0.272  -2.450  0.00  0.00    -0.047 A 
ATOM      9  C9  IND d   1      -2.379   0.706  -2.185  0.00  0.00    -0.096 A 
ATOM     10  HN1 IND d   1       0.315   1.180  -3.576  0.00  0.00     0.298 HD
ENDROOT
TORSDOF 0
ENDMDL
