MODEL 1
REMARK minimizedAffinity -1.14693046
REMARK minimizedRMSD -1
REMARK  0 active torsions:
REMARK  status: ('A' for Active; 'I' for Inactive)
ROOT
ATOM      1  N1  IND d   1       2.583   3.836   6.000  0.00  0.00    -0.196 N 
ATOM      2  C2  IND d   1       1.831   4.978   5.992  0.00  0.00     0.054 A 
ATOM      3  C3  IND d   1       2.533   5.999   5.452  0.00  0.00    -0.031 A 
ATOM      4  C4  IND d   1       4.894   6.000   4.426  0.00  0.00     0.051 A 
ATOM      5  C5  IND d   1       5.987   5.201   4.237  0.00  0.00    -0.031 A 
ATOM      6  C6  IND d   1       6.000   3.878   4.631  0.00  0.00     0.015 A 
ATOM      7  C7  IND d   1       4.912   3.300   5.222  0.00  0.00    -0.016 A 
ATOM      8  C8  IND d   1       3.803   4.111   5.422  0.00  0.00    -0.047 A 
ATOM      9  C9  IND d   1       3.799   5.464   5.062  0.00  0.00    -0.096 A 
ATOM     10  HN1 IND d   1       2.336   3.075   6.313  0.00  0.00     0.298 HD
ENDROOT
TORSDOF 0
ENDMDL
