MODEL 1
REMARK minimizedAffinity -3.93601775
REMARK minimizedRMSD -1
REMARK  0 active torsions:
REMARK  status: ('A' for Active; 'I' for Inactive)
ROOT
ATOM      1  N1  IND d   1      -2.728  -1.253   0.940  0.00  0.00    -0.196 N 
ATOM      2  C2  IND d   1      -3.509  -0.720  -0.047  0.00  0.00     0.054 A 
ATOM      3  C3  IND d   1      -2.749  -0.032  -0.928  0.00  0.00    -0.031 A 
ATOM      4  C4  IND d   1      -0.193   0.265  -1.000  0.00  0.00     0.051 A 
ATOM      5  C5  IND d   1       0.944  -0.007  -0.292  0.00  0.00    -0.031 A 
ATOM      6  C6  IND d   1       0.914  -0.726   0.886  0.00  0.00     0.015 A 
ATOM      7  C7  IND d   1      -0.257  -1.210   1.396  0.00  0.00    -0.016 A 
ATOM      8  C8  IND d   1      -1.414  -0.930   0.682  0.00  0.00    -0.047 A 
ATOM      9  C9  IND d   1      -1.395  -0.165  -0.491  0.00  0.00    -0.096 A 
ATOM     10  HN1 IND d   1      -3.010  -1.713   1.610  0.00  0.00     0.298 HD
ENDROOT
TORSDOF 0
ENDMDL
