MODEL 1
REMARK minimizedAffinity -2.31402373
REMARK minimizedRMSD -1
REMARK  0 active torsions:
REMARK  status: ('A' for Active; 'I' for Inactive)
ROOT
ATOM      1  N1  IND d   1       0.224  -1.647   1.309  0.00  0.00    -0.196 N 
ATOM      2  C2  IND d   1       1.503  -1.173   1.206  0.00  0.00     0.054 A 
ATOM      3  C3  IND d   1       1.628  -0.389   0.112  0.00  0.00    -0.031 A 
ATOM      4  C4  IND d   1      -0.159   0.335  -1.594  0.00  0.00     0.051 A 
ATOM      5  C5  IND d   1      -1.466   0.130  -1.938  0.00  0.00    -0.031 A 
ATOM      6  C6  IND d   1      -2.293  -0.693  -1.201  0.00  0.00     0.015 A 
ATOM      7  C7  IND d   1      -1.846  -1.335  -0.081  0.00  0.00    -0.016 A 
ATOM      8  C8  IND d   1      -0.518  -1.134   0.267  0.00  0.00    -0.047 A 
ATOM      9  C9  IND d   1       0.338  -0.334  -0.500  0.00  0.00    -0.096 A 
ATOM     10  HN1 IND d   1      -0.067  -2.176   1.920  0.00  0.00     0.298 HD
ENDROOT
TORSDOF 0
ENDMDL
