MODEL 1
REMARK minimizedAffinity 2.88521576
REMARK minimizedRMSD -1
REMARK  0 active torsions:
REMARK  status: ('A' for Active; 'I' for Inactive)
ROOT
ATOM      1  N1  IND d   1       5.668  -0.327  -3.330  0.00  0.00    -0.196 N 
ATOM      2  C2  IND d   1       5.386  -1.561  -2.815  0.00  0.00     0.054 A 
ATOM      3  C3  IND d   1       5.282  -1.497  -1.469  0.00  0.00    -0.031 A 
ATOM      4  C4  IND d   1       5.437   0.547   0.088  0.00  0.00     0.051 A 
ATOM      5  C5  IND d   1       5.718   1.885   0.085  0.00  0.00    -0.031 A 
ATOM      6  C6  IND d   1       6.000   2.568  -1.081  0.00  0.00     0.015 A 
ATOM      7  C7  IND d   1       6.000   1.938  -2.293  0.00  0.00    -0.016 A 
ATOM      8  C8  IND d   1       5.722   0.579  -2.293  0.00  0.00    -0.047 A 
ATOM      9  C9  IND d   1       5.477  -0.129  -1.109  0.00  0.00    -0.096 A 
ATOM     10  HN1 IND d   1       5.792  -0.146  -4.161  0.00  0.00     0.298 HD
ENDROOT
TORSDOF 0
ENDMDL
