MODEL 1
REMARK minimizedAffinity -3.02046824
REMARK minimizedRMSD -1
REMARK  0 active torsions:
REMARK  status: ('A' for Active; 'I' for Inactive)
ROOT
ATOM      1  N1  IND d   1      -2.253  -2.097   1.523  0.00  0.00    -0.196 N 
ATOM      2  C2  IND d   1      -3.357  -2.855   1.251  0.00  0.00     0.054 A 
ATOM      3  C3  IND d   1      -3.737  -2.690  -0.036  0.00  0.00    -0.031 A 
ATOM      4  C4  IND d   1      -2.632  -1.301  -1.901  0.00  0.00     0.051 A 
ATOM      5  C5  IND d   1      -1.621  -0.409  -2.125  0.00  0.00    -0.031 A 
ATOM      6  C6  IND d   1      -0.750  -0.028  -1.125  0.00  0.00     0.015 A 
ATOM      7  C7  IND d   1      -0.851  -0.536   0.140  0.00  0.00    -0.016 A 
ATOM      8  C8  IND d   1      -1.880  -1.437   0.372  0.00  0.00    -0.047 A 
ATOM      9  C9  IND d   1      -2.793  -1.795  -0.628  0.00  0.00    -0.096 A 
ATOM     10  HN1 IND d   1      -1.858  -2.041   2.284  0.00  0.00     0.298 HD
ENDROOT
TORSDOF 0
ENDMDL
