MODEL 1
REMARK minimizedAffinity -2.22629166
REMARK minimizedRMSD -1
REMARK  0 active torsions:
REMARK  status: ('A' for Active; 'I' for Inactive)
ROOT
ATOM      1  N1  IND d   1      -1.998   0.060   1.350  0.00  0.00    -0.196 N 
ATOM      2  C2  IND d   1      -3.289  -0.223   1.004  0.00  0.00     0.054 A 
ATOM      3  C3  IND d   1      -3.403  -0.333  -0.339  0.00  0.00    -0.031 A 
ATOM      4  C4  IND d   1      -1.581  -0.189  -2.151  0.00  0.00     0.051 A 
ATOM      5  C5  IND d   1      -0.254   0.090  -2.325  0.00  0.00    -0.031 A 
ATOM      6  C6  IND d   1       0.577   0.376  -1.261  0.00  0.00     0.015 A 
ATOM      7  C7  IND d   1       0.112   0.383   0.023  0.00  0.00    -0.016 A 
ATOM      8  C8  IND d   1      -1.236   0.107   0.203  0.00  0.00    -0.047 A 
ATOM      9  C9  IND d   1      -2.093  -0.142  -0.877  0.00  0.00    -0.096 A 
ATOM     10  HN1 IND d   1      -1.709   0.188   2.150  0.00  0.00     0.298 HD
ENDROOT
TORSDOF 0
ENDMDL
