MODEL 1
REMARK minimizedAffinity -0.0903762951
REMARK minimizedRMSD -1
REMARK  0 active torsions:
REMARK  status: ('A' for Active; 'I' for Inactive)
ROOT
ATOM      1  N1  IND d   1       1.396  -0.095  -1.053  0.00  0.00    -0.196 N 
ATOM      2  C2  IND d   1       0.739   0.245  -2.202  0.00  0.00     0.054 A 
ATOM      3  C3  IND d   1      -0.598   0.150  -2.026  0.00  0.00    -0.031 A 
ATOM      4  C4  IND d   1      -1.930  -0.446   0.094  0.00  0.00     0.051 A 
ATOM      5  C5  IND d   1      -1.769  -0.868   1.384  0.00  0.00    -0.031 A 
ATOM      6  C6  IND d   1      -0.520  -1.055   1.940  0.00  0.00     0.015 A 
ATOM      7  C7  IND d   1       0.620  -0.815   1.226  0.00  0.00    -0.016 A 
ATOM      8  C8  IND d   1       0.461  -0.393  -0.086  0.00  0.00    -0.047 A 
ATOM      9  C9  IND d   1      -0.804  -0.242  -0.668  0.00  0.00    -0.096 A 
ATOM     10  HN1 IND d   1       2.249  -0.119  -0.951  0.00  0.00     0.298 HD
ENDROOT
TORSDOF 0
ENDMDL
