MODEL 1
REMARK minimizedAffinity 2.66809368
REMARK minimizedRMSD -1
REMARK  0 active torsions:
REMARK  status: ('A' for Active; 'I' for Inactive)
ROOT
ATOM      1  N1  IND d   1      -2.145   0.109  -2.224  0.00  0.00    -0.196 N 
ATOM      2  C2  IND d   1      -1.247   1.072  -2.589  0.00  0.00     0.054 A 
ATOM      3  C3  IND d   1      -0.223   1.119  -1.708  0.00  0.00    -0.031 A 
ATOM      4  C4  IND d   1       0.234  -0.361   0.348  0.00  0.00     0.051 A 
ATOM      5  C5  IND d   1      -0.321  -1.354   1.105  0.00  0.00    -0.031 A 
ATOM      6  C6  IND d   1      -1.535  -1.924   0.783  0.00  0.00     0.015 A 
ATOM      7  C7  IND d   1      -2.238  -1.528  -0.319  0.00  0.00    -0.016 A 
ATOM      8  C8  IND d   1      -1.681  -0.514  -1.086  0.00  0.00    -0.047 A 
ATOM      9  C9  IND d   1      -0.469   0.097  -0.741  0.00  0.00    -0.096 A 
ATOM     10  HN1 IND d   1      -2.877  -0.077  -2.635  0.00  0.00     0.298 HD
ENDROOT
TORSDOF 0
ENDMDL
