MODEL 1
REMARK minimizedAffinity -3.7275784
REMARK minimizedRMSD -1
REMARK  0 active torsions:
REMARK  status: ('A' for Active; 'I' for Inactive)
ROOT
ATOM      1  N1  IND d   1       1.088  -0.406   0.837  0.00  0.00    -0.196 N 
ATOM      2  C2  IND d   1       1.183   0.486  -0.194  0.00  0.00     0.054 A 
ATOM      3  C3  IND d   1       0.035   0.503  -0.909  0.00  0.00    -0.031 A 
ATOM      4  C4  IND d   1      -2.162  -0.775  -0.505  0.00  0.00     0.051 A 
ATOM      5  C5  IND d   1      -2.719  -1.735   0.293  0.00  0.00    -0.031 A 
ATOM      6  C6  IND d   1      -2.022  -2.310   1.336  0.00  0.00     0.015 A 
ATOM      7  C7  IND d   1      -0.741  -1.937   1.628  0.00  0.00    -0.016 A 
ATOM      8  C8  IND d   1      -0.170  -0.968   0.815  0.00  0.00    -0.047 A 
ATOM      9  C9  IND d   1      -0.857  -0.411  -0.270  0.00  0.00    -0.096 A 
ATOM     10  HN1 IND d   1       1.709  -0.585   1.404  0.00  0.00     0.298 HD
ENDROOT
TORSDOF 0
ENDMDL
