MODEL 1
REMARK minimizedAffinity 12.8094931
REMARK minimizedRMSD -1
REMARK  2 active torsions:
REMARK  status: ('A' for Active; 'I' for Inactive)
REMARK    1  A    between atoms: C2'_3  and  C1'_4 
REMARK    2  A    between atoms: C1'_4  and  C1_5 
ROOT
ATOM      1  C1  I4B d   1       4.925   4.155  -0.761  0.00  0.00    -0.075 A 
ATOM      2  C2  I4B d   1       6.000   4.174   0.093  0.00  0.00     0.003 A 
ATOM      3  C3  I4B d   1       6.000   3.368   1.257  0.00  0.00     0.002 A 
ATOM      4  C4  I4B d   1       4.891   2.601   1.553  0.00  0.00    -0.004 A 
ATOM      5  C5  I4B d   1       3.812   2.566   0.675  0.00  0.00     0.002 A 
ATOM      6  C6  I4B d   1       3.833   3.338  -0.496  0.00  0.00     0.003 A 
ENDROOT
BRANCH   1   7
ATOM      7  C1' I4B d   1       4.944   5.044  -1.964  0.00  0.00     0.060 C 
BRANCH   7   8
ATOM      8  C2' I4B d   1       5.131   4.170  -3.187  0.00  0.00    -0.013 C 
ATOM      9  C4' I4B d   1       3.807   3.808  -3.807  0.00  0.00     0.013 C 
ATOM     10  C3' I4B d   1       5.999   4.913  -4.158  0.00  0.00     0.013 C 
ENDBRANCH   7   8
ENDBRANCH   1   7
TORSDOF 2
ENDMDL
