MODEL 1
REMARK minimizedAffinity 11.4512644
REMARK minimizedRMSD -1
REMARK  2 active torsions:
REMARK  status: ('A' for Active; 'I' for Inactive)
REMARK    1  A    between atoms: C2'_3  and  C1'_4 
REMARK    2  A    between atoms: C1'_4  and  C1_5 
ROOT
ATOM      1  C1  I4B d   1       0.222   5.203  -2.981  0.00  0.00    -0.075 A 
ATOM      2  C2  I4B d   1      -0.352   5.754  -1.863  0.00  0.00     0.003 A 
ATOM      3  C3  I4B d   1      -1.748   5.988  -1.821  0.00  0.00     0.002 A 
ATOM      4  C4  I4B d   1      -2.519   5.705  -2.930  0.00  0.00    -0.004 A 
ATOM      5  C5  I4B d   1      -1.938   5.125  -4.054  0.00  0.00     0.002 A 
ATOM      6  C6  I4B d   1      -0.561   4.861  -4.076  0.00  0.00     0.003 A 
ENDROOT
BRANCH   1   7
ATOM      7  C1' I4B d   1       1.704   4.999  -3.004  0.00  0.00     0.060 C 
BRANCH   7   8
ATOM      8  C2' I4B d   1       1.973   3.585  -3.476  0.00  0.00    -0.013 C 
ATOM      9  C4' I4B d   1       3.323   3.478  -4.135  0.00  0.00     0.013 C 
ATOM     10  C3' I4B d   1       1.877   2.674  -2.289  0.00  0.00     0.013 C 
ENDBRANCH   7   8
ENDBRANCH   1   7
TORSDOF 2
ENDMDL
