MODEL 1
REMARK minimizedAffinity 22.7612152
REMARK minimizedRMSD -1
REMARK  2 active torsions:
REMARK  status: ('A' for Active; 'I' for Inactive)
REMARK    1  A    between atoms: C2'_3  and  C1'_4 
REMARK    2  A    between atoms: C1'_4  and  C1_5 
ROOT
ATOM      1  C1  I4B d   1      -2.733   5.602  -3.777  0.00  0.00    -0.075 A 
ATOM      2  C2  I4B d   1      -2.888   5.736  -5.134  0.00  0.00     0.003 A 
ATOM      3  C3  I4B d   1      -1.781   5.558  -5.999  0.00  0.00     0.002 A 
ATOM      4  C4  I4B d   1      -0.535   5.298  -5.465  0.00  0.00    -0.004 A 
ATOM      5  C5  I4B d   1      -0.385   5.140  -4.090  0.00  0.00     0.002 A 
ATOM      6  C6  I4B d   1      -1.492   5.280  -3.241  0.00  0.00     0.003 A 
ENDROOT
BRANCH   1   7
ATOM      7  C1' I4B d   1      -3.916   5.830  -2.891  0.00  0.00     0.060 C 
BRANCH   7   8
ATOM      8  C2' I4B d   1      -3.736   4.984  -1.647  0.00  0.00    -0.013 C 
ATOM      9  C4' I4B d   1      -2.632   5.523  -0.775  0.00  0.00     0.013 C 
ATOM     10  C3' I4B d   1      -5.043   4.959  -0.911  0.00  0.00     0.013 C 
ENDBRANCH   7   8
ENDBRANCH   1   7
TORSDOF 2
ENDMDL
