MODEL 1
REMARK minimizedAffinity 17.178854
REMARK minimizedRMSD -1
REMARK  2 active torsions:
REMARK  status: ('A' for Active; 'I' for Inactive)
REMARK    1  A    between atoms: C2'_3  and  C1'_4 
REMARK    2  A    between atoms: C1'_4  and  C1_5 
ROOT
ATOM      1  C1  I4B d   1       4.247   4.589  -2.616  0.00  0.00    -0.075 A 
ATOM      2  C2  I4B d   1       4.921   4.126  -3.718  0.00  0.00     0.003 A 
ATOM      3  C3  I4B d   1       4.382   3.068  -4.490  0.00  0.00     0.002 A 
ATOM      4  C4  I4B d   1       3.201   2.473  -4.098  0.00  0.00    -0.004 A 
ATOM      5  C5  I4B d   1       2.507   2.960  -2.993  0.00  0.00     0.002 A 
ATOM      6  C6  I4B d   1       3.027   4.032  -2.254  0.00  0.00     0.003 A 
ENDROOT
BRANCH   1   7
ATOM      7  C1' I4B d   1       4.861   5.685  -1.804  0.00  0.00     0.060 C 
BRANCH   7   8
ATOM      8  C2' I4B d   1       6.000   5.090  -1.001  0.00  0.00    -0.013 C 
ATOM      9  C4' I4B d   1       5.999   5.608   0.413  0.00  0.00     0.013 C 
ATOM     10  C3' I4B d   1       5.857   3.598  -1.032  0.00  0.00     0.013 C 
ENDBRANCH   7   8
ENDBRANCH   1   7
TORSDOF 2
ENDMDL
