MODEL 1
REMARK minimizedAffinity 7.24236059
REMARK minimizedRMSD -1
REMARK  2 active torsions:
REMARK  status: ('A' for Active; 'I' for Inactive)
REMARK    1  A    between atoms: C2'_3  and  C1'_4 
REMARK    2  A    between atoms: C1'_4  and  C1_5 
ROOT
ATOM      1  C1  I4B d   1      -3.583  -0.259   1.194  0.00  0.00    -0.075 A 
ATOM      2  C2  I4B d   1      -3.305   0.838   1.970  0.00  0.00     0.003 A 
ATOM      3  C3  I4B d   1      -2.132   0.872   2.763  0.00  0.00     0.002 A 
ATOM      4  C4  I4B d   1      -1.298  -0.227   2.790  0.00  0.00    -0.004 A 
ATOM      5  C5  I4B d   1      -1.569  -1.329   1.985  0.00  0.00     0.002 A 
ATOM      6  C6  I4B d   1      -2.713  -1.342   1.173  0.00  0.00     0.003 A 
ENDROOT
BRANCH   1   7
ATOM      7  C1' I4B d   1      -4.847  -0.275   0.394  0.00  0.00     0.060 C 
BRANCH   7   8
ATOM      8  C2' I4B d   1      -4.591   0.475  -0.897  0.00  0.00    -0.013 C 
ATOM      9  C4' I4B d   1      -5.153  -0.269  -2.080  0.00  0.00     0.013 C 
ATOM     10  C3' I4B d   1      -5.207   1.837  -0.771  0.00  0.00     0.013 C 
ENDBRANCH   7   8
ENDBRANCH   1   7
TORSDOF 2
ENDMDL
