MODEL 1
REMARK minimizedAffinity 13.5352802
REMARK minimizedRMSD -1
REMARK  2 active torsions:
REMARK  status: ('A' for Active; 'I' for Inactive)
REMARK    1  A    between atoms: C2'_3  and  C1'_4 
REMARK    2  A    between atoms: C1'_4  and  C1_5 
ROOT
ATOM      1  C1  I4B d   1       1.527   1.881  -1.287  0.00  0.00    -0.075 A 
ATOM      2  C2  I4B d   1       1.117   2.218  -0.021  0.00  0.00     0.003 A 
ATOM      3  C3  I4B d   1       1.997   2.063   1.077  0.00  0.00     0.002 A 
ATOM      4  C4  I4B d   1       3.251   1.526   0.873  0.00  0.00    -0.004 A 
ATOM      5  C5  I4B d   1       3.673   1.207  -0.414  0.00  0.00     0.002 A 
ATOM      6  C6  I4B d   1       2.810   1.397  -1.503  0.00  0.00     0.003 A 
ENDROOT
BRANCH   1   7
ATOM      7  C1' I4B d   1       0.560   2.026  -2.420  0.00  0.00     0.060 C 
BRANCH   7   8
ATOM      8  C2' I4B d   1       0.698   3.430  -2.975  0.00  0.00    -0.013 C 
ATOM      9  C4' I4B d   1       2.006   3.603  -3.701  0.00  0.00     0.013 C 
ATOM     10  C3' I4B d   1      -0.465   3.683  -3.886  0.00  0.00     0.013 C 
ENDBRANCH   7   8
ENDBRANCH   1   7
TORSDOF 2
ENDMDL
