MODEL 1
REMARK minimizedAffinity 13.9890633
REMARK minimizedRMSD -1
REMARK  2 active torsions:
REMARK  status: ('A' for Active; 'I' for Inactive)
REMARK    1  A    between atoms: C2'_3  and  C1'_4 
REMARK    2  A    between atoms: C1'_4  and  C1_5 
ROOT
ATOM      1  C1  I4B d   1      -1.773  -2.909   0.466  0.00  0.00    -0.075 A 
ATOM      2  C2  I4B d   1      -2.040  -1.931  -0.459  0.00  0.00     0.003 A 
ATOM      3  C3  I4B d   1      -2.152  -2.260  -1.832  0.00  0.00     0.002 A 
ATOM      4  C4  I4B d   1      -1.942  -3.562  -2.238  0.00  0.00    -0.004 A 
ATOM      5  C5  I4B d   1      -1.694  -4.556  -1.296  0.00  0.00     0.002 A 
ATOM      6  C6  I4B d   1      -1.621  -4.231   0.066  0.00  0.00     0.003 A 
ENDROOT
BRANCH   1   7
ATOM      7  C1' I4B d   1      -1.628  -2.521   1.903  0.00  0.00     0.060 C 
BRANCH   7   8
ATOM      8  C2' I4B d   1      -2.685  -1.481   2.215  0.00  0.00    -0.013 C 
ATOM      9  C4' I4B d   1      -3.860  -2.095   2.930  0.00  0.00     0.013 C 
ATOM     10  C3' I4B d   1      -2.047  -0.407   3.044  0.00  0.00     0.013 C 
ENDBRANCH   7   8
ENDBRANCH   1   7
TORSDOF 2
ENDMDL
