MODEL 1
REMARK minimizedAffinity 9.16092873
REMARK minimizedRMSD -1
REMARK  2 active torsions:
REMARK  status: ('A' for Active; 'I' for Inactive)
REMARK    1  A    between atoms: C2'_3  and  C1'_4 
REMARK    2  A    between atoms: C1'_4  and  C1_5 
ROOT
ATOM      1  C1  I4B d   1       3.193   3.151  -2.945  0.00  0.00    -0.075 A 
ATOM      2  C2  I4B d   1       4.109   3.960  -2.319  0.00  0.00     0.003 A 
ATOM      3  C3  I4B d   1       5.057   4.685  -3.081  0.00  0.00     0.002 A 
ATOM      4  C4  I4B d   1       5.086   4.535  -4.452  0.00  0.00    -0.004 A 
ATOM      5  C5  I4B d   1       4.142   3.732  -5.087  0.00  0.00     0.002 A 
ATOM      6  C6  I4B d   1       3.182   3.045  -4.330  0.00  0.00     0.003 A 
ENDROOT
BRANCH   1   7
ATOM      7  C1' I4B d   1       2.227   2.373  -2.108  0.00  0.00     0.060 C 
BRANCH   7   8
ATOM      8  C2' I4B d   1       2.981   1.824  -0.914  0.00  0.00    -0.013 C 
ATOM      9  C4' I4B d   1       2.108   1.785   0.312  0.00  0.00     0.013 C 
ATOM     10  C3' I4B d   1       3.477   0.454  -1.270  0.00  0.00     0.013 C 
ENDBRANCH   7   8
ENDBRANCH   1   7
TORSDOF 2
ENDMDL
