MODEL 1
REMARK minimizedAffinity 14.8088694
REMARK minimizedRMSD -1
REMARK  2 active torsions:
REMARK  status: ('A' for Active; 'I' for Inactive)
REMARK    1  A    between atoms: C2'_3  and  C1'_4 
REMARK    2  A    between atoms: C1'_4  and  C1_5 
ROOT
ATOM      1  C1  I4B d   1      -4.132   0.154   1.789  0.00  0.00    -0.075 A 
ATOM      2  C2  I4B d   1      -3.193  -0.836   1.640  0.00  0.00     0.003 A 
ATOM      3  C3  I4B d   1      -1.968  -0.769   2.347  0.00  0.00     0.002 A 
ATOM      4  C4  I4B d   1      -1.705   0.324   3.148  0.00  0.00    -0.004 A 
ATOM      5  C5  I4B d   1      -2.667   1.315   3.316  0.00  0.00     0.002 A 
ATOM      6  C6  I4B d   1      -3.894   1.224   2.642  0.00  0.00     0.003 A 
ENDROOT
BRANCH   1   7
ATOM      7  C1' I4B d   1      -5.401   0.068   1.002  0.00  0.00     0.060 C 
BRANCH   7   8
ATOM      8  C2' I4B d   1      -5.173   0.756  -0.329  0.00  0.00    -0.013 C 
ATOM      9  C4' I4B d   1      -5.858   0.019  -1.449  0.00  0.00     0.013 C 
ATOM     10  C3' I4B d   1      -5.681   2.163  -0.215  0.00  0.00     0.013 C 
ENDBRANCH   7   8
ENDBRANCH   1   7
TORSDOF 2
ENDMDL
