MODEL 1
REMARK minimizedAffinity 0.534801543
REMARK minimizedRMSD -1
REMARK  2 active torsions:
REMARK  status: ('A' for Active; 'I' for Inactive)
REMARK    1  A    between atoms: C2'_3  and  C1'_4 
REMARK    2  A    between atoms: C1'_4  and  C1_5 
ROOT
ATOM      1  C1  I4B d   1      -4.269   0.667   3.109  0.00  0.00    -0.075 A 
ATOM      2  C2  I4B d   1      -3.013   0.844   3.633  0.00  0.00     0.003 A 
ATOM      3  C3  I4B d   1      -1.902   0.178   3.062  0.00  0.00     0.002 A 
ATOM      4  C4  I4B d   1      -2.099  -0.690   2.007  0.00  0.00    -0.004 A 
ATOM      5  C5  I4B d   1      -3.370  -0.851   1.463  0.00  0.00     0.002 A 
ATOM      6  C6  I4B d   1      -4.460  -0.159   2.009  0.00  0.00     0.003 A 
ENDROOT
BRANCH   1   7
ATOM      7  C1' I4B d   1      -5.425   1.361   3.758  0.00  0.00     0.060 C 
BRANCH   7   8
ATOM      8  C2' I4B d   1      -5.100   1.536   5.227  0.00  0.00    -0.013 C 
ATOM      9  C4' I4B d   1      -5.417   2.933   5.693  0.00  0.00     0.013 C 
ATOM     10  C3' I4B d   1      -5.883   0.517   5.999  0.00  0.00     0.013 C 
ENDBRANCH   7   8
ENDBRANCH   1   7
TORSDOF 2
ENDMDL
