MODEL 1
REMARK minimizedAffinity 14.2659435
REMARK minimizedRMSD -1
REMARK  2 active torsions:
REMARK  status: ('A' for Active; 'I' for Inactive)
REMARK    1  A    between atoms: C2'_3  and  C1'_4 
REMARK    2  A    between atoms: C1'_4  and  C1_5 
ROOT
ATOM      1  C1  I4B d   1      -3.452   0.811   2.754  0.00  0.00    -0.075 A 
ATOM      2  C2  I4B d   1      -4.522   0.708   1.900  0.00  0.00     0.003 A 
ATOM      3  C3  I4B d   1      -5.813   1.105   2.323  0.00  0.00     0.002 A 
ATOM      4  C4  I4B d   1      -5.997   1.549   3.617  0.00  0.00    -0.004 A 
ATOM      5  C5  I4B d   1      -4.908   1.674   4.474  0.00  0.00     0.002 A 
ATOM      6  C6  I4B d   1      -3.625   1.315   4.036  0.00  0.00     0.003 A 
ENDROOT
BRANCH   1   7
ATOM      7  C1' I4B d   1      -2.108   0.352   2.284  0.00  0.00     0.060 C 
BRANCH   7   8
ATOM      8  C2' I4B d   1      -1.660  -0.779   3.187  0.00  0.00    -0.013 C 
ATOM      9  C4' I4B d   1      -0.399  -1.422   2.671  0.00  0.00     0.013 C 
ATOM     10  C3' I4B d   1      -1.458  -0.220   4.564  0.00  0.00     0.013 C 
ENDBRANCH   7   8
ENDBRANCH   1   7
TORSDOF 2
ENDMDL
