MODEL 1
REMARK minimizedAffinity 12.678072
REMARK minimizedRMSD -1
REMARK  2 active torsions:
REMARK  status: ('A' for Active; 'I' for Inactive)
REMARK    1  A    between atoms: C2'_3  and  C1'_4 
REMARK    2  A    between atoms: C1'_4  and  C1_5 
ROOT
ATOM      1  C1  I4B d   1      -0.882  -1.513   2.508  0.00  0.00    -0.075 A 
ATOM      2  C2  I4B d   1      -1.930  -2.191   1.937  0.00  0.00     0.003 A 
ATOM      3  C3  I4B d   1      -3.261  -1.756   2.148  0.00  0.00     0.002 A 
ATOM      4  C4  I4B d   1      -3.500  -0.676   2.974  0.00  0.00    -0.004 A 
ATOM      5  C5  I4B d   1      -2.435   0.024   3.534  0.00  0.00     0.002 A 
ATOM      6  C6  I4B d   1      -1.117  -0.389   3.290  0.00  0.00     0.003 A 
ENDROOT
BRANCH   1   7
ATOM      7  C1' I4B d   1       0.509  -2.019   2.291  0.00  0.00     0.060 C 
BRANCH   7   8
ATOM      8  C2' I4B d   1       1.277  -1.842   3.585  0.00  0.00    -0.013 C 
ATOM      9  C4' I4B d   1       1.194  -3.078   4.441  0.00  0.00     0.013 C 
ATOM     10  C3' I4B d   1       2.700  -1.519   3.237  0.00  0.00     0.013 C 
ENDBRANCH   7   8
ENDBRANCH   1   7
TORSDOF 2
ENDMDL
