MODEL 1
REMARK minimizedAffinity 9.65705109
REMARK minimizedRMSD -1
REMARK  2 active torsions:
REMARK  status: ('A' for Active; 'I' for Inactive)
REMARK    1  A    between atoms: C2'_3  and  C1'_4 
REMARK    2  A    between atoms: C1'_4  and  C1_5 
ROOT
ATOM      1  C1  I4B d   1       4.846   2.961   1.059  0.00  0.00    -0.075 A 
ATOM      2  C2  I4B d   1       5.344   2.967  -0.220  0.00  0.00     0.003 A 
ATOM      3  C3  I4B d   1       5.951   4.135  -0.743  0.00  0.00     0.002 A 
ATOM      4  C4  I4B d   1       5.995   5.280   0.026  0.00  0.00    -0.004 A 
ATOM      5  C5  I4B d   1       5.510   5.265   1.330  0.00  0.00     0.002 A 
ATOM      6  C6  I4B d   1       4.943   4.094   1.855  0.00  0.00     0.003 A 
ENDROOT
BRANCH   1   7
ATOM      7  C1' I4B d   1       4.181   1.721   1.567  0.00  0.00     0.060 C 
BRANCH   7   8
ATOM      8  C2' I4B d   1       2.837   1.597   0.879  0.00  0.00    -0.013 C 
ATOM      9  C4' I4B d   1       2.130   2.925   0.820  0.00  0.00     0.013 C 
ATOM     10  C3' I4B d   1       3.070   1.046  -0.496  0.00  0.00     0.013 C 
ENDBRANCH   7   8
ENDBRANCH   1   7
TORSDOF 2
ENDMDL
