MODEL 1
REMARK minimizedAffinity -3.01206255
REMARK minimizedRMSD -1
REMARK  0 active torsions:
REMARK  status: ('A' for Active; 'I' for Inactive)
ROOT
ATOM      1  N1  IND d   1       0.095   1.819  -1.640  0.00  0.00    -0.196 N 
ATOM      2  C2  IND d   1      -0.178   3.149  -1.484  0.00  0.00     0.054 A 
ATOM      3  C3  IND d   1      -0.234   3.467  -0.171  0.00  0.00    -0.031 A 
ATOM      4  C4  IND d   1       0.191   1.983   1.890  0.00  0.00     0.051 A 
ATOM      5  C5  IND d   1       0.437   0.689   2.253  0.00  0.00    -0.031 A 
ATOM      6  C6  IND d   1       0.588  -0.315   1.318  0.00  0.00     0.015 A 
ATOM      7  C7  IND d   1       0.508  -0.058  -0.021  0.00  0.00    -0.016 A 
ATOM      8  C8  IND d   1       0.251   1.254  -0.394  0.00  0.00    -0.047 A 
ATOM      9  C9  IND d   1       0.055   2.269   0.552  0.00  0.00    -0.096 A 
ATOM     10  HN1 IND d   1       0.158   1.405  -2.391  0.00  0.00     0.298 HD
ENDROOT
TORSDOF 0
ENDMDL
