MODEL 1
REMARK minimizedAffinity -4.42060041
REMARK minimizedRMSD -1
REMARK  0 active torsions:
REMARK  status: ('A' for Active; 'I' for Inactive)
ROOT
ATOM      1  N1  IND d   1      -0.838  -1.414  -0.070  0.00  0.00    -0.196 N 
ATOM      2  C2  IND d   1      -0.426  -1.062  -1.325  0.00  0.00     0.054 A 
ATOM      3  C3  IND d   1      -0.216   0.272  -1.394  0.00  0.00    -0.031 A 
ATOM      4  C4  IND d   1      -0.388   2.053   0.457  0.00  0.00     0.051 A 
ATOM      5  C5  IND d   1      -0.763   2.219   1.761  0.00  0.00    -0.031 A 
ATOM      6  C6  IND d   1      -1.188   1.161   2.537  0.00  0.00     0.015 A 
ATOM      7  C7  IND d   1      -1.244  -0.111   2.040  0.00  0.00    -0.016 A 
ATOM      8  C8  IND d   1      -0.870  -0.282   0.715  0.00  0.00    -0.047 A 
ATOM      9  C9  IND d   1      -0.478   0.795  -0.091  0.00  0.00    -0.096 A 
ATOM     10  HN1 IND d   1      -1.043  -2.209   0.186  0.00  0.00     0.298 HD
ENDROOT
TORSDOF 0
ENDMDL
