MODEL 1
REMARK minimizedAffinity -3.76175189
REMARK minimizedRMSD -1
REMARK  0 active torsions:
REMARK  status: ('A' for Active; 'I' for Inactive)
ROOT
ATOM      1  N1  IND d   1      -0.368   1.466  -1.447  0.00  0.00    -0.196 N 
ATOM      2  C2  IND d   1       0.347   0.373  -1.849  0.00  0.00     0.054 A 
ATOM      3  C3  IND d   1       0.687  -0.386  -0.783  0.00  0.00    -0.031 A 
ATOM      4  C4  IND d   1       0.088  -0.077   1.701  0.00  0.00     0.051 A 
ATOM      5  C5  IND d   1      -0.519   0.793   2.563  0.00  0.00    -0.031 A 
ATOM      6  C6  IND d   1      -1.120   1.954   2.123  0.00  0.00     0.015 A 
ATOM      7  C7  IND d   1      -1.148   2.284   0.798  0.00  0.00    -0.016 A 
ATOM      8  C8  IND d   1      -0.527   1.406  -0.079  0.00  0.00    -0.047 A 
ATOM      9  C9  IND d   1       0.122   0.248   0.366  0.00  0.00    -0.096 A 
ATOM     10  HN1 IND d   1      -0.668   2.087  -1.961  0.00  0.00     0.298 HD
ENDROOT
TORSDOF 0
ENDMDL
