MODEL 1
REMARK minimizedAffinity -5.09541988
REMARK minimizedRMSD -1
REMARK  0 active torsions:
REMARK  status: ('A' for Active; 'I' for Inactive)
ROOT
ATOM      1  N1  IND d   1       0.229   0.384   1.868  0.00  0.00    -0.196 N 
ATOM      2  C2  IND d   1      -0.280   1.548   2.373  0.00  0.00     0.054 A 
ATOM      3  C3  IND d   1      -0.541   2.420   1.374  0.00  0.00    -0.031 A 
ATOM      4  C4  IND d   1      -0.306   2.109  -1.171  0.00  0.00     0.051 A 
ATOM      5  C5  IND d   1       0.151   1.229  -2.111  0.00  0.00    -0.031 A 
ATOM      6  C6  IND d   1       0.666  -0.004  -1.766  0.00  0.00     0.015 A 
ATOM      7  C7  IND d   1       0.731  -0.409  -0.463  0.00  0.00    -0.016 A 
ATOM      8  C8  IND d   1       0.275   0.485   0.495  0.00  0.00    -0.047 A 
ATOM      9  C9  IND d   1      -0.209   1.755   0.154  0.00  0.00    -0.096 A 
ATOM     10  HN1 IND d   1       0.478  -0.297   2.330  0.00  0.00     0.298 HD
ENDROOT
TORSDOF 0
ENDMDL
