MODEL 1
REMARK minimizedAffinity -4.00857782
REMARK minimizedRMSD -1
REMARK  0 active torsions:
REMARK  status: ('A' for Active; 'I' for Inactive)
ROOT
ATOM      1  N1  IND d   1       0.630   0.269  -0.801  0.00  0.00    -0.196 N 
ATOM      2  C2  IND d   1       0.819  -0.644   0.200  0.00  0.00     0.054 A 
ATOM      3  C3  IND d   1       0.520  -0.095   1.399  0.00  0.00    -0.031 A 
ATOM      4  C4  IND d   1      -0.394   2.249   1.943  0.00  0.00     0.051 A 
ATOM      5  C5  IND d   1      -0.695   3.449   1.363  0.00  0.00    -0.031 A 
ATOM      6  C6  IND d   1      -0.569   3.654   0.004  0.00  0.00     0.015 A 
ATOM      7  C7  IND d   1      -0.147   2.658  -0.830  0.00  0.00    -0.016 A 
ATOM      8  C8  IND d   1       0.166   1.440  -0.244  0.00  0.00    -0.047 A 
ATOM      9  C9  IND d   1       0.081   1.239   1.140  0.00  0.00    -0.096 A 
ATOM     10  HN1 IND d   1       0.777   0.134  -1.637  0.00  0.00     0.298 HD
ENDROOT
TORSDOF 0
ENDMDL
