MODEL 1
REMARK minimizedAffinity -3.92631936
REMARK minimizedRMSD -1
REMARK  0 active torsions:
REMARK  status: ('A' for Active; 'I' for Inactive)
ROOT
ATOM      1  N1  IND d   1       0.213  -0.244  -0.738  0.00  0.00    -0.196 N 
ATOM      2  C2  IND d   1       0.671  -1.060   0.259  0.00  0.00     0.054 A 
ATOM      3  C3  IND d   1       0.520  -0.463   1.462  0.00  0.00    -0.031 A 
ATOM      4  C4  IND d   1      -0.547   1.807   2.039  0.00  0.00     0.051 A 
ATOM      5  C5  IND d   1      -1.076   2.927   1.461  0.00  0.00    -0.031 A 
ATOM      6  C6  IND d   1      -1.208   3.048   0.093  0.00  0.00     0.015 A 
ATOM      7  C7  IND d   1      -0.824   2.045  -0.751  0.00  0.00    -0.016 A 
ATOM      8  C8  IND d   1      -0.280   0.910  -0.168  0.00  0.00    -0.047 A 
ATOM      9  C9  IND d   1      -0.105   0.798   1.217  0.00  0.00    -0.096 A 
ATOM     10  HN1 IND d   1       0.230  -0.421  -1.579  0.00  0.00     0.298 HD
ENDROOT
TORSDOF 0
ENDMDL
