MODEL 1
REMARK minimizedAffinity -3.4109447
REMARK minimizedRMSD -1
REMARK  0 active torsions:
REMARK  status: ('A' for Active; 'I' for Inactive)
ROOT
ATOM      1  N1  IND d   1       0.917  -0.042  -0.569  0.00  0.00    -0.196 N 
ATOM      2  C2  IND d   1       0.163   0.168   0.551  0.00  0.00     0.054 A 
ATOM      3  C3  IND d   1      -0.763  -0.808   0.685  0.00  0.00    -0.031 A 
ATOM      4  C4  IND d   1      -1.154  -2.901  -0.761  0.00  0.00     0.051 A 
ATOM      5  C5  IND d   1      -0.738  -3.507  -1.914  0.00  0.00    -0.031 A 
ATOM      6  C6  IND d   1       0.273  -2.980  -2.691  0.00  0.00     0.015 A 
ATOM      7  C7  IND d   1       0.916  -1.827  -2.338  0.00  0.00    -0.016 A 
ATOM      8  C8  IND d   1       0.492  -1.206  -1.172  0.00  0.00    -0.047 A 
ATOM      9  C9  IND d   1      -0.562  -1.713  -0.401  0.00  0.00    -0.096 A 
ATOM     10  HN1 IND d   1       1.550   0.467  -0.851  0.00  0.00     0.298 HD
ENDROOT
TORSDOF 0
ENDMDL
