MODEL 1
REMARK minimizedAffinity 11.9636745
REMARK minimizedRMSD -1
REMARK  0 active torsions:
REMARK  status: ('A' for Active; 'I' for Inactive)
ROOT
ATOM      1  N1  IND d   1       0.026   1.532  -0.778  0.00  0.00    -0.196 N 
ATOM      2  C2  IND d   1      -0.108   0.230  -1.174  0.00  0.00     0.054 A 
ATOM      3  C3  IND d   1       0.051  -0.600  -0.119  0.00  0.00    -0.031 A 
ATOM      4  C4  IND d   1       0.436  -0.036   2.363  0.00  0.00     0.051 A 
ATOM      5  C5  IND d   1       0.664   1.015   3.206  0.00  0.00    -0.031 A 
ATOM      6  C6  IND d   1       0.689   2.319   2.755  0.00  0.00     0.015 A 
ATOM      7  C7  IND d   1       0.475   2.623   1.441  0.00  0.00    -0.016 A 
ATOM      8  C8  IND d   1       0.249   1.557   0.581  0.00  0.00    -0.047 A 
ATOM      9  C9  IND d   1       0.265   0.229   1.025  0.00  0.00    -0.096 A 
ATOM     10  HN1 IND d   1      -0.022   2.220  -1.292  0.00  0.00     0.298 HD
ENDROOT
TORSDOF 0
ENDMDL
