MODEL 1
REMARK minimizedAffinity 9.48570251
REMARK minimizedRMSD -1
REMARK  2 active torsions:
REMARK  status: ('A' for Active; 'I' for Inactive)
REMARK    1  A    between atoms: C1_2  and  C2_3 
REMARK    2  A    between atoms: C2_3  and  C3_4 
ROOT
ATOM      1  C3  UNL d   1       3.193  -3.740   0.367  0.00  0.00    -0.075 A 
ATOM      2  C4  UNL d   1       3.899  -2.577   0.028  0.00  0.00     0.002 A 
ATOM      3  C5  UNL d   1       5.294  -2.566   0.036  0.00  0.00     0.002 A 
ATOM      4  C6  UNL d   1       6.000  -3.713   0.392  0.00  0.00    -0.004 A 
ATOM      5  C7  UNL d   1       5.309  -4.870   0.747  0.00  0.00     0.002 A 
ATOM      6  C8  UNL d   1       3.913  -4.885   0.736  0.00  0.00     0.002 A 
ENDROOT
BRANCH   1   7
ATOM      7  C2  UNL d   1       1.684  -3.766   0.332  0.00  0.00     0.056 C 
BRANCH   7   8
ATOM      8  C1  UNL d   1       1.033  -2.384   0.453  0.00  0.00     0.007 C 
ATOM      9  C   UNL d   1      -0.111  -2.345   1.458  0.00  0.00     0.009 C 
ENDBRANCH   7   8
ENDBRANCH   1   7
TORSDOF 2
ENDMDL
