MODEL 1
REMARK minimizedAffinity 1.94415557
REMARK minimizedRMSD -1
REMARK  2 active torsions:
REMARK  status: ('A' for Active; 'I' for Inactive)
REMARK    1  A    between atoms: C1_2  and  C2_3 
REMARK    2  A    between atoms: C2_3  and  C3_4 
ROOT
ATOM      1  C3  UNL d   1      -1.962   3.888  -4.242  0.00  0.00    -0.075 A 
ATOM      2  C4  UNL d   1      -1.495   4.797  -5.202  0.00  0.00     0.002 A 
ATOM      3  C5  UNL d   1      -0.393   4.482  -5.998  0.00  0.00     0.002 A 
ATOM      4  C6  UNL d   1       0.260   3.263  -5.838  0.00  0.00    -0.004 A 
ATOM      5  C7  UNL d   1      -0.185   2.359  -4.876  0.00  0.00     0.002 A 
ATOM      6  C8  UNL d   1      -1.290   2.669  -4.081  0.00  0.00     0.002 A 
ENDROOT
BRANCH   1   7
ATOM      7  C2  UNL d   1      -3.172   4.210  -3.398  0.00  0.00     0.056 C 
BRANCH   7   8
ATOM      8  C1  UNL d   1      -3.703   3.022  -2.589  0.00  0.00     0.007 C 
ATOM      9  C   UNL d   1      -4.107   3.395  -1.169  0.00  0.00     0.009 C 
ENDBRANCH   7   8
ENDBRANCH   1   7
TORSDOF 2
ENDMDL
