MODEL 1
REMARK minimizedAffinity 6.21922779
REMARK minimizedRMSD -1
REMARK  2 active torsions:
REMARK  status: ('A' for Active; 'I' for Inactive)
REMARK    1  A    between atoms: C1_2  and  C2_3 
REMARK    2  A    between atoms: C2_3  and  C3_4 
ROOT
ATOM      1  C3  UNL d   1       1.354  -2.720   0.654  0.00  0.00    -0.075 A 
ATOM      2  C4  UNL d   1       0.399  -3.687   0.309  0.00  0.00     0.002 A 
ATOM      3  C5  UNL d   1      -0.880  -3.650   0.867  0.00  0.00     0.002 A 
ATOM      4  C6  UNL d   1      -1.215  -2.655   1.782  0.00  0.00    -0.004 A 
ATOM      5  C7  UNL d   1      -0.269  -1.699   2.145  0.00  0.00     0.002 A 
ATOM      6  C8  UNL d   1       1.009  -1.731   1.585  0.00  0.00     0.002 A 
ENDROOT
BRANCH   1   7
ATOM      7  C2  UNL d   1       2.730  -2.736   0.032  0.00  0.00     0.056 C 
BRANCH   7   8
ATOM      8  C1  UNL d   1       3.497  -4.045   0.249  0.00  0.00     0.007 C 
ATOM      9  C   UNL d   1       3.719  -4.374   1.720  0.00  0.00     0.009 C 
ENDBRANCH   7   8
ENDBRANCH   1   7
TORSDOF 2
ENDMDL
