MODEL 1
REMARK minimizedAffinity 4.81562138
REMARK minimizedRMSD -1
REMARK  2 active torsions:
REMARK  status: ('A' for Active; 'I' for Inactive)
REMARK    1  A    between atoms: C1_2  and  C2_3 
REMARK    2  A    between atoms: C2_3  and  C3_4 
ROOT
ATOM      1  C3  UNL d   1       1.404  -2.962   0.552  0.00  0.00    -0.075 A 
ATOM      2  C4  UNL d   1       1.012  -1.943   1.432  0.00  0.00     0.002 A 
ATOM      3  C5  UNL d   1      -0.285  -1.911   1.947  0.00  0.00     0.002 A 
ATOM      4  C6  UNL d   1      -1.207  -2.889   1.581  0.00  0.00    -0.004 A 
ATOM      5  C7  UNL d   1      -0.833  -3.897   0.695  0.00  0.00     0.002 A 
ATOM      6  C8  UNL d   1       0.465  -3.934   0.182  0.00  0.00     0.002 A 
ENDROOT
BRANCH   1   7
ATOM      7  C2  UNL d   1       2.814  -3.019   0.014  0.00  0.00     0.056 C 
BRANCH   7   8
ATOM      8  C1  UNL d   1       3.479  -4.392   0.152  0.00  0.00     0.007 C 
ATOM      9  C   UNL d   1       4.123  -4.613   1.514  0.00  0.00     0.009 C 
ENDBRANCH   7   8
ENDBRANCH   1   7
TORSDOF 2
ENDMDL
