MODEL 1
REMARK minimizedAffinity 7.13803196
REMARK minimizedRMSD -1
REMARK  2 active torsions:
REMARK  status: ('A' for Active; 'I' for Inactive)
REMARK    1  A    between atoms: C1_2  and  C2_3 
REMARK    2  A    between atoms: C2_3  and  C3_4 
ROOT
ATOM      1  C3  UNL d   1      -2.669   2.873  -2.687  0.00  0.00    -0.075 A 
ATOM      2  C4  UNL d   1      -3.791   2.151  -2.255  0.00  0.00     0.002 A 
ATOM      3  C5  UNL d   1      -4.117   2.094  -0.900  0.00  0.00     0.002 A 
ATOM      4  C6  UNL d   1      -3.321   2.746   0.040  0.00  0.00    -0.004 A 
ATOM      5  C7  UNL d   1      -2.195   3.453  -0.377  0.00  0.00     0.002 A 
ATOM      6  C8  UNL d   1      -1.869   3.516  -1.733  0.00  0.00     0.002 A 
ENDROOT
BRANCH   1   7
ATOM      7  C2  UNL d   1      -2.327   2.964  -4.156  0.00  0.00     0.056 C 
BRANCH   7   8
ATOM      8  C1  UNL d   1      -1.206   3.958  -4.475  0.00  0.00     0.007 C 
ATOM      9  C   UNL d   1      -0.301   3.498  -5.610  0.00  0.00     0.009 C 
ENDBRANCH   7   8
ENDBRANCH   1   7
TORSDOF 2
ENDMDL
