MODEL 1
REMARK minimizedAffinity -2.06949902
REMARK minimizedRMSD -1
REMARK  2 active torsions:
REMARK  status: ('A' for Active; 'I' for Inactive)
REMARK    1  A    between atoms: C1_2  and  C2_3 
REMARK    2  A    between atoms: C2_3  and  C3_4 
ROOT
ATOM      1  C3  UNL d   1      -2.857   3.305  -4.078  0.00  0.00    -0.075 A 
ATOM      2  C4  UNL d   1      -2.772   4.249  -5.112  0.00  0.00     0.002 A 
ATOM      3  C5  UNL d   1      -1.611   4.357  -5.878  0.00  0.00     0.002 A 
ATOM      4  C6  UNL d   1      -0.519   3.533  -5.616  0.00  0.00    -0.004 A 
ATOM      5  C7  UNL d   1      -0.587   2.603  -4.581  0.00  0.00     0.002 A 
ATOM      6  C8  UNL d   1      -1.749   2.489  -3.815  0.00  0.00     0.002 A 
ENDROOT
BRANCH   1   7
ATOM      7  C2  UNL d   1      -4.121   3.162  -3.264  0.00  0.00     0.056 C 
BRANCH   7   8
ATOM      8  C1  UNL d   1      -3.911   2.500  -1.898  0.00  0.00     0.007 C 
ATOM      9  C   UNL d   1      -3.061   3.335  -0.951  0.00  0.00     0.009 C 
ENDBRANCH   7   8
ENDBRANCH   1   7
TORSDOF 2
ENDMDL
