MODEL 1
REMARK minimizedAffinity -1.55738127
REMARK minimizedRMSD -1
REMARK  2 active torsions:
REMARK  status: ('A' for Active; 'I' for Inactive)
REMARK    1  A    between atoms: C1_2  and  C2_3 
REMARK    2  A    between atoms: C2_3  and  C3_4 
ROOT
ATOM      1  C3  UNL d   1      -1.601   1.304  -4.172  0.00  0.00    -0.075 A 
ATOM      2  C4  UNL d   1      -0.644   2.108  -4.808  0.00  0.00     0.002 A 
ATOM      3  C5  UNL d   1      -0.882   3.469  -5.006  0.00  0.00     0.002 A 
ATOM      4  C6  UNL d   1      -2.080   4.039  -4.580  0.00  0.00    -0.004 A 
ATOM      5  C7  UNL d   1      -3.044   3.245  -3.962  0.00  0.00     0.002 A 
ATOM      6  C8  UNL d   1      -2.807   1.885  -3.759  0.00  0.00     0.002 A 
ENDROOT
BRANCH   1   7
ATOM      7  C2  UNL d   1      -1.337  -0.163  -3.929  0.00  0.00     0.056 C 
BRANCH   7   8
ATOM      8  C1  UNL d   1       0.138  -0.560  -4.045  0.00  0.00     0.007 C 
ATOM      9  C   UNL d   1       0.819  -0.739  -2.695  0.00  0.00     0.009 C 
ENDBRANCH   7   8
ENDBRANCH   1   7
TORSDOF 2
ENDMDL
