MODEL 1
REMARK minimizedAffinity 8.53673458
REMARK minimizedRMSD -1
REMARK  2 active torsions:
REMARK  status: ('A' for Active; 'I' for Inactive)
REMARK    1  A    between atoms: C1_2  and  C2_3 
REMARK    2  A    between atoms: C2_3  and  C3_4 
ROOT
ATOM      1  C3  UNL d   1      -1.408   3.378  -4.554  0.00  0.00    -0.075 A 
ATOM      2  C4  UNL d   1      -0.835   4.338  -5.402  0.00  0.00     0.002 A 
ATOM      3  C5  UNL d   1       0.403   4.106  -6.000  0.00  0.00     0.002 A 
ATOM      4  C6  UNL d   1       1.089   2.919  -5.751  0.00  0.00    -0.004 A 
ATOM      5  C7  UNL d   1       0.538   1.966  -4.898  0.00  0.00     0.002 A 
ATOM      6  C8  UNL d   1      -0.704   2.193  -4.302  0.00  0.00     0.002 A 
ENDROOT
BRANCH   1   7
ATOM      7  C2  UNL d   1      -2.762   3.610  -3.927  0.00  0.00     0.056 C 
BRANCH   7   8
ATOM      8  C1  UNL d   1      -3.325   2.391  -3.190  0.00  0.00     0.007 C 
ATOM      9  C   UNL d   1      -4.089   2.755  -1.924  0.00  0.00     0.009 C 
ENDBRANCH   7   8
ENDBRANCH   1   7
TORSDOF 2
ENDMDL
