MODEL 1
REMARK minimizedAffinity 0.454528719
REMARK minimizedRMSD -1
REMARK  0 active torsions:
REMARK  status: ('A' for Active; 'I' for Inactive)
ROOT
ATOM      1  C   UNL d   1       5.999   4.122   4.101  0.00  0.00     0.020 A 
ATOM      2  C1  UNL d   1       5.234   4.521   3.006  0.00  0.00     0.020 A 
ATOM      3  C2  UNL d   1       4.468   3.584   2.310  0.00  0.00     0.034 A 
ATOM      4  C3  UNL d   1       4.466   2.242   2.708  0.00  0.00     0.017 A 
ATOM      5  C4  UNL d   1       5.234   1.842   3.807  0.00  0.00     0.017 A 
ATOM      6  C5  UNL d   1       5.999   2.785   4.501  0.00  0.00     0.034 A 
ATOM      7 Cl   UNL d   1       5.282   0.205   4.358  0.00  0.00    -0.070 Cl
ATOM      8 Cl1  UNL d   1       3.495   1.136   1.802  0.00  0.00    -0.070 Cl
ENDROOT
TORSDOF 0
ENDMDL
