MODEL 1
REMARK minimizedAffinity 0.201135486
REMARK minimizedRMSD -1
REMARK  0 active torsions:
REMARK  status: ('A' for Active; 'I' for Inactive)
ROOT
ATOM      1  C   UNL d   1       5.997   3.587   3.103  0.00  0.00     0.020 A 
ATOM      2  C1  UNL d   1       5.999   3.743   4.488  0.00  0.00     0.020 A 
ATOM      3  C2  UNL d   1       5.998   2.619   5.317  0.00  0.00     0.034 A 
ATOM      4  C3  UNL d   1       5.995   1.334   4.761  0.00  0.00     0.017 A 
ATOM      5  C4  UNL d   1       5.993   1.179   3.370  0.00  0.00     0.017 A 
ATOM      6  C5  UNL d   1       5.994   2.308   2.545  0.00  0.00     0.034 A 
ATOM      7 Cl   UNL d   1       5.989  -0.373   2.611  0.00  0.00    -0.070 Cl
ATOM      8 Cl1  UNL d   1       5.994  -0.010   5.846  0.00  0.00    -0.070 Cl
ENDROOT
TORSDOF 0
ENDMDL
