MODEL 1
REMARK minimizedAffinity 0.238012478
REMARK minimizedRMSD -1
REMARK  0 active torsions:
REMARK  status: ('A' for Active; 'I' for Inactive)
ROOT
ATOM      1  C   UNL d   1       6.000   1.442   5.137  0.00  0.00     0.020 A 
ATOM      2  C1  UNL d   1       5.999   1.308   3.749  0.00  0.00     0.020 A 
ATOM      3  C2  UNL d   1       6.000   2.445   2.938  0.00  0.00     0.034 A 
ATOM      4  C3  UNL d   1       6.000   3.721   3.514  0.00  0.00     0.017 A 
ATOM      5  C4  UNL d   1       6.000   3.854   4.907  0.00  0.00     0.017 A 
ATOM      6  C5  UNL d   1       6.000   2.712   5.715  0.00  0.00     0.034 A 
ATOM      7 Cl   UNL d   1       6.000   5.394   5.691  0.00  0.00    -0.070 Cl
ATOM      8 Cl1  UNL d   1       6.000   5.082   2.451  0.00  0.00    -0.070 Cl
ENDROOT
TORSDOF 0
ENDMDL
