MODEL 1
REMARK minimizedAffinity -2.50529885
REMARK minimizedRMSD -1
REMARK  0 active torsions:
REMARK  status: ('A' for Active; 'I' for Inactive)
ROOT
ATOM      1  C   UNL d   1       5.999   0.789   3.725  0.00  0.00     0.020 A 
ATOM      2  C1  UNL d   1       5.998   1.205   5.056  0.00  0.00     0.020 A 
ATOM      3  C2  UNL d   1       5.996   2.567   5.363  0.00  0.00     0.034 A 
ATOM      4  C3  UNL d   1       5.997   3.519   4.337  0.00  0.00     0.017 A 
ATOM      5  C4  UNL d   1       5.999   3.101   3.001  0.00  0.00     0.017 A 
ATOM      6  C5  UNL d   1       6.000   1.736   2.700  0.00  0.00     0.034 A 
ATOM      7 Cl   UNL d   1       6.000   4.217   1.681  0.00  0.00    -0.070 Cl
ATOM      8 Cl1  UNL d   1       5.995   5.187   4.788  0.00  0.00    -0.070 Cl
ENDROOT
TORSDOF 0
ENDMDL
