MODEL 1
REMARK minimizedAffinity 1.51191282
REMARK minimizedRMSD -1
REMARK  0 active torsions:
REMARK  status: ('A' for Active; 'I' for Inactive)
ROOT
ATOM      1  C   UNL d   1       5.999   1.605   3.516  0.00  0.00     0.020 A 
ATOM      2  C1  UNL d   1       5.999   1.966   4.862  0.00  0.00     0.020 A 
ATOM      3  C2  UNL d   1       5.999   3.315   5.223  0.00  0.00     0.034 A 
ATOM      4  C3  UNL d   1       6.000   4.308   4.236  0.00  0.00     0.017 A 
ATOM      5  C4  UNL d   1       5.999   3.944   2.885  0.00  0.00     0.017 A 
ATOM      6  C5  UNL d   1       5.999   2.591   2.529  0.00  0.00     0.034 A 
ATOM      7 Cl   UNL d   1       6.000   5.111   1.610  0.00  0.00    -0.070 Cl
ATOM      8 Cl1  UNL d   1       6.000   5.956   4.754  0.00  0.00    -0.070 Cl
ENDROOT
TORSDOF 0
ENDMDL
