MODEL 1
REMARK minimizedAffinity 1.18418097
REMARK minimizedRMSD -1
REMARK  0 active torsions:
REMARK  status: ('A' for Active; 'I' for Inactive)
ROOT
ATOM      1  C   UNL d   1       5.990   0.565   5.424  0.00  0.00     0.020 A 
ATOM      2  C1  UNL d   1       5.990   0.398   4.040  0.00  0.00     0.020 A 
ATOM      3  C2  UNL d   1       5.993   1.515   3.201  0.00  0.00     0.034 A 
ATOM      4  C3  UNL d   1       5.996   2.804   3.746  0.00  0.00     0.017 A 
ATOM      5  C4  UNL d   1       5.996   2.971   5.136  0.00  0.00     0.017 A 
ATOM      6  C5  UNL d   1       5.993   1.849   5.971  0.00  0.00     0.034 A 
ATOM      7 Cl   UNL d   1       6.000   4.530   5.882  0.00  0.00    -0.070 Cl
ATOM      8 Cl1  UNL d   1       6.000   4.139   2.650  0.00  0.00    -0.070 Cl
ENDROOT
TORSDOF 0
ENDMDL
