MODEL 1
REMARK minimizedAffinity 0.639936328
REMARK minimizedRMSD -1
REMARK  0 active torsions:
REMARK  status: ('A' for Active; 'I' for Inactive)
ROOT
ATOM      1  C   UNL d   1       5.948  -0.390   5.985  0.00  0.00     0.020 A 
ATOM      2  C1  UNL d   1       5.959  -1.220   4.865  0.00  0.00     0.020 A 
ATOM      3  C2  UNL d   1       5.972  -0.664   3.584  0.00  0.00     0.034 A 
ATOM      4  C3  UNL d   1       5.974   0.726   3.420  0.00  0.00     0.017 A 
ATOM      5  C4  UNL d   1       5.962   1.558   4.545  0.00  0.00     0.017 A 
ATOM      6  C5  UNL d   1       5.949   0.996   5.826  0.00  0.00     0.034 A 
ATOM      7 Cl   UNL d   1       5.963   3.282   4.423  0.00  0.00    -0.070 Cl
ATOM      8 Cl1  UNL d   1       5.991   1.345   1.807  0.00  0.00    -0.070 Cl
ENDROOT
TORSDOF 0
ENDMDL
