MODEL 1
REMARK minimizedAffinity 0.996953666
REMARK minimizedRMSD -1
REMARK  0 active torsions:
REMARK  status: ('A' for Active; 'I' for Inactive)
ROOT
ATOM      1  C   UNL d   1       6.000   1.464   3.393  0.00  0.00     0.020 A 
ATOM      2  C1  UNL d   1       6.000   1.445   4.787  0.00  0.00     0.020 A 
ATOM      3  C2  UNL d   1       5.997   2.645   5.501  0.00  0.00     0.034 A 
ATOM      4  C3  UNL d   1       5.995   3.869   4.822  0.00  0.00     0.017 A 
ATOM      5  C4  UNL d   1       5.995   3.887   3.422  0.00  0.00     0.017 A 
ATOM      6  C5  UNL d   1       5.998   2.682   2.712  0.00  0.00     0.034 A 
ATOM      7 Cl   UNL d   1       5.993   5.357   2.514  0.00  0.00    -0.070 Cl
ATOM      8 Cl1  UNL d   1       5.992   5.314   5.769  0.00  0.00    -0.070 Cl
ENDROOT
TORSDOF 0
ENDMDL
