MODEL 1
REMARK minimizedAffinity 3.1495986
REMARK minimizedRMSD -1
REMARK  0 active torsions:
REMARK  status: ('A' for Active; 'I' for Inactive)
ROOT
ATOM      1  C   UNL d   1       5.998   5.755   2.893  0.00  0.00     0.020 A 
ATOM      2  C1  UNL d   1       5.998   4.950   1.754  0.00  0.00     0.020 A 
ATOM      3  C2  UNL d   1       5.999   3.559   1.883  0.00  0.00     0.034 A 
ATOM      4  C3  UNL d   1       5.999   2.970   3.152  0.00  0.00     0.017 A 
ATOM      5  C4  UNL d   1       5.999   3.779   4.294  0.00  0.00     0.017 A 
ATOM      6  C5  UNL d   1       5.998   5.171   4.160  0.00  0.00     0.034 A 
ATOM      7 Cl   UNL d   1       5.999   3.125   5.894  0.00  0.00    -0.070 Cl
ATOM      8 Cl1  UNL d   1       6.000   1.244   3.237  0.00  0.00    -0.070 Cl
ENDROOT
TORSDOF 0
ENDMDL
