MODEL 1
REMARK minimizedAffinity -0.72539866
REMARK minimizedRMSD -1
REMARK  0 active torsions:
REMARK  status: ('A' for Active; 'I' for Inactive)
ROOT
ATOM      1  C   UNL d   1       5.994   1.190   3.252  0.00  0.00     0.020 A 
ATOM      2  C1  UNL d   1       5.993   1.599   4.585  0.00  0.00     0.020 A 
ATOM      3  C2  UNL d   1       5.994   2.960   4.899  0.00  0.00     0.034 A 
ATOM      4  C3  UNL d   1       5.996   3.917   3.878  0.00  0.00     0.017 A 
ATOM      5  C4  UNL d   1       5.997   3.506   2.540  0.00  0.00     0.017 A 
ATOM      6  C5  UNL d   1       5.995   2.142   2.232  0.00  0.00     0.034 A 
ATOM      7 Cl   UNL d   1       5.999   4.629   1.226  0.00  0.00    -0.070 Cl
ATOM      8 Cl1  UNL d   1       5.997   5.582   4.338  0.00  0.00    -0.070 Cl
ENDROOT
TORSDOF 0
ENDMDL
