MODEL 1
REMARK minimizedAffinity 0.155691355
REMARK minimizedRMSD -1
REMARK  0 active torsions:
REMARK  status: ('A' for Active; 'I' for Inactive)
ROOT
ATOM      1  C   UNL d   1       5.993   1.141   4.649  0.00  0.00     0.020 A 
ATOM      2  C1  UNL d   1       5.992   0.745   3.312  0.00  0.00     0.020 A 
ATOM      3  C2  UNL d   1       5.995   1.706   2.299  0.00  0.00     0.034 A 
ATOM      4  C3  UNL d   1       5.997   3.068   2.621  0.00  0.00     0.017 A 
ATOM      5  C4  UNL d   1       5.997   3.465   3.964  0.00  0.00     0.017 A 
ATOM      6  C5  UNL d   1       5.995   2.498   4.974  0.00  0.00     0.034 A 
ATOM      7 Cl   UNL d   1       6.000   5.126   4.439  0.00  0.00    -0.070 Cl
ATOM      8 Cl1  UNL d   1       6.000   4.202   1.318  0.00  0.00    -0.070 Cl
ENDROOT
TORSDOF 0
ENDMDL
