MODEL 1
REMARK minimizedAffinity 2.4096446
REMARK minimizedRMSD -1
REMARK  0 active torsions:
REMARK  status: ('A' for Active; 'I' for Inactive)
ROOT
ATOM      1  C   UNL d   1       5.923   4.076   1.766  0.00  0.00     0.020 A 
ATOM      2  C1  UNL d   1       5.913   5.452   1.992  0.00  0.00     0.020 A 
ATOM      3  C2  UNL d   1       5.930   5.945   3.299  0.00  0.00     0.034 A 
ATOM      4  C3  UNL d   1       5.956   5.061   4.384  0.00  0.00     0.017 A 
ATOM      5  C4  UNL d   1       5.966   3.680   4.156  0.00  0.00     0.017 A 
ATOM      6  C5  UNL d   1       5.949   3.192   2.846  0.00  0.00     0.034 A 
ATOM      7 Cl   UNL d   1       5.999   2.528   5.444  0.00  0.00    -0.070 Cl
ATOM      8 Cl1  UNL d   1       5.976   5.741   5.973  0.00  0.00    -0.070 Cl
ENDROOT
TORSDOF 0
ENDMDL
