MODEL 1
REMARK minimizedAffinity -0.434618562
REMARK minimizedRMSD -1
REMARK  0 active torsions:
REMARK  status: ('A' for Active; 'I' for Inactive)
ROOT
ATOM      1  C   UNL d   1       5.742  -1.483   4.847  0.00  0.00     0.020 A 
ATOM      2  C1  UNL d   1       5.743  -0.699   6.000  0.00  0.00     0.020 A 
ATOM      3  C2  UNL d   1       5.823   0.692   5.898  0.00  0.00     0.034 A 
ATOM      4  C3  UNL d   1       5.903   1.302   4.641  0.00  0.00     0.017 A 
ATOM      5  C4  UNL d   1       5.903   0.514   3.485  0.00  0.00     0.017 A 
ATOM      6  C5  UNL d   1       5.822  -0.878   3.592  0.00  0.00     0.034 A 
ATOM      7 Cl   UNL d   1       5.999   1.195   1.899  0.00  0.00    -0.070 Cl
ATOM      8 Cl1  UNL d   1       6.000   3.027   4.590  0.00  0.00    -0.070 Cl
ENDROOT
TORSDOF 0
ENDMDL
