MODEL 1
REMARK minimizedAffinity -1.11174607
REMARK minimizedRMSD -1
REMARK  0 active torsions:
REMARK  status: ('A' for Active; 'I' for Inactive)
ROOT
ATOM      1  C   UNL d   1       5.999   1.544   2.949  0.00  0.00     0.020 A 
ATOM      2  C1  UNL d   1       5.997   2.014   4.261  0.00  0.00     0.020 A 
ATOM      3  C2  UNL d   1       5.995   3.388   4.511  0.00  0.00     0.034 A 
ATOM      4  C3  UNL d   1       5.996   4.297   3.446  0.00  0.00     0.017 A 
ATOM      5  C4  UNL d   1       5.998   3.824   2.129  0.00  0.00     0.017 A 
ATOM      6  C5  UNL d   1       6.000   2.447   1.885  0.00  0.00     0.034 A 
ATOM      7 Cl   UNL d   1       6.000   4.883   0.763  0.00  0.00    -0.070 Cl
ATOM      8 Cl1  UNL d   1       5.994   5.982   3.828  0.00  0.00    -0.070 Cl
ENDROOT
TORSDOF 0
ENDMDL
