MODEL 1
REMARK minimizedAffinity 13.565484
REMARK minimizedRMSD -1
REMARK  0 active torsions:
REMARK  status: ('A' for Active; 'I' for Inactive)
ROOT
ATOM      1  C   UNL d   1      -0.382   3.010   0.919  0.00  0.00     0.020 A 
ATOM      2  C1  UNL d   1      -1.774   3.090   0.942  0.00  0.00     0.020 A 
ATOM      3  C2  UNL d   1      -2.426   3.588   2.072  0.00  0.00     0.034 A 
ATOM      4  C3  UNL d   1      -1.687   4.008   3.184  0.00  0.00     0.017 A 
ATOM      5  C4  UNL d   1      -0.290   3.927   3.160  0.00  0.00     0.017 A 
ATOM      6  C5  UNL d   1       0.358   3.428   2.026  0.00  0.00     0.034 A 
ATOM      7 Cl   UNL d   1       0.691   4.426   4.493  0.00  0.00    -0.070 Cl
ATOM      8 Cl1  UNL d   1      -2.559   4.613   4.547  0.00  0.00    -0.070 Cl
ENDROOT
TORSDOF 0
ENDMDL
