MODEL 1
REMARK minimizedAffinity 4.21311378
REMARK minimizedRMSD -1
REMARK  0 active torsions:
REMARK  status: ('A' for Active; 'I' for Inactive)
ROOT
ATOM      1  C   UNL d   1       5.995   1.052   5.266  0.00  0.00     0.020 A 
ATOM      2  C1  UNL d   1       5.998   1.394   3.914  0.00  0.00     0.020 A 
ATOM      3  C2  UNL d   1       5.999   0.392   2.940  0.00  0.00     0.034 A 
ATOM      4  C3  UNL d   1       5.998  -0.956   3.317  0.00  0.00     0.017 A 
ATOM      5  C4  UNL d   1       5.995  -1.298   4.674  0.00  0.00     0.017 A 
ATOM      6  C5  UNL d   1       5.994  -0.291   5.645  0.00  0.00     0.034 A 
ATOM      7 Cl   UNL d   1       5.993  -2.939   5.217  0.00  0.00    -0.070 Cl
ATOM      8 Cl1  UNL d   1       6.000  -2.141   2.060  0.00  0.00    -0.070 Cl
ENDROOT
TORSDOF 0
ENDMDL
