MODEL 1
REMARK minimizedAffinity 2.70226741
REMARK minimizedRMSD -1
REMARK  0 active torsions:
REMARK  status: ('A' for Active; 'I' for Inactive)
ROOT
ATOM      1  C2' OXE d   1       3.389   1.897   1.266  0.00  0.00     0.078 C 
ATOM      2  C1' OXE d   1       1.411   2.507  -0.630  0.00  0.00     0.078 C 
ATOM      3  C1  OXE d   1       1.215   1.277   0.220  0.00  0.00    -0.078 A 
ATOM      4  C2  OXE d   1       2.210   0.960   1.113  0.00  0.00    -0.078 A 
ATOM      5  C3  OXE d   1       2.054  -0.134   1.960  0.00  0.00     0.003 A 
ATOM      6  C4  OXE d   1       0.966  -1.001   1.805  0.00  0.00    -0.002 A 
ATOM      7  C5  OXE d   1      -0.040  -0.718   0.874  0.00  0.00    -0.002 A 
ATOM      8  C6  OXE d   1       0.048   0.437   0.106  0.00  0.00     0.003 A 
ENDROOT
TORSDOF 0
ENDMDL
