MODEL 1
REMARK minimizedAffinity 6.56663132
REMARK minimizedRMSD -1
REMARK  0 active torsions:
REMARK  status: ('A' for Active; 'I' for Inactive)
ROOT
ATOM      1  C2' OXE d   1      -2.534  -3.047  -2.784  0.00  0.00     0.078 C 
ATOM      2  C1' OXE d   1       0.267  -3.233  -2.800  0.00  0.00     0.078 C 
ATOM      3  C1  OXE d   1      -0.407  -2.888  -1.496  0.00  0.00    -0.078 A 
ATOM      4  C2  OXE d   1      -1.775  -2.753  -1.507  0.00  0.00    -0.078 A 
ATOM      5  C3  OXE d   1      -2.451  -2.490  -0.320  0.00  0.00     0.003 A 
ATOM      6  C4  OXE d   1      -1.741  -2.210   0.854  0.00  0.00    -0.002 A 
ATOM      7  C5  OXE d   1      -0.345  -2.303   0.878  0.00  0.00    -0.002 A 
ATOM      8  C6  OXE d   1       0.333  -2.682  -0.275  0.00  0.00     0.003 A 
ENDROOT
TORSDOF 0
ENDMDL
