MODEL 1
REMARK minimizedAffinity 12.5430622
REMARK minimizedRMSD -1
REMARK  0 active torsions:
REMARK  status: ('A' for Active; 'I' for Inactive)
ROOT
ATOM      1  C2' OXE d   1       2.265  -4.227  -1.537  0.00  0.00     0.078 C 
ATOM      2  C1' OXE d   1       2.654  -4.827   1.178  0.00  0.00     0.078 C 
ATOM      3  C1  OXE d   1       1.522  -3.896   0.818  0.00  0.00    -0.078 A 
ATOM      4  C2  OXE d   1       1.368  -3.572  -0.509  0.00  0.00    -0.078 A 
ATOM      5  C3  OXE d   1       0.307  -2.761  -0.901  0.00  0.00     0.003 A 
ATOM      6  C4  OXE d   1      -0.511  -2.151   0.057  0.00  0.00    -0.002 A 
ATOM      7  C5  OXE d   1      -0.347  -2.437   1.416  0.00  0.00    -0.002 A 
ATOM      8  C6  OXE d   1       0.636  -3.339   1.809  0.00  0.00     0.003 A 
ENDROOT
TORSDOF 0
ENDMDL
