MODEL 1
REMARK minimizedAffinity 1.20987499
REMARK minimizedRMSD -1
REMARK  0 active torsions:
REMARK  status: ('A' for Active; 'I' for Inactive)
ROOT
ATOM      1  C2' OXE d   1       1.441   2.609   2.414  0.00  0.00     0.078 C 
ATOM      2  C1' OXE d   1       1.904   3.481  -0.214  0.00  0.00     0.078 C 
ATOM      3  C1  OXE d   1       2.535   2.181   0.218  0.00  0.00    -0.078 A 
ATOM      4  C2  OXE d   1       2.342   1.785   1.519  0.00  0.00    -0.078 A 
ATOM      5  C3  OXE d   1       2.856   0.567   1.953  0.00  0.00     0.003 A 
ATOM      6  C4  OXE d   1       3.696  -0.184   1.122  0.00  0.00    -0.002 A 
ATOM      7  C5  OXE d   1       3.938   0.221  -0.195  0.00  0.00    -0.002 A 
ATOM      8  C6  OXE d   1       3.332   1.376  -0.675  0.00  0.00     0.003 A 
ENDROOT
TORSDOF 0
ENDMDL
