MODEL 1
REMARK minimizedAffinity 4.06499672
REMARK minimizedRMSD -1
REMARK  0 active torsions:
REMARK  status: ('A' for Active; 'I' for Inactive)
ROOT
ATOM      1  C2' OXE d   1       0.142  -2.093   0.650  0.00  0.00     0.078 C 
ATOM      2  C1' OXE d   1       1.300  -2.235  -1.903  0.00  0.00     0.078 C 
ATOM      3  C1  OXE d   1      -0.203  -2.150  -1.817  0.00  0.00    -0.078 A 
ATOM      4  C2  OXE d   1      -0.764  -2.128  -0.562  0.00  0.00    -0.078 A 
ATOM      5  C3  OXE d   1      -2.143  -1.995  -0.426  0.00  0.00     0.003 A 
ATOM      6  C4  OXE d   1      -2.974  -2.038  -1.551  0.00  0.00    -0.002 A 
ATOM      7  C5  OXE d   1      -2.426  -2.100  -2.837  0.00  0.00    -0.002 A 
ATOM      8  C6  OXE d   1      -1.044  -2.113  -2.988  0.00  0.00     0.003 A 
ENDROOT
TORSDOF 0
ENDMDL
