MODEL 1
REMARK minimizedAffinity 0.797648668
REMARK minimizedRMSD -1
REMARK  0 active torsions:
REMARK  status: ('A' for Active; 'I' for Inactive)
ROOT
ATOM      1  C2' OXE d   1       0.689   4.830  -0.696  0.00  0.00     0.078 C 
ATOM      2  C1' OXE d   1      -1.457   3.322   0.303  0.00  0.00     0.078 C 
ATOM      3  C1  OXE d   1      -0.084   2.698   0.334  0.00  0.00    -0.078 A 
ATOM      4  C2  OXE d   1       0.953   3.425  -0.200  0.00  0.00    -0.078 A 
ATOM      5  C3  OXE d   1       2.248   2.919  -0.147  0.00  0.00     0.003 A 
ATOM      6  C4  OXE d   1       2.482   1.614   0.305  0.00  0.00    -0.002 A 
ATOM      7  C5  OXE d   1       1.434   0.841   0.816  0.00  0.00    -0.002 A 
ATOM      8  C6  OXE d   1       0.154   1.383   0.877  0.00  0.00     0.003 A 
ENDROOT
TORSDOF 0
ENDMDL
