MODEL 1
REMARK minimizedAffinity 5.21261597
REMARK minimizedRMSD -1
REMARK  0 active torsions:
REMARK  status: ('A' for Active; 'I' for Inactive)
ROOT
ATOM      1  C2' OXE d   1       1.556   0.814  -0.093  0.00  0.00     0.078 C 
ATOM      2  C1' OXE d   1       1.461   1.647   2.586  0.00  0.00     0.078 C 
ATOM      3  C1  OXE d   1       1.245   0.183   2.297  0.00  0.00    -0.078 A 
ATOM      4  C2  OXE d   1       1.247  -0.208   0.979  0.00  0.00    -0.078 A 
ATOM      5  C3  OXE d   1       1.108  -1.556   0.660  0.00  0.00     0.003 A 
ATOM      6  C4  OXE d   1       0.813  -2.494   1.657  0.00  0.00    -0.002 A 
ATOM      7  C5  OXE d   1       0.767  -2.110   3.001  0.00  0.00    -0.002 A 
ATOM      8  C6  OXE d   1       1.022  -0.786   3.341  0.00  0.00     0.003 A 
ENDROOT
TORSDOF 0
ENDMDL
