MODEL 1
REMARK minimizedAffinity 4.97103977
REMARK minimizedRMSD -1
REMARK  0 active torsions:
REMARK  status: ('A' for Active; 'I' for Inactive)
ROOT
ATOM      1  C2' OXE d   1      -0.224  -2.147   2.745  0.00  0.00     0.078 C 
ATOM      2  C1' OXE d   1       1.226  -0.390   4.386  0.00  0.00     0.078 C 
ATOM      3  C1  OXE d   1       1.365  -1.870   4.643  0.00  0.00    -0.078 A 
ATOM      4  C2  OXE d   1       0.616  -2.720   3.866  0.00  0.00    -0.078 A 
ATOM      5  C3  OXE d   1       0.748  -4.096   4.025  0.00  0.00     0.003 A 
ATOM      6  C4  OXE d   1       1.519  -4.618   5.071  0.00  0.00    -0.002 A 
ATOM      7  C5  OXE d   1       2.259  -3.768   5.900  0.00  0.00    -0.002 A 
ATOM      8  C6  OXE d   1       2.226  -2.397   5.673  0.00  0.00     0.003 A 
ENDROOT
TORSDOF 0
ENDMDL
