MODEL 1
REMARK minimizedAffinity 2.03336883
REMARK minimizedRMSD -1
REMARK  3 active torsions:
REMARK  status: ('A' for Active; 'I' for Inactive)
REMARK    1  A    between atoms: C3'_2  and  C2'_3 
REMARK    2  A    between atoms: C2'_3  and  C1'_4 
REMARK    3  A    between atoms: C1'_4  and  C1_5 
ROOT
ATOM      1  C1  N4B d   1      -0.403   0.785   1.676  0.00  0.00    -0.075 A 
ATOM      2  C2  N4B d   1      -0.495   0.543   0.288  0.00  0.00     0.002 A 
ATOM      3  C3  N4B d   1      -1.556  -0.169  -0.216  0.00  0.00     0.002 A 
ATOM      4  C4  N4B d   1      -2.523  -0.663   0.648  0.00  0.00    -0.004 A 
ATOM      5  C5  N4B d   1      -2.440  -0.402   1.984  0.00  0.00     0.002 A 
ATOM      6  C6  N4B d   1      -1.382   0.315   2.504  0.00  0.00     0.002 A 
ENDROOT
BRANCH   1   7
ATOM      7  C1' N4B d   1       0.782   1.485   2.283  0.00  0.00     0.057 C 
BRANCH   7   8
ATOM      8  C2' N4B d   1       2.057   0.986   1.609  0.00  0.00     0.009 C 
BRANCH   8   9
ATOM      9  C3' N4B d   1       2.874   0.094   2.528  0.00  0.00     0.004 C 
ATOM     10  C4' N4B d   1       4.326   0.050   2.154  0.00  0.00     0.003 C 
ENDBRANCH   8   9
ENDBRANCH   7   8
ENDBRANCH   1   7
TORSDOF 3
ENDMDL
