MODEL 1
REMARK minimizedAffinity -1.23294437
REMARK minimizedRMSD -1
REMARK  3 active torsions:
REMARK  status: ('A' for Active; 'I' for Inactive)
REMARK    1  A    between atoms: C3'_2  and  C2'_3 
REMARK    2  A    between atoms: C2'_3  and  C1'_4 
REMARK    3  A    between atoms: C1'_4  and  C1_5 
ROOT
ATOM      1  C1  N4B d   1       0.316  -0.305   0.485  0.00  0.00    -0.075 A 
ATOM      2  C2  N4B d   1      -0.593  -0.830  -0.460  0.00  0.00     0.002 A 
ATOM      3  C3  N4B d   1      -1.928  -0.520  -0.374  0.00  0.00     0.002 A 
ATOM      4  C4  N4B d   1      -2.379   0.293   0.654  0.00  0.00    -0.004 A 
ATOM      5  C5  N4B d   1      -1.491   0.817   1.548  0.00  0.00     0.002 A 
ATOM      6  C6  N4B d   1      -0.146   0.518   1.472  0.00  0.00     0.002 A 
ENDROOT
BRANCH   1   7
ATOM      7  C1' N4B d   1       1.771  -0.684   0.483  0.00  0.00     0.057 C 
BRANCH   7   8
ATOM      8  C2' N4B d   1       2.593   0.481   1.026  0.00  0.00     0.009 C 
BRANCH   8   9
ATOM      9  C3' N4B d   1       2.643   1.645   0.050  0.00  0.00     0.004 C 
ATOM     10  C4' N4B d   1       2.952   1.214  -1.353  0.00  0.00     0.003 C 
ENDBRANCH   8   9
ENDBRANCH   7   8
ENDBRANCH   1   7
TORSDOF 3
ENDMDL
