MODEL 1
REMARK minimizedAffinity -2.67693806
REMARK minimizedRMSD -1
REMARK  3 active torsions:
REMARK  status: ('A' for Active; 'I' for Inactive)
REMARK    1  A    between atoms: C3'_2  and  C2'_3 
REMARK    2  A    between atoms: C2'_3  and  C1'_4 
REMARK    3  A    between atoms: C1'_4  and  C1_5 
ROOT
ATOM      1  C1  N4B d   1      -0.174  -0.355   4.090  0.00  0.00    -0.075 A 
ATOM      2  C2  N4B d   1       0.095  -1.548   4.797  0.00  0.00     0.002 A 
ATOM      3  C3  N4B d   1      -0.918  -2.441   5.047  0.00  0.00     0.002 A 
ATOM      4  C4  N4B d   1      -2.205  -2.155   4.618  0.00  0.00    -0.004 A 
ATOM      5  C5  N4B d   1      -2.452  -1.013   3.914  0.00  0.00     0.002 A 
ATOM      6  C6  N4B d   1      -1.443  -0.108   3.652  0.00  0.00     0.002 A 
ENDROOT
BRANCH   1   7
ATOM      7  C1' N4B d   1       0.883   0.692   3.868  0.00  0.00     0.057 C 
BRANCH   7   8
ATOM      8  C2' N4B d   1       0.933   1.046   2.384  0.00  0.00     0.009 C 
BRANCH   8   9
ATOM      9  C3' N4B d   1       1.406  -0.123   1.537  0.00  0.00     0.004 C 
ATOM     10  C4' N4B d   1       0.446  -0.470   0.438  0.00  0.00     0.003 C 
ENDBRANCH   8   9
ENDBRANCH   7   8
ENDBRANCH   1   7
TORSDOF 3
ENDMDL
