MODEL 1
REMARK minimizedAffinity -5.835814
REMARK minimizedRMSD -1
REMARK  3 active torsions:
REMARK  status: ('A' for Active; 'I' for Inactive)
REMARK    1  A    between atoms: C3'_2  and  C2'_3 
REMARK    2  A    between atoms: C2'_3  and  C1'_4 
REMARK    3  A    between atoms: C1'_4  and  C1_5 
ROOT
ATOM      1  C1  N4B d   1       0.260   0.245   0.172  0.00  0.00    -0.075 A 
ATOM      2  C2  N4B d   1       0.762  -0.002   1.468  0.00  0.00     0.002 A 
ATOM      3  C3  N4B d   1      -0.073   0.086   2.556  0.00  0.00     0.002 A 
ATOM      4  C4  N4B d   1      -1.402   0.436   2.374  0.00  0.00    -0.004 A 
ATOM      5  C5  N4B d   1      -1.885   0.648   1.116  0.00  0.00     0.002 A 
ATOM      6  C6  N4B d   1      -1.059   0.560   0.013  0.00  0.00     0.002 A 
ENDROOT
BRANCH   1   7
ATOM      7  C1' N4B d   1       1.153   0.246  -1.039  0.00  0.00     0.057 C 
BRANCH   7   8
ATOM      8  C2' N4B d   1       0.483  -0.550  -2.156  0.00  0.00     0.009 C 
BRANCH   8   9
ATOM      9  C3' N4B d   1       0.776   0.037  -3.526  0.00  0.00     0.004 C 
ATOM     10  C4' N4B d   1       2.149   0.634  -3.620  0.00  0.00     0.003 C 
ENDBRANCH   8   9
ENDBRANCH   7   8
ENDBRANCH   1   7
TORSDOF 3
ENDMDL
