MODEL 1
REMARK minimizedAffinity -1.10642624
REMARK minimizedRMSD -1
REMARK  1 active torsions:
REMARK  status: ('A' for Active; 'I' for Inactive)
REMARK    1  A    between atoms: C1_2  and  C2_3 
ROOT
ATOM      1  C2  UNL d   1       2.254   1.239   0.612  0.00  0.00    -0.081 A 
ATOM      2  C3  UNL d   1       1.898   1.323   1.963  0.00  0.00     0.006 A 
ATOM      3  C4  UNL d   1       0.576   1.582   2.332  0.00  0.00     0.002 A 
ATOM      4  C5  UNL d   1      -0.412   1.754   1.357  0.00  0.00    -0.080 A 
ATOM      5  C6  UNL d   1      -1.841   2.003   1.740  0.00  0.00     0.076 C 
ATOM      6  C7  UNL d   1      -0.053   1.688   0.007  0.00  0.00     0.002 A 
ATOM      7  C8  UNL d   1       1.269   1.429  -0.363  0.00  0.00     0.006 A 
ENDROOT
BRANCH   1   8
ATOM      8  C1  UNL d   1       3.666   0.895   0.212  0.00  0.00     0.054 C 
ATOM      9  C   UNL d   1       4.121   1.724  -0.981  0.00  0.00     0.018 C 
ENDBRANCH   1   8
TORSDOF 1
ENDMDL
