MODEL 1
REMARK minimizedAffinity 0.429291457
REMARK minimizedRMSD -1
REMARK  1 active torsions:
REMARK  status: ('A' for Active; 'I' for Inactive)
REMARK    1  A    between atoms: C1_2  and  C2_3 
ROOT
ATOM      1  C2  UNL d   1       1.127  -0.326  -0.081  0.00  0.00    -0.081 A 
ATOM      2  C3  UNL d   1       0.897   0.973   0.391  0.00  0.00     0.006 A 
ATOM      3  C4  UNL d   1       1.901   1.942   0.316  0.00  0.00     0.002 A 
ATOM      4  C5  UNL d   1       3.147   1.631  -0.238  0.00  0.00    -0.080 A 
ATOM      5  C6  UNL d   1       4.223   2.670  -0.352  0.00  0.00     0.076 C 
ATOM      6  C7  UNL d   1       3.383   0.330  -0.693  0.00  0.00     0.002 A 
ATOM      7  C8  UNL d   1       2.380  -0.640  -0.618  0.00  0.00     0.006 A 
ENDROOT
BRANCH   1   8
ATOM      8  C1  UNL d   1       0.026  -1.355  -0.061  0.00  0.00     0.054 C 
ATOM      9  C   UNL d   1      -0.759  -1.350  -1.364  0.00  0.00     0.018 C 
ENDBRANCH   1   8
TORSDOF 1
ENDMDL
