MODEL 1
REMARK minimizedAffinity 3.94287252
REMARK minimizedRMSD -1
REMARK  1 active torsions:
REMARK  status: ('A' for Active; 'I' for Inactive)
REMARK    1  A    between atoms: C1_2  and  C2_3 
ROOT
ATOM      1  C2  UNL d   1       3.002  -0.520  -1.011  0.00  0.00    -0.081 A 
ATOM      2  C3  UNL d   1       2.782  -1.898  -1.123  0.00  0.00     0.006 A 
ATOM      3  C4  UNL d   1       1.491  -2.421  -1.016  0.00  0.00     0.002 A 
ATOM      4  C5  UNL d   1       0.398  -1.574  -0.803  0.00  0.00    -0.080 A 
ATOM      5  C6  UNL d   1      -0.996  -2.118  -0.717  0.00  0.00     0.076 C 
ATOM      6  C7  UNL d   1       0.620  -0.198  -0.673  0.00  0.00     0.002 A 
ATOM      7  C8  UNL d   1       1.911   0.324  -0.779  0.00  0.00     0.006 A 
ENDROOT
BRANCH   1   8
ATOM      8  C1  UNL d   1       4.385   0.053  -1.190  0.00  0.00     0.054 C 
ATOM      9  C   UNL d   1       4.350   1.573  -1.252  0.00  0.00     0.018 C 
ENDBRANCH   1   8
TORSDOF 1
ENDMDL
