MODEL 1
REMARK minimizedAffinity 2.39145923
REMARK minimizedRMSD -1
REMARK  1 active torsions:
REMARK  status: ('A' for Active; 'I' for Inactive)
REMARK    1  A    between atoms: C1_2  and  C2_3 
ROOT
ATOM      1  C2  UNL d   1       1.576  -0.369  -0.309  0.00  0.00    -0.081 A 
ATOM      2  C3  UNL d   1       2.894  -0.229  -0.761  0.00  0.00     0.006 A 
ATOM      3  C4  UNL d   1       3.580   0.975  -0.581  0.00  0.00     0.002 A 
ATOM      4  C5  UNL d   1       2.963   2.054   0.060  0.00  0.00    -0.080 A 
ATOM      5  C6  UNL d   1       3.699   3.342   0.286  0.00  0.00     0.076 C 
ATOM      6  C7  UNL d   1       1.641   1.920   0.495  0.00  0.00     0.002 A 
ATOM      7  C8  UNL d   1       0.954   0.717   0.315  0.00  0.00     0.006 A 
ENDROOT
BRANCH   1   8
ATOM      8  C1  UNL d   1       0.856  -1.686  -0.444  0.00  0.00     0.054 C 
ATOM      9  C   UNL d   1       1.776  -2.856  -0.124  0.00  0.00     0.018 C 
ENDBRANCH   1   8
TORSDOF 1
ENDMDL
