MODEL 1
REMARK minimizedAffinity 0.853155673
REMARK minimizedRMSD -1
REMARK  1 active torsions:
REMARK  status: ('A' for Active; 'I' for Inactive)
REMARK    1  A    between atoms: C1_2  and  C2_3 
ROOT
ATOM      1  C2  UNL d   1       1.958   1.254  -0.111  0.00  0.00    -0.081 A 
ATOM      2  C3  UNL d   1       2.623   2.468   0.099  0.00  0.00     0.006 A 
ATOM      3  C4  UNL d   1       3.934   2.645  -0.351  0.00  0.00     0.002 A 
ATOM      4  C5  UNL d   1       4.598   1.615  -1.025  0.00  0.00    -0.080 A 
ATOM      5  C6  UNL d   1       5.994   1.802  -1.540  0.00  0.00     0.076 C 
ATOM      6  C7  UNL d   1       3.940   0.396  -1.219  0.00  0.00     0.002 A 
ATOM      7  C8  UNL d   1       2.630   0.218  -0.769  0.00  0.00     0.006 A 
ENDROOT
BRANCH   1   8
ATOM      8  C1  UNL d   1       0.523   1.082   0.315  0.00  0.00     0.054 C 
ATOM      9  C   UNL d   1      -0.180   0.023  -0.522  0.00  0.00     0.018 C 
ENDBRANCH   1   8
TORSDOF 1
ENDMDL
