MODEL 1
REMARK minimizedAffinity 0.343373239
REMARK minimizedRMSD -1
REMARK  1 active torsions:
REMARK  status: ('A' for Active; 'I' for Inactive)
REMARK    1  A    between atoms: C1_2  and  C2_3 
ROOT
ATOM      1  C2  UNL d   1       2.507   0.863  -0.433  0.00  0.00    -0.081 A 
ATOM      2  C3  UNL d   1       2.959  -0.461  -0.508  0.00  0.00     0.006 A 
ATOM      3  C4  UNL d   1       2.051  -1.513  -0.644  0.00  0.00     0.002 A 
ATOM      4  C5  UNL d   1       0.677  -1.259  -0.714  0.00  0.00    -0.080 A 
ATOM      5  C6  UNL d   1      -0.308  -2.377  -0.890  0.00  0.00     0.076 C 
ATOM      6  C7  UNL d   1       0.224   0.061  -0.621  0.00  0.00     0.002 A 
ATOM      7  C8  UNL d   1       1.132   1.114  -0.485  0.00  0.00     0.006 A 
ENDROOT
BRANCH   1   8
ATOM      8  C1  UNL d   1       3.488   2.004  -0.352  0.00  0.00     0.054 C 
ATOM      9  C   UNL d   1       4.675   1.781  -1.279  0.00  0.00     0.018 C 
ENDBRANCH   1   8
TORSDOF 1
ENDMDL
