MODEL 1
REMARK minimizedAffinity 2.73781347
REMARK minimizedRMSD -1
REMARK  1 active torsions:
REMARK  status: ('A' for Active; 'I' for Inactive)
REMARK    1  A    between atoms: C1_2  and  C2_3 
ROOT
ATOM      1  C2  UNL d   1       3.162   0.365  -1.104  0.00  0.00    -0.081 A 
ATOM      2  C3  UNL d   1       2.049   0.915  -0.457  0.00  0.00     0.006 A 
ATOM      3  C4  UNL d   1       0.962   0.110  -0.108  0.00  0.00     0.002 A 
ATOM      4  C5  UNL d   1       0.973  -1.259  -0.394  0.00  0.00    -0.080 A 
ATOM      5  C6  UNL d   1      -0.174  -2.141   0.002  0.00  0.00     0.076 C 
ATOM      6  C7  UNL d   1       2.078  -1.807  -1.056  0.00  0.00     0.002 A 
ATOM      7  C8  UNL d   1       3.165  -1.002  -1.405  0.00  0.00     0.006 A 
ENDROOT
BRANCH   1   8
ATOM      8  C1  UNL d   1       4.363   1.218  -1.423  0.00  0.00     0.054 C 
ATOM      9  C   UNL d   1       4.342   2.520  -0.635  0.00  0.00     0.018 C 
ENDBRANCH   1   8
TORSDOF 1
ENDMDL
