MODEL 1
REMARK minimizedAffinity 1.0425328
REMARK minimizedRMSD -1
REMARK  3 active torsions:
REMARK  status: ('A' for Active; 'I' for Inactive)
REMARK    1  A    between atoms: C3'_2  and  C2'_3 
REMARK    2  A    between atoms: C2'_3  and  C1'_4 
REMARK    3  A    between atoms: C1'_4  and  C1_5 
ROOT
ATOM      1  C1  N4B d   1       0.353  -1.207   1.624  0.00  0.00    -0.075 A 
ATOM      2  C2  N4B d   1       0.280  -0.770   0.283  0.00  0.00     0.002 A 
ATOM      3  C3  N4B d   1      -0.863  -0.166  -0.181  0.00  0.00     0.002 A 
ATOM      4  C4  N4B d   1      -1.947  -0.007   0.669  0.00  0.00    -0.004 A 
ATOM      5  C5  N4B d   1      -1.859  -0.408   1.970  0.00  0.00     0.002 A 
ATOM      6  C6  N4B d   1      -0.715  -1.013   2.451  0.00  0.00     0.002 A 
ENDROOT
BRANCH   1   7
ATOM      7  C1' N4B d   1       1.550  -1.949   2.153  0.00  0.00     0.057 C 
BRANCH   7   8
ATOM      8  C2' N4B d   1       1.622  -3.321   1.489  0.00  0.00     0.009 C 
BRANCH   8   9
ATOM      9  C3' N4B d   1       3.046  -3.844   1.417  0.00  0.00     0.004 C 
ATOM     10  C4' N4B d   1       3.236  -4.866   0.336  0.00  0.00     0.003 C 
ENDBRANCH   8   9
ENDBRANCH   7   8
ENDBRANCH   1   7
TORSDOF 3
ENDMDL
