MODEL 1
REMARK minimizedAffinity -2.06860065
REMARK minimizedRMSD -1
REMARK  3 active torsions:
REMARK  status: ('A' for Active; 'I' for Inactive)
REMARK    1  A    between atoms: C3'_2  and  C2'_3 
REMARK    2  A    between atoms: C2'_3  and  C1'_4 
REMARK    3  A    between atoms: C1'_4  and  C1_5 
ROOT
ATOM      1  C1  N4B d   1       3.849   5.384   2.764  0.00  0.00    -0.075 A 
ATOM      2  C2  N4B d   1       3.995   5.664   1.388  0.00  0.00     0.002 A 
ATOM      3  C3  N4B d   1       5.061   5.148   0.692  0.00  0.00     0.002 A 
ATOM      4  C4  N4B d   1       5.999   4.370   1.352  0.00  0.00    -0.004 A 
ATOM      5  C5  N4B d   1       5.837   4.083   2.676  0.00  0.00     0.002 A 
ATOM      6  C6  N4B d   1       4.769   4.591   3.387  0.00  0.00     0.002 A 
ENDROOT
BRANCH   1   7
ATOM      7  C1' N4B d   1       2.747   5.995   3.586  0.00  0.00     0.057 C 
BRANCH   7   8
ATOM      8  C2' N4B d   1       3.158   5.993   5.055  0.00  0.00     0.009 C 
BRANCH   8   9
ATOM      9  C3' N4B d   1       1.965   5.824   5.979  0.00  0.00     0.004 C 
ATOM     10  C4' N4B d   1       0.654   5.997   5.272  0.00  0.00     0.003 C 
ENDBRANCH   8   9
ENDBRANCH   7   8
ENDBRANCH   1   7
TORSDOF 3
ENDMDL
