MODEL 1
REMARK minimizedAffinity 1.96067512
REMARK minimizedRMSD -1
REMARK  3 active torsions:
REMARK  status: ('A' for Active; 'I' for Inactive)
REMARK    1  A    between atoms: C3'_2  and  C2'_3 
REMARK    2  A    between atoms: C2'_3  and  C1'_4 
REMARK    3  A    between atoms: C1'_4  and  C1_5 
ROOT
ATOM      1  C1  N4B d   1       0.860  -0.573   0.394  0.00  0.00    -0.075 A 
ATOM      2  C2  N4B d   1      -0.548  -0.465   0.390  0.00  0.00     0.002 A 
ATOM      3  C3  N4B d   1      -1.254  -0.648   1.554  0.00  0.00     0.002 A 
ATOM      4  C4  N4B d   1      -0.578  -0.957   2.724  0.00  0.00    -0.004 A 
ATOM      5  C5  N4B d   1       0.784  -1.035   2.725  0.00  0.00     0.002 A 
ATOM      6  C6  N4B d   1       1.506  -0.849   1.564  0.00  0.00     0.002 A 
ENDROOT
BRANCH   1   7
ATOM      7  C1' N4B d   1       1.668  -0.466  -0.870  0.00  0.00     0.057 C 
BRANCH   7   8
ATOM      8  C2' N4B d   1       2.809   0.525  -0.653  0.00  0.00     0.009 C 
BRANCH   8   9
ATOM      9  C3' N4B d   1       3.012   1.429  -1.856  0.00  0.00     0.004 C 
ATOM     10  C4' N4B d   1       4.456   1.757  -2.098  0.00  0.00     0.003 C 
ENDBRANCH   8   9
ENDBRANCH   7   8
ENDBRANCH   1   7
TORSDOF 3
ENDMDL
