MODEL 1
REMARK minimizedAffinity -2.73240519
REMARK minimizedRMSD -1
REMARK  0 active torsions:
REMARK  status: ('A' for Active; 'I' for Inactive)
ROOT
ATOM      1  C   UNL d   1       2.989  -1.345  -0.089  0.00  0.00     0.020 A 
ATOM      2  C1  UNL d   1       1.837  -2.114  -0.250  0.00  0.00     0.020 A 
ATOM      3  C2  UNL d   1       0.584  -1.498  -0.274  0.00  0.00     0.034 A 
ATOM      4  C3  UNL d   1       0.480  -0.109  -0.136  0.00  0.00     0.017 A 
ATOM      5  C4  UNL d   1       1.637   0.662   0.026  0.00  0.00     0.017 A 
ATOM      6  C5  UNL d   1       2.889   0.040   0.049  0.00  0.00     0.034 A 
ATOM      7 Cl   UNL d   1       1.589   2.381   0.202  0.00  0.00    -0.070 Cl
ATOM      8 Cl1  UNL d   1      -1.101   0.586  -0.174  0.00  0.00    -0.070 Cl
ENDROOT
TORSDOF 0
ENDMDL
