MODEL 1
REMARK minimizedAffinity -1.29851151
REMARK minimizedRMSD -1
REMARK  0 active torsions:
REMARK  status: ('A' for Active; 'I' for Inactive)
ROOT
ATOM      1  C   UNL d   1      -4.258   1.105  -0.041  0.00  0.00     0.020 A 
ATOM      2  C1  UNL d   1      -4.223   1.448   1.310  0.00  0.00     0.020 A 
ATOM      3  C2  UNL d   1      -3.007   1.458   1.996  0.00  0.00     0.034 A 
ATOM      4  C3  UNL d   1      -1.821   1.125   1.332  0.00  0.00     0.017 A 
ATOM      5  C4  UNL d   1      -1.858   0.781  -0.024  0.00  0.00     0.017 A 
ATOM      6  C5  UNL d   1      -3.078   0.772  -0.707  0.00  0.00     0.034 A 
ATOM      7 Cl   UNL d   1      -0.436   0.358  -0.912  0.00  0.00    -0.070 Cl
ATOM      8 Cl1  UNL d   1      -0.353   1.158   2.243  0.00  0.00    -0.070 Cl
ENDROOT
TORSDOF 0
ENDMDL
