MODEL 1
REMARK minimizedAffinity -3.40309787
REMARK minimizedRMSD -1
REMARK  0 active torsions:
REMARK  status: ('A' for Active; 'I' for Inactive)
ROOT
ATOM      1  C   UNL d   1      -1.219  -0.263  -0.525  0.00  0.00     0.020 A 
ATOM      2  C1  UNL d   1      -0.812  -1.596  -0.502  0.00  0.00     0.020 A 
ATOM      3  C2  UNL d   1       0.490  -1.922  -0.118  0.00  0.00     0.034 A 
ATOM      4  C3  UNL d   1       1.391  -0.914   0.244  0.00  0.00     0.017 A 
ATOM      5  C4  UNL d   1       0.981   0.425   0.221  0.00  0.00     0.017 A 
ATOM      6  C5  UNL d   1      -0.324   0.745  -0.165  0.00  0.00     0.034 A 
ATOM      7 Cl   UNL d   1       2.035   1.724   0.654  0.00  0.00    -0.070 Cl
ATOM      8 Cl1  UNL d   1       2.985  -1.389   0.709  0.00  0.00    -0.070 Cl
ENDROOT
TORSDOF 0
ENDMDL
