MODEL 1
REMARK minimizedAffinity -4.00749254
REMARK minimizedRMSD -1
REMARK  0 active torsions:
REMARK  status: ('A' for Active; 'I' for Inactive)
ROOT
ATOM      1  C   UNL d   1      -2.687   0.795   2.224  0.00  0.00     0.020 A 
ATOM      2  C1  UNL d   1      -3.384   1.664   1.386  0.00  0.00     0.020 A 
ATOM      3  C2  UNL d   1      -2.919   1.910   0.092  0.00  0.00     0.034 A 
ATOM      4  C3  UNL d   1      -1.754   1.286  -0.367  0.00  0.00     0.017 A 
ATOM      5  C4  UNL d   1      -1.054   0.414   0.475  0.00  0.00     0.017 A 
ATOM      6  C5  UNL d   1      -1.524   0.171   1.769  0.00  0.00     0.034 A 
ATOM      7 Cl   UNL d   1       0.392  -0.392  -0.021  0.00  0.00    -0.070 Cl
ATOM      8 Cl1  UNL d   1      -1.237   1.637  -1.978  0.00  0.00    -0.070 Cl
ENDROOT
TORSDOF 0
ENDMDL
