MODEL 1
REMARK minimizedAffinity -3.07902431
REMARK minimizedRMSD -1
REMARK  0 active torsions:
REMARK  status: ('A' for Active; 'I' for Inactive)
ROOT
ATOM      1  C   UNL d   1       0.745   1.927  -0.354  0.00  0.00     0.020 A 
ATOM      2  C1  UNL d   1      -0.523   1.689  -0.883  0.00  0.00     0.020 A 
ATOM      3  C2  UNL d   1      -0.967   0.379  -1.070  0.00  0.00     0.034 A 
ATOM      4  C3  UNL d   1      -0.143  -0.700  -0.728  0.00  0.00     0.017 A 
ATOM      5  C4  UNL d   1       1.130  -0.460  -0.198  0.00  0.00     0.017 A 
ATOM      6  C5  UNL d   1       1.570   0.854  -0.013  0.00  0.00     0.034 A 
ATOM      7 Cl   UNL d   1       2.204  -1.739   0.247  0.00  0.00    -0.070 Cl
ATOM      8 Cl1  UNL d   1      -0.757  -2.294  -0.986  0.00  0.00    -0.070 Cl
ENDROOT
TORSDOF 0
ENDMDL
