MODEL 1
REMARK minimizedAffinity -4.33357811
REMARK minimizedRMSD -1
REMARK  0 active torsions:
REMARK  status: ('A' for Active; 'I' for Inactive)
ROOT
ATOM      1  C   UNL d   1      -0.355  -0.679  -0.886  0.00  0.00     0.020 A 
ATOM      2  C1  UNL d   1       0.576  -1.717  -0.922  0.00  0.00     0.020 A 
ATOM      3  C2  UNL d   1       1.920  -1.460  -0.643  0.00  0.00     0.034 A 
ATOM      4  C3  UNL d   1       2.337  -0.162  -0.327  0.00  0.00     0.017 A 
ATOM      5  C4  UNL d   1       1.402   0.880  -0.291  0.00  0.00     0.017 A 
ATOM      6  C5  UNL d   1       0.058   0.617  -0.571  0.00  0.00     0.034 A 
ATOM      7 Cl   UNL d   1       1.842   2.507   0.091  0.00  0.00    -0.070 Cl
ATOM      8 Cl1  UNL d   1       4.014   0.084   0.008  0.00  0.00    -0.070 Cl
ENDROOT
TORSDOF 0
ENDMDL
