MODEL 1
REMARK minimizedAffinity -4.15737009
REMARK minimizedRMSD -1
REMARK  0 active torsions:
REMARK  status: ('A' for Active; 'I' for Inactive)
ROOT
ATOM      1  C   UNL d   1      -1.038  -0.167  -0.539  0.00  0.00     0.020 A 
ATOM      2  C1  UNL d   1      -0.586  -1.470  -0.334  0.00  0.00     0.020 A 
ATOM      3  C2  UNL d   1       0.744  -1.699   0.025  0.00  0.00     0.034 A 
ATOM      4  C3  UNL d   1       1.627  -0.623   0.179  0.00  0.00     0.017 A 
ATOM      5  C4  UNL d   1       1.172   0.684  -0.028  0.00  0.00     0.017 A 
ATOM      6  C5  UNL d   1      -0.161   0.907  -0.386  0.00  0.00     0.034 A 
ATOM      7 Cl   UNL d   1       2.201   2.062   0.144  0.00  0.00    -0.070 Cl
ATOM      8 Cl1  UNL d   1       3.258  -0.980   0.624  0.00  0.00    -0.070 Cl
ENDROOT
TORSDOF 0
ENDMDL
