MODEL 1
REMARK minimizedAffinity -4.93881464
REMARK minimizedRMSD -1
REMARK  0 active torsions:
REMARK  status: ('A' for Active; 'I' for Inactive)
ROOT
ATOM      1  C   UNL d   1       2.375   0.291   1.075  0.00  0.00     0.020 A 
ATOM      2  C1  UNL d   1       2.741  -1.022   0.782  0.00  0.00     0.020 A 
ATOM      3  C2  UNL d   1       1.854  -1.858   0.100  0.00  0.00     0.034 A 
ATOM      4  C3  UNL d   1       0.597  -1.382  -0.290  0.00  0.00     0.017 A 
ATOM      5  C4  UNL d   1       0.231  -0.064   0.004  0.00  0.00     0.017 A 
ATOM      6  C5  UNL d   1       1.123   0.769   0.687  0.00  0.00     0.034 A 
ATOM      7 Cl   UNL d   1      -1.302   0.595  -0.446  0.00  0.00    -0.070 Cl
ATOM      8 Cl1  UNL d   1      -0.449  -2.471  -1.131  0.00  0.00    -0.070 Cl
ENDROOT
TORSDOF 0
ENDMDL
