MODEL 1
REMARK minimizedAffinity -3.18302774
REMARK minimizedRMSD -1
REMARK  0 active torsions:
REMARK  status: ('A' for Active; 'I' for Inactive)
ROOT
ATOM      1  C   UNL d   1       2.265  -0.280   0.241  0.00  0.00     0.020 A 
ATOM      2  C1  UNL d   1       1.849   0.964   0.715  0.00  0.00     0.020 A 
ATOM      3  C2  UNL d   1       0.550   1.409   0.460  0.00  0.00     0.034 A 
ATOM      4  C3  UNL d   1      -0.338   0.609  -0.270  0.00  0.00     0.017 A 
ATOM      5  C4  UNL d   1       0.081  -0.639  -0.744  0.00  0.00     0.017 A 
ATOM      6  C5  UNL d   1       1.383  -1.079  -0.487  0.00  0.00     0.034 A 
ATOM      7 Cl   UNL d   1      -0.957  -1.681  -1.652  0.00  0.00    -0.070 Cl
ATOM      8 Cl1  UNL d   1      -1.929   1.223  -0.547  0.00  0.00    -0.070 Cl
ENDROOT
TORSDOF 0
ENDMDL
