MODEL 1
REMARK minimizedAffinity -2.95884204
REMARK minimizedRMSD -1
REMARK  0 active torsions:
REMARK  status: ('A' for Active; 'I' for Inactive)
ROOT
ATOM      1  C   UNL d   1       2.386  -0.043   1.494  0.00  0.00     0.020 A 
ATOM      2  C1  UNL d   1       2.655  -1.303   0.961  0.00  0.00     0.020 A 
ATOM      3  C2  UNL d   1       1.832  -1.829  -0.037  0.00  0.00     0.034 A 
ATOM      4  C3  UNL d   1       0.736  -1.095  -0.505  0.00  0.00     0.017 A 
ATOM      5  C4  UNL d   1       0.467   0.170   0.031  0.00  0.00     0.017 A 
ATOM      6  C5  UNL d   1       1.294   0.692   1.030  0.00  0.00     0.034 A 
ATOM      7 Cl   UNL d   1      -0.867   1.135  -0.496  0.00  0.00    -0.070 Cl
ATOM      8 Cl1  UNL d   1      -0.239  -1.807  -1.741  0.00  0.00    -0.070 Cl
ENDROOT
TORSDOF 0
ENDMDL
