MODEL 1
REMARK minimizedAffinity 3.51045585
REMARK minimizedRMSD -1
REMARK  0 active torsions:
REMARK  status: ('A' for Active; 'I' for Inactive)
ROOT
ATOM      1  C   UNL d   1       4.795  -4.928  -1.588  0.00  0.00     0.020 A 
ATOM      2  C1  UNL d   1       5.995  -5.245  -2.224  0.00  0.00     0.020 A 
ATOM      3  C2  UNL d   1       6.000  -5.573  -3.582  0.00  0.00     0.034 A 
ATOM      4  C3  UNL d   1       4.803  -5.585  -4.307  0.00  0.00     0.017 A 
ATOM      5  C4  UNL d   1       3.599  -5.266  -3.667  0.00  0.00     0.017 A 
ATOM      6  C5  UNL d   1       3.600  -4.939  -2.308  0.00  0.00     0.034 A 
ATOM      7 Cl   UNL d   1       2.083  -5.259  -4.496  0.00  0.00    -0.070 Cl
ATOM      8 Cl1  UNL d   1       4.883  -6.000  -5.983  0.00  0.00    -0.070 Cl
ENDROOT
TORSDOF 0
ENDMDL
