MODEL 1
REMARK minimizedAffinity 14.1195259
REMARK minimizedRMSD -1
REMARK  0 active torsions:
REMARK  status: ('A' for Active; 'I' for Inactive)
ROOT
ATOM      1  C   UNL d   1       3.472  -5.403  -5.995  0.00  0.00     0.020 A 
ATOM      2  C1  UNL d   1       4.176  -5.898  -4.898  0.00  0.00     0.020 A 
ATOM      3  C2  UNL d   1       3.549  -5.998  -3.654  0.00  0.00     0.034 A 
ATOM      4  C3  UNL d   1       2.215  -5.604  -3.504  0.00  0.00     0.017 A 
ATOM      5  C4  UNL d   1       1.509  -5.107  -4.606  0.00  0.00     0.017 A 
ATOM      6  C5  UNL d   1       2.141  -5.009  -5.849  0.00  0.00     0.034 A 
ATOM      7 Cl   UNL d   1      -0.140  -4.601  -4.498  0.00  0.00    -0.070 Cl
ATOM      8 Cl1  UNL d   1       1.504  -5.755  -1.936  0.00  0.00    -0.070 Cl
ENDROOT
TORSDOF 0
ENDMDL
