MODEL 1
REMARK minimizedAffinity 2.99732447
REMARK minimizedRMSD -1
REMARK  0 active torsions:
REMARK  status: ('A' for Active; 'I' for Inactive)
ROOT
ATOM      1  C   UNL d   1      -2.122   2.567  -4.918  0.00  0.00     0.020 A 
ATOM      2  C1  UNL d   1      -2.122   3.753  -5.651  0.00  0.00     0.020 A 
ATOM      3  C2  UNL d   1      -3.330   4.375  -5.974  0.00  0.00     0.034 A 
ATOM      4  C3  UNL d   1      -4.543   3.810  -5.564  0.00  0.00     0.017 A 
ATOM      5  C4  UNL d   1      -4.543   2.619  -4.829  0.00  0.00     0.017 A 
ATOM      6  C5  UNL d   1      -3.330   2.002  -4.508  0.00  0.00     0.034 A 
ATOM      7 Cl   UNL d   1      -6.000   1.863  -4.288  0.00  0.00    -0.070 Cl
ATOM      8 Cl1  UNL d   1      -6.000   4.632  -5.999  0.00  0.00    -0.070 Cl
ENDROOT
TORSDOF 0
ENDMDL
