MODEL 1
REMARK minimizedAffinity 4.94741201
REMARK minimizedRMSD -1
REMARK  0 active torsions:
REMARK  status: ('A' for Active; 'I' for Inactive)
ROOT
ATOM      1  C   UNL d   1       3.159   1.626   1.211  0.00  0.00     0.020 A 
ATOM      2  C1  UNL d   1       2.104   1.804   0.318  0.00  0.00     0.020 A 
ATOM      3  C2  UNL d   1       0.835   2.142   0.794  0.00  0.00     0.034 A 
ATOM      4  C3  UNL d   1       0.619   2.305   2.167  0.00  0.00     0.017 A 
ATOM      5  C4  UNL d   1       1.679   2.126   3.063  0.00  0.00     0.017 A 
ATOM      6  C5  UNL d   1       2.947   1.787   2.581  0.00  0.00     0.034 A 
ATOM      7 Cl   UNL d   1       1.490   2.310   4.771  0.00  0.00    -0.070 Cl
ATOM      8 Cl1  UNL d   1      -0.975   2.724   2.685  0.00  0.00    -0.070 Cl
ENDROOT
TORSDOF 0
ENDMDL
