MODEL 1
REMARK minimizedAffinity 6.65586662
REMARK minimizedRMSD -1
REMARK  0 active torsions:
REMARK  status: ('A' for Active; 'I' for Inactive)
ROOT
ATOM      1  C   UNL d   1       5.024   4.918  -5.951  0.00  0.00     0.020 A 
ATOM      2  C1  UNL d   1       6.000   4.625  -4.999  0.00  0.00     0.020 A 
ATOM      3  C2  UNL d   1       5.803   3.578  -4.096  0.00  0.00     0.034 A 
ATOM      4  C3  UNL d   1       4.627   2.821  -4.142  0.00  0.00     0.017 A 
ATOM      5  C4  UNL d   1       3.647   3.116  -5.097  0.00  0.00     0.017 A 
ATOM      6  C5  UNL d   1       3.850   4.164  -6.000  0.00  0.00     0.034 A 
ATOM      7 Cl   UNL d   1       2.171   2.225  -5.216  0.00  0.00    -0.070 Cl
ATOM      8 Cl1  UNL d   1       4.450   1.541  -2.994  0.00  0.00    -0.070 Cl
ENDROOT
TORSDOF 0
ENDMDL
