MODEL 1
REMARK minimizedAffinity 10.6109629
REMARK minimizedRMSD -1
REMARK  0 active torsions:
REMARK  status: ('A' for Active; 'I' for Inactive)
ROOT
ATOM      1  C   UNL d   1       3.796   2.772  -1.496  0.00  0.00     0.020 A 
ATOM      2  C1  UNL d   1       2.829   2.990  -0.515  0.00  0.00     0.020 A 
ATOM      3  C2  UNL d   1       2.411   1.936   0.301  0.00  0.00     0.034 A 
ATOM      4  C3  UNL d   1       2.961   0.659   0.137  0.00  0.00     0.017 A 
ATOM      5  C4  UNL d   1       3.932   0.442  -0.847  0.00  0.00     0.017 A 
ATOM      6  C5  UNL d   1       4.346   1.500  -1.661  0.00  0.00     0.034 A 
ATOM      7 Cl   UNL d   1       4.656  -1.106  -1.108  0.00  0.00    -0.070 Cl
ATOM      8 Cl1  UNL d   1       2.398  -0.597   1.181  0.00  0.00    -0.070 Cl
ENDROOT
TORSDOF 0
ENDMDL
