MODEL 1
REMARK minimizedAffinity 6.40338993
REMARK minimizedRMSD -1
REMARK  0 active torsions:
REMARK  status: ('A' for Active; 'I' for Inactive)
ROOT
ATOM      1  C   UNL d   1       5.418  -4.641  -4.155  0.00  0.00     0.020 A 
ATOM      2  C1  UNL d   1       5.365  -5.144  -5.455  0.00  0.00     0.020 A 
ATOM      3  C2  UNL d   1       4.142  -5.541  -6.000  0.00  0.00     0.034 A 
ATOM      4  C3  UNL d   1       2.968  -5.436  -5.246  0.00  0.00     0.017 A 
ATOM      5  C4  UNL d   1       3.022  -4.931  -3.942  0.00  0.00     0.017 A 
ATOM      6  C5  UNL d   1       4.249  -4.535  -3.400  0.00  0.00     0.034 A 
ATOM      7 Cl   UNL d   1       1.616  -4.772  -2.950  0.00  0.00    -0.070 Cl
ATOM      8 Cl1  UNL d   1       1.491  -5.945  -5.984  0.00  0.00    -0.070 Cl
ENDROOT
TORSDOF 0
ENDMDL
