MODEL 1
REMARK minimizedAffinity 9.51287079
REMARK minimizedRMSD -1
REMARK  0 active torsions:
REMARK  status: ('A' for Active; 'I' for Inactive)
ROOT
ATOM      1  C   UNL d   1       4.869  -5.993  -6.000  0.00  0.00     0.020 A 
ATOM      2  C1  UNL d   1       5.999  -5.177  -5.949  0.00  0.00     0.020 A 
ATOM      3  C2  UNL d   1       5.978  -4.003  -5.194  0.00  0.00     0.034 A 
ATOM      4  C3  UNL d   1       4.826  -3.641  -4.487  0.00  0.00     0.017 A 
ATOM      5  C4  UNL d   1       3.692  -4.460  -4.539  0.00  0.00     0.017 A 
ATOM      6  C5  UNL d   1       3.719  -5.635  -5.296  0.00  0.00     0.034 A 
ATOM      7 Cl   UNL d   1       2.234  -4.080  -3.693  0.00  0.00    -0.070 Cl
ATOM      8 Cl1  UNL d   1       4.871  -2.175  -3.573  0.00  0.00    -0.070 Cl
ENDROOT
TORSDOF 0
ENDMDL
