MODEL 1
REMARK minimizedAffinity -0.148737416
REMARK minimizedRMSD -1
REMARK  0 active torsions:
REMARK  status: ('A' for Active; 'I' for Inactive)
ROOT
ATOM      1  C   UNL d   1       2.067  -5.941  -5.496  0.00  0.00     0.020 A 
ATOM      2  C1  UNL d   1       1.809  -5.257  -4.309  0.00  0.00     0.020 A 
ATOM      3  C2  UNL d   1       2.851  -4.629  -3.624  0.00  0.00     0.034 A 
ATOM      4  C3  UNL d   1       4.157  -4.684  -4.126  0.00  0.00     0.017 A 
ATOM      5  C4  UNL d   1       4.415  -5.371  -5.317  0.00  0.00     0.017 A 
ATOM      6  C5  UNL d   1       3.368  -5.998  -5.999  0.00  0.00     0.034 A 
ATOM      7 Cl   UNL d   1       6.000  -5.482  -5.998  0.00  0.00    -0.070 Cl
ATOM      8 Cl1  UNL d   1       5.397  -3.884  -3.227  0.00  0.00    -0.070 Cl
ENDROOT
TORSDOF 0
ENDMDL
