MODEL 1
REMARK minimizedAffinity 18.2889175
REMARK minimizedRMSD -1
REMARK  0 active torsions:
REMARK  status: ('A' for Active; 'I' for Inactive)
ROOT
ATOM      1  C   UNL d   1      -2.385  -4.479   5.031  0.00  0.00     0.020 A 
ATOM      2  C1  UNL d   1      -2.946  -5.688   4.619  0.00  0.00     0.020 A 
ATOM      3  C2  UNL d   1      -3.028  -5.992   3.259  0.00  0.00     0.034 A 
ATOM      4  C3  UNL d   1      -2.549  -5.086   2.305  0.00  0.00     0.017 A 
ATOM      5  C4  UNL d   1      -1.987  -3.873   2.719  0.00  0.00     0.017 A 
ATOM      6  C5  UNL d   1      -1.907  -3.574   4.083  0.00  0.00     0.034 A 
ATOM      7 Cl   UNL d   1      -1.375  -2.705   1.602  0.00  0.00    -0.070 Cl
ATOM      8 Cl1  UNL d   1      -2.683  -5.527   0.640  0.00  0.00    -0.070 Cl
ENDROOT
TORSDOF 0
ENDMDL
