MODEL 1
REMARK minimizedAffinity 20.4731483
REMARK minimizedRMSD -1
REMARK  0 active torsions:
REMARK  status: ('A' for Active; 'I' for Inactive)
ROOT
ATOM      1  C   UNL d   1       5.781  -5.162  -5.926  0.00  0.00     0.020 A 
ATOM      2  C1  UNL d   1       4.627  -5.941  -5.989  0.00  0.00     0.020 A 
ATOM      3  C2  UNL d   1       3.515  -5.607  -5.213  0.00  0.00     0.034 A 
ATOM      4  C3  UNL d   1       3.556  -4.491  -4.369  0.00  0.00     0.017 A 
ATOM      5  C4  UNL d   1       4.716  -3.709  -4.307  0.00  0.00     0.017 A 
ATOM      6  C5  UNL d   1       5.825  -4.048  -5.087  0.00  0.00     0.034 A 
ATOM      7 Cl   UNL d   1       4.841  -2.317  -3.290  0.00  0.00    -0.070 Cl
ATOM      8 Cl1  UNL d   1       2.145  -4.135  -3.438  0.00  0.00    -0.070 Cl
ENDROOT
TORSDOF 0
ENDMDL
