MODEL 1
REMARK minimizedAffinity 12.7483959
REMARK minimizedRMSD -1
REMARK  0 active torsions:
REMARK  status: ('A' for Active; 'I' for Inactive)
ROOT
ATOM      1  C   UNL d   1       1.111   1.989   0.456  0.00  0.00     0.020 A 
ATOM      2  C1  UNL d   1       2.295   1.614  -0.177  0.00  0.00     0.020 A 
ATOM      3  C2  UNL d   1       3.430   1.320   0.581  0.00  0.00     0.034 A 
ATOM      4  C3  UNL d   1       3.384   1.402   1.978  0.00  0.00     0.017 A 
ATOM      5  C4  UNL d   1       2.195   1.778   2.613  0.00  0.00     0.017 A 
ATOM      6  C5  UNL d   1       1.061   2.071   1.848  0.00  0.00     0.034 A 
ATOM      7 Cl   UNL d   1       2.061   1.901   4.332  0.00  0.00    -0.070 Cl
ATOM      8 Cl1  UNL d   1       4.825   1.024   2.852  0.00  0.00    -0.070 Cl
ENDROOT
TORSDOF 0
ENDMDL
