MODEL 1
REMARK minimizedAffinity 4.29973221
REMARK minimizedRMSD -1
REMARK  0 active torsions:
REMARK  status: ('A' for Active; 'I' for Inactive)
ROOT
ATOM      1  C   UNL d   1       5.523   3.951  -5.542  0.00  0.00     0.020 A 
ATOM      2  C1  UNL d   1       4.399   3.266  -6.000  0.00  0.00     0.020 A 
ATOM      3  C2  UNL d   1       3.750   2.353  -5.165  0.00  0.00     0.034 A 
ATOM      4  C3  UNL d   1       4.225   2.123  -3.869  0.00  0.00     0.017 A 
ATOM      5  C4  UNL d   1       5.354   2.811  -3.411  0.00  0.00     0.017 A 
ATOM      6  C5  UNL d   1       6.000   3.724  -4.250  0.00  0.00     0.034 A 
ATOM      7 Cl   UNL d   1       6.000   2.581  -1.824  0.00  0.00    -0.070 Cl
ATOM      8 Cl1  UNL d   1       3.374   0.980  -2.892  0.00  0.00    -0.070 Cl
ENDROOT
TORSDOF 0
ENDMDL
