MODEL 1
REMARK minimizedAffinity 16.6436901
REMARK minimizedRMSD -1
REMARK  0 active torsions:
REMARK  status: ('A' for Active; 'I' for Inactive)
ROOT
ATOM      1  C   UNL d   1      -1.868  -5.627  -1.504  0.00  0.00     0.020 A 
ATOM      2  C1  UNL d   1      -1.510  -4.305  -1.761  0.00  0.00     0.020 A 
ATOM      3  C2  UNL d   1      -1.568  -3.354  -0.740  0.00  0.00     0.034 A 
ATOM      4  C3  UNL d   1      -1.987  -3.724   0.543  0.00  0.00     0.017 A 
ATOM      5  C4  UNL d   1      -2.346  -5.052   0.801  0.00  0.00     0.017 A 
ATOM      6  C5  UNL d   1      -2.286  -6.000  -0.225  0.00  0.00     0.034 A 
ATOM      7 Cl   UNL d   1      -2.872  -5.585   2.359  0.00  0.00    -0.070 Cl
ATOM      8 Cl1  UNL d   1      -2.035  -2.497   1.758  0.00  0.00    -0.070 Cl
ENDROOT
TORSDOF 0
ENDMDL
