MODEL 1
REMARK minimizedAffinity 7.86250448
REMARK minimizedRMSD -1
REMARK  0 active torsions:
REMARK  status: ('A' for Active; 'I' for Inactive)
ROOT
ATOM      1  C   UNL d   1      -1.807  -4.481  -1.554  0.00  0.00     0.020 A 
ATOM      2  C1  UNL d   1      -2.081  -5.776  -1.115  0.00  0.00     0.020 A 
ATOM      3  C2  UNL d   1      -2.453  -5.999   0.213  0.00  0.00     0.034 A 
ATOM      4  C3  UNL d   1      -2.552  -4.926   1.106  0.00  0.00     0.017 A 
ATOM      5  C4  UNL d   1      -2.276  -3.626   0.664  0.00  0.00     0.017 A 
ATOM      6  C5  UNL d   1      -1.905  -3.409  -0.666  0.00  0.00     0.034 A 
ATOM      7 Cl   UNL d   1      -2.377  -2.252   1.707  0.00  0.00    -0.070 Cl
ATOM      8 Cl1  UNL d   1      -3.017  -5.274   2.733  0.00  0.00    -0.070 Cl
ENDROOT
TORSDOF 0
ENDMDL
