MODEL 1
REMARK minimizedAffinity 17.294445
REMARK minimizedRMSD -1
REMARK  0 active torsions:
REMARK  status: ('A' for Active; 'I' for Inactive)
ROOT
ATOM      1  C   UNL d   1       0.591   2.319   0.773  0.00  0.00     0.020 A 
ATOM      2  C1  UNL d   1       0.653   2.098   2.148  0.00  0.00     0.020 A 
ATOM      3  C2  UNL d   1       1.889   1.908   2.770  0.00  0.00     0.034 A 
ATOM      4  C3  UNL d   1       3.068   1.938   2.016  0.00  0.00     0.017 A 
ATOM      5  C4  UNL d   1       3.005   2.160   0.635  0.00  0.00     0.017 A 
ATOM      6  C5  UNL d   1       1.764   2.349   0.018  0.00  0.00     0.034 A 
ATOM      7 Cl   UNL d   1       4.416   2.211  -0.361  0.00  0.00    -0.070 Cl
ATOM      8 Cl1  UNL d   1       4.562   1.696   2.850  0.00  0.00    -0.070 Cl
ENDROOT
TORSDOF 0
ENDMDL
