MODEL 1
REMARK minimizedAffinity 14.5648174
REMARK minimizedRMSD -1
REMARK  0 active torsions:
REMARK  status: ('A' for Active; 'I' for Inactive)
ROOT
ATOM      1  C   UNL d   1       3.798   1.888   1.209  0.00  0.00     0.020 A 
ATOM      2  C1  UNL d   1       3.130   2.110   2.413  0.00  0.00     0.020 A 
ATOM      3  C2  UNL d   1       1.742   2.255   2.424  0.00  0.00     0.034 A 
ATOM      4  C3  UNL d   1       1.016   2.179   1.230  0.00  0.00     0.017 A 
ATOM      5  C4  UNL d   1       1.687   1.956   0.022  0.00  0.00     0.017 A 
ATOM      6  C5  UNL d   1       3.077   1.811   0.016  0.00  0.00     0.034 A 
ATOM      7 Cl   UNL d   1       0.860   1.849  -1.492  0.00  0.00    -0.070 Cl
ATOM      8 Cl1  UNL d   1      -0.700   2.367   1.319  0.00  0.00    -0.070 Cl
ENDROOT
TORSDOF 0
ENDMDL
