MODEL 1
REMARK minimizedAffinity 11.9255781
REMARK minimizedRMSD -1
REMARK  0 active torsions:
REMARK  status: ('A' for Active; 'I' for Inactive)
ROOT
ATOM      1  C   UNL d   1       2.075   1.736   1.537  0.00  0.00     0.020 A 
ATOM      2  C1  UNL d   1       3.093   2.265   2.329  0.00  0.00     0.020 A 
ATOM      3  C2  UNL d   1       4.296   2.667   1.745  0.00  0.00     0.034 A 
ATOM      4  C3  UNL d   1       4.484   2.541   0.364  0.00  0.00     0.017 A 
ATOM      5  C4  UNL d   1       3.462   2.009  -0.431  0.00  0.00     0.017 A 
ATOM      6  C5  UNL d   1       2.260   1.608   0.159  0.00  0.00     0.034 A 
ATOM      7 Cl   UNL d   1       3.621   1.822  -2.142  0.00  0.00    -0.070 Cl
ATOM      8 Cl1  UNL d   1       5.997   3.058  -0.291  0.00  0.00    -0.070 Cl
ENDROOT
TORSDOF 0
ENDMDL
