MODEL 1
REMARK minimizedAffinity 0.11134506
REMARK minimizedRMSD -1
REMARK  0 active torsions:
REMARK  status: ('A' for Active; 'I' for Inactive)
ROOT
ATOM      1  C   UNL d   1       2.147   1.292   0.508  0.00  0.00     0.020 A 
ATOM      2  C1  UNL d   1       2.465   2.239   1.480  0.00  0.00     0.020 A 
ATOM      3  C2  UNL d   1       1.506   2.627   2.418  0.00  0.00     0.034 A 
ATOM      4  C3  UNL d   1       0.223   2.068   2.385  0.00  0.00     0.017 A 
ATOM      5  C4  UNL d   1      -0.096   1.117   1.409  0.00  0.00     0.017 A 
ATOM      6  C5  UNL d   1       0.869   0.732   0.472  0.00  0.00     0.034 A 
ATOM      7 Cl   UNL d   1      -1.657   0.383   1.305  0.00  0.00    -0.070 Cl
ATOM      8 Cl1  UNL d   1      -0.913   2.594   3.575  0.00  0.00    -0.070 Cl
ENDROOT
TORSDOF 0
ENDMDL
