MODEL 1
REMARK minimizedAffinity 10.5761747
REMARK minimizedRMSD -1
REMARK  0 active torsions:
REMARK  status: ('A' for Active; 'I' for Inactive)
ROOT
ATOM      1  O1  BZF d   1       0.711   1.082   3.945  0.00  0.00    -0.204 OA
ATOM      2  C2  BZF d   1       2.090   1.175   3.930  0.00  0.00     0.174 A 
ATOM      3  C3  BZF d   1       2.635   0.100   3.325  0.00  0.00    -0.012 A 
ATOM      4  C3A BZF d   1       1.524  -0.672   2.856  0.00  0.00    -0.107 A 
ATOM      5  C4  BZF d   1       1.421  -1.844   2.164  0.00  0.00     0.055 A 
ATOM      6  C5  BZF d   1       0.189  -2.366   1.928  0.00  0.00    -0.016 A 
ATOM      7  C6  BZF d   1      -0.960  -1.745   2.373  0.00  0.00     0.022 A 
ATOM      8  C7  BZF d   1      -0.908  -0.578   3.060  0.00  0.00     0.029 A 
ATOM      9  C7A BZF d   1       0.334  -0.031   3.272  0.00  0.00     0.058 A 
ENDROOT
TORSDOF 0
ENDMDL
