MODEL 1
REMARK minimizedAffinity 0.504120052
REMARK minimizedRMSD -1
REMARK  0 active torsions:
REMARK  status: ('A' for Active; 'I' for Inactive)
ROOT
ATOM      1  O1  BZF d   1      -0.379  -1.160   2.702  0.00  0.00    -0.204 OA
ATOM      2  C2  BZF d   1       0.975  -1.271   2.956  0.00  0.00     0.174 A 
ATOM      3  C3  BZF d   1       1.694  -0.968   1.856  0.00  0.00    -0.012 A 
ATOM      4  C3A BZF d   1       0.733  -0.558   0.879  0.00  0.00    -0.107 A 
ATOM      5  C4  BZF d   1       0.833  -0.122  -0.412  0.00  0.00     0.055 A 
ATOM      6  C5  BZF d   1      -0.303   0.128  -1.114  0.00  0.00    -0.016 A 
ATOM      7  C6  BZF d   1      -1.554  -0.053  -0.561  0.00  0.00     0.022 A 
ATOM      8  C7  BZF d   1      -1.704  -0.480   0.717  0.00  0.00     0.029 A 
ATOM      9  C7A BZF d   1      -0.557  -0.701   1.440  0.00  0.00     0.058 A 
ENDROOT
TORSDOF 0
ENDMDL
