MODEL 1
REMARK minimizedAffinity 3.40520477
REMARK minimizedRMSD -1
REMARK  0 active torsions:
REMARK  status: ('A' for Active; 'I' for Inactive)
ROOT
ATOM      1  O1  BZF d   1      -1.344  -0.720   2.783  0.00  0.00    -0.204 OA
ATOM      2  C2  BZF d   1      -1.680   0.443   2.117  0.00  0.00     0.174 A 
ATOM      3  C3  BZF d   1      -0.881   0.629   1.046  0.00  0.00    -0.012 A 
ATOM      4  C3A BZF d   1      -0.050  -0.535   0.990  0.00  0.00    -0.107 A 
ATOM      5  C4  BZF d   1       0.937  -0.943   0.139  0.00  0.00     0.055 A 
ATOM      6  C5  BZF d   1       1.602  -2.098   0.405  0.00  0.00    -0.016 A 
ATOM      7  C6  BZF d   1       1.310  -2.865   1.514  0.00  0.00     0.022 A 
ATOM      8  C7  BZF d   1       0.336  -2.503   2.384  0.00  0.00     0.029 A 
ATOM      9  C7A BZF d   1      -0.361  -1.354   2.100  0.00  0.00     0.058 A 
ENDROOT
TORSDOF 0
ENDMDL
