MODEL 1
REMARK minimizedAffinity 0.0697909445
REMARK minimizedRMSD -1
REMARK  0 active torsions:
REMARK  status: ('A' for Active; 'I' for Inactive)
ROOT
ATOM      1  O1  BZF d   1       1.622  -2.476   0.075  0.00  0.00    -0.204 OA
ATOM      2  C2  BZF d   1       2.164  -3.390   0.959  0.00  0.00     0.174 A 
ATOM      3  C3  BZF d   1       1.532  -3.335   2.149  0.00  0.00    -0.012 A 
ATOM      4  C3A BZF d   1       0.473  -2.390   1.971  0.00  0.00    -0.107 A 
ATOM      5  C4  BZF d   1      -0.512  -1.917   2.790  0.00  0.00     0.055 A 
ATOM      6  C5  BZF d   1      -1.342  -0.944   2.332  0.00  0.00    -0.016 A 
ATOM      7  C6  BZF d   1      -1.212  -0.416   1.064  0.00  0.00     0.022 A 
ATOM      8  C7  BZF d   1      -0.253  -0.856   0.213  0.00  0.00     0.029 A 
ATOM      9  C7A BZF d   1       0.566  -1.864   0.662  0.00  0.00     0.058 A 
ENDROOT
TORSDOF 0
ENDMDL
