MODEL 1
REMARK minimizedAffinity 6.24750757
REMARK minimizedRMSD -1
REMARK  0 active torsions:
REMARK  status: ('A' for Active; 'I' for Inactive)
ROOT
ATOM      1  O1  BZF d   1      -0.761  -0.702  -0.898  0.00  0.00    -0.204 OA
ATOM      2  C2  BZF d   1       0.519  -1.210  -0.797  0.00  0.00     0.174 A 
ATOM      3  C3  BZF d   1       0.904  -1.286   0.494  0.00  0.00    -0.012 A 
ATOM      4  C3A BZF d   1      -0.240  -0.880   1.251  0.00  0.00    -0.107 A 
ATOM      5  C4  BZF d   1      -0.487  -0.762   2.590  0.00  0.00     0.055 A 
ATOM      6  C5  BZF d   1      -1.684  -0.269   3.000  0.00  0.00    -0.016 A 
ATOM      7  C6  BZF d   1      -2.655   0.121   2.101  0.00  0.00     0.022 A 
ATOM      8  C7  BZF d   1      -2.459   0.018   0.764  0.00  0.00     0.029 A 
ATOM      9  C7A BZF d   1      -1.262  -0.511   0.346  0.00  0.00     0.058 A 
ENDROOT
TORSDOF 0
ENDMDL
