MODEL 1
REMARK minimizedAffinity -0.0407626331
REMARK minimizedRMSD -1
REMARK  0 active torsions:
REMARK  status: ('A' for Active; 'I' for Inactive)
ROOT
ATOM      1  O1  BZF d   1      -1.171  -1.545   0.576  0.00  0.00    -0.204 OA
ATOM      2  C2  BZF d   1      -1.199  -0.881  -0.635  0.00  0.00     0.174 A 
ATOM      3  C3  BZF d   1      -0.240   0.066  -0.684  0.00  0.00    -0.012 A 
ATOM      4  C3A BZF d   1       0.488  -0.073   0.540  0.00  0.00    -0.107 A 
ATOM      5  C4  BZF d   1       1.569   0.574   1.068  0.00  0.00     0.055 A 
ATOM      6  C5  BZF d   1       1.989   0.246   2.318  0.00  0.00    -0.016 A 
ATOM      7  C6  BZF d   1       1.350  -0.718   3.069  0.00  0.00     0.022 A 
ATOM      8  C7  BZF d   1       0.278  -1.391   2.586  0.00  0.00     0.029 A 
ATOM      9  C7A BZF d   1      -0.129  -1.085   1.310  0.00  0.00     0.058 A 
ENDROOT
TORSDOF 0
ENDMDL
