MODEL 1
REMARK minimizedAffinity 7.13114691
REMARK minimizedRMSD -1
REMARK  3 active torsions:
REMARK  status: ('A' for Active; 'I' for Inactive)
REMARK    1  A    between atoms: C3'_2  and  C2'_3 
REMARK    2  A    between atoms: C2'_3  and  C1'_4 
REMARK    3  A    between atoms: C1'_4  and  C1_5 
ROOT
ATOM      1  C1  N4B d   1      -4.106  -0.034   1.461  0.00  0.00    -0.075 A 
ATOM      2  C2  N4B d   1      -2.924  -0.553   2.034  0.00  0.00     0.002 A 
ATOM      3  C3  N4B d   1      -1.858   0.277   2.278  0.00  0.00     0.002 A 
ATOM      4  C4  N4B d   1      -1.943   1.619   1.941  0.00  0.00    -0.004 A 
ATOM      5  C5  N4B d   1      -3.097   2.118   1.412  0.00  0.00     0.002 A 
ATOM      6  C6  N4B d   1      -4.178   1.296   1.165  0.00  0.00     0.002 A 
ENDROOT
BRANCH   1   7
ATOM      7  C1' N4B d   1      -5.267  -0.919   1.097  0.00  0.00     0.057 C 
BRANCH   7   8
ATOM      8  C2' N4B d   1      -4.786  -2.009   0.145  0.00  0.00     0.009 C 
BRANCH   8   9
ATOM      9  C3' N4B d   1      -5.536  -3.315   0.350  0.00  0.00     0.004 C 
ATOM     10  C4' N4B d   1      -4.663  -4.407   0.891  0.00  0.00     0.003 C 
ENDBRANCH   8   9
ENDBRANCH   7   8
ENDBRANCH   1   7
TORSDOF 3
ENDMDL
