MODEL 1
REMARK minimizedAffinity 7.29944801
REMARK minimizedRMSD -1
REMARK  3 active torsions:
REMARK  status: ('A' for Active; 'I' for Inactive)
REMARK    1  A    between atoms: C3'_2  and  C2'_3 
REMARK    2  A    between atoms: C2'_3  and  C1'_4 
REMARK    3  A    between atoms: C1'_4  and  C1_5 
ROOT
ATOM      1  C1  N4B d   1      -5.298  -3.677   0.301  0.00  0.00    -0.075 A 
ATOM      2  C2  N4B d   1      -5.994  -4.721   0.949  0.00  0.00     0.002 A 
ATOM      3  C3  N4B d   1      -5.329  -5.866   1.314  0.00  0.00     0.002 A 
ATOM      4  C4  N4B d   1      -3.979  -5.997   1.026  0.00  0.00    -0.004 A 
ATOM      5  C5  N4B d   1      -3.308  -4.974   0.423  0.00  0.00     0.002 A 
ATOM      6  C6  N4B d   1      -3.963  -3.815   0.054  0.00  0.00     0.002 A 
ENDROOT
BRANCH   1   7
ATOM      7  C1' N4B d   1      -6.000  -2.442  -0.193  0.00  0.00     0.057 C 
BRANCH   7   8
ATOM      8  C2' N4B d   1      -5.482  -1.230   0.575  0.00  0.00     0.009 C 
BRANCH   8   9
ATOM      9  C3' N4B d   1      -4.237  -1.558   1.382  0.00  0.00     0.004 C 
ATOM     10  C4' N4B d   1      -3.231  -0.445   1.376  0.00  0.00     0.003 C 
ENDBRANCH   8   9
ENDBRANCH   7   8
ENDBRANCH   1   7
TORSDOF 3
ENDMDL
