MODEL 1
REMARK minimizedAffinity 11.1716003
REMARK minimizedRMSD -1
REMARK  3 active torsions:
REMARK  status: ('A' for Active; 'I' for Inactive)
REMARK    1  A    between atoms: C3'_2  and  C2'_3 
REMARK    2  A    between atoms: C2'_3  and  C1'_4 
REMARK    3  A    between atoms: C1'_4  and  C1_5 
ROOT
ATOM      1  C1  N4B d   1      -4.932  -3.765   0.112  0.00  0.00    -0.075 A 
ATOM      2  C2  N4B d   1      -3.746  -4.530   0.103  0.00  0.00     0.002 A 
ATOM      3  C3  N4B d   1      -3.637  -5.638   0.906  0.00  0.00     0.002 A 
ATOM      4  C4  N4B d   1      -4.690  -5.988   1.738  0.00  0.00    -0.004 A 
ATOM      5  C5  N4B d   1      -5.843  -5.258   1.722  0.00  0.00     0.002 A 
ATOM      6  C6  N4B d   1      -5.967  -4.145   0.917  0.00  0.00     0.002 A 
ENDROOT
BRANCH   1   7
ATOM      7  C1' N4B d   1      -5.066  -2.496  -0.686  0.00  0.00     0.057 C 
BRANCH   7   8
ATOM      8  C2' N4B d   1      -5.977  -1.528   0.062  0.00  0.00     0.009 C 
BRANCH   8   9
ATOM      9  C3' N4B d   1      -5.188  -0.552   0.919  0.00  0.00     0.004 C 
ATOM     10  C4' N4B d   1      -4.150  -1.228   1.764  0.00  0.00     0.003 C 
ENDBRANCH   8   9
ENDBRANCH   7   8
ENDBRANCH   1   7
TORSDOF 3
ENDMDL
