MODEL 1
REMARK minimizedAffinity 10.3855495
REMARK minimizedRMSD -1
REMARK  3 active torsions:
REMARK  status: ('A' for Active; 'I' for Inactive)
REMARK    1  A    between atoms: C3'_2  and  C2'_3 
REMARK    2  A    between atoms: C2'_3  and  C1'_4 
REMARK    3  A    between atoms: C1'_4  and  C1_5 
ROOT
ATOM      1  C1  N4B d   1      -4.405  -3.301   0.026  0.00  0.00    -0.075 A 
ATOM      2  C2  N4B d   1      -3.371  -4.263   0.029  0.00  0.00     0.002 A 
ATOM      3  C3  N4B d   1      -3.678  -5.601   0.059  0.00  0.00     0.002 A 
ATOM      4  C4  N4B d   1      -5.005  -5.999   0.106  0.00  0.00    -0.004 A 
ATOM      5  C5  N4B d   1      -5.999  -5.065   0.078  0.00  0.00     0.002 A 
ATOM      6  C6  N4B d   1      -5.705  -3.717   0.043  0.00  0.00     0.002 A 
ENDROOT
BRANCH   1   7
ATOM      7  C1' N4B d   1      -4.118  -1.826   0.080  0.00  0.00     0.057 C 
BRANCH   7   8
ATOM      8  C2' N4B d   1      -3.523  -1.481   1.442  0.00  0.00     0.009 C 
BRANCH   8   9
ATOM      9  C3' N4B d   1      -2.054  -1.107   1.342  0.00  0.00     0.004 C 
ATOM     10  C4' N4B d   1      -1.474  -0.674   2.655  0.00  0.00     0.003 C 
ENDBRANCH   8   9
ENDBRANCH   7   8
ENDBRANCH   1   7
TORSDOF 3
ENDMDL
