MODEL 1
REMARK minimizedAffinity 1.76458955
REMARK minimizedRMSD -1
REMARK  3 active torsions:
REMARK  status: ('A' for Active; 'I' for Inactive)
REMARK    1  A    between atoms: C3'_2  and  C2'_3 
REMARK    2  A    between atoms: C2'_3  and  C1'_4 
REMARK    3  A    between atoms: C1'_4  and  C1_5 
ROOT
ATOM      1  C1  N4B d   1      -2.164   1.004   1.973  0.00  0.00    -0.075 A 
ATOM      2  C2  N4B d   1      -2.878   2.212   1.816  0.00  0.00     0.002 A 
ATOM      3  C3  N4B d   1      -3.945   2.491   2.635  0.00  0.00     0.002 A 
ATOM      4  C4  N4B d   1      -4.326   1.572   3.601  0.00  0.00    -0.004 A 
ATOM      5  C5  N4B d   1      -3.616   0.419   3.763  0.00  0.00     0.002 A 
ATOM      6  C6  N4B d   1      -2.539   0.128   2.950  0.00  0.00     0.002 A 
ENDROOT
BRANCH   1   7
ATOM      7  C1' N4B d   1      -1.045   0.616   1.046  0.00  0.00     0.057 C 
BRANCH   7   8
ATOM      8  C2' N4B d   1      -1.625  -0.116  -0.160  0.00  0.00     0.009 C 
BRANCH   8   9
ATOM      9  C3' N4B d   1      -1.492  -1.623  -0.028  0.00  0.00     0.004 C 
ATOM     10  C4' N4B d   1      -2.777  -2.346  -0.299  0.00  0.00     0.003 C 
ENDBRANCH   8   9
ENDBRANCH   7   8
ENDBRANCH   1   7
TORSDOF 3
ENDMDL
