MODEL 1
REMARK minimizedAffinity 10.2361612
REMARK minimizedRMSD -1
REMARK  3 active torsions:
REMARK  status: ('A' for Active; 'I' for Inactive)
REMARK    1  A    between atoms: C3'_2  and  C2'_3 
REMARK    2  A    between atoms: C2'_3  and  C1'_4 
REMARK    3  A    between atoms: C1'_4  and  C1_5 
ROOT
ATOM      1  C1  N4B d   1      -4.976  -4.430  -0.521  0.00  0.00    -0.075 A 
ATOM      2  C2  N4B d   1      -3.726  -5.086  -0.574  0.00  0.00     0.002 A 
ATOM      3  C3  N4B d   1      -3.317  -5.869   0.478  0.00  0.00     0.002 A 
ATOM      4  C4  N4B d   1      -4.128  -5.995   1.595  0.00  0.00    -0.004 A 
ATOM      5  C5  N4B d   1      -5.345  -5.379   1.628  0.00  0.00     0.002 A 
ATOM      6  C6  N4B d   1      -5.771  -4.593   0.576  0.00  0.00     0.002 A 
ENDROOT
BRANCH   1   7
ATOM      7  C1' N4B d   1      -5.429  -3.495  -1.609  0.00  0.00     0.057 C 
BRANCH   7   8
ATOM      8  C2' N4B d   1      -5.628  -4.286  -2.898  0.00  0.00     0.009 C 
BRANCH   8   9
ATOM      9  C3' N4B d   1      -5.924  -3.380  -4.081  0.00  0.00     0.004 C 
ATOM     10  C4' N4B d   1      -4.843  -3.410  -5.120  0.00  0.00     0.003 C 
ENDBRANCH   8   9
ENDBRANCH   7   8
ENDBRANCH   1   7
TORSDOF 3
ENDMDL
