MODEL 1
REMARK minimizedAffinity 10.5782328
REMARK minimizedRMSD -1
REMARK  3 active torsions:
REMARK  status: ('A' for Active; 'I' for Inactive)
REMARK    1  A    between atoms: C3'_2  and  C2'_3 
REMARK    2  A    between atoms: C2'_3  and  C1'_4 
REMARK    3  A    between atoms: C1'_4  and  C1_5 
ROOT
ATOM      1  C1  N4B d   1      -1.679  -3.050  -5.795  0.00  0.00    -0.075 A 
ATOM      2  C2  N4B d   1      -2.757  -2.139  -5.760  0.00  0.00     0.002 A 
ATOM      3  C3  N4B d   1      -4.048  -2.599  -5.849  0.00  0.00     0.002 A 
ATOM      4  C4  N4B d   1      -4.284  -3.958  -5.992  0.00  0.00    -0.004 A 
ATOM      5  C5  N4B d   1      -3.238  -4.834  -5.999  0.00  0.00     0.002 A 
ATOM      6  C6  N4B d   1      -1.935  -4.386  -5.907  0.00  0.00     0.002 A 
ENDROOT
BRANCH   1   7
ATOM      7  C1' N4B d   1      -0.247  -2.588  -5.787  0.00  0.00     0.057 C 
BRANCH   7   8
ATOM      8  C2' N4B d   1      -0.135  -1.319  -4.948  0.00  0.00     0.009 C 
BRANCH   8   9
ATOM      9  C3' N4B d   1       0.796  -1.502  -3.762  0.00  0.00     0.004 C 
ATOM     10  C4' N4B d   1       1.708  -0.330  -3.553  0.00  0.00     0.003 C 
ENDBRANCH   8   9
ENDBRANCH   7   8
ENDBRANCH   1   7
TORSDOF 3
ENDMDL
