MODEL 1
REMARK minimizedAffinity 11.0558405
REMARK minimizedRMSD -1
REMARK  3 active torsions:
REMARK  status: ('A' for Active; 'I' for Inactive)
REMARK    1  A    between atoms: C3'_2  and  C2'_3 
REMARK    2  A    between atoms: C2'_3  and  C1'_4 
REMARK    3  A    between atoms: C1'_4  and  C1_5 
ROOT
ATOM      1  C1  N4B d   1       2.930   4.720  -3.258  0.00  0.00    -0.075 A 
ATOM      2  C2  N4B d   1       4.180   4.351  -3.801  0.00  0.00     0.002 A 
ATOM      3  C3  N4B d   1       4.346   4.290  -5.163  0.00  0.00     0.002 A 
ATOM      4  C4  N4B d   1       3.276   4.575  -5.998  0.00  0.00    -0.004 A 
ATOM      5  C5  N4B d   1       2.079   4.956  -5.466  0.00  0.00     0.002 A 
ATOM      6  C6  N4B d   1       1.899   5.025  -4.099  0.00  0.00     0.002 A 
ENDROOT
BRANCH   1   7
ATOM      7  C1' N4B d   1       2.676   4.717  -1.776  0.00  0.00     0.057 C 
BRANCH   7   8
ATOM      8  C2' N4B d   1       2.159   3.343  -1.359  0.00  0.00     0.009 C 
BRANCH   8   9
ATOM      9  C3' N4B d   1       2.757   2.888  -0.039  0.00  0.00     0.004 C 
ATOM     10  C4' N4B d   1       1.990   3.388   1.149  0.00  0.00     0.003 C 
ENDBRANCH   8   9
ENDBRANCH   7   8
ENDBRANCH   1   7
TORSDOF 3
ENDMDL
