MODEL 1
REMARK minimizedAffinity 9.10996151
REMARK minimizedRMSD -1
REMARK  3 active torsions:
REMARK  status: ('A' for Active; 'I' for Inactive)
REMARK    1  A    between atoms: C3'_2  and  C2'_3 
REMARK    2  A    between atoms: C2'_3  and  C1'_4 
REMARK    3  A    between atoms: C1'_4  and  C1_5 
ROOT
ATOM      1  C1  N4B d   1      -2.432  -3.079  -5.910  0.00  0.00    -0.075 A 
ATOM      2  C2  N4B d   1      -3.066  -4.338  -5.996  0.00  0.00     0.002 A 
ATOM      3  C3  N4B d   1      -4.430  -4.430  -5.860  0.00  0.00     0.002 A 
ATOM      4  C4  N4B d   1      -5.174  -3.284  -5.620  0.00  0.00    -0.004 A 
ATOM      5  C5  N4B d   1      -4.556  -2.069  -5.564  0.00  0.00     0.002 A 
ATOM      6  C6  N4B d   1      -3.187  -1.961  -5.702  0.00  0.00     0.002 A 
ENDROOT
BRANCH   1   7
ATOM      7  C1' N4B d   1      -0.935  -2.939  -5.966  0.00  0.00     0.057 C 
BRANCH   7   8
ATOM      8  C2' N4B d   1      -0.530  -1.624  -5.306  0.00  0.00     0.009 C 
BRANCH   8   9
ATOM      9  C3' N4B d   1       0.764  -1.757  -4.522  0.00  0.00     0.004 C 
ATOM     10  C4' N4B d   1       1.265  -0.443  -4.001  0.00  0.00     0.003 C 
ENDBRANCH   8   9
ENDBRANCH   7   8
ENDBRANCH   1   7
TORSDOF 3
ENDMDL
