MODEL 1
REMARK minimizedAffinity 6.31624508
REMARK minimizedRMSD -1
REMARK  3 active torsions:
REMARK  status: ('A' for Active; 'I' for Inactive)
REMARK    1  A    between atoms: C3'_2  and  C2'_3 
REMARK    2  A    between atoms: C2'_3  and  C1'_4 
REMARK    3  A    between atoms: C1'_4  and  C1_5 
ROOT
ATOM      1  C1  N4B d   1      -0.119  -2.038  -5.168  0.00  0.00    -0.075 A 
ATOM      2  C2  N4B d   1       1.114  -2.085  -4.481  0.00  0.00     0.002 A 
ATOM      3  C3  N4B d   1       1.743  -0.920  -4.118  0.00  0.00     0.002 A 
ATOM      4  C4  N4B d   1       1.170   0.300  -4.446  0.00  0.00    -0.004 A 
ATOM      5  C5  N4B d   1      -0.034   0.337  -5.088  0.00  0.00     0.002 A 
ATOM      6  C6  N4B d   1      -0.679  -0.826  -5.455  0.00  0.00     0.002 A 
ENDROOT
BRANCH   1   7
ATOM      7  C1' N4B d   1      -0.802  -3.284  -5.662  0.00  0.00     0.057 C 
BRANCH   7   8
ATOM      8  C2' N4B d   1      -2.259  -2.963  -5.984  0.00  0.00     0.009 C 
BRANCH   8   9
ATOM      9  C3' N4B d   1      -3.126  -4.210  -5.994  0.00  0.00     0.004 C 
ATOM     10  C4' N4B d   1      -4.593  -3.897  -6.000  0.00  0.00     0.003 C 
ENDBRANCH   8   9
ENDBRANCH   7   8
ENDBRANCH   1   7
TORSDOF 3
ENDMDL
