MODEL 1
REMARK minimizedAffinity 8.07320213
REMARK minimizedRMSD -1
REMARK  3 active torsions:
REMARK  status: ('A' for Active; 'I' for Inactive)
REMARK    1  A    between atoms: C3'_2  and  C2'_3 
REMARK    2  A    between atoms: C2'_3  and  C1'_4 
REMARK    3  A    between atoms: C1'_4  and  C1_5 
ROOT
ATOM      1  C1  N4B d   1       3.159   1.195   2.126  0.00  0.00    -0.075 A 
ATOM      2  C2  N4B d   1       3.119   0.079   2.990  0.00  0.00     0.002 A 
ATOM      3  C3  N4B d   1       4.200  -0.765   3.072  0.00  0.00     0.002 A 
ATOM      4  C4  N4B d   1       5.319  -0.524   2.289  0.00  0.00    -0.004 A 
ATOM      5  C5  N4B d   1       5.359   0.570   1.475  0.00  0.00     0.002 A 
ATOM      6  C6  N4B d   1       4.281   1.429   1.386  0.00  0.00     0.002 A 
ENDROOT
BRANCH   1   7
ATOM      7  C1' N4B d   1       1.969   2.096   1.939  0.00  0.00     0.057 C 
BRANCH   7   8
ATOM      8  C2' N4B d   1       0.842   1.636   2.858  0.00  0.00     0.009 C 
BRANCH   8   9
ATOM      9  C3' N4B d   1      -0.439   1.356   2.091  0.00  0.00     0.004 C 
ATOM     10  C4' N4B d   1      -1.330   0.373   2.789  0.00  0.00     0.003 C 
ENDBRANCH   8   9
ENDBRANCH   7   8
ENDBRANCH   1   7
TORSDOF 3
ENDMDL
