MODEL 1
REMARK minimizedAffinity 0.500953138
REMARK minimizedRMSD -1
REMARK  3 active torsions:
REMARK  status: ('A' for Active; 'I' for Inactive)
REMARK    1  A    between atoms: C3'_2  and  C2'_3 
REMARK    2  A    between atoms: C2'_3  and  C1'_4 
REMARK    3  A    between atoms: C1'_4  and  C1_5 
ROOT
ATOM      1  C1  N4B d   1      -2.338   1.928   4.363  0.00  0.00    -0.075 A 
ATOM      2  C2  N4B d   1      -1.137   2.668   4.431  0.00  0.00     0.002 A 
ATOM      3  C3  N4B d   1      -0.214   2.573   3.418  0.00  0.00     0.002 A 
ATOM      4  C4  N4B d   1      -0.461   1.734   2.341  0.00  0.00    -0.004 A 
ATOM      5  C5  N4B d   1      -1.635   1.042   2.272  0.00  0.00     0.002 A 
ATOM      6  C6  N4B d   1      -2.573   1.131   3.280  0.00  0.00     0.002 A 
ENDROOT
BRANCH   1   7
ATOM      7  C1' N4B d   1      -3.338   1.933   5.487  0.00  0.00     0.057 C 
BRANCH   7   8
ATOM      8  C2' N4B d   1      -3.524   0.507   5.998  0.00  0.00     0.009 C 
BRANCH   8   9
ATOM      9  C3' N4B d   1      -4.977   0.069   5.944  0.00  0.00     0.004 C 
ATOM     10  C4' N4B d   1      -5.934   1.223   5.999  0.00  0.00     0.003 C 
ENDBRANCH   8   9
ENDBRANCH   7   8
ENDBRANCH   1   7
TORSDOF 3
ENDMDL
