MODEL 1
REMARK minimizedAffinity 1.9825145
REMARK minimizedRMSD -1
REMARK  2 active torsions:
REMARK  status: ('A' for Active; 'I' for Inactive)
REMARK    1  A    between atoms: C2'_3  and  C1'_4 
REMARK    2  A    between atoms: C1'_4  and  C1_5 
ROOT
ATOM      1  C1  I4B d   1       1.076  -0.561  -0.967  0.00  0.00    -0.075 A 
ATOM      2  C2  I4B d   1       0.606   0.443  -1.776  0.00  0.00     0.003 A 
ATOM      3  C3  I4B d   1       0.495   1.765  -1.281  0.00  0.00     0.002 A 
ATOM      4  C4  I4B d   1       0.814   2.026   0.036  0.00  0.00    -0.004 A 
ATOM      5  C5  I4B d   1       1.312   1.011   0.849  0.00  0.00     0.002 A 
ATOM      6  C6  I4B d   1       1.455  -0.288   0.341  0.00  0.00     0.003 A 
ENDROOT
BRANCH   1   7
ATOM      7  C1' I4B d   1       1.149  -1.952  -1.512  0.00  0.00     0.060 C 
BRANCH   7   8
ATOM      8  C2' I4B d   1       0.285  -2.841  -0.641  0.00  0.00    -0.013 C 
ATOM      9  C4' I4B d   1      -0.629  -3.700  -1.476  0.00  0.00     0.013 C 
ATOM     10  C3' I4B d   1       1.193  -3.682   0.206  0.00  0.00     0.013 C 
ENDBRANCH   7   8
ENDBRANCH   1   7
TORSDOF 2
ENDMDL
