MODEL 1
REMARK minimizedAffinity 7.11394548
REMARK minimizedRMSD -1
REMARK  2 active torsions:
REMARK  status: ('A' for Active; 'I' for Inactive)
REMARK    1  A    between atoms: C2'_3  and  C1'_4 
REMARK    2  A    between atoms: C1'_4  and  C1_5 
ROOT
ATOM      1  C1  I4B d   1      -2.782   3.183   2.417  0.00  0.00    -0.075 A 
ATOM      2  C2  I4B d   1      -3.420   3.182   1.202  0.00  0.00     0.003 A 
ATOM      3  C3  I4B d   1      -4.486   2.282   0.957  0.00  0.00     0.002 A 
ATOM      4  C4  I4B d   1      -4.845   1.373   1.932  0.00  0.00    -0.004 A 
ATOM      5  C5  I4B d   1      -4.212   1.392   3.171  0.00  0.00     0.002 A 
ATOM      6  C6  I4B d   1      -3.182   2.311   3.420  0.00  0.00     0.003 A 
ENDROOT
BRANCH   1   7
ATOM      7  C1' I4B d   1      -1.638   4.124   2.629  0.00  0.00     0.060 C 
BRANCH   7   8
ATOM      8  C2' I4B d   1      -2.206   5.519   2.794  0.00  0.00    -0.013 C 
ATOM      9  C4' I4B d   1      -3.695   5.531   2.571  0.00  0.00     0.013 C 
ATOM     10  C3' I4B d   1      -1.861   6.000   4.172  0.00  0.00     0.013 C 
ENDBRANCH   7   8
ENDBRANCH   1   7
TORSDOF 2
ENDMDL
