MODEL 1
REMARK minimizedAffinity -4.02843094
REMARK minimizedRMSD -1
REMARK  2 active torsions:
REMARK  status: ('A' for Active; 'I' for Inactive)
REMARK    1  A    between atoms: C2'_3  and  C1'_4 
REMARK    2  A    between atoms: C1'_4  and  C1_5 
ROOT
ATOM      1  C1  I4B d   1       0.902   2.763  -1.025  0.00  0.00    -0.075 A 
ATOM      2  C2  I4B d   1       1.467   1.778  -1.796  0.00  0.00     0.003 A 
ATOM      3  C3  I4B d   1       1.855   0.549  -1.210  0.00  0.00     0.002 A 
ATOM      4  C4  I4B d   1       1.707   0.368   0.150  0.00  0.00    -0.004 A 
ATOM      5  C5  I4B d   1       1.113   1.358   0.926  0.00  0.00     0.002 A 
ATOM      6  C6  I4B d   1       0.696   2.559   0.333  0.00  0.00     0.003 A 
ENDROOT
BRANCH   1   7
ATOM      7  C1' I4B d   1       0.534   4.062  -1.670  0.00  0.00     0.060 C 
BRANCH   7   8
ATOM      8  C2' I4B d   1      -0.673   3.819  -2.553  0.00  0.00    -0.013 C 
ATOM      9  C4' I4B d   1      -1.539   5.047  -2.643  0.00  0.00     0.013 C 
ATOM     10  C3' I4B d   1      -0.180   3.403  -3.907  0.00  0.00     0.013 C 
ENDBRANCH   7   8
ENDBRANCH   1   7
TORSDOF 2
ENDMDL
