MODEL 1
REMARK minimizedAffinity -2.97143316
REMARK minimizedRMSD -1
REMARK  2 active torsions:
REMARK  status: ('A' for Active; 'I' for Inactive)
REMARK    1  A    between atoms: C2'_3  and  C1'_4 
REMARK    2  A    between atoms: C1'_4  and  C1_5 
ROOT
ATOM      1  C1  I4B d   1       1.404   0.846  -0.463  0.00  0.00    -0.075 A 
ATOM      2  C2  I4B d   1       1.272   1.650   0.642  0.00  0.00     0.003 A 
ATOM      3  C3  I4B d   1       0.901   3.008   0.495  0.00  0.00     0.002 A 
ATOM      4  C4  I4B d   1       0.722   3.531  -0.769  0.00  0.00    -0.004 A 
ATOM      5  C5  I4B d   1       0.834   2.709  -1.887  0.00  0.00     0.002 A 
ATOM      6  C6  I4B d   1       1.165   1.355  -1.733  0.00  0.00     0.003 A 
ENDROOT
BRANCH   1   7
ATOM      7  C1' I4B d   1       1.829  -0.576  -0.274  0.00  0.00     0.060 C 
BRANCH   7   8
ATOM      8  C2' I4B d   1       0.795  -1.464  -0.935  0.00  0.00    -0.013 C 
ATOM      9  C4' I4B d   1       1.252  -1.911  -2.298  0.00  0.00     0.013 C 
ATOM     10  C3' I4B d   1       0.550  -2.638  -0.034  0.00  0.00     0.013 C 
ENDBRANCH   7   8
ENDBRANCH   1   7
TORSDOF 2
ENDMDL
