MODEL 1
REMARK minimizedAffinity 7.4166913
REMARK minimizedRMSD -1
REMARK  2 active torsions:
REMARK  status: ('A' for Active; 'I' for Inactive)
REMARK    1  A    between atoms: C2'_3  and  C1'_4 
REMARK    2  A    between atoms: C1'_4  and  C1_5 
ROOT
ATOM      1  C1  I4B d   1       1.141  -0.534   0.231  0.00  0.00    -0.075 A 
ATOM      2  C2  I4B d   1       1.215   0.681   0.864  0.00  0.00     0.003 A 
ATOM      3  C3  I4B d   1       1.029   1.879   0.132  0.00  0.00     0.002 A 
ATOM      4  C4  I4B d   1       0.825   1.817  -1.231  0.00  0.00    -0.004 A 
ATOM      5  C5  I4B d   1       0.728   0.583  -1.868  0.00  0.00     0.002 A 
ATOM      6  C6  I4B d   1       0.875  -0.600  -1.130  0.00  0.00     0.003 A 
ENDROOT
BRANCH   1   7
ATOM      7  C1' I4B d   1       1.374  -1.778   1.029  0.00  0.00     0.060 C 
BRANCH   7   8
ATOM      8  C2' I4B d   1       1.704  -2.897   0.062  0.00  0.00    -0.013 C 
ATOM      9  C4' I4B d   1       3.090  -3.434   0.302  0.00  0.00     0.013 C 
ATOM     10  C3' I4B d   1       0.671  -3.971   0.229  0.00  0.00     0.013 C 
ENDBRANCH   7   8
ENDBRANCH   1   7
TORSDOF 2
ENDMDL
