MODEL 1
REMARK minimizedAffinity 1.74023318
REMARK minimizedRMSD -1
REMARK  2 active torsions:
REMARK  status: ('A' for Active; 'I' for Inactive)
REMARK    1  A    between atoms: C2'_3  and  C1'_4 
REMARK    2  A    between atoms: C1'_4  and  C1_5 
ROOT
ATOM      1  C1  I4B d   1       1.133   2.326  -0.377  0.00  0.00    -0.075 A 
ATOM      2  C2  I4B d   1       1.470   1.764  -1.583  0.00  0.00     0.003 A 
ATOM      3  C3  I4B d   1       1.430   0.359  -1.752  0.00  0.00     0.002 A 
ATOM      4  C4  I4B d   1       1.098  -0.444  -0.681  0.00  0.00    -0.004 A 
ATOM      5  C5  I4B d   1       0.733   0.128   0.535  0.00  0.00     0.002 A 
ATOM      6  C6  I4B d   1       0.739   1.522   0.685  0.00  0.00     0.003 A 
ENDROOT
BRANCH   1   7
ATOM      7  C1' I4B d   1       1.218   3.811  -0.225  0.00  0.00     0.060 C 
BRANCH   7   8
ATOM      8  C2' I4B d   1       1.519   4.404  -1.586  0.00  0.00    -0.013 C 
ATOM      9  C4' I4B d   1       0.365   4.208  -2.534  0.00  0.00     0.013 C 
ATOM     10  C3' I4B d   1       1.825   5.860  -1.400  0.00  0.00     0.013 C 
ENDBRANCH   7   8
ENDBRANCH   1   7
TORSDOF 2
ENDMDL
