MODEL 1
REMARK minimizedAffinity 7.42223549
REMARK minimizedRMSD -1
REMARK  2 active torsions:
REMARK  status: ('A' for Active; 'I' for Inactive)
REMARK    1  A    between atoms: C2'_3  and  C1'_4 
REMARK    2  A    between atoms: C1'_4  and  C1_5 
ROOT
ATOM      1  C1  I4B d   1       0.868   0.822  -0.990  0.00  0.00    -0.075 A 
ATOM      2  C2  I4B d   1       1.335   1.286  -2.195  0.00  0.00     0.003 A 
ATOM      3  C3  I4B d   1       1.289   2.669  -2.492  0.00  0.00     0.002 A 
ATOM      4  C4  I4B d   1       0.724   3.541  -1.584  0.00  0.00    -0.004 A 
ATOM      5  C5  I4B d   1       0.272   3.073  -0.354  0.00  0.00     0.002 A 
ATOM      6  C6  I4B d   1       0.355   1.706  -0.050  0.00  0.00     0.003 A 
ENDROOT
BRANCH   1   7
ATOM      7  C1' I4B d   1       0.902  -0.649  -0.722  0.00  0.00     0.060 C 
BRANCH   7   8
ATOM      8  C2' I4B d   1       1.377  -0.853   0.703  0.00  0.00    -0.013 C 
ATOM      9  C4' I4B d   1       1.088  -2.252   1.179  0.00  0.00     0.013 C 
ATOM     10  C3' I4B d   1       2.847  -0.558   0.748  0.00  0.00     0.013 C 
ENDBRANCH   7   8
ENDBRANCH   1   7
TORSDOF 2
ENDMDL
