MODEL 1
REMARK minimizedAffinity -2.05516601
REMARK minimizedRMSD -1
REMARK  2 active torsions:
REMARK  status: ('A' for Active; 'I' for Inactive)
REMARK    1  A    between atoms: C2'_3  and  C1'_4 
REMARK    2  A    between atoms: C1'_4  and  C1_5 
ROOT
ATOM      1  C1  I4B d   1       1.154   1.474   0.960  0.00  0.00    -0.075 A 
ATOM      2  C2  I4B d   1       1.059   0.165   0.559  0.00  0.00     0.003 A 
ATOM      3  C3  I4B d   1       0.841  -0.148  -0.805  0.00  0.00     0.002 A 
ATOM      4  C4  I4B d   1       0.676   0.873  -1.719  0.00  0.00    -0.004 A 
ATOM      5  C5  I4B d   1       0.795   2.199  -1.313  0.00  0.00     0.002 A 
ATOM      6  C6  I4B d   1       1.048   2.502   0.033  0.00  0.00     0.003 A 
ENDROOT
BRANCH   1   7
ATOM      7  C1' I4B d   1       1.351   1.769   2.414  0.00  0.00     0.060 C 
BRANCH   7   8
ATOM      8  C2' I4B d   1       0.526   0.777   3.208  0.00  0.00    -0.013 C 
ATOM      9  C4' I4B d   1       1.281   0.281   4.412  0.00  0.00     0.013 C 
ATOM     10  C3' I4B d   1      -0.751   1.454   3.610  0.00  0.00     0.013 C 
ENDBRANCH   7   8
ENDBRANCH   1   7
TORSDOF 2
ENDMDL
