MODEL 1
REMARK minimizedAffinity 2.06078124
REMARK minimizedRMSD -1
REMARK  2 active torsions:
REMARK  status: ('A' for Active; 'I' for Inactive)
REMARK    1  A    between atoms: C2'_3  and  C1'_4 
REMARK    2  A    between atoms: C1'_4  and  C1_5 
ROOT
ATOM      1  C1  I4B d   1       1.243   0.349  -1.451  0.00  0.00    -0.075 A 
ATOM      2  C2  I4B d   1       0.900   1.326  -2.351  0.00  0.00     0.003 A 
ATOM      3  C3  I4B d   1       0.581   2.630  -1.901  0.00  0.00     0.002 A 
ATOM      4  C4  I4B d   1       0.568   2.898  -0.547  0.00  0.00    -0.004 A 
ATOM      5  C5  I4B d   1       0.939   1.912   0.363  0.00  0.00     0.002 A 
ATOM      6  C6  I4B d   1       1.291   0.633  -0.092  0.00  0.00     0.003 A 
ENDROOT
BRANCH   1   7
ATOM      7  C1' I4B d   1       1.543  -1.026  -1.958  0.00  0.00     0.060 C 
BRANCH   7   8
ATOM      8  C2' I4B d   1       0.831  -2.019  -1.062  0.00  0.00    -0.013 C 
ATOM      9  C4' I4B d   1       0.042  -3.015  -1.871  0.00  0.00     0.013 C 
ATOM     10  C3' I4B d   1       1.864  -2.704  -0.218  0.00  0.00     0.013 C 
ENDBRANCH   7   8
ENDBRANCH   1   7
TORSDOF 2
ENDMDL
