MODEL 1
REMARK minimizedAffinity 2.46736026
REMARK minimizedRMSD -1
REMARK  2 active torsions:
REMARK  status: ('A' for Active; 'I' for Inactive)
REMARK    1  A    between atoms: C2'_3  and  C1'_4 
REMARK    2  A    between atoms: C1'_4  and  C1_5 
ROOT
ATOM      1  C1  I4B d   1      -0.266  -3.801   1.133  0.00  0.00    -0.075 A 
ATOM      2  C2  I4B d   1      -1.177  -3.912   0.112  0.00  0.00     0.003 A 
ATOM      3  C3  I4B d   1      -0.855  -3.442  -1.184  0.00  0.00     0.002 A 
ATOM      4  C4  I4B d   1       0.361  -2.826  -1.401  0.00  0.00    -0.004 A 
ATOM      5  C5  I4B d   1       1.291  -2.735  -0.371  0.00  0.00     0.002 A 
ATOM      6  C6  I4B d   1       0.981  -3.236   0.902  0.00  0.00     0.003 A 
ENDROOT
BRANCH   1   7
ATOM      7  C1' I4B d   1      -0.651  -4.278   2.498  0.00  0.00     0.060 C 
BRANCH   7   8
ATOM      8  C2' I4B d   1      -2.152  -4.487   2.513  0.00  0.00    -0.013 C 
ATOM      9  C4' I4B d   1      -2.498  -5.953   2.539  0.00  0.00     0.013 C 
ATOM     10  C3' I4B d   1      -2.706  -3.778   3.712  0.00  0.00     0.013 C 
ENDBRANCH   7   8
ENDBRANCH   1   7
TORSDOF 2
ENDMDL
