MODEL 1
REMARK minimizedAffinity 5.16967535
REMARK minimizedRMSD -1
REMARK  2 active torsions:
REMARK  status: ('A' for Active; 'I' for Inactive)
REMARK    1  A    between atoms: C2'_3  and  C1'_4 
REMARK    2  A    between atoms: C1'_4  and  C1_5 
ROOT
ATOM      1  C1  I4B d   1       1.198   1.545   0.506  0.00  0.00    -0.075 A 
ATOM      2  C2  I4B d   1       1.115   2.269  -0.657  0.00  0.00     0.003 A 
ATOM      3  C3  I4B d   1       1.070   1.607  -1.908  0.00  0.00     0.002 A 
ATOM      4  C4  I4B d   1       1.161   0.231  -1.952  0.00  0.00    -0.004 A 
ATOM      5  C5  I4B d   1       1.223  -0.503  -0.771  0.00  0.00     0.002 A 
ATOM      6  C6  I4B d   1       1.229   0.157   0.467  0.00  0.00     0.003 A 
ENDROOT
BRANCH   1   7
ATOM      7  C1' I4B d   1       1.277   2.278   1.808  0.00  0.00     0.060 C 
BRANCH   7   8
ATOM      8  C2' I4B d   1       2.672   2.085   2.368  0.00  0.00    -0.013 C 
ATOM      9  C4' I4B d   1       3.208   3.368   2.947  0.00  0.00     0.013 C 
ATOM     10  C3' I4B d   1       2.608   1.007   3.408  0.00  0.00     0.013 C 
ENDBRANCH   7   8
ENDBRANCH   1   7
TORSDOF 2
ENDMDL
