MODEL 1
REMARK minimizedAffinity -1.43903887
REMARK minimizedRMSD -1
REMARK  2 active torsions:
REMARK  status: ('A' for Active; 'I' for Inactive)
REMARK    1  A    between atoms: C2'_3  and  C1'_4 
REMARK    2  A    between atoms: C1'_4  and  C1_5 
ROOT
ATOM      1  C1  I4B d   1       0.851   0.701  -1.219  0.00  0.00    -0.075 A 
ATOM      2  C2  I4B d   1       1.812   0.545  -0.251  0.00  0.00     0.003 A 
ATOM      3  C3  I4B d   1       2.155  -0.749   0.210  0.00  0.00     0.002 A 
ATOM      4  C4  I4B d   1       1.482  -1.848  -0.283  0.00  0.00    -0.004 A 
ATOM      5  C5  I4B d   1       0.524  -1.689  -1.280  0.00  0.00     0.002 A 
ATOM      6  C6  I4B d   1       0.215  -0.408  -1.760  0.00  0.00     0.003 A 
ENDROOT
BRANCH   1   7
ATOM      7  C1' I4B d   1       0.490   2.084  -1.659  0.00  0.00     0.060 C 
BRANCH   7   8
ATOM      8  C2' I4B d   1       1.168   3.064  -0.723  0.00  0.00    -0.013 C 
ATOM      9  C4' I4B d   1       0.954   4.485  -1.174  0.00  0.00     0.013 C 
ATOM     10  C3' I4B d   1       0.618   2.845   0.654  0.00  0.00     0.013 C 
ENDBRANCH   7   8
ENDBRANCH   1   7
TORSDOF 2
ENDMDL
