MODEL 1
REMARK minimizedAffinity 3.00776362
REMARK minimizedRMSD -1
REMARK  0 active torsions:
REMARK  status: ('A' for Active; 'I' for Inactive)
ROOT
ATOM      1  C2' OXE d   1       1.256  -4.053   4.845  0.00  0.00     0.078 C 
ATOM      2  C1' OXE d   1       3.434  -4.206   3.080  0.00  0.00     0.078 C 
ATOM      3  C1  OXE d   1       2.668  -2.908   3.142  0.00  0.00    -0.078 A 
ATOM      4  C2  OXE d   1       1.576  -2.857   3.974  0.00  0.00    -0.078 A 
ATOM      5  C3  OXE d   1       0.867  -1.667   4.110  0.00  0.00     0.003 A 
ATOM      6  C4  OXE d   1       1.163  -0.569   3.293  0.00  0.00    -0.002 A 
ATOM      7  C5  OXE d   1       2.247  -0.612   2.410  0.00  0.00    -0.002 A 
ATOM      8  C6  OXE d   1       3.034  -1.757   2.353  0.00  0.00     0.003 A 
ENDROOT
TORSDOF 0
ENDMDL
