MODEL 1
REMARK minimizedAffinity 1.4943037
REMARK minimizedRMSD -1
REMARK  0 active torsions:
REMARK  status: ('A' for Active; 'I' for Inactive)
ROOT
ATOM      1  C2' OXE d   1       0.892  -3.315   4.640  0.00  0.00     0.078 C 
ATOM      2  C1' OXE d   1       2.817  -4.028   2.725  0.00  0.00     0.078 C 
ATOM      3  C1  OXE d   1       2.309  -2.608   2.717  0.00  0.00    -0.078 A 
ATOM      4  C2  OXE d   1       1.333  -2.281   3.627  0.00  0.00    -0.078 A 
ATOM      5  C3  OXE d   1       0.869  -0.970   3.699  0.00  0.00     0.003 A 
ATOM      6  C4  OXE d   1       1.275  -0.022   2.752  0.00  0.00    -0.002 A 
ATOM      7  C5  OXE d   1       2.239  -0.345   1.791  0.00  0.00    -0.002 A 
ATOM      8  C6  OXE d   1       2.796  -1.619   1.787  0.00  0.00     0.003 A 
ENDROOT
TORSDOF 0
ENDMDL
