MODEL 1
REMARK minimizedAffinity 6.80370665
REMARK minimizedRMSD -1
REMARK  0 active torsions:
REMARK  status: ('A' for Active; 'I' for Inactive)
ROOT
ATOM      1  C2' OXE d   1       2.773  -5.997  -5.411  0.00  0.00     0.078 C 
ATOM      2  C1' OXE d   1       5.549  -5.979  -5.824  0.00  0.00     0.078 C 
ATOM      3  C1  OXE d   1       5.049  -5.979  -4.401  0.00  0.00    -0.078 A 
ATOM      4  C2  OXE d   1       3.689  -5.941  -4.208  0.00  0.00    -0.078 A 
ATOM      5  C3  OXE d   1       3.174  -5.995  -2.916  0.00  0.00     0.003 A 
ATOM      6  C4  OXE d   1       4.028  -5.933  -1.809  0.00  0.00    -0.002 A 
ATOM      7  C5  OXE d   1       5.417  -5.931  -1.983  0.00  0.00    -0.002 A 
ATOM      8  C6  OXE d   1       5.942  -5.997  -3.268  0.00  0.00     0.003 A 
ENDROOT
TORSDOF 0
ENDMDL
