MODEL 1
REMARK minimizedAffinity 6.1383996
REMARK minimizedRMSD -1
REMARK  0 active torsions:
REMARK  status: ('A' for Active; 'I' for Inactive)
ROOT
ATOM      1  C2' OXE d   1       1.992  -0.861   2.371  0.00  0.00     0.078 C 
ATOM      2  C1' OXE d   1       0.208  -3.028   2.414  0.00  0.00     0.078 C 
ATOM      3  C1  OXE d   1       1.538  -3.199   3.103  0.00  0.00    -0.078 A 
ATOM      4  C2  OXE d   1       2.424  -2.150   3.037  0.00  0.00    -0.078 A 
ATOM      5  C3  OXE d   1       3.643  -2.235   3.703  0.00  0.00     0.003 A 
ATOM      6  C4  OXE d   1       4.039  -3.434   4.308  0.00  0.00    -0.002 A 
ATOM      7  C5  OXE d   1       3.168  -4.528   4.352  0.00  0.00    -0.002 A 
ATOM      8  C6  OXE d   1       1.900  -4.413   3.792  0.00  0.00     0.003 A 
ENDROOT
TORSDOF 0
ENDMDL
