MODEL 1
REMARK minimizedAffinity 6.457901
REMARK minimizedRMSD -1
REMARK  0 active torsions:
REMARK  status: ('A' for Active; 'I' for Inactive)
ROOT
ATOM      1  C2' OXE d   1      -4.153   2.610  -5.074  0.00  0.00     0.078 C 
ATOM      2  C1' OXE d   1      -3.370   2.480  -2.382  0.00  0.00     0.078 C 
ATOM      3  C1  OXE d   1      -3.379   1.197  -3.174  0.00  0.00    -0.078 A 
ATOM      4  C2  OXE d   1      -3.808   1.262  -4.478  0.00  0.00    -0.078 A 
ATOM      5  C3  OXE d   1      -3.784   0.117  -5.269  0.00  0.00     0.003 A 
ATOM      6  C4  OXE d   1      -3.474  -1.127  -4.707  0.00  0.00    -0.002 A 
ATOM      7  C5  OXE d   1      -3.072  -1.221  -3.371  0.00  0.00    -0.002 A 
ATOM      8  C6  OXE d   1      -2.979  -0.065  -2.604  0.00  0.00     0.003 A 
ENDROOT
TORSDOF 0
ENDMDL
