MODEL 1
REMARK minimizedAffinity 7.19252872
REMARK minimizedRMSD -1
REMARK  0 active torsions:
REMARK  status: ('A' for Active; 'I' for Inactive)
ROOT
ATOM      1  C2' OXE d   1       0.699  -3.937   4.006  0.00  0.00     0.078 C 
ATOM      2  C1' OXE d   1       2.642  -4.689   2.124  0.00  0.00     0.078 C 
ATOM      3  C1  OXE d   1       2.289  -3.226   2.225  0.00  0.00    -0.078 A 
ATOM      4  C2  OXE d   1       1.303  -2.873   3.115  0.00  0.00    -0.078 A 
ATOM      5  C3  OXE d   1       0.977  -1.531   3.287  0.00  0.00     0.003 A 
ATOM      6  C4  OXE d   1       1.534  -0.554   2.452  0.00  0.00    -0.002 A 
ATOM      7  C5  OXE d   1       2.510  -0.897   1.511  0.00  0.00    -0.002 A 
ATOM      8  C6  OXE d   1       2.929  -2.219   1.414  0.00  0.00     0.003 A 
ENDROOT
TORSDOF 0
ENDMDL
