MODEL 1
REMARK minimizedAffinity 1.86781526
REMARK minimizedRMSD -1
REMARK  0 active torsions:
REMARK  status: ('A' for Active; 'I' for Inactive)
ROOT
ATOM      1  C2' OXE d   1       2.264  -0.281   2.475  0.00  0.00     0.078 C 
ATOM      2  C1' OXE d   1       1.754  -0.698   5.204  0.00  0.00     0.078 C 
ATOM      3  C1  OXE d   1       1.970  -1.912   4.335  0.00  0.00    -0.078 A 
ATOM      4  C2  OXE d   1       2.173  -1.700   2.993  0.00  0.00    -0.078 A 
ATOM      5  C3  OXE d   1       2.432  -2.782   2.156  0.00  0.00     0.003 A 
ATOM      6  C4  OXE d   1       2.335  -4.092   2.641  0.00  0.00    -0.002 A 
ATOM      7  C5  OXE d   1       2.090  -4.331   3.997  0.00  0.00    -0.002 A 
ATOM      8  C6  OXE d   1       1.948  -3.253   4.864  0.00  0.00     0.003 A 
ENDROOT
TORSDOF 0
ENDMDL
