MODEL 1
REMARK minimizedAffinity 11.952939
REMARK minimizedRMSD -1
REMARK  0 active torsions:
REMARK  status: ('A' for Active; 'I' for Inactive)
ROOT
ATOM      1  C2' OXE d   1      -0.245  -3.404   4.015  0.00  0.00     0.078 C 
ATOM      2  C1' OXE d   1       1.859  -4.881   2.886  0.00  0.00     0.078 C 
ATOM      3  C1  OXE d   1       1.920  -3.378   2.783  0.00  0.00    -0.078 A 
ATOM      4  C2  OXE d   1       0.863  -2.665   3.296  0.00  0.00    -0.078 A 
ATOM      5  C3  OXE d   1       0.895  -1.274   3.276  0.00  0.00     0.003 A 
ATOM      6  C4  OXE d   1       1.919  -0.598   2.601  0.00  0.00    -0.002 A 
ATOM      7  C5  OXE d   1       2.985  -1.306   2.036  0.00  0.00    -0.002 A 
ATOM      8  C6  OXE d   1       3.022  -2.691   2.155  0.00  0.00     0.003 A 
ENDROOT
TORSDOF 0
ENDMDL
