MODEL 1
REMARK minimizedAffinity 5.45949411
REMARK minimizedRMSD -1
REMARK  0 active torsions:
REMARK  status: ('A' for Active; 'I' for Inactive)
ROOT
ATOM      1  C2' OXE d   1       0.691  -2.980   4.454  0.00  0.00     0.078 C 
ATOM      2  C1' OXE d   1       2.521  -4.131   2.663  0.00  0.00     0.078 C 
ATOM      3  C1  OXE d   1       2.194  -2.668   2.491  0.00  0.00    -0.078 A 
ATOM      4  C2  OXE d   1       1.262  -2.125   3.343  0.00  0.00    -0.078 A 
ATOM      5  C3  OXE d   1       0.963  -0.768   3.263  0.00  0.00     0.003 A 
ATOM      6  C4  OXE d   1       1.488   0.013   2.226  0.00  0.00    -0.002 A 
ATOM      7  C5  OXE d   1       2.408  -0.530   1.324  0.00  0.00    -0.002 A 
ATOM      8  C6  OXE d   1       2.803  -1.855   1.468  0.00  0.00     0.003 A 
ENDROOT
TORSDOF 0
ENDMDL
