MODEL 1
REMARK minimizedAffinity 6.86653328
REMARK minimizedRMSD -1
REMARK  0 active torsions:
REMARK  status: ('A' for Active; 'I' for Inactive)
ROOT
ATOM      1  C2' OXE d   1      -6.000   4.156  -3.937  0.00  0.00     0.078 C 
ATOM      2  C1' OXE d   1      -5.999   4.312  -1.135  0.00  0.00     0.078 C 
ATOM      3  C1  OXE d   1      -5.007   3.383  -1.788  0.00  0.00    -0.078 A 
ATOM      4  C2  OXE d   1      -5.046   3.278  -3.157  0.00  0.00    -0.078 A 
ATOM      5  C3  OXE d   1      -4.116   2.477  -3.814  0.00  0.00     0.003 A 
ATOM      6  C4  OXE d   1      -3.243   1.660  -3.084  0.00  0.00    -0.002 A 
ATOM      7  C5  OXE d   1      -3.214   1.722  -1.687  0.00  0.00    -0.002 A 
ATOM      8  C6  OXE d   1      -4.058   2.608  -1.027  0.00  0.00     0.003 A 
ENDROOT
TORSDOF 0
ENDMDL
