MODEL 1
REMARK minimizedAffinity -5.60456419
REMARK minimizedRMSD -1
REMARK  1 active torsions:
REMARK  status: ('A' for Active; 'I' for Inactive)
REMARK    1  A    between atoms: C1_2  and  C2_3 
ROOT
ATOM      1  C2  UNL d   1      -0.343   0.451   2.264  0.00  0.00    -0.077 A 
ATOM      2  C3  UNL d   1      -1.530   1.192   2.175  0.00  0.00     0.002 A 
ATOM      3  C4  UNL d   1      -2.335   1.104   1.038  0.00  0.00     0.002 A 
ATOM      4  C5  UNL d   1      -1.965   0.273  -0.017  0.00  0.00    -0.004 A 
ATOM      5  C6  UNL d   1      -0.786  -0.467   0.061  0.00  0.00     0.002 A 
ATOM      6  C7  UNL d   1       0.021  -0.380   1.196  0.00  0.00     0.002 A 
ENDROOT
BRANCH   1   7
ATOM      7  C1  UNL d   1       0.501   0.507   3.510  0.00  0.00     0.055 C 
ATOM      8  C   UNL d   1       1.726  -0.388   3.389  0.00  0.00     0.019 C 
ENDBRANCH   1   7
TORSDOF 1
ENDMDL
