MODEL 1
REMARK minimizedAffinity -0.845923305
REMARK minimizedRMSD -1
REMARK  1 active torsions:
REMARK  status: ('A' for Active; 'I' for Inactive)
REMARK    1  A    between atoms: C1_2  and  C2_3 
ROOT
ATOM      1  C2  UNL d   1       0.697  -0.146   2.264  0.00  0.00    -0.077 A 
ATOM      2  C3  UNL d   1      -0.548   0.214   2.800  0.00  0.00     0.002 A 
ATOM      3  C4  UNL d   1      -1.618   0.520   1.957  0.00  0.00     0.002 A 
ATOM      4  C5  UNL d   1      -1.455   0.467   0.574  0.00  0.00    -0.004 A 
ATOM      5  C6  UNL d   1      -0.220   0.113   0.031  0.00  0.00     0.002 A 
ATOM      6  C7  UNL d   1       0.850  -0.193   0.872  0.00  0.00     0.002 A 
ENDROOT
BRANCH   1   7
ATOM      7  C1  UNL d   1       1.838  -0.524   3.171  0.00  0.00     0.055 C 
ATOM      8  C   UNL d   1       3.087  -0.872   2.374  0.00  0.00     0.019 C 
ENDBRANCH   1   7
TORSDOF 1
ENDMDL
