MODEL 1
REMARK minimizedAffinity -4.89062738
REMARK minimizedRMSD -1
REMARK  1 active torsions:
REMARK  status: ('A' for Active; 'I' for Inactive)
REMARK    1  A    between atoms: C1_2  and  C2_3 
ROOT
ATOM      1  C2  UNL d   1       0.744  -0.225   1.501  0.00  0.00    -0.077 A 
ATOM      2  C3  UNL d   1       0.260   0.154   2.761  0.00  0.00     0.002 A 
ATOM      3  C4  UNL d   1      -0.935   0.867   2.874  0.00  0.00     0.002 A 
ATOM      4  C5  UNL d   1      -1.658   1.203   1.731  0.00  0.00    -0.004 A 
ATOM      5  C6  UNL d   1      -1.185   0.832   0.473  0.00  0.00     0.002 A 
ATOM      6  C7  UNL d   1       0.010   0.121   0.359  0.00  0.00     0.002 A 
ENDROOT
BRANCH   1   7
ATOM      7  C1  UNL d   1       2.007  -1.036   1.381  0.00  0.00     0.055 C 
ATOM      8  C   UNL d   1       2.839  -0.957   2.652  0.00  0.00     0.019 C 
ENDBRANCH   1   7
TORSDOF 1
ENDMDL
