MODEL 1
REMARK minimizedAffinity -5.60266113
REMARK minimizedRMSD -1
REMARK  1 active torsions:
REMARK  status: ('A' for Active; 'I' for Inactive)
REMARK    1  A    between atoms: C1_2  and  C2_3 
ROOT
ATOM      1  C2  UNL d   1       0.085   0.341   1.931  0.00  0.00    -0.077 A 
ATOM      2  C3  UNL d   1      -1.260   0.570   2.254  0.00  0.00     0.002 A 
ATOM      3  C4  UNL d   1      -2.260   0.362   1.302  0.00  0.00     0.002 A 
ATOM      4  C5  UNL d   1      -1.926  -0.081   0.024  0.00  0.00    -0.004 A 
ATOM      5  C6  UNL d   1      -0.592  -0.310  -0.308  0.00  0.00     0.002 A 
ATOM      6  C7  UNL d   1       0.410  -0.100   0.642  0.00  0.00     0.002 A 
ENDROOT
BRANCH   1   7
ATOM      7  C1  UNL d   1       1.161   0.519   2.970  0.00  0.00     0.055 C 
ATOM      8  C   UNL d   1       2.249  -0.536   2.827  0.00  0.00     0.019 C 
ENDBRANCH   1   7
TORSDOF 1
ENDMDL
