MODEL 1
REMARK minimizedAffinity 0.764999509
REMARK minimizedRMSD -1
REMARK  0 active torsions:
REMARK  status: ('A' for Active; 'I' for Inactive)
ROOT
ATOM      1  C2' OXE d   1       0.159   0.700   2.818  0.00  0.00     0.078 C 
ATOM      2  C1' OXE d   1      -1.319   3.025   3.357  0.00  0.00     0.078 C 
ATOM      3  C1  OXE d   1      -2.034   1.875   2.694  0.00  0.00    -0.078 A 
ATOM      4  C2  OXE d   1      -1.292   0.758   2.392  0.00  0.00    -0.078 A 
ATOM      5  C3  OXE d   1      -1.915  -0.352   1.830  0.00  0.00     0.003 A 
ATOM      6  C4  OXE d   1      -3.255  -0.287   1.430  0.00  0.00    -0.002 A 
ATOM      7  C5  OXE d   1      -4.019   0.855   1.693  0.00  0.00    -0.002 A 
ATOM      8  C6  OXE d   1      -3.436   1.926   2.361  0.00  0.00     0.003 A 
ENDROOT
TORSDOF 0
ENDMDL
