MODEL 1
REMARK minimizedAffinity 14.1050339
REMARK minimizedRMSD -1
REMARK  0 active torsions:
REMARK  status: ('A' for Active; 'I' for Inactive)
ROOT
ATOM      1  C2' OXE d   1       5.379  -5.962   2.672  0.00  0.00     0.078 C 
ATOM      2  C1' OXE d   1       3.982  -5.986   0.238  0.00  0.00     0.078 C 
ATOM      3  C1  OXE d   1       3.175  -5.964   1.512  0.00  0.00    -0.078 A 
ATOM      4  C2  OXE d   1       3.866  -6.000   2.699  0.00  0.00    -0.078 A 
ATOM      5  C3  OXE d   1       3.173  -5.926   3.903  0.00  0.00     0.003 A 
ATOM      6  C4  OXE d   1       1.773  -5.971   3.919  0.00  0.00    -0.002 A 
ATOM      7  C5  OXE d   1       1.050  -5.975   2.722  0.00  0.00    -0.002 A 
ATOM      8  C6  OXE d   1       1.733  -5.929   1.512  0.00  0.00     0.003 A 
ENDROOT
TORSDOF 0
ENDMDL
