MODEL 1
REMARK minimizedAffinity 10.079402
REMARK minimizedRMSD -1
REMARK  0 active torsions:
REMARK  status: ('A' for Active; 'I' for Inactive)
ROOT
ATOM      1  C2' OXE d   1      -5.555   0.915   2.973  0.00  0.00     0.078 C 
ATOM      2  C1' OXE d   1      -4.779   1.061   0.280  0.00  0.00     0.078 C 
ATOM      3  C1  OXE d   1      -3.710   0.776   1.305  0.00  0.00    -0.078 A 
ATOM      4  C2  OXE d   1      -4.091   0.753   2.625  0.00  0.00    -0.078 A 
ATOM      5  C3  OXE d   1      -3.155   0.440   3.607  0.00  0.00     0.003 A 
ATOM      6  C4  OXE d   1      -1.802   0.301   3.278  0.00  0.00    -0.002 A 
ATOM      7  C5  OXE d   1      -1.386   0.361   1.944  0.00  0.00    -0.002 A 
ATOM      8  C6  OXE d   1      -2.332   0.554   0.943  0.00  0.00     0.003 A 
ENDROOT
TORSDOF 0
ENDMDL
