MODEL 1
REMARK minimizedAffinity 3.88771009
REMARK minimizedRMSD -1
REMARK  0 active torsions:
REMARK  status: ('A' for Active; 'I' for Inactive)
ROOT
ATOM      1  C2' OXE d   1      -3.082   1.061   3.943  0.00  0.00     0.078 C 
ATOM      2  C1' OXE d   1      -2.931   0.707   1.163  0.00  0.00     0.078 C 
ATOM      3  C1  OXE d   1      -1.649   0.626   1.953  0.00  0.00    -0.078 A 
ATOM      4  C2  OXE d   1      -1.726   0.846   3.307  0.00  0.00    -0.078 A 
ATOM      5  C3  OXE d   1      -0.581   0.729   4.090  0.00  0.00     0.003 A 
ATOM      6  C4  OXE d   1       0.671   0.540   3.492  0.00  0.00    -0.002 A 
ATOM      7  C5  OXE d   1       0.776   0.353   2.110  0.00  0.00    -0.002 A 
ATOM      8  C6  OXE d   1      -0.376   0.350   1.333  0.00  0.00     0.003 A 
ENDROOT
TORSDOF 0
ENDMDL
