MODEL 1
REMARK minimizedAffinity 6.67158651
REMARK minimizedRMSD -1
REMARK  0 active torsions:
REMARK  status: ('A' for Active; 'I' for Inactive)
ROOT
ATOM      1  C2' OXE d   1      -1.908  -0.838  -5.987  0.00  0.00     0.078 C 
ATOM      2  C1' OXE d   1      -1.594  -3.627  -5.996  0.00  0.00     0.078 C 
ATOM      3  C1  OXE d   1      -2.998  -3.078  -5.977  0.00  0.00    -0.078 A 
ATOM      4  C2  OXE d   1      -3.142  -1.712  -5.925  0.00  0.00    -0.078 A 
ATOM      5  C3  OXE d   1      -4.416  -1.151  -5.961  0.00  0.00     0.003 A 
ATOM      6  C4  OXE d   1      -5.552  -1.967  -5.893  0.00  0.00    -0.002 A 
ATOM      7  C5  OXE d   1      -5.427  -3.361  -5.905  0.00  0.00    -0.002 A 
ATOM      8  C6  OXE d   1      -4.161  -3.931  -5.989  0.00  0.00     0.003 A 
ENDROOT
TORSDOF 0
ENDMDL
