MODEL 1
REMARK minimizedAffinity 2.51817727
REMARK minimizedRMSD -1
REMARK  0 active torsions:
REMARK  status: ('A' for Active; 'I' for Inactive)
ROOT
ATOM      1  C2' OXE d   1      -0.444   0.029   0.640  0.00  0.00     0.078 C 
ATOM      2  C1' OXE d   1      -0.290   0.176   3.439  0.00  0.00     0.078 C 
ATOM      3  C1  OXE d   1      -1.659   0.215   2.807  0.00  0.00    -0.078 A 
ATOM      4  C2  OXE d   1      -1.722   0.190   1.434  0.00  0.00    -0.078 A 
ATOM      5  C3  OXE d   1      -2.962   0.169   0.801  0.00  0.00     0.003 A 
ATOM      6  C4  OXE d   1      -4.139   0.328   1.543  0.00  0.00    -0.002 A 
ATOM      7  C5  OXE d   1      -4.095   0.396   2.939  0.00  0.00    -0.002 A 
ATOM      8  C6  OXE d   1      -2.868   0.298   3.588  0.00  0.00     0.003 A 
ENDROOT
TORSDOF 0
ENDMDL
