MODEL 1
REMARK minimizedAffinity 11.3235836
REMARK minimizedRMSD -1
REMARK  0 active torsions:
REMARK  status: ('A' for Active; 'I' for Inactive)
ROOT
ATOM      1  C2' OXE d   1       0.071   1.214   1.501  0.00  0.00     0.078 C 
ATOM      2  C1' OXE d   1      -0.568  -1.190   2.802  0.00  0.00     0.078 C 
ATOM      3  C1  OXE d   1      -1.705  -0.285   2.398  0.00  0.00    -0.078 A 
ATOM      4  C2  OXE d   1      -1.381   0.910   1.803  0.00  0.00    -0.078 A 
ATOM      5  C3  OXE d   1      -2.393   1.757   1.361  0.00  0.00     0.003 A 
ATOM      6  C4  OXE d   1      -3.733   1.474   1.653  0.00  0.00    -0.002 A 
ATOM      7  C5  OXE d   1      -4.083   0.280   2.293  0.00  0.00    -0.002 A 
ATOM      8  C6  OXE d   1      -3.086  -0.628   2.633  0.00  0.00     0.003 A 
ENDROOT
TORSDOF 0
ENDMDL
