MODEL 1
REMARK minimizedAffinity 4.70169401
REMARK minimizedRMSD -1
REMARK  0 active torsions:
REMARK  status: ('A' for Active; 'I' for Inactive)
ROOT
ATOM      1  C2' OXE d   1       0.364   2.414   4.191  0.00  0.00     0.078 C 
ATOM      2  C1' OXE d   1       0.484  -0.205   3.189  0.00  0.00     0.078 C 
ATOM      3  C1  OXE d   1      -0.737   0.618   2.862  0.00  0.00    -0.078 A 
ATOM      4  C2  OXE d   1      -0.808   1.883   3.395  0.00  0.00    -0.078 A 
ATOM      5  C3  OXE d   1      -1.886   2.704   3.079  0.00  0.00     0.003 A 
ATOM      6  C4  OXE d   1      -2.971   2.201   2.351  0.00  0.00    -0.002 A 
ATOM      7  C5  OXE d   1      -2.937   0.903   1.832  0.00  0.00    -0.002 A 
ATOM      8  C6  OXE d   1      -1.811   0.115   2.042  0.00  0.00     0.003 A 
ENDROOT
TORSDOF 0
ENDMDL
