MODEL 1
REMARK minimizedAffinity 10.347558
REMARK minimizedRMSD -1
REMARK  0 active torsions:
REMARK  status: ('A' for Active; 'I' for Inactive)
ROOT
ATOM      1  C2' OXE d   1      -2.935   0.388   1.641  0.00  0.00     0.078 C 
ATOM      2  C1' OXE d   1      -0.577  -1.125   1.474  0.00  0.00     0.078 C 
ATOM      3  C1  OXE d   1      -0.551   0.129   2.312  0.00  0.00    -0.078 A 
ATOM      4  C2  OXE d   1      -1.695   0.888   2.351  0.00  0.00    -0.078 A 
ATOM      5  C3  OXE d   1      -1.742   2.024   3.152  0.00  0.00     0.003 A 
ATOM      6  C4  OXE d   1      -0.588   2.485   3.797  0.00  0.00    -0.002 A 
ATOM      7  C5  OXE d   1       0.600   1.748   3.739  0.00  0.00    -0.002 A 
ATOM      8  C6  OXE d   1       0.623   0.548   3.037  0.00  0.00     0.003 A 
ENDROOT
TORSDOF 0
ENDMDL
