MODEL 1
REMARK minimizedAffinity 5.32257557
REMARK minimizedRMSD -1
REMARK  0 active torsions:
REMARK  status: ('A' for Active; 'I' for Inactive)
ROOT
ATOM      1  C2' OXE d   1      -1.125  -1.367   3.243  0.00  0.00     0.078 C 
ATOM      2  C1' OXE d   1      -3.548   0.021   2.954  0.00  0.00     0.078 C 
ATOM      3  C1  OXE d   1      -2.269   0.779   2.702  0.00  0.00    -0.078 A 
ATOM      4  C2  OXE d   1      -1.086   0.105   2.891  0.00  0.00    -0.078 A 
ATOM      5  C3  OXE d   1       0.121   0.741   2.620  0.00  0.00     0.003 A 
ATOM      6  C4  OXE d   1       0.149   2.105   2.305  0.00  0.00    -0.002 A 
ATOM      7  C5  OXE d   1      -1.043   2.821   2.146  0.00  0.00    -0.002 A 
ATOM      8  C6  OXE d   1      -2.258   2.164   2.299  0.00  0.00     0.003 A 
ENDROOT
TORSDOF 0
ENDMDL
