MODEL 1
REMARK minimizedAffinity 3.58518147
REMARK minimizedRMSD -1
REMARK  0 active torsions:
REMARK  status: ('A' for Active; 'I' for Inactive)
ROOT
ATOM      1  C2' OXE d   1      -1.648   0.486   2.413  0.00  0.00     0.078 C 
ATOM      2  C1' OXE d   1      -2.972  -0.885   4.475  0.00  0.00     0.078 C 
ATOM      3  C1  OXE d   1      -3.807  -0.341   3.343  0.00  0.00    -0.078 A 
ATOM      4  C2  OXE d   1      -3.156   0.369   2.362  0.00  0.00    -0.078 A 
ATOM      5  C3  OXE d   1      -3.871   0.845   1.267  0.00  0.00     0.003 A 
ATOM      6  C4  OXE d   1      -5.267   0.741   1.232  0.00  0.00    -0.002 A 
ATOM      7  C5  OXE d   1      -5.953   0.057   2.241  0.00  0.00    -0.002 A 
ATOM      8  C6  OXE d   1      -5.235  -0.526   3.279  0.00  0.00     0.003 A 
ENDROOT
TORSDOF 0
ENDMDL
