MODEL 1
REMARK minimizedAffinity 7.05159283
REMARK minimizedRMSD -1
REMARK  0 active torsions:
REMARK  status: ('A' for Active; 'I' for Inactive)
ROOT
ATOM      1  C2' OXE d   1      -4.799  -1.460   1.217  0.00  0.00     0.078 C 
ATOM      2  C1' OXE d   1      -2.185  -2.478   1.125  0.00  0.00     0.078 C 
ATOM      3  C1  OXE d   1      -2.355  -0.994   1.334  0.00  0.00    -0.078 A 
ATOM      4  C2  OXE d   1      -3.636  -0.498   1.331  0.00  0.00    -0.078 A 
ATOM      5  C3  OXE d   1      -3.852   0.856   1.575  0.00  0.00     0.003 A 
ATOM      6  C4  OXE d   1      -2.771   1.740   1.670  0.00  0.00    -0.002 A 
ATOM      7  C5  OXE d   1      -1.457   1.261   1.636  0.00  0.00    -0.002 A 
ATOM      8  C6  OXE d   1      -1.233  -0.106   1.512  0.00  0.00     0.003 A 
ENDROOT
TORSDOF 0
ENDMDL
