MODEL 1
REMARK minimizedAffinity 2.52224255
REMARK minimizedRMSD -1
REMARK  0 active torsions:
REMARK  status: ('A' for Active; 'I' for Inactive)
ROOT
ATOM      1  C2' OXE d   1      -4.404   0.565   3.766  0.00  0.00     0.078 C 
ATOM      2  C1' OXE d   1      -4.105   0.383   0.981  0.00  0.00     0.078 C 
ATOM      3  C1  OXE d   1      -2.854   0.471   1.818  0.00  0.00    -0.078 A 
ATOM      4  C2  OXE d   1      -3.010   0.607   3.177  0.00  0.00    -0.078 A 
ATOM      5  C3  OXE d   1      -1.888   0.637   4.000  0.00  0.00     0.003 A 
ATOM      6  C4  OXE d   1      -0.604   0.685   3.446  0.00  0.00    -0.002 A 
ATOM      7  C5  OXE d   1      -0.423   0.588   2.062  0.00  0.00    -0.002 A 
ATOM      8  C6  OXE d   1      -1.534   0.438   1.239  0.00  0.00     0.003 A 
ENDROOT
TORSDOF 0
ENDMDL
