MODEL 1
REMARK minimizedAffinity 4.18427181
REMARK minimizedRMSD -1
REMARK  0 active torsions:
REMARK  status: ('A' for Active; 'I' for Inactive)
ROOT
ATOM      1  C2' OXE d   1      -5.997   1.125   1.575  0.00  0.00     0.078 C 
ATOM      2  C1' OXE d   1      -4.501   2.414   3.570  0.00  0.00     0.078 C 
ATOM      3  C1  OXE d   1      -3.768   1.495   2.625  0.00  0.00    -0.078 A 
ATOM      4  C2  OXE d   1      -4.515   0.832   1.681  0.00  0.00    -0.078 A 
ATOM      5  C3  OXE d   1      -3.882   0.015   0.750  0.00  0.00     0.003 A 
ATOM      6  C4  OXE d   1      -2.513  -0.259   0.862  0.00  0.00    -0.002 A 
ATOM      7  C5  OXE d   1      -1.740   0.375   1.840  0.00  0.00    -0.002 A 
ATOM      8  C6  OXE d   1      -2.343   1.285   2.701  0.00  0.00     0.003 A 
ENDROOT
TORSDOF 0
ENDMDL
