MODEL 1
REMARK minimizedAffinity 0.775096059
REMARK minimizedRMSD -1
REMARK  0 active torsions:
REMARK  status: ('A' for Active; 'I' for Inactive)
ROOT
ATOM      1  C2' OXE d   1      -3.527   0.278   4.142  0.00  0.00     0.078 C 
ATOM      2  C1' OXE d   1      -3.400   0.325   1.338  0.00  0.00     0.078 C 
ATOM      3  C1  OXE d   1      -2.103   0.206   2.099  0.00  0.00    -0.078 A 
ATOM      4  C2  OXE d   1      -2.171   0.230   3.471  0.00  0.00    -0.078 A 
ATOM      5  C3  OXE d   1      -1.010   0.068   4.222  0.00  0.00     0.003 A 
ATOM      6  C4  OXE d   1       0.241   0.035   3.594  0.00  0.00    -0.002 A 
ATOM      7  C5  OXE d   1       0.336   0.048   2.198  0.00  0.00    -0.002 A 
ATOM      8  C6  OXE d   1      -0.827   0.091   1.437  0.00  0.00     0.003 A 
ENDROOT
TORSDOF 0
ENDMDL
