MODEL 1
REMARK minimizedAffinity 0.869095206
REMARK minimizedRMSD -1
REMARK  0 active torsions:
REMARK  status: ('A' for Active; 'I' for Inactive)
ROOT
ATOM      1  C2' OXE d   1      -3.060  -2.390   0.369  0.00  0.00     0.078 C 
ATOM      2  C1' OXE d   1      -0.374  -1.994   1.083  0.00  0.00     0.078 C 
ATOM      3  C1  OXE d   1      -0.861  -3.414   0.937  0.00  0.00    -0.078 A 
ATOM      4  C2  OXE d   1      -2.188  -3.599   0.632  0.00  0.00    -0.078 A 
ATOM      5  C3  OXE d   1      -2.676  -4.887   0.432  0.00  0.00     0.003 A 
ATOM      6  C4  OXE d   1      -1.866  -6.000   0.688  0.00  0.00    -0.002 A 
ATOM      7  C5  OXE d   1      -0.522  -5.834   1.038  0.00  0.00    -0.002 A 
ATOM      8  C6  OXE d   1       0.006  -4.550   1.124  0.00  0.00     0.003 A 
ENDROOT
TORSDOF 0
ENDMDL
