MODEL 1
REMARK minimizedAffinity 3.56789231
REMARK minimizedRMSD -1
REMARK  0 active torsions:
REMARK  status: ('A' for Active; 'I' for Inactive)
ROOT
ATOM      1  C2' OXE d   1       2.692   0.114  -0.686  0.00  0.00     0.078 C 
ATOM      2  C1' OXE d   1       4.577  -0.313   1.350  0.00  0.00     0.078 C 
ATOM      3  C1  OXE d   1       3.148  -0.059   1.757  0.00  0.00    -0.078 A 
ATOM      4  C2  OXE d   1       2.241   0.195   0.756  0.00  0.00    -0.078 A 
ATOM      5  C3  OXE d   1       0.898   0.382   1.074  0.00  0.00     0.003 A 
ATOM      6  C4  OXE d   1       0.491   0.466   2.411  0.00  0.00    -0.002 A 
ATOM      7  C5  OXE d   1       1.406   0.250   3.446  0.00  0.00    -0.002 A 
ATOM      8  C6  OXE d   1       2.727  -0.056   3.136  0.00  0.00     0.003 A 
ENDROOT
TORSDOF 0
ENDMDL
