MODEL 1
REMARK minimizedAffinity 5.73135185
REMARK minimizedRMSD -1
REMARK  0 active torsions:
REMARK  status: ('A' for Active; 'I' for Inactive)
ROOT
ATOM      1  C2' OXE d   1      -3.963  -1.588   0.269  0.00  0.00     0.078 C 
ATOM      2  C1' OXE d   1      -1.651  -0.092   0.816  0.00  0.00     0.078 C 
ATOM      3  C1  OXE d   1      -2.860   0.137   1.688  0.00  0.00    -0.078 A 
ATOM      4  C2  OXE d   1      -4.002  -0.565   1.384  0.00  0.00    -0.078 A 
ATOM      5  C3  OXE d   1      -5.129  -0.432   2.190  0.00  0.00     0.003 A 
ATOM      6  C4  OXE d   1      -5.160   0.524   3.212  0.00  0.00    -0.002 A 
ATOM      7  C5  OXE d   1      -4.021   1.279   3.514  0.00  0.00    -0.002 A 
ATOM      8  C6  OXE d   1      -2.852   1.067   2.790  0.00  0.00     0.003 A 
ENDROOT
TORSDOF 0
ENDMDL
