MODEL 1
REMARK minimizedAffinity 10.9333696
REMARK minimizedRMSD -1
REMARK  0 active torsions:
REMARK  status: ('A' for Active; 'I' for Inactive)
ROOT
ATOM      1  C2' OXE d   1      -1.813  -0.687   1.501  0.00  0.00     0.078 C 
ATOM      2  C1' OXE d   1      -3.949  -1.596  -0.078  0.00  0.00     0.078 C 
ATOM      3  C1  OXE d   1      -4.061  -0.221   0.532  0.00  0.00    -0.078 A 
ATOM      4  C2  OXE d   1      -3.032   0.197   1.341  0.00  0.00    -0.078 A 
ATOM      5  C3  OXE d   1      -3.059   1.478   1.885  0.00  0.00     0.003 A 
ATOM      6  C4  OXE d   1      -4.194   2.285   1.741  0.00  0.00    -0.002 A 
ATOM      7  C5  OXE d   1      -5.270   1.862   0.954  0.00  0.00    -0.002 A 
ATOM      8  C6  OXE d   1      -5.202   0.632   0.309  0.00  0.00     0.003 A 
ENDROOT
TORSDOF 0
ENDMDL
