MODEL 1
REMARK minimizedAffinity 0.311887056
REMARK minimizedRMSD -1
REMARK  0 active torsions:
REMARK  status: ('A' for Active; 'I' for Inactive)
ROOT
ATOM      1  C   UNL d   1       4.429  -4.162   4.851  0.00  0.00     0.020 A 
ATOM      2  C1  UNL d   1       5.514  -3.993   5.711  0.00  0.00     0.020 A 
ATOM      3  C2  UNL d   1       5.984  -2.710   6.000  0.00  0.00     0.034 A 
ATOM      4  C3  UNL d   1       5.368  -1.590   5.429  0.00  0.00     0.017 A 
ATOM      5  C4  UNL d   1       4.278  -1.760   4.567  0.00  0.00     0.017 A 
ATOM      6  C5  UNL d   1       3.813  -3.048   4.281  0.00  0.00     0.034 A 
ATOM      7 Cl   UNL d   1       3.467  -0.427   3.825  0.00  0.00    -0.070 Cl
ATOM      8 Cl1  UNL d   1       6.000  -0.033   5.831  0.00  0.00    -0.070 Cl
ENDROOT
TORSDOF 0
ENDMDL
