MODEL 1
REMARK minimizedAffinity 1.81803501
REMARK minimizedRMSD -1
REMARK  0 active torsions:
REMARK  status: ('A' for Active; 'I' for Inactive)
ROOT
ATOM      1  C   UNL d   1       5.590  -1.690   5.999  0.00  0.00     0.020 A 
ATOM      2  C1  UNL d   1       4.625  -2.640   5.669  0.00  0.00     0.020 A 
ATOM      3  C2  UNL d   1       4.067  -2.653   4.389  0.00  0.00     0.034 A 
ATOM      4  C3  UNL d   1       4.475  -1.715   3.434  0.00  0.00     0.017 A 
ATOM      5  C4  UNL d   1       5.445  -0.762   3.766  0.00  0.00     0.017 A 
ATOM      6  C5  UNL d   1       6.000  -0.753   5.050  0.00  0.00     0.034 A 
ATOM      7 Cl   UNL d   1       5.999   0.428   2.641  0.00  0.00    -0.070 Cl
ATOM      8 Cl1  UNL d   1       3.744  -1.790   1.870  0.00  0.00    -0.070 Cl
ENDROOT
TORSDOF 0
ENDMDL
