MODEL 1
REMARK minimizedAffinity 10.3798189
REMARK minimizedRMSD -1
REMARK  0 active torsions:
REMARK  status: ('A' for Active; 'I' for Inactive)
ROOT
ATOM      1  C   UNL d   1       0.368  -3.104   0.082  0.00  0.00     0.020 A 
ATOM      2  C1  UNL d   1       1.065  -2.403  -0.901  0.00  0.00     0.020 A 
ATOM      3  C2  UNL d   1       1.054  -1.007  -0.904  0.00  0.00     0.034 A 
ATOM      4  C3  UNL d   1       0.344  -0.307   0.078  0.00  0.00     0.017 A 
ATOM      5  C4  UNL d   1      -0.356  -1.011   1.065  0.00  0.00     0.017 A 
ATOM      6  C5  UNL d   1      -0.341  -2.409   1.063  0.00  0.00     0.034 A 
ATOM      7 Cl   UNL d   1      -1.254  -0.217   2.309  0.00  0.00    -0.070 Cl
ATOM      8 Cl1  UNL d   1       0.374   1.420   0.014  0.00  0.00    -0.070 Cl
ENDROOT
TORSDOF 0
ENDMDL
