MODEL 1
REMARK minimizedAffinity 3.36125302
REMARK minimizedRMSD -1
REMARK  0 active torsions:
REMARK  status: ('A' for Active; 'I' for Inactive)
ROOT
ATOM      1  C   UNL d   1      -0.688  -1.984   0.330  0.00  0.00     0.020 A 
ATOM      2  C1  UNL d   1      -1.196  -0.738  -0.035  0.00  0.00     0.020 A 
ATOM      3  C2  UNL d   1      -0.568   0.006  -1.037  0.00  0.00     0.034 A 
ATOM      4  C3  UNL d   1       0.572  -0.495  -1.676  0.00  0.00     0.017 A 
ATOM      5  C4  UNL d   1       1.081  -1.746  -1.309  0.00  0.00     0.017 A 
ATOM      6  C5  UNL d   1       0.449  -2.487  -0.305  0.00  0.00     0.034 A 
ATOM      7 Cl   UNL d   1       2.483  -2.431  -2.052  0.00  0.00    -0.070 Cl
ATOM      8 Cl1  UNL d   1       1.297   0.478  -2.906  0.00  0.00    -0.070 Cl
ENDROOT
TORSDOF 0
ENDMDL
