MODEL 1
REMARK minimizedAffinity 6.6399045
REMARK minimizedRMSD -1
REMARK  0 active torsions:
REMARK  status: ('A' for Active; 'I' for Inactive)
ROOT
ATOM      1  C   UNL d   1       5.901  -2.745   4.831  0.00  0.00     0.020 A 
ATOM      2  C1  UNL d   1       5.996  -1.990   5.999  0.00  0.00     0.020 A 
ATOM      3  C2  UNL d   1       5.602  -0.651   5.999  0.00  0.00     0.034 A 
ATOM      4  C3  UNL d   1       5.112  -0.061   4.829  0.00  0.00     0.017 A 
ATOM      5  C4  UNL d   1       5.017  -0.819   3.656  0.00  0.00     0.017 A 
ATOM      6  C5  UNL d   1       5.413  -2.160   3.661  0.00  0.00     0.034 A 
ATOM      7 Cl   UNL d   1       4.422  -0.161   2.172  0.00  0.00    -0.070 Cl
ATOM      8 Cl1  UNL d   1       4.642   1.600   4.901  0.00  0.00    -0.070 Cl
ENDROOT
TORSDOF 0
ENDMDL
