MODEL 1
REMARK minimizedAffinity -2.79754758
REMARK minimizedRMSD -1
REMARK  0 active torsions:
REMARK  status: ('A' for Active; 'I' for Inactive)
ROOT
ATOM      1  C   UNL d   1       5.793  -0.135   5.793  0.00  0.00     0.020 A 
ATOM      2  C1  UNL d   1       5.625  -0.646   4.507  0.00  0.00     0.020 A 
ATOM      3  C2  UNL d   1       5.467   0.223   3.425  0.00  0.00     0.034 A 
ATOM      4  C3  UNL d   1       5.475   1.608   3.628  0.00  0.00     0.017 A 
ATOM      5  C4  UNL d   1       5.644   2.120   4.920  0.00  0.00     0.017 A 
ATOM      6  C5  UNL d   1       5.802   1.245   5.999  0.00  0.00     0.034 A 
ATOM      7 Cl   UNL d   1       5.665   3.816   5.248  0.00  0.00    -0.070 Cl
ATOM      8 Cl1  UNL d   1       5.275   2.623   2.245  0.00  0.00    -0.070 Cl
ENDROOT
TORSDOF 0
ENDMDL
