MODEL 1
REMARK minimizedAffinity 1.79518902
REMARK minimizedRMSD -1
REMARK  0 active torsions:
REMARK  status: ('A' for Active; 'I' for Inactive)
ROOT
ATOM      1  C   UNL d   1       5.667  -2.713   4.836  0.00  0.00     0.020 A 
ATOM      2  C1  UNL d   1       5.988  -2.015   6.000  0.00  0.00     0.020 A 
ATOM      3  C2  UNL d   1       6.000  -0.619   5.996  0.00  0.00     0.034 A 
ATOM      4  C3  UNL d   1       5.690   0.085   4.827  0.00  0.00     0.017 A 
ATOM      5  C4  UNL d   1       5.368  -0.616   3.659  0.00  0.00     0.017 A 
ATOM      6  C5  UNL d   1       5.358  -2.014   3.668  0.00  0.00     0.034 A 
ATOM      7 Cl   UNL d   1       4.975   0.182   2.177  0.00  0.00    -0.070 Cl
ATOM      8 Cl1  UNL d   1       5.724   1.811   4.895  0.00  0.00    -0.070 Cl
ENDROOT
TORSDOF 0
ENDMDL
