MODEL 1
REMARK minimizedAffinity -1.35502338
REMARK minimizedRMSD -1
REMARK  0 active torsions:
REMARK  status: ('A' for Active; 'I' for Inactive)
ROOT
ATOM      1  C   UNL d   1       5.629   3.373   4.792  0.00  0.00     0.020 A 
ATOM      2  C1  UNL d   1       5.999   2.703   5.958  0.00  0.00     0.020 A 
ATOM      3  C2  UNL d   1       5.970   1.308   6.000  0.00  0.00     0.034 A 
ATOM      4  C3  UNL d   1       5.571   0.577   4.874  0.00  0.00     0.017 A 
ATOM      5  C4  UNL d   1       5.201   1.251   3.705  0.00  0.00     0.017 A 
ATOM      6  C5  UNL d   1       5.231   2.648   3.668  0.00  0.00     0.034 A 
ATOM      7 Cl   UNL d   1       4.697   0.418   2.276  0.00  0.00    -0.070 Cl
ATOM      8 Cl1  UNL d   1       5.560  -1.146   4.997  0.00  0.00    -0.070 Cl
ENDROOT
TORSDOF 0
ENDMDL
