MODEL 1
REMARK minimizedAffinity -1.06034184
REMARK minimizedRMSD -1
REMARK  0 active torsions:
REMARK  status: ('A' for Active; 'I' for Inactive)
ROOT
ATOM      1  C   UNL d   1       5.823   2.622   4.822  0.00  0.00     0.020 A 
ATOM      2  C1  UNL d   1       6.000   1.896   5.999  0.00  0.00     0.020 A 
ATOM      3  C2  UNL d   1       5.824   0.511   5.999  0.00  0.00     0.034 A 
ATOM      4  C3  UNL d   1       5.469  -0.153   4.819  0.00  0.00     0.017 A 
ATOM      5  C4  UNL d   1       5.293   0.576   3.637  0.00  0.00     0.017 A 
ATOM      6  C5  UNL d   1       5.471   1.963   3.643  0.00  0.00     0.034 A 
ATOM      7 Cl   UNL d   1       4.856  -0.174   2.142  0.00  0.00    -0.070 Cl
ATOM      8 Cl1  UNL d   1       5.268  -1.868   4.892  0.00  0.00    -0.070 Cl
ENDROOT
TORSDOF 0
ENDMDL
