MODEL 1
REMARK minimizedAffinity -1.17662358
REMARK minimizedRMSD -1
REMARK  0 active torsions:
REMARK  status: ('A' for Active; 'I' for Inactive)
ROOT
ATOM      1  C   UNL d   1       5.995  -3.407   4.793  0.00  0.00     0.020 A 
ATOM      2  C1  UNL d   1       6.000  -2.708   5.999  0.00  0.00     0.020 A 
ATOM      3  C2  UNL d   1       5.899  -1.315   5.999  0.00  0.00     0.034 A 
ATOM      4  C3  UNL d   1       5.792  -0.617   4.791  0.00  0.00     0.017 A 
ATOM      5  C4  UNL d   1       5.787  -1.320   3.580  0.00  0.00     0.017 A 
ATOM      6  C5  UNL d   1       5.888  -2.714   3.586  0.00  0.00     0.034 A 
ATOM      7 Cl   UNL d   1       5.658  -0.528   2.050  0.00  0.00    -0.070 Cl
ATOM      8 Cl1  UNL d   1       5.670   1.105   4.866  0.00  0.00    -0.070 Cl
ENDROOT
TORSDOF 0
ENDMDL
