MODEL 1
REMARK minimizedAffinity -0.220195293
REMARK minimizedRMSD -1
REMARK  0 active torsions:
REMARK  status: ('A' for Active; 'I' for Inactive)
ROOT
ATOM      1  C   UNL d   1       5.759   0.117   6.000  0.00  0.00     0.020 A 
ATOM      2  C1  UNL d   1       5.163  -0.508   4.905  0.00  0.00     0.020 A 
ATOM      3  C2  UNL d   1       4.808   0.242   3.782  0.00  0.00     0.034 A 
ATOM      4  C3  UNL d   1       5.048   1.620   3.750  0.00  0.00     0.017 A 
ATOM      5  C4  UNL d   1       5.646   2.246   4.850  0.00  0.00     0.017 A 
ATOM      6  C5  UNL d   1       6.000   1.491   5.972  0.00  0.00     0.034 A 
ATOM      7 Cl   UNL d   1       5.974   3.943   4.885  0.00  0.00    -0.070 Cl
ATOM      8 Cl1  UNL d   1       4.583   2.485   2.328  0.00  0.00    -0.070 Cl
ENDROOT
TORSDOF 0
ENDMDL
