MODEL 1
REMARK minimizedAffinity 3.94991016
REMARK minimizedRMSD -1
REMARK  0 active torsions:
REMARK  status: ('A' for Active; 'I' for Inactive)
ROOT
ATOM      1  C   UNL d   1       0.197   2.569  -0.111  0.00  0.00     0.020 A 
ATOM      2  C1  UNL d   1       0.617   1.664  -1.085  0.00  0.00     0.020 A 
ATOM      3  C2  UNL d   1       0.466   0.292  -0.875  0.00  0.00     0.034 A 
ATOM      4  C3  UNL d   1      -0.106  -0.180   0.312  0.00  0.00     0.017 A 
ATOM      5  C4  UNL d   1      -0.527   0.729   1.290  0.00  0.00     0.017 A 
ATOM      6  C5  UNL d   1      -0.373   2.102   1.074  0.00  0.00     0.034 A 
ATOM      7 Cl   UNL d   1      -1.241   0.223   2.780  0.00  0.00    -0.070 Cl
ATOM      8 Cl1  UNL d   1      -0.262  -1.890   0.505  0.00  0.00    -0.070 Cl
ENDROOT
TORSDOF 0
ENDMDL
