MODEL 1
REMARK minimizedAffinity -2.30426431
REMARK minimizedRMSD -1
REMARK  0 active torsions:
REMARK  status: ('A' for Active; 'I' for Inactive)
ROOT
ATOM      1  C   UNL d   1       5.831   0.105   5.808  0.00  0.00     0.020 A 
ATOM      2  C1  UNL d   1       5.376  -0.376   4.581  0.00  0.00     0.020 A 
ATOM      3  C2  UNL d   1       5.088   0.515   3.545  0.00  0.00     0.034 A 
ATOM      4  C3  UNL d   1       5.256   1.892   3.734  0.00  0.00     0.017 A 
ATOM      5  C4  UNL d   1       5.714   2.373   4.966  0.00  0.00     0.017 A 
ATOM      6  C5  UNL d   1       6.000   1.477   6.000  0.00  0.00     0.034 A 
ATOM      7 Cl   UNL d   1       5.946   4.058   5.274  0.00  0.00    -0.070 Cl
ATOM      8 Cl1  UNL d   1       4.882   2.936   2.409  0.00  0.00    -0.070 Cl
ENDROOT
TORSDOF 0
ENDMDL
