MODEL 1
REMARK minimizedAffinity 2.30612755
REMARK minimizedRMSD -1
REMARK  0 active torsions:
REMARK  status: ('A' for Active; 'I' for Inactive)
ROOT
ATOM      1  C   UNL d   1      -0.516  -1.936   0.346  0.00  0.00     0.020 A 
ATOM      2  C1  UNL d   1      -1.182  -0.795  -0.099  0.00  0.00     0.020 A 
ATOM      3  C2  UNL d   1      -0.625  -0.012  -1.112  0.00  0.00     0.034 A 
ATOM      4  C3  UNL d   1       0.602  -0.368  -1.683  0.00  0.00     0.017 A 
ATOM      5  C4  UNL d   1       1.270  -1.513  -1.235  0.00  0.00     0.017 A 
ATOM      6  C5  UNL d   1       0.708  -2.295  -0.221  0.00  0.00     0.034 A 
ATOM      7 Cl   UNL d   1       2.788  -2.017  -1.892  0.00  0.00    -0.070 Cl
ATOM      8 Cl1  UNL d   1       1.233   0.647  -2.931  0.00  0.00    -0.070 Cl
ENDROOT
TORSDOF 0
ENDMDL
