MODEL 1
REMARK minimizedAffinity -2.18173504
REMARK minimizedRMSD -1
REMARK  0 active torsions:
REMARK  status: ('A' for Active; 'I' for Inactive)
ROOT
ATOM      1  C   UNL d   1       5.995   5.874   3.442  0.00  0.00     0.020 A 
ATOM      2  C1  UNL d   1       5.995   5.885   4.836  0.00  0.00     0.020 A 
ATOM      3  C2  UNL d   1       5.995   4.682   5.544  0.00  0.00     0.034 A 
ATOM      4  C3  UNL d   1       5.994   3.462   4.859  0.00  0.00     0.017 A 
ATOM      5  C4  UNL d   1       5.994   3.451   3.459  0.00  0.00     0.017 A 
ATOM      6  C5  UNL d   1       5.994   4.660   2.755  0.00  0.00     0.034 A 
ATOM      7 Cl   UNL d   1       5.993   1.986   2.543  0.00  0.00    -0.070 Cl
ATOM      8 Cl1  UNL d   1       5.994   2.012   5.798  0.00  0.00    -0.070 Cl
ENDROOT
TORSDOF 0
ENDMDL
