MODEL 1
REMARK minimizedAffinity -3.47053027
REMARK minimizedRMSD -1
REMARK  0 active torsions:
REMARK  status: ('A' for Active; 'I' for Inactive)
ROOT
ATOM      1  C   UNL d   1       3.611   1.301  -3.893  0.00  0.00     0.078 C 
ATOM      2  C1  UNL d   1       2.562   0.283  -3.558  0.00  0.00    -0.077 A 
ATOM      3  C2  UNL d   1       2.714  -1.058  -3.929  0.00  0.00    -0.001 A 
ATOM      4  C3  UNL d   1       1.725  -1.993  -3.620  0.00  0.00     0.003 A 
ATOM      5  C4  UNL d   1       0.576  -1.596  -2.939  0.00  0.00    -0.005 A 
ATOM      6  C5  UNL d   1       0.414  -0.263  -2.568  0.00  0.00     0.003 A 
ATOM      7  C6  UNL d   1       1.402   0.673  -2.876  0.00  0.00    -0.001 A 
ENDROOT
TORSDOF 0
ENDMDL
