MODEL 1
REMARK minimizedAffinity -2.62989688
REMARK minimizedRMSD -1
REMARK  0 active torsions:
REMARK  status: ('A' for Active; 'I' for Inactive)
ROOT
ATOM      1  C   UNL d   1       1.440  -1.445  -3.911  0.00  0.00     0.078 C 
ATOM      2  C1  UNL d   1       0.963  -0.624  -2.750  0.00  0.00    -0.077 A 
ATOM      3  C2  UNL d   1       0.198   0.532  -2.950  0.00  0.00    -0.001 A 
ATOM      4  C3  UNL d   1      -0.231   1.292  -1.861  0.00  0.00     0.003 A 
ATOM      5  C4  UNL d   1       0.102   0.905  -0.564  0.00  0.00    -0.005 A 
ATOM      6  C5  UNL d   1       0.864  -0.242  -0.355  0.00  0.00     0.003 A 
ATOM      7  C6  UNL d   1       1.294  -1.003  -1.443  0.00  0.00    -0.001 A 
ENDROOT
TORSDOF 0
ENDMDL
