MODEL 1
REMARK minimizedAffinity -5.91013527
REMARK minimizedRMSD -1
REMARK  0 active torsions:
REMARK  status: ('A' for Active; 'I' for Inactive)
ROOT
ATOM      1  C   UNL d   1      -0.092   0.321  -0.700  0.00  0.00     0.078 C 
ATOM      2  C1  UNL d   1      -0.729   0.119   0.642  0.00  0.00    -0.077 A 
ATOM      3  C2  UNL d   1      -2.122   0.106   0.785  0.00  0.00    -0.001 A 
ATOM      4  C3  UNL d   1      -2.701  -0.074   2.042  0.00  0.00     0.003 A 
ATOM      5  C4  UNL d   1      -1.894  -0.240   3.167  0.00  0.00    -0.005 A 
ATOM      6  C5  UNL d   1      -0.507  -0.226   3.035  0.00  0.00     0.003 A 
ATOM      7  C6  UNL d   1       0.074  -0.047   1.778  0.00  0.00    -0.001 A 
ENDROOT
TORSDOF 0
ENDMDL
