MODEL 1
REMARK minimizedAffinity -4.51916647
REMARK minimizedRMSD -1
REMARK  0 active torsions:
REMARK  status: ('A' for Active; 'I' for Inactive)
ROOT
ATOM      1  C   UNL d   1      -1.296  -0.611   3.011  0.00  0.00     0.078 C 
ATOM      2  C1  UNL d   1      -0.709  -0.239   1.682  0.00  0.00    -0.077 A 
ATOM      3  C2  UNL d   1       0.569   0.325   1.591  0.00  0.00    -0.001 A 
ATOM      4  C3  UNL d   1       1.099   0.676   0.348  0.00  0.00     0.003 A 
ATOM      5  C4  UNL d   1       0.357   0.467  -0.813  0.00  0.00    -0.005 A 
ATOM      6  C5  UNL d   1      -0.917  -0.092  -0.732  0.00  0.00     0.003 A 
ATOM      7  C6  UNL d   1      -1.448  -0.443   0.510  0.00  0.00    -0.001 A 
ENDROOT
TORSDOF 0
ENDMDL
