MODEL 1
REMARK minimizedAffinity -4.69511747
REMARK minimizedRMSD -1
REMARK  0 active torsions:
REMARK  status: ('A' for Active; 'I' for Inactive)
ROOT
ATOM      1  C   UNL d   1       1.817   4.550  -5.995  0.00  0.00     0.078 C 
ATOM      2  C1  UNL d   1       3.025   3.763  -5.583  0.00  0.00    -0.077 A 
ATOM      3  C2  UNL d   1       2.903   2.626  -4.774  0.00  0.00    -0.001 A 
ATOM      4  C3  UNL d   1       4.037   1.909  -4.390  0.00  0.00     0.003 A 
ATOM      5  C4  UNL d   1       5.301   2.321  -4.809  0.00  0.00    -0.005 A 
ATOM      6  C5  UNL d   1       5.432   3.452  -5.612  0.00  0.00     0.003 A 
ATOM      7  C6  UNL d   1       4.299   4.171  -5.997  0.00  0.00    -0.001 A 
ENDROOT
TORSDOF 0
ENDMDL
