MODEL 1
REMARK minimizedAffinity -4.14904881
REMARK minimizedRMSD -1
REMARK  0 active torsions:
REMARK  status: ('A' for Active; 'I' for Inactive)
ROOT
ATOM      1  C   UNL d   1       0.372   0.249  -1.515  0.00  0.00     0.078 C 
ATOM      2  C1  UNL d   1       0.026   0.208  -0.056  0.00  0.00    -0.077 A 
ATOM      3  C2  UNL d   1       1.011   0.377   0.924  0.00  0.00    -0.001 A 
ATOM      4  C3  UNL d   1       0.675   0.326   2.278  0.00  0.00     0.003 A 
ATOM      5  C4  UNL d   1      -0.645   0.105   2.664  0.00  0.00    -0.005 A 
ATOM      6  C5  UNL d   1      -1.632  -0.067   1.695  0.00  0.00     0.003 A 
ATOM      7  C6  UNL d   1      -1.298  -0.016   0.341  0.00  0.00    -0.001 A 
ENDROOT
TORSDOF 0
ENDMDL
