MODEL 1
REMARK minimizedAffinity -3.12328076
REMARK minimizedRMSD -1
REMARK  0 active torsions:
REMARK  status: ('A' for Active; 'I' for Inactive)
ROOT
ATOM      1  C   UNL d   1      -0.811  -0.801   2.582  0.00  0.00     0.078 C 
ATOM      2  C1  UNL d   1      -0.756  -0.295   1.172  0.00  0.00    -0.077 A 
ATOM      3  C2  UNL d   1       0.469  -0.079   0.530  0.00  0.00    -0.001 A 
ATOM      4  C3  UNL d   1       0.505   0.401  -0.780  0.00  0.00     0.003 A 
ATOM      5  C4  UNL d   1      -0.681   0.672  -1.459  0.00  0.00    -0.005 A 
ATOM      6  C5  UNL d   1      -1.906   0.463  -0.828  0.00  0.00     0.003 A 
ATOM      7  C6  UNL d   1      -1.943  -0.018   0.482  0.00  0.00    -0.001 A 
ENDROOT
TORSDOF 0
ENDMDL
