MODEL 1
REMARK minimizedAffinity -3.56281614
REMARK minimizedRMSD -1
REMARK  0 active torsions:
REMARK  status: ('A' for Active; 'I' for Inactive)
ROOT
ATOM      1  C   UNL d   1      -0.695  -0.705   3.076  0.00  0.00     0.078 C 
ATOM      2  C1  UNL d   1      -0.458  -0.279   1.658  0.00  0.00    -0.077 A 
ATOM      3  C2  UNL d   1       0.806   0.154   1.237  0.00  0.00    -0.001 A 
ATOM      4  C3  UNL d   1       1.010   0.557  -0.083  0.00  0.00     0.003 A 
ATOM      5  C4  UNL d   1      -0.044   0.532  -0.994  0.00  0.00    -0.005 A 
ATOM      6  C5  UNL d   1      -1.306   0.104  -0.584  0.00  0.00     0.003 A 
ATOM      7  C6  UNL d   1      -1.512  -0.299   0.737  0.00  0.00    -0.001 A 
ENDROOT
TORSDOF 0
ENDMDL
