MODEL 1
REMARK minimizedAffinity -2.21426582
REMARK minimizedRMSD -1
REMARK  0 active torsions:
REMARK  status: ('A' for Active; 'I' for Inactive)
ROOT
ATOM      1  C   UNL d   1       0.125   0.728  -2.038  0.00  0.00     0.078 C 
ATOM      2  C1  UNL d   1       0.181   0.449  -0.566  0.00  0.00    -0.077 A 
ATOM      3  C2  UNL d   1      -0.904  -0.137   0.098  0.00  0.00    -0.001 A 
ATOM      4  C3  UNL d   1      -0.842  -0.383   1.470  0.00  0.00     0.003 A 
ATOM      5  C4  UNL d   1       0.302  -0.044   2.191  0.00  0.00    -0.005 A 
ATOM      6  C5  UNL d   1       1.385   0.541   1.539  0.00  0.00     0.003 A 
ATOM      7  C6  UNL d   1       1.325   0.787   0.167  0.00  0.00    -0.001 A 
ENDROOT
TORSDOF 0
ENDMDL
