MODEL 1
REMARK minimizedAffinity -5.17382717
REMARK minimizedRMSD -1
REMARK  0 active torsions:
REMARK  status: ('A' for Active; 'I' for Inactive)
ROOT
ATOM      1  C   UNL d   1       0.742   0.425  -1.590  0.00  0.00     0.078 C 
ATOM      2  C1  UNL d   1      -0.017   0.415  -0.296  0.00  0.00    -0.077 A 
ATOM      3  C2  UNL d   1      -1.416   0.473  -0.280  0.00  0.00    -0.001 A 
ATOM      4  C3  UNL d   1      -2.108   0.472   0.931  0.00  0.00     0.003 A 
ATOM      5  C4  UNL d   1      -1.411   0.415   2.136  0.00  0.00    -0.005 A 
ATOM      6  C5  UNL d   1      -0.018   0.360   2.130  0.00  0.00     0.003 A 
ATOM      7  C6  UNL d   1       0.676   0.360   0.920  0.00  0.00    -0.001 A 
ENDROOT
TORSDOF 0
ENDMDL
