MODEL 1
REMARK minimizedAffinity -5.2684989
REMARK minimizedRMSD -1
REMARK  0 active torsions:
REMARK  status: ('A' for Active; 'I' for Inactive)
ROOT
ATOM      1  C   UNL d   1      -2.799   0.464   2.176  0.00  0.00     0.078 C 
ATOM      2  C1  UNL d   1      -1.353   0.085   2.052  0.00  0.00    -0.077 A 
ATOM      3  C2  UNL d   1      -0.668   0.243   0.842  0.00  0.00    -0.001 A 
ATOM      4  C3  UNL d   1       0.675  -0.123   0.738  0.00  0.00     0.003 A 
ATOM      5  C4  UNL d   1       1.344  -0.651   1.840  0.00  0.00    -0.005 A 
ATOM      6  C5  UNL d   1       0.669  -0.815   3.048  0.00  0.00     0.003 A 
ATOM      7  C6  UNL d   1      -0.674  -0.449   3.154  0.00  0.00    -0.001 A 
ENDROOT
TORSDOF 0
ENDMDL
