MODEL 1
REMARK minimizedAffinity -3.69659996
REMARK minimizedRMSD -1
REMARK  0 active torsions:
REMARK  status: ('A' for Active; 'I' for Inactive)
ROOT
ATOM      1  C   UNL d   1       1.118   0.432   0.297  0.00  0.00     0.078 C 
ATOM      2  C1  UNL d   1       0.850   0.056  -1.130  0.00  0.00    -0.077 A 
ATOM      3  C2  UNL d   1       1.461  -1.063  -1.708  0.00  0.00    -0.001 A 
ATOM      4  C3  UNL d   1       1.209  -1.395  -3.040  0.00  0.00     0.003 A 
ATOM      5  C4  UNL d   1       0.347  -0.612  -3.806  0.00  0.00    -0.005 A 
ATOM      6  C5  UNL d   1      -0.263   0.505  -3.240  0.00  0.00     0.003 A 
ATOM      7  C6  UNL d   1      -0.013   0.838  -1.908  0.00  0.00    -0.001 A 
ENDROOT
TORSDOF 0
ENDMDL
