MODEL 1
REMARK minimizedAffinity -5.71133137
REMARK minimizedRMSD -1
REMARK  0 active torsions:
REMARK  status: ('A' for Active; 'I' for Inactive)
ROOT
ATOM      1  C   UNL d   1       0.313   0.115  -1.026  0.00  0.00     0.078 C 
ATOM      2  C1  UNL d   1      -0.042   0.008   0.427  0.00  0.00    -0.077 A 
ATOM      3  C2  UNL d   1      -1.351  -0.286   0.830  0.00  0.00    -0.001 A 
ATOM      4  C3  UNL d   1      -1.669  -0.372   2.186  0.00  0.00     0.003 A 
ATOM      5  C4  UNL d   1      -0.685  -0.164   3.151  0.00  0.00    -0.005 A 
ATOM      6  C5  UNL d   1       0.619   0.132   2.760  0.00  0.00     0.003 A 
ATOM      7  C6  UNL d   1       0.939   0.218   1.404  0.00  0.00    -0.001 A 
ENDROOT
TORSDOF 0
ENDMDL
