MODEL 1
REMARK minimizedAffinity -5.24799538
REMARK minimizedRMSD -1
REMARK  0 active torsions:
REMARK  status: ('A' for Active; 'I' for Inactive)
ROOT
ATOM      1  C   UNL d   1      -0.162   0.037  -0.762  0.00  0.00     0.078 C 
ATOM      2  C1  UNL d   1      -0.802  -0.047   0.591  0.00  0.00    -0.077 A 
ATOM      3  C2  UNL d   1      -2.174   0.176   0.755  0.00  0.00    -0.001 A 
ATOM      4  C3  UNL d   1      -2.754   0.104   2.023  0.00  0.00     0.003 A 
ATOM      5  C4  UNL d   1      -1.969  -0.189   3.136  0.00  0.00    -0.005 A 
ATOM      6  C5  UNL d   1      -0.602  -0.410   2.983  0.00  0.00     0.003 A 
ATOM      7  C6  UNL d   1      -0.020  -0.339   1.716  0.00  0.00    -0.001 A 
ENDROOT
TORSDOF 0
ENDMDL
