MODEL 1
REMARK minimizedAffinity -5.128479
REMARK minimizedRMSD -1
REMARK  0 active torsions:
REMARK  status: ('A' for Active; 'I' for Inactive)
ROOT
ATOM      1  C   UNL d   1       0.031   0.259  -1.399  0.00  0.00     0.078 C 
ATOM      2  C1  UNL d   1      -0.839   0.086  -0.190  0.00  0.00    -0.077 A 
ATOM      3  C2  UNL d   1      -2.189   0.455  -0.215  0.00  0.00    -0.001 A 
ATOM      4  C3  UNL d   1      -2.985   0.298   0.921  0.00  0.00     0.003 A 
ATOM      5  C4  UNL d   1      -2.439  -0.228   2.090  0.00  0.00    -0.005 A 
ATOM      6  C5  UNL d   1      -1.096  -0.597   2.125  0.00  0.00     0.003 A 
ATOM      7  C6  UNL d   1      -0.298  -0.440   0.990  0.00  0.00    -0.001 A 
ENDROOT
TORSDOF 0
ENDMDL
