MODEL 1
REMARK minimizedAffinity -4.09773922
REMARK minimizedRMSD -1
REMARK  0 active torsions:
REMARK  status: ('A' for Active; 'I' for Inactive)
ROOT
ATOM      1  C   UNL d   1       1.559   0.120   0.993  0.00  0.00     0.078 C 
ATOM      2  C1  UNL d   1       0.167  -0.017   1.535  0.00  0.00    -0.077 A 
ATOM      3  C2  UNL d   1      -0.881  -0.468   0.724  0.00  0.00    -0.001 A 
ATOM      4  C3  UNL d   1      -2.174  -0.581   1.239  0.00  0.00     0.003 A 
ATOM      5  C4  UNL d   1      -2.430  -0.243   2.566  0.00  0.00    -0.005 A 
ATOM      6  C5  UNL d   1      -1.394   0.210   3.380  0.00  0.00     0.003 A 
ATOM      7  C6  UNL d   1      -0.101   0.323   2.867  0.00  0.00    -0.001 A 
ENDROOT
TORSDOF 0
ENDMDL
