MODEL 1
REMARK minimizedAffinity -4.89723349
REMARK minimizedRMSD -1
REMARK  0 active torsions:
REMARK  status: ('A' for Active; 'I' for Inactive)
ROOT
ATOM      1  C   UNL d   1       0.258  -0.056  -0.831  0.00  0.00     0.078 C 
ATOM      2  C1  UNL d   1      -0.525  -0.015   0.447  0.00  0.00    -0.077 A 
ATOM      3  C2  UNL d   1      -1.907   0.215   0.439  0.00  0.00    -0.001 A 
ATOM      4  C3  UNL d   1      -2.622   0.260   1.636  0.00  0.00     0.003 A 
ATOM      5  C4  UNL d   1      -1.965   0.077   2.851  0.00  0.00    -0.005 A 
ATOM      6  C5  UNL d   1      -0.590  -0.150   2.870  0.00  0.00     0.003 A 
ATOM      7  C6  UNL d   1       0.127  -0.195   1.673  0.00  0.00    -0.001 A 
ENDROOT
TORSDOF 0
ENDMDL
