MODEL 1
REMARK minimizedAffinity -5.59991026
REMARK minimizedRMSD -1
REMARK  0 active torsions:
REMARK  status: ('A' for Active; 'I' for Inactive)
ROOT
ATOM      1  C2' OXE d   1      -1.517  -0.739   1.131  0.00  0.00     0.078 C 
ATOM      2  C1' OXE d   1      -1.195   2.049   1.198  0.00  0.00     0.078 C 
ATOM      3  C1  OXE d   1      -1.057   1.356  -0.135  0.00  0.00    -0.078 A 
ATOM      4  C2  OXE d   1      -1.170  -0.013  -0.151  0.00  0.00    -0.078 A 
ATOM      5  C3  OXE d   1      -1.105  -0.697  -1.361  0.00  0.00     0.003 A 
ATOM      6  C4  OXE d   1      -0.774  -0.019  -2.541  0.00  0.00    -0.002 A 
ATOM      7  C5  OXE d   1      -0.615   1.371  -2.541  0.00  0.00    -0.002 A 
ATOM      8  C6  OXE d   1      -0.795   2.077  -1.356  0.00  0.00     0.003 A 
ENDROOT
TORSDOF 0
ENDMDL
