MODEL 1
REMARK minimizedAffinity -4.28907251
REMARK minimizedRMSD -1
REMARK  0 active torsions:
REMARK  status: ('A' for Active; 'I' for Inactive)
ROOT
ATOM      1  C2' OXE d   1      -1.003   1.993  -1.337  0.00  0.00     0.078 C 
ATOM      2  C1' OXE d   1       0.440  -0.401  -1.602  0.00  0.00     0.078 C 
ATOM      3  C1  OXE d   1       0.262   0.163  -0.215  0.00  0.00    -0.078 A 
ATOM      4  C2  OXE d   1      -0.405   1.359  -0.100  0.00  0.00    -0.078 A 
ATOM      5  C3  OXE d   1      -0.645   1.896   1.162  0.00  0.00     0.003 A 
ATOM      6  C4  OXE d   1      -0.081   1.309   2.301  0.00  0.00    -0.002 A 
ATOM      7  C5  OXE d   1       0.636   0.112   2.202  0.00  0.00    -0.002 A 
ATOM      8  C6  OXE d   1       0.780  -0.495   0.959  0.00  0.00     0.003 A 
ENDROOT
TORSDOF 0
ENDMDL
