MODEL 1
REMARK minimizedAffinity -0.0534569807
REMARK minimizedRMSD -1
REMARK  0 active torsions:
REMARK  status: ('A' for Active; 'I' for Inactive)
ROOT
ATOM      1  C2' OXE d   1       0.404   0.764  -1.658  0.00  0.00     0.078 C 
ATOM      2  C1' OXE d   1      -0.741  -1.607  -0.685  0.00  0.00     0.078 C 
ATOM      3  C1  OXE d   1      -0.139  -0.654   0.317  0.00  0.00    -0.078 A 
ATOM      4  C2  OXE d   1       0.461   0.481  -0.172  0.00  0.00    -0.078 A 
ATOM      5  C3  OXE d   1       0.983   1.421   0.712  0.00  0.00     0.003 A 
ATOM      6  C4  OXE d   1       1.041   1.147   2.084  0.00  0.00    -0.002 A 
ATOM      7  C5  OXE d   1       0.472  -0.022   2.599  0.00  0.00    -0.002 A 
ATOM      8  C6  OXE d   1      -0.158  -0.911   1.736  0.00  0.00     0.003 A 
ENDROOT
TORSDOF 0
ENDMDL
