MODEL 1
REMARK minimizedAffinity -4.30704069
REMARK minimizedRMSD -1
REMARK  0 active torsions:
REMARK  status: ('A' for Active; 'I' for Inactive)
ROOT
ATOM      1  C2' OXE d   1       0.929   2.037   2.512  0.00  0.00     0.078 C 
ATOM      2  C1' OXE d   1      -1.694   2.268   1.539  0.00  0.00     0.078 C 
ATOM      3  C1  OXE d   1      -0.870   1.095   1.069  0.00  0.00    -0.078 A 
ATOM      4  C2  OXE d   1       0.427   1.016   1.514  0.00  0.00    -0.078 A 
ATOM      5  C3  OXE d   1       1.214  -0.075   1.155  0.00  0.00     0.003 A 
ATOM      6  C4  OXE d   1       0.746  -1.010   0.224  0.00  0.00    -0.002 A 
ATOM      7  C5  OXE d   1      -0.559  -0.926  -0.273  0.00  0.00    -0.002 A 
ATOM      8  C6  OXE d   1      -1.393   0.095   0.172  0.00  0.00     0.003 A 
ENDROOT
TORSDOF 0
ENDMDL
