MODEL 1
REMARK minimizedAffinity -5.35921288
REMARK minimizedRMSD -1
REMARK  0 active torsions:
REMARK  status: ('A' for Active; 'I' for Inactive)
ROOT
ATOM      1  C2' OXE d   1       0.606  -0.707  -1.276  0.00  0.00     0.078 C 
ATOM      2  C1' OXE d   1      -0.523   1.860  -1.391  0.00  0.00     0.078 C 
ATOM      3  C1  OXE d   1      -0.186   1.300  -0.031  0.00  0.00    -0.078 A 
ATOM      4  C2  OXE d   1       0.323   0.025   0.018  0.00  0.00    -0.078 A 
ATOM      5  C3  OXE d   1       0.702  -0.519   1.242  0.00  0.00     0.003 A 
ATOM      6  C4  OXE d   1       0.428   0.160   2.435  0.00  0.00    -0.002 A 
ATOM      7  C5  OXE d   1      -0.127   1.444   2.409  0.00  0.00    -0.002 A 
ATOM      8  C6  OXE d   1      -0.400   2.044   1.185  0.00  0.00     0.003 A 
ENDROOT
TORSDOF 0
ENDMDL
