MODEL 1
REMARK minimizedAffinity -5.32350969
REMARK minimizedRMSD -1
REMARK  0 active torsions:
REMARK  status: ('A' for Active; 'I' for Inactive)
ROOT
ATOM      1  C2' OXE d   1      -1.683   2.028   1.719  0.00  0.00     0.078 C 
ATOM      2  C1' OXE d   1       0.670   1.160   2.981  0.00  0.00     0.078 C 
ATOM      3  C1  OXE d   1       0.421   0.703   1.565  0.00  0.00    -0.078 A 
ATOM      4  C2  OXE d   1      -0.755   1.095   0.972  0.00  0.00    -0.078 A 
ATOM      5  C3  OXE d   1      -1.009   0.747  -0.352  0.00  0.00     0.003 A 
ATOM      6  C4  OXE d   1      -0.151  -0.125  -1.032  0.00  0.00    -0.002 A 
ATOM      7  C5  OXE d   1       1.033  -0.568  -0.433  0.00  0.00    -0.002 A 
ATOM      8  C6  OXE d   1       1.354  -0.130   0.847  0.00  0.00     0.003 A 
ENDROOT
TORSDOF 0
ENDMDL
