MODEL 1
REMARK minimizedAffinity -1.97185683
REMARK minimizedRMSD -1
REMARK  0 active torsions:
REMARK  status: ('A' for Active; 'I' for Inactive)
ROOT
ATOM      1  C2' OXE d   1      -2.967   1.496  -1.110  0.00  0.00     0.078 C 
ATOM      2  C1' OXE d   1      -2.618   1.014   1.634  0.00  0.00     0.078 C 
ATOM      3  C1  OXE d   1      -1.480   0.666   0.708  0.00  0.00    -0.078 A 
ATOM      4  C2  OXE d   1      -1.677   0.861  -0.638  0.00  0.00    -0.078 A 
ATOM      5  C3  OXE d   1      -0.639   0.608  -1.531  0.00  0.00     0.003 A 
ATOM      6  C4  OXE d   1       0.547   0.012  -1.087  0.00  0.00    -0.002 A 
ATOM      7  C5  OXE d   1       0.753  -0.233   0.275  0.00  0.00    -0.002 A 
ATOM      8  C6  OXE d   1      -0.231   0.127   1.188  0.00  0.00     0.003 A 
ENDROOT
TORSDOF 0
ENDMDL
