MODEL 1
REMARK minimizedAffinity 4.35110712
REMARK minimizedRMSD -1
REMARK  0 active torsions:
REMARK  status: ('A' for Active; 'I' for Inactive)
ROOT
ATOM      1  C2' OXE d   1       1.265  -1.603   0.267  0.00  0.00     0.078 C 
ATOM      2  C1' OXE d   1       0.619   1.084  -0.228  0.00  0.00     0.078 C 
ATOM      3  C1  OXE d   1       0.790   0.654   1.207  0.00  0.00    -0.078 A 
ATOM      4  C2  OXE d   1       1.060  -0.673   1.443  0.00  0.00    -0.078 A 
ATOM      5  C3  OXE d   1       1.281  -1.111   2.745  0.00  0.00     0.003 A 
ATOM      6  C4  OXE d   1       1.079  -0.246   3.828  0.00  0.00    -0.002 A 
ATOM      7  C5  OXE d   1       0.764   1.100   3.612  0.00  0.00    -0.002 A 
ATOM      8  C6  OXE d   1       0.658   1.575   2.310  0.00  0.00     0.003 A 
ENDROOT
TORSDOF 0
ENDMDL
