MODEL 1
REMARK minimizedAffinity -3.97868991
REMARK minimizedRMSD -1
REMARK  0 active torsions:
REMARK  status: ('A' for Active; 'I' for Inactive)
ROOT
ATOM      1  C2' OXE d   1       1.577  -0.836   0.639  0.00  0.00     0.078 C 
ATOM      2  C1' OXE d   1       1.753  -0.797   3.441  0.00  0.00     0.078 C 
ATOM      3  C1  OXE d   1       1.197   0.426   2.754  0.00  0.00    -0.078 A 
ATOM      4  C2  OXE d   1       1.159   0.416   1.380  0.00  0.00    -0.078 A 
ATOM      5  C3  OXE d   1       0.605   1.496   0.699  0.00  0.00     0.003 A 
ATOM      6  C4  OXE d   1       0.230   2.654   1.391  0.00  0.00    -0.002 A 
ATOM      7  C5  OXE d   1       0.298   2.700   2.787  0.00  0.00    -0.002 A 
ATOM      8  C6  OXE d   1       0.739   1.581   3.485  0.00  0.00     0.003 A 
ENDROOT
TORSDOF 0
ENDMDL
