MODEL 1
REMARK minimizedAffinity -5.66949511
REMARK minimizedRMSD -1
REMARK  0 active torsions:
REMARK  status: ('A' for Active; 'I' for Inactive)
ROOT
ATOM      1  C2' OXE d   1      -1.130   2.426  -1.378  0.00  0.00     0.078 C 
ATOM      2  C1' OXE d   1      -1.623   3.033   1.318  0.00  0.00     0.078 C 
ATOM      3  C1  OXE d   1      -0.738   1.850   1.014  0.00  0.00    -0.078 A 
ATOM      4  C2  OXE d   1      -0.540   1.532  -0.308  0.00  0.00    -0.078 A 
ATOM      5  C3  OXE d   1       0.311   0.484  -0.646  0.00  0.00     0.003 A 
ATOM      6  C4  OXE d   1       0.845  -0.344   0.349  0.00  0.00    -0.002 A 
ATOM      7  C5  OXE d   1       0.624  -0.062   1.702  0.00  0.00    -0.002 A 
ATOM      8  C6  OXE d   1      -0.129   1.054   2.051  0.00  0.00     0.003 A 
ENDROOT
TORSDOF 0
ENDMDL
