MODEL 1
REMARK minimizedAffinity 10.41852
REMARK minimizedRMSD -1
REMARK  0 active torsions:
REMARK  status: ('A' for Active; 'I' for Inactive)
ROOT
ATOM      1  C1  DEN d   1      -2.467   0.540  -2.002  0.00  0.00     0.130 A 
ATOM      2  C2  DEN d   1      -1.335  -0.278  -1.576  0.00  0.00    -0.031 A 
ATOM      3  C3  DEN d   1      -0.094   0.435  -1.941  0.00  0.00     0.027 A 
ATOM      4  C4  DEN d   1       0.183   2.716  -3.114  0.00  0.00     0.027 A 
ATOM      5  C5  DEN d   1      -0.491   3.777  -3.676  0.00  0.00    -0.003 A 
ATOM      6  C6  DEN d   1      -1.858   3.819  -3.750  0.00  0.00     0.001 A 
ATOM      7  C7  DEN d   1      -2.598   2.799  -3.213  0.00  0.00     0.017 A 
ATOM      8  C8  DEN d   1      -1.926   1.721  -2.650  0.00  0.00    -0.094 A 
ATOM      9  C9  DEN d   1      -0.543   1.704  -2.574  0.00  0.00    -0.072 A 
ENDROOT
TORSDOF 0
ENDMDL
