MODEL 1
REMARK minimizedAffinity 7.83707237
REMARK minimizedRMSD -1
REMARK  0 active torsions:
REMARK  status: ('A' for Active; 'I' for Inactive)
ROOT
ATOM      1  C1  DEN d   1       2.859  -2.915   2.185  0.00  0.00     0.130 A 
ATOM      2  C2  DEN d   1       1.563  -3.446   1.772  0.00  0.00    -0.031 A 
ATOM      3  C3  DEN d   1       1.791  -4.750   1.119  0.00  0.00     0.027 A 
ATOM      4  C4  DEN d   1       4.014  -5.995   0.713  0.00  0.00     0.027 A 
ATOM      5  C5  DEN d   1       5.380  -5.935   0.877  0.00  0.00    -0.003 A 
ATOM      6  C6  DEN d   1       6.000  -4.858   1.452  0.00  0.00     0.001 A 
ATOM      7  C7  DEN d   1       5.248  -3.816   1.927  0.00  0.00     0.017 A 
ATOM      8  C8  DEN d   1       3.870  -3.866   1.759  0.00  0.00    -0.094 A 
ATOM      9  C9  DEN d   1       3.261  -4.969   1.185  0.00  0.00    -0.072 A 
ENDROOT
TORSDOF 0
ENDMDL
