MODEL 1
REMARK minimizedAffinity 8.06378937
REMARK minimizedRMSD -1
REMARK  0 active torsions:
REMARK  status: ('A' for Active; 'I' for Inactive)
ROOT
ATOM      1  C1  DEN d   1      -2.169  -1.545   2.037  0.00  0.00     0.130 A 
ATOM      2  C2  DEN d   1      -2.848  -0.441   2.711  0.00  0.00    -0.031 A 
ATOM      3  C3  DEN d   1      -1.819   0.412   3.339  0.00  0.00     0.027 A 
ATOM      4  C4  DEN d   1       0.745   0.136   3.329  0.00  0.00     0.027 A 
ATOM      5  C5  DEN d   1       1.788  -0.654   2.897  0.00  0.00    -0.003 A 
ATOM      6  C6  DEN d   1       1.584  -1.805   2.183  0.00  0.00     0.001 A 
ATOM      7  C7  DEN d   1       0.311  -2.175   1.841  0.00  0.00     0.017 A 
ATOM      8  C8  DEN d   1      -0.746  -1.388   2.279  0.00  0.00    -0.094 A 
ATOM      9  C9  DEN d   1      -0.519  -0.221   2.989  0.00  0.00    -0.072 A 
ENDROOT
TORSDOF 0
ENDMDL
