MODEL 1
REMARK minimizedAffinity 5.62503624
REMARK minimizedRMSD -1
REMARK  0 active torsions:
REMARK  status: ('A' for Active; 'I' for Inactive)
ROOT
ATOM      1  C1  DEN d   1       5.995   4.794   0.610  0.00  0.00     0.130 A 
ATOM      2  C2  DEN d   1       5.957   4.364   2.005  0.00  0.00    -0.031 A 
ATOM      3  C3  DEN d   1       5.942   2.887   2.027  0.00  0.00     0.027 A 
ATOM      4  C4  DEN d   1       5.978   1.234   0.047  0.00  0.00     0.027 A 
ATOM      5  C5  DEN d   1       5.999   1.127  -1.326  0.00  0.00    -0.003 A 
ATOM      6  C6  DEN d   1       5.986   2.226  -2.144  0.00  0.00     0.001 A 
ATOM      7  C7  DEN d   1       5.997   3.481  -1.595  0.00  0.00     0.017 A 
ATOM      8  C8  DEN d   1       5.968   3.597  -0.211  0.00  0.00    -0.094 A 
ATOM      9  C9  DEN d   1       5.994   2.474   0.599  0.00  0.00    -0.072 A 
ENDROOT
TORSDOF 0
ENDMDL
