MODEL 1
REMARK minimizedAffinity 5.8160634
REMARK minimizedRMSD -1
REMARK  0 active torsions:
REMARK  status: ('A' for Active; 'I' for Inactive)
ROOT
ATOM      1  C1  DEN d   1      -3.628   0.773   2.263  0.00  0.00     0.130 A 
ATOM      2  C2  DEN d   1      -3.860   1.685   3.380  0.00  0.00    -0.031 A 
ATOM      3  C3  DEN d   1      -2.806   1.450   4.387  0.00  0.00     0.027 A 
ATOM      4  C4  DEN d   1      -0.846  -0.225   4.324  0.00  0.00     0.027 A 
ATOM      5  C5  DEN d   1      -0.243  -1.220   3.587  0.00  0.00    -0.003 A 
ATOM      6  C6  DEN d   1      -0.741  -1.641   2.382  0.00  0.00     0.001 A 
ATOM      7  C7  DEN d   1      -1.851  -1.032   1.857  0.00  0.00     0.017 A 
ATOM      8  C8  DEN d   1      -2.469  -0.034   2.598  0.00  0.00    -0.094 A 
ATOM      9  C9  DEN d   1      -1.942   0.386   3.808  0.00  0.00    -0.072 A 
ENDROOT
TORSDOF 0
ENDMDL
