MODEL 1
REMARK minimizedAffinity 12.3858032
REMARK minimizedRMSD -1
REMARK  0 active torsions:
REMARK  status: ('A' for Active; 'I' for Inactive)
ROOT
ATOM      1  C1  DEN d   1       0.589  -1.347  -1.450  0.00  0.00     0.130 A 
ATOM      2  C2  DEN d   1      -0.589  -0.483  -1.418  0.00  0.00    -0.031 A 
ATOM      3  C3  DEN d   1      -1.035  -0.373  -0.015  0.00  0.00     0.027 A 
ATOM      4  C4  DEN d   1      -0.019  -1.444   2.100  0.00  0.00     0.027 A 
ATOM      5  C5  DEN d   1       0.979  -2.267   2.573  0.00  0.00    -0.003 A 
ATOM      6  C6  DEN d   1       1.889  -2.863   1.741  0.00  0.00     0.001 A 
ATOM      7  C7  DEN d   1       1.847  -2.609   0.395  0.00  0.00     0.017 A 
ATOM      8  C8  DEN d   1       0.839  -1.786  -0.089  0.00  0.00    -0.094 A 
ATOM      9  C9  DEN d   1      -0.064  -1.183   0.769  0.00  0.00    -0.072 A 
ENDROOT
TORSDOF 0
ENDMDL
