MODEL 1
REMARK minimizedAffinity -3.19256306
REMARK minimizedRMSD -1
REMARK  0 active torsions:
REMARK  status: ('A' for Active; 'I' for Inactive)
ROOT
ATOM      1  C4' PXY d   1       1.395   2.330   0.061  0.00  0.00     0.077 C 
ATOM      2  C1' PXY d   1      -1.149  -2.835   0.576  0.00  0.00     0.077 C 
ATOM      3  C1  PXY d   1      -0.475  -1.484   0.430  0.00  0.00    -0.082 A 
ATOM      4  C2  PXY d   1      -0.388  -0.681   1.478  0.00  0.00     0.003 A 
ATOM      5  C3  PXY d   1       0.190   0.556   1.357  0.00  0.00     0.003 A 
ATOM      6  C4  PXY d   1       0.731   0.954   0.164  0.00  0.00    -0.082 A 
ATOM      7  C5  PXY d   1       0.655   0.136  -0.907  0.00  0.00     0.003 A 
ATOM      8  C6  PXY d   1       0.028  -1.099  -0.774  0.00  0.00     0.003 A 
ENDROOT
TORSDOF 0
ENDMDL
