MODEL 1
REMARK minimizedAffinity -5.08791256
REMARK minimizedRMSD -1
REMARK  0 active torsions:
REMARK  status: ('A' for Active; 'I' for Inactive)
ROOT
ATOM      1  C4' PXY d   1      -0.912  -1.588   0.464  0.00  0.00     0.077 C 
ATOM      2  C1' PXY d   1       1.927   3.441   0.209  0.00  0.00     0.077 C 
ATOM      3  C1  PXY d   1       1.194   2.116   0.278  0.00  0.00    -0.082 A 
ATOM      4  C2  PXY d   1      -0.004   2.002  -0.272  0.00  0.00     0.003 A 
ATOM      5  C3  PXY d   1      -0.695   0.820  -0.191  0.00  0.00     0.003 A 
ATOM      6  C4  PXY d   1      -0.131  -0.272   0.411  0.00  0.00    -0.082 A 
ATOM      7  C5  PXY d   1       1.096  -0.167   0.965  0.00  0.00     0.003 A 
ATOM      8  C6  PXY d   1       1.763   1.053   0.908  0.00  0.00     0.003 A 
ENDROOT
TORSDOF 0
ENDMDL
