MODEL 1
REMARK minimizedAffinity -2.766222
REMARK minimizedRMSD -1
REMARK  0 active torsions:
REMARK  status: ('A' for Active; 'I' for Inactive)
ROOT
ATOM      1  C4' PXY d   1       0.232  -3.547   1.099  0.00  0.00     0.077 C 
ATOM      2  C1' PXY d   1      -0.234   1.851  -0.915  0.00  0.00     0.077 C 
ATOM      3  C1  PXY d   1      -0.115   0.440  -0.375  0.00  0.00    -0.082 A 
ATOM      4  C2  PXY d   1       0.672  -0.430  -0.986  0.00  0.00     0.003 A 
ATOM      5  C3  PXY d   1       0.766  -1.720  -0.530  0.00  0.00     0.003 A 
ATOM      6  C4  PXY d   1       0.089  -2.108   0.595  0.00  0.00    -0.082 A 
ATOM      7  C5  PXY d   1      -0.709  -1.223   1.230  0.00  0.00     0.003 A 
ATOM      8  C6  PXY d   1      -0.823   0.070   0.727  0.00  0.00     0.003 A 
ENDROOT
TORSDOF 0
ENDMDL
