MODEL 1
REMARK minimizedAffinity -2.93827963
REMARK minimizedRMSD -1
REMARK  0 active torsions:
REMARK  status: ('A' for Active; 'I' for Inactive)
ROOT
ATOM      1  C4' PXY d   1      -0.961  -2.295   0.402  0.00  0.00     0.077 C 
ATOM      2  C1' PXY d   1       0.988   3.147   0.367  0.00  0.00     0.077 C 
ATOM      3  C1  PXY d   1       0.473   1.721   0.389  0.00  0.00    -0.082 A 
ATOM      4  C2  PXY d   1       0.956   0.838  -0.471  0.00  0.00     0.003 A 
ATOM      5  C3  PXY d   1       0.479  -0.447  -0.486  0.00  0.00     0.003 A 
ATOM      6  C4  PXY d   1      -0.464  -0.847   0.423  0.00  0.00    -0.082 A 
ATOM      7  C5  PXY d   1      -0.954   0.045   1.310  0.00  0.00     0.003 A 
ATOM      8  C6  PXY d   1      -0.486   1.355   1.282  0.00  0.00     0.003 A 
ENDROOT
TORSDOF 0
ENDMDL
