MODEL 1
REMARK minimizedAffinity -4.82548094
REMARK minimizedRMSD -1
REMARK  0 active torsions:
REMARK  status: ('A' for Active; 'I' for Inactive)
ROOT
ATOM      1  C4' PXY d   1      -3.039   0.697   1.941  0.00  0.00     0.077 C 
ATOM      2  C1' PXY d   1       1.525  -1.927  -0.447  0.00  0.00     0.077 C 
ATOM      3  C1  PXY d   1       0.334  -1.228   0.179  0.00  0.00    -0.082 A 
ATOM      4  C2  PXY d   1      -0.532  -1.925   0.896  0.00  0.00     0.003 A 
ATOM      5  C3  PXY d   1      -1.631  -1.314   1.442  0.00  0.00     0.003 A 
ATOM      6  C4  PXY d   1      -1.817   0.035   1.298  0.00  0.00    -0.082 A 
ATOM      7  C5  PXY d   1      -0.932   0.755   0.577  0.00  0.00     0.003 A 
ATOM      8  C6  PXY d   1       0.155   0.109  -0.004  0.00  0.00     0.003 A 
ENDROOT
TORSDOF 0
ENDMDL
