MODEL 1
REMARK minimizedAffinity -4.75045204
REMARK minimizedRMSD -1
REMARK  0 active torsions:
REMARK  status: ('A' for Active; 'I' for Inactive)
ROOT
ATOM      1  C4' PXY d   1      -0.680  -2.108   0.733  0.00  0.00     0.077 C 
ATOM      2  C1' PXY d   1       1.643   3.150   0.126  0.00  0.00     0.077 C 
ATOM      3  C1  PXY d   1       1.045   1.766   0.288  0.00  0.00    -0.082 A 
ATOM      4  C2  PXY d   1      -0.071   1.457  -0.351  0.00  0.00     0.003 A 
ATOM      5  C3  PXY d   1      -0.642   0.221  -0.190  0.00  0.00     0.003 A 
ATOM      6  C4  PXY d   1      -0.036  -0.726   0.591  0.00  0.00    -0.082 A 
ATOM      7  C5  PXY d   1       1.109  -0.422   1.238  0.00  0.00     0.003 A 
ATOM      8  C6  PXY d   1       1.650   0.852   1.094  0.00  0.00     0.003 A 
ENDROOT
TORSDOF 0
ENDMDL
