MODEL 1
REMARK minimizedAffinity -4.6111064
REMARK minimizedRMSD -1
REMARK  0 active torsions:
REMARK  status: ('A' for Active; 'I' for Inactive)
ROOT
ATOM      1  C4' PXY d   1       1.059   1.828   0.382  0.00  0.00     0.077 C 
ATOM      2  C1' PXY d   1      -1.742  -3.221   0.670  0.00  0.00     0.077 C 
ATOM      3  C1  PXY d   1      -0.996  -1.903   0.594  0.00  0.00    -0.082 A 
ATOM      4  C2  PXY d   1      -1.553  -0.807   1.084  0.00  0.00     0.003 A 
ATOM      5  C3  PXY d   1      -0.906   0.398   0.994  0.00  0.00     0.003 A 
ATOM      6  C4  PXY d   1       0.346   0.474   0.446  0.00  0.00    -0.082 A 
ATOM      7  C5  PXY d   1       0.925  -0.642  -0.047  0.00  0.00     0.003 A 
ATOM      8  C6  PXY d   1       0.235  -1.849   0.016  0.00  0.00     0.003 A 
ENDROOT
TORSDOF 0
ENDMDL
