MODEL 1
REMARK minimizedAffinity -3.27178836
REMARK minimizedRMSD -1
REMARK  0 active torsions:
REMARK  status: ('A' for Active; 'I' for Inactive)
ROOT
ATOM      1  C4' PXY d   1       0.702   2.433   0.075  0.00  0.00     0.077 C 
ATOM      2  C1' PXY d   1      -1.118  -3.048   0.314  0.00  0.00     0.077 C 
ATOM      3  C1  PXY d   1      -0.652  -1.607   0.256  0.00  0.00    -0.082 A 
ATOM      4  C2  PXY d   1       0.284  -1.256  -0.611  0.00  0.00     0.003 A 
ATOM      5  C3  PXY d   1       0.740   0.037  -0.654  0.00  0.00     0.003 A 
ATOM      6  C4  PXY d   1       0.195   0.991   0.162  0.00  0.00    -0.082 A 
ATOM      7  C5  PXY d   1      -0.768   0.643   1.042  0.00  0.00     0.003 A 
ATOM      8  C6  PXY d   1      -1.188  -0.682   1.098  0.00  0.00     0.003 A 
ENDROOT
TORSDOF 0
ENDMDL
