MODEL 1
REMARK minimizedAffinity -4.29543543
REMARK minimizedRMSD -1
REMARK  0 active torsions:
REMARK  status: ('A' for Active; 'I' for Inactive)
ROOT
ATOM      1  C4' PXY d   1       0.979   2.607   0.269  0.00  0.00     0.077 C 
ATOM      2  C1' PXY d   1      -0.683  -2.921   0.556  0.00  0.00     0.077 C 
ATOM      3  C1  PXY d   1      -0.240  -1.474   0.470  0.00  0.00    -0.082 A 
ATOM      4  C2  PXY d   1      -0.310  -0.704   1.544  0.00  0.00     0.003 A 
ATOM      5  C3  PXY d   1       0.057   0.615   1.476  0.00  0.00     0.003 A 
ATOM      6  C4  PXY d   1       0.551   1.138   0.311  0.00  0.00    -0.082 A 
ATOM      7  C5  PXY d   1       0.636   0.356  -0.786  0.00  0.00     0.003 A 
ATOM      8  C6  PXY d   1       0.220  -0.970  -0.707  0.00  0.00     0.003 A 
ENDROOT
TORSDOF 0
ENDMDL
