MODEL 1
REMARK minimizedAffinity -1.61657333
REMARK minimizedRMSD -1
REMARK  0 active torsions:
REMARK  status: ('A' for Active; 'I' for Inactive)
ROOT
ATOM      1  C4' PXY d   1      -0.446  -0.529   4.217  0.00  0.00     0.077 C 
ATOM      2  C1' PXY d   1       0.060   0.569  -1.436  0.00  0.00     0.077 C 
ATOM      3  C1  PXY d   1      -0.083   0.289   0.047  0.00  0.00    -0.082 A 
ATOM      4  C2  PXY d   1       0.975  -0.085   0.748  0.00  0.00     0.003 A 
ATOM      5  C3  PXY d   1       0.857  -0.373   2.083  0.00  0.00     0.003 A 
ATOM      6  C4  PXY d   1      -0.346  -0.226   2.720  0.00  0.00    -0.082 A 
ATOM      7  C5  PXY d   1      -1.429   0.165   2.014  0.00  0.00     0.003 A 
ATOM      8  C6  PXY d   1      -1.297   0.413   0.651  0.00  0.00     0.003 A 
ENDROOT
TORSDOF 0
ENDMDL
