MODEL 1
REMARK minimizedAffinity -3.56549764
REMARK minimizedRMSD -1
REMARK  0 active torsions:
REMARK  status: ('A' for Active; 'I' for Inactive)
ROOT
ATOM      1  C4' PXY d   1       1.140   3.439   0.182  0.00  0.00     0.077 C 
ATOM      2  C1' PXY d   1      -1.054  -1.904   0.419  0.00  0.00     0.077 C 
ATOM      3  C1  PXY d   1      -0.478  -0.504   0.344  0.00  0.00    -0.082 A 
ATOM      4  C2  PXY d   1       0.127   0.012   1.401  0.00  0.00     0.003 A 
ATOM      5  C3  PXY d   1       0.626   1.289   1.361  0.00  0.00     0.003 A 
ATOM      6  C4  PXY d   1       0.552   2.025   0.209  0.00  0.00    -0.082 A 
ATOM      7  C5  PXY d   1      -0.054   1.502  -0.877  0.00  0.00     0.003 A 
ATOM      8  C6  PXY d   1      -0.590   0.220  -0.803  0.00  0.00     0.003 A 
ENDROOT
TORSDOF 0
ENDMDL
