MODEL 1
REMARK minimizedAffinity -2.68428349
REMARK minimizedRMSD -1
REMARK  0 active torsions:
REMARK  status: ('A' for Active; 'I' for Inactive)
ROOT
ATOM      1  C4' PXY d   1       0.727   1.721   0.083  0.00  0.00     0.077 C 
ATOM      2  C1' PXY d   1      -0.958  -3.803  -0.167  0.00  0.00     0.077 C 
ATOM      3  C1  PXY d   1      -0.507  -2.357  -0.111  0.00  0.00    -0.082 A 
ATOM      4  C2  PXY d   1      -0.725  -1.646   0.984  0.00  0.00     0.003 A 
ATOM      5  C3  PXY d   1      -0.353  -0.327   1.040  0.00  0.00     0.003 A 
ATOM      6  C4  PXY d   1       0.297   0.255  -0.015  0.00  0.00    -0.082 A 
ATOM      7  C5  PXY d   1       0.533  -0.467  -1.131  0.00  0.00     0.003 A 
ATOM      8  C6  PXY d   1       0.111  -1.792  -1.184  0.00  0.00     0.003 A 
ENDROOT
TORSDOF 0
ENDMDL
