MODEL 1
REMARK minimizedAffinity -4.16351795
REMARK minimizedRMSD -1
REMARK  0 active torsions:
REMARK  status: ('A' for Active; 'I' for Inactive)
ROOT
ATOM      1  C4' PXY d   1      -0.383  -4.277  -0.260  0.00  0.00     0.077 C 
ATOM      2  C1' PXY d   1      -0.371   1.443   0.573  0.00  0.00     0.077 C 
ATOM      3  C1  PXY d   1      -0.378  -0.059   0.367  0.00  0.00    -0.082 A 
ATOM      4  C2  PXY d   1       0.347  -0.589  -0.605  0.00  0.00     0.003 A 
ATOM      5  C3  PXY d   1       0.328  -1.942  -0.825  0.00  0.00     0.003 A 
ATOM      6  C4  PXY d   1      -0.400  -2.767  -0.009  0.00  0.00    -0.082 A 
ATOM      7  C5  PXY d   1      -1.133  -2.235   0.991  0.00  0.00     0.003 A 
ATOM      8  C6  PXY d   1      -1.133  -0.855   1.173  0.00  0.00     0.003 A 
ENDROOT
TORSDOF 0
ENDMDL
