MODEL 1
REMARK minimizedAffinity -1.85431957
REMARK minimizedRMSD -1
REMARK  0 active torsions:
REMARK  status: ('A' for Active; 'I' for Inactive)
ROOT
ATOM      1  C4' PXY d   1       0.958   3.128  -0.088  0.00  0.00     0.077 C 
ATOM      2  C1' PXY d   1      -1.033  -2.190   0.998  0.00  0.00     0.077 C 
ATOM      3  C1  PXY d   1      -0.519  -0.794   0.703  0.00  0.00    -0.082 A 
ATOM      4  C2  PXY d   1       0.710  -0.460   1.060  0.00  0.00     0.003 A 
ATOM      5  C3  PXY d   1       1.180   0.807   0.830  0.00  0.00     0.003 A 
ATOM      6  C4  PXY d   1       0.401   1.727   0.181  0.00  0.00    -0.082 A 
ATOM      7  C5  PXY d   1      -0.851   1.391  -0.196  0.00  0.00     0.003 A 
ATOM      8  C6  PXY d   1      -1.323   0.112   0.084  0.00  0.00     0.003 A 
ENDROOT
TORSDOF 0
ENDMDL
