MODEL 1
REMARK minimizedAffinity -3.91520762
REMARK minimizedRMSD -1
REMARK  0 active torsions:
REMARK  status: ('A' for Active; 'I' for Inactive)
ROOT
ATOM      1  C4' PXY d   1      -0.963  -2.466   1.094  0.00  0.00     0.077 C 
ATOM      2  C1' PXY d   1       1.067   2.807  -0.127  0.00  0.00     0.077 C 
ATOM      3  C1  PXY d   1       0.522   1.429   0.194  0.00  0.00    -0.082 A 
ATOM      4  C2  PXY d   1       1.317   0.523   0.738  0.00  0.00     0.003 A 
ATOM      5  C3  PXY d   1       0.850  -0.739   1.006  0.00  0.00     0.003 A 
ATOM      6  C4  PXY d   1      -0.459  -1.059   0.762  0.00  0.00    -0.082 A 
ATOM      7  C5  PXY d   1      -1.279  -0.136   0.216  0.00  0.00     0.003 A 
ATOM      8  C6  PXY d   1      -0.774   1.126  -0.086  0.00  0.00     0.003 A 
ENDROOT
TORSDOF 0
ENDMDL
