MODEL 1
REMARK minimizedAffinity -2.37534595
REMARK minimizedRMSD -1
REMARK  0 active torsions:
REMARK  status: ('A' for Active; 'I' for Inactive)
ROOT
ATOM      1  C4' PXY d   1       1.351  -1.894  -3.113  0.00  0.00     0.077 C 
ATOM      2  C1' PXY d   1      -0.960   0.243   1.736  0.00  0.00     0.077 C 
ATOM      3  C1  PXY d   1      -0.359  -0.308   0.457  0.00  0.00    -0.082 A 
ATOM      4  C2  PXY d   1      -0.024  -1.586   0.390  0.00  0.00     0.003 A 
ATOM      5  C3  PXY d   1       0.550  -2.093  -0.747  0.00  0.00     0.003 A 
ATOM      6  C4  PXY d   1       0.733  -1.296  -1.846  0.00  0.00    -0.082 A 
ATOM      7  C5  PXY d   1       0.383   0.006  -1.788  0.00  0.00     0.003 A 
ATOM      8  C6  PXY d   1      -0.159   0.511  -0.610  0.00  0.00     0.003 A 
ENDROOT
TORSDOF 0
ENDMDL
