MODEL 1
REMARK minimizedAffinity -4.27741337
REMARK minimizedRMSD -1
REMARK  0 active torsions:
REMARK  status: ('A' for Active; 'I' for Inactive)
ROOT
ATOM      1  C4' PXY d   1      -1.268  -1.204   2.258  0.00  0.00     0.077 C 
ATOM      2  C1' PXY d   1       0.499  -2.052  -3.180  0.00  0.00     0.077 C 
ATOM      3  C1  PXY d   1       0.040  -1.817  -1.754  0.00  0.00    -0.082 A 
ATOM      4  C2  PXY d   1      -0.086  -2.845  -0.930  0.00  0.00     0.003 A 
ATOM      5  C3  PXY d   1      -0.531  -2.654   0.353  0.00  0.00     0.003 A 
ATOM      6  C4  PXY d   1      -0.799  -1.392   0.813  0.00  0.00    -0.082 A 
ATOM      7  C5  PXY d   1      -0.663  -0.338  -0.019  0.00  0.00     0.003 A 
ATOM      8  C6  PXY d   1      -0.249  -0.557  -1.330  0.00  0.00     0.003 A 
ENDROOT
TORSDOF 0
ENDMDL
