MODEL 1
REMARK minimizedAffinity -0.0380330756
REMARK minimizedRMSD -1
REMARK  0 active torsions:
REMARK  status: ('A' for Active; 'I' for Inactive)
ROOT
ATOM      1  C4' PXY d   1       0.957   2.782   0.064  0.00  0.00     0.077 C 
ATOM      2  C1' PXY d   1      -0.911  -2.603   1.024  0.00  0.00     0.077 C 
ATOM      3  C1  PXY d   1      -0.421  -1.193   0.759  0.00  0.00    -0.082 A 
ATOM      4  C2  PXY d   1       0.266  -0.554   1.691  0.00  0.00     0.003 A 
ATOM      5  C3  PXY d   1       0.689   0.734   1.481  0.00  0.00     0.003 A 
ATOM      6  C4  PXY d   1       0.451   1.354   0.284  0.00  0.00    -0.082 A 
ATOM      7  C5  PXY d   1      -0.241   0.704  -0.677  0.00  0.00     0.003 A 
ATOM      8  C6  PXY d   1      -0.696  -0.587  -0.428  0.00  0.00     0.003 A 
ENDROOT
TORSDOF 0
ENDMDL
