MODEL 1
REMARK minimizedAffinity -5.54768944
REMARK minimizedRMSD -1
REMARK  0 active torsions:
REMARK  status: ('A' for Active; 'I' for Inactive)
ROOT
ATOM      1  C4' PXY d   1       0.218   2.975   0.616  0.00  0.00     0.077 C 
ATOM      2  C1' PXY d   1       0.477  -2.765  -0.017  0.00  0.00     0.077 C 
ATOM      3  C1  PXY d   1       0.396  -1.260   0.151  0.00  0.00    -0.082 A 
ATOM      4  C2  PXY d   1       1.314  -0.489  -0.410  0.00  0.00     0.003 A 
ATOM      5  C3  PXY d   1       1.274   0.871  -0.241  0.00  0.00     0.003 A 
ATOM      6  C4  PXY d   1       0.255   1.452   0.465  0.00  0.00    -0.082 A 
ATOM      7  C5  PXY d   1      -0.691   0.673   1.031  0.00  0.00     0.003 A 
ATOM      8  C6  PXY d   1      -0.610  -0.709   0.882  0.00  0.00     0.003 A 
ENDROOT
TORSDOF 0
ENDMDL
