MODEL 1
REMARK minimizedAffinity -4.87409925
REMARK minimizedRMSD -1
REMARK  0 active torsions:
REMARK  status: ('A' for Active; 'I' for Inactive)
ROOT
ATOM      1  C4' PXY d   1       2.056   2.478   0.254  0.00  0.00     0.077 C 
ATOM      2  C1' PXY d   1      -0.051  -2.895   0.569  0.00  0.00     0.077 C 
ATOM      3  C1  PXY d   1       0.503  -1.487   0.474  0.00  0.00    -0.082 A 
ATOM      4  C2  PXY d   1       1.059  -0.930   1.537  0.00  0.00     0.003 A 
ATOM      5  C3  PXY d   1       1.536   0.354   1.477  0.00  0.00     0.003 A 
ATOM      6  C4  PXY d   1       1.492   1.056   0.302  0.00  0.00    -0.082 A 
ATOM      7  C5  PXY d   1       0.936   0.490  -0.790  0.00  0.00     0.003 A 
ATOM      8  C6  PXY d   1       0.420  -0.799  -0.697  0.00  0.00     0.003 A 
ENDROOT
TORSDOF 0
ENDMDL
