MODEL 1
REMARK minimizedAffinity -2.4707849
REMARK minimizedRMSD -1
REMARK  0 active torsions:
REMARK  status: ('A' for Active; 'I' for Inactive)
ROOT
ATOM      1  C   UNL d   1      -1.573   1.948   1.964  0.00  0.00     0.172 C 
ATOM      2  N   UNL d   1      -0.304   1.417   1.524  0.00  0.00    -0.070 N 
ATOM      3  C1  UNL d   1       0.066   0.099   1.560  0.00  0.00    -0.004 A 
ATOM      4  C2  UNL d   1       1.345   0.006   1.054  0.00  0.00    -0.047 A 
ATOM      5  C3  UNL d   1       1.757   1.312   0.701  0.00  0.00    -0.047 A 
ATOM      6  C4  UNL d   1       0.718   2.167   1.003  0.00  0.00    -0.004 A 
ENDROOT
TORSDOF 0
ENDMDL
