MODEL 1
REMARK minimizedAffinity 3.30091548
REMARK minimizedRMSD -1
REMARK  0 active torsions:
REMARK  status: ('A' for Active; 'I' for Inactive)
ROOT
ATOM      1  C   UNL d   1      -2.909   2.205   4.013  0.00  0.00     0.172 C 
ATOM      2  N   UNL d   1      -2.095   1.657   2.953  0.00  0.00    -0.070 N 
ATOM      3  C1  UNL d   1      -1.799   0.331   2.779  0.00  0.00    -0.004 A 
ATOM      4  C2  UNL d   1      -1.003   0.220   1.660  0.00  0.00    -0.047 A 
ATOM      5  C3  UNL d   1      -0.812   1.524   1.144  0.00  0.00    -0.047 A 
ATOM      6  C4  UNL d   1      -1.500   2.394   1.964  0.00  0.00    -0.004 A 
ENDROOT
TORSDOF 0
ENDMDL
