MODEL 1
REMARK minimizedAffinity 0.328937173
REMARK minimizedRMSD -1
REMARK  0 active torsions:
REMARK  status: ('A' for Active; 'I' for Inactive)
ROOT
ATOM      1  C   UNL d   1      -2.415   2.427   3.053  0.00  0.00     0.172 C 
ATOM      2  N   UNL d   1      -1.420   1.888   2.155  0.00  0.00    -0.070 N 
ATOM      3  C1  UNL d   1      -0.477   2.616   1.480  0.00  0.00    -0.004 A 
ATOM      4  C2  UNL d   1       0.278   1.738   0.733  0.00  0.00    -0.047 A 
ATOM      5  C3  UNL d   1      -0.230   0.438   0.966  0.00  0.00    -0.047 A 
ATOM      6  C4  UNL d   1      -1.281   0.560   1.851  0.00  0.00    -0.004 A 
ENDROOT
TORSDOF 0
ENDMDL
