MODEL 1
REMARK minimizedAffinity -2.17819047
REMARK minimizedRMSD -1
REMARK  0 active torsions:
REMARK  status: ('A' for Active; 'I' for Inactive)
ROOT
ATOM      1  C   UNL d   1       0.613   2.049   1.010  0.00  0.00     0.172 C 
ATOM      2  N   UNL d   1      -0.604   1.680   1.695  0.00  0.00    -0.070 N 
ATOM      3  C1  UNL d   1      -1.023   0.401   1.944  0.00  0.00    -0.004 A 
ATOM      4  C2  UNL d   1      -2.224   0.474   2.617  0.00  0.00    -0.047 A 
ATOM      5  C3  UNL d   1      -2.537   1.845   2.778  0.00  0.00    -0.047 A 
ATOM      6  C4  UNL d   1      -1.517   2.569   2.198  0.00  0.00    -0.004 A 
ENDROOT
TORSDOF 0
ENDMDL
