MODEL 1
REMARK minimizedAffinity 1.06785679
REMARK minimizedRMSD -1
REMARK  0 active torsions:
REMARK  status: ('A' for Active; 'I' for Inactive)
ROOT
ATOM      1  C   UNL d   1      -2.929  -2.332  -4.586  0.00  0.00     0.172 C 
ATOM      2  N   UNL d   1      -3.528  -1.862  -3.360  0.00  0.00    -0.070 N 
ATOM      3  C1  UNL d   1      -3.864  -2.641  -2.285  0.00  0.00    -0.004 A 
ATOM      4  C2  UNL d   1      -4.407  -1.820  -1.321  0.00  0.00    -0.047 A 
ATOM      5  C3  UNL d   1      -4.399  -0.501  -1.835  0.00  0.00    -0.047 A 
ATOM      6  C4  UNL d   1      -3.850  -0.556  -3.098  0.00  0.00    -0.004 A 
ENDROOT
TORSDOF 0
ENDMDL
