MODEL 1
REMARK minimizedAffinity -1.67427075
REMARK minimizedRMSD -1
REMARK  0 active torsions:
REMARK  status: ('A' for Active; 'I' for Inactive)
ROOT
ATOM      1  C   UNL d   1      -1.882   2.162   2.394  0.00  0.00     0.172 C 
ATOM      2  N   UNL d   1      -0.790   1.494   1.726  0.00  0.00    -0.070 N 
ATOM      3  C1  UNL d   1      -0.802   0.202   1.271  0.00  0.00    -0.004 A 
ATOM      4  C2  UNL d   1       0.424  -0.054   0.696  0.00  0.00    -0.047 A 
ATOM      5  C3  UNL d   1       1.200   1.123   0.809  0.00  0.00    -0.047 A 
ATOM      6  C4  UNL d   1       0.424   2.066   1.451  0.00  0.00    -0.004 A 
ENDROOT
TORSDOF 0
ENDMDL
