MODEL 1
REMARK minimizedAffinity -3.49398637
REMARK minimizedRMSD -1
REMARK  0 active torsions:
REMARK  status: ('A' for Active; 'I' for Inactive)
ROOT
ATOM      1  C   UNL d   1      -1.879  -0.151   2.686  0.00  0.00     0.172 C 
ATOM      2  N   UNL d   1      -1.534   1.147   2.154  0.00  0.00    -0.070 N 
ATOM      3  C1  UNL d   1      -2.339   2.254   2.166  0.00  0.00    -0.004 A 
ATOM      4  C2  UNL d   1      -1.648   3.285   1.567  0.00  0.00    -0.047 A 
ATOM      5  C3  UNL d   1      -0.384   2.779   1.182  0.00  0.00    -0.047 A 
ATOM      6  C4  UNL d   1      -0.340   1.453   1.557  0.00  0.00    -0.004 A 
ENDROOT
TORSDOF 0
ENDMDL
