MODEL 1
REMARK minimizedAffinity -0.614302516
REMARK minimizedRMSD -1
REMARK  0 active torsions:
REMARK  status: ('A' for Active; 'I' for Inactive)
ROOT
ATOM      1  C   UNL d   1      -1.568   2.677   1.587  0.00  0.00     0.172 C 
ATOM      2  N   UNL d   1      -0.670   1.573   1.340  0.00  0.00    -0.070 N 
ATOM      3  C1  UNL d   1       0.687   1.668   1.183  0.00  0.00    -0.004 A 
ATOM      4  C2  UNL d   1       1.177   0.399   0.968  0.00  0.00    -0.047 A 
ATOM      5  C3  UNL d   1       0.077  -0.490   0.995  0.00  0.00    -0.047 A 
ATOM      6  C4  UNL d   1      -1.054   0.263   1.227  0.00  0.00    -0.004 A 
ENDROOT
TORSDOF 0
ENDMDL
