MODEL 1
REMARK minimizedAffinity 1.34137189
REMARK minimizedRMSD -1
REMARK  0 active torsions:
REMARK  status: ('A' for Active; 'I' for Inactive)
ROOT
ATOM      1  C   UNL d   1      -4.020   1.481   3.662  0.00  0.00     0.172 C 
ATOM      2  N   UNL d   1      -2.779   1.327   2.938  0.00  0.00    -0.070 N 
ATOM      3  C1  UNL d   1      -2.094   0.153   2.768  0.00  0.00    -0.004 A 
ATOM      4  C2  UNL d   1      -0.968   0.426   2.023  0.00  0.00    -0.047 A 
ATOM      5  C3  UNL d   1      -0.975   1.812   1.736  0.00  0.00    -0.047 A 
ATOM      6  C4  UNL d   1      -2.108   2.345   2.315  0.00  0.00    -0.004 A 
ENDROOT
TORSDOF 0
ENDMDL
