MODEL 1
REMARK minimizedAffinity -1.26212656
REMARK minimizedRMSD -1
REMARK  0 active torsions:
REMARK  status: ('A' for Active; 'I' for Inactive)
ROOT
ATOM      1  C   UNL d   1       0.780   0.903   1.179  0.00  0.00     0.172 C 
ATOM      2  N   UNL d   1      -0.563   1.104   1.671  0.00  0.00    -0.070 N 
ATOM      3  C1  UNL d   1      -1.108   2.306   2.035  0.00  0.00    -0.004 A 
ATOM      4  C2  UNL d   1      -2.403   2.075   2.446  0.00  0.00    -0.047 A 
ATOM      5  C3  UNL d   1      -2.645   0.686   2.325  0.00  0.00    -0.047 A 
ATOM      6  C4  UNL d   1      -1.489   0.109   1.843  0.00  0.00    -0.004 A 
ENDROOT
TORSDOF 0
ENDMDL
