MODEL 1
REMARK minimizedAffinity -2.00877333
REMARK minimizedRMSD -1
REMARK  0 active torsions:
REMARK  status: ('A' for Active; 'I' for Inactive)
ROOT
ATOM      1  C   UNL d   1      -3.615   1.488   3.772  0.00  0.00     0.172 C 
ATOM      2  N   UNL d   1      -2.476   1.218   2.926  0.00  0.00    -0.070 N 
ATOM      3  C1  UNL d   1      -2.025  -0.024   2.566  0.00  0.00    -0.004 A 
ATOM      4  C2  UNL d   1      -0.923   0.146   1.756  0.00  0.00    -0.047 A 
ATOM      5  C3  UNL d   1      -0.704   1.538   1.624  0.00  0.00    -0.047 A 
ATOM      6  C4  UNL d   1      -1.680   2.178   2.359  0.00  0.00    -0.004 A 
ENDROOT
TORSDOF 0
ENDMDL
