MODEL 1
REMARK minimizedAffinity 1.89318609
REMARK minimizedRMSD -1
REMARK  0 active torsions:
REMARK  status: ('A' for Active; 'I' for Inactive)
ROOT
ATOM      1  C   UNL d   1      -2.340   2.178   2.227  0.00  0.00     0.172 C 
ATOM      2  N   UNL d   1      -1.092   1.518   1.925  0.00  0.00    -0.070 N 
ATOM      3  C1  UNL d   1       0.006   2.107   1.357  0.00  0.00    -0.004 A 
ATOM      4  C2  UNL d   1       0.986   1.146   1.236  0.00  0.00    -0.047 A 
ATOM      5  C3  UNL d   1       0.458  -0.063   1.749  0.00  0.00    -0.047 A 
ATOM      6  C4  UNL d   1      -0.829   0.196   2.168  0.00  0.00    -0.004 A 
ENDROOT
TORSDOF 0
ENDMDL
