MODEL 1
REMARK minimizedAffinity 3.58692026
REMARK minimizedRMSD -1
REMARK  0 active torsions:
REMARK  status: ('A' for Active; 'I' for Inactive)
ROOT
ATOM      1  C   UNL d   1      -0.542  -1.160   2.969  0.00  0.00     0.172 C 
ATOM      2  N   UNL d   1      -0.137   0.056   2.303  0.00  0.00    -0.070 N 
ATOM      3  C1  UNL d   1       1.107   0.308   1.788  0.00  0.00    -0.004 A 
ATOM      4  C2  UNL d   1       1.088   1.571   1.238  0.00  0.00    -0.047 A 
ATOM      5  C3  UNL d   1      -0.212   2.097   1.431  0.00  0.00    -0.047 A 
ATOM      6  C4  UNL d   1      -0.949   1.138   2.093  0.00  0.00    -0.004 A 
ENDROOT
TORSDOF 0
ENDMDL
