MODEL 1
REMARK minimizedAffinity -0.621875644
REMARK minimizedRMSD -1
REMARK  0 active torsions:
REMARK  status: ('A' for Active; 'I' for Inactive)
ROOT
ATOM      1  C   UNL d   1      -1.767   2.360   1.798  0.00  0.00     0.172 C 
ATOM      2  N   UNL d   1      -0.652   1.509   1.453  0.00  0.00    -0.070 N 
ATOM      3  C1  UNL d   1       0.669   1.865   1.504  0.00  0.00    -0.004 A 
ATOM      4  C2  UNL d   1       1.415   0.778   1.100  0.00  0.00    -0.047 A 
ATOM      5  C3  UNL d   1       0.510  -0.266   0.795  0.00  0.00    -0.047 A 
ATOM      6  C4  UNL d   1      -0.763   0.213   1.023  0.00  0.00    -0.004 A 
ENDROOT
TORSDOF 0
ENDMDL
