MODEL 1
REMARK minimizedAffinity -0.540089309
REMARK minimizedRMSD -1
REMARK  0 active torsions:
REMARK  status: ('A' for Active; 'I' for Inactive)
ROOT
ATOM      1  C   UNL d   1      -3.300   1.519   3.878  0.00  0.00     0.172 C 
ATOM      2  N   UNL d   1      -2.199   2.013   3.086  0.00  0.00    -0.070 N 
ATOM      3  C1  UNL d   1      -0.877   1.719   3.285  0.00  0.00    -0.004 A 
ATOM      4  C2  UNL d   1      -0.146   2.383   2.324  0.00  0.00    -0.047 A 
ATOM      5  C3  UNL d   1      -1.061   3.102   1.519  0.00  0.00    -0.047 A 
ATOM      6  C4  UNL d   1      -2.325   2.855   2.012  0.00  0.00    -0.004 A 
ENDROOT
TORSDOF 0
ENDMDL
