MODEL 1
REMARK minimizedAffinity -5.08395767
REMARK minimizedRMSD -1
REMARK  1 active torsions:
REMARK  status: ('A' for Active; 'I' for Inactive)
REMARK    1  A    between atoms: C3_4  and  O_7 
ROOT
ATOM      1  C   UNL d   1      -1.722   0.719   0.669  0.00  0.00    -0.033 A 
ATOM      2  C1  UNL d   1      -2.716   0.286   1.549  0.00  0.00     0.039 A 
ATOM      3  C2  UNL d   1      -2.787  -1.059   1.918  0.00  0.00    -0.080 A 
ATOM      4  C3  UNL d   1      -1.858  -1.959   1.402  0.00  0.00     0.150 A 
ATOM      5  C4  UNL d   1      -0.863  -1.534   0.528  0.00  0.00    -0.007 A 
ATOM      6  C5  UNL d   1      -0.795  -0.191   0.160  0.00  0.00     0.039 A 
ENDROOT
BRANCH   4   7
ATOM      7  O   UNL d   1      -1.890  -3.282   1.729  0.00  0.00    -0.526 OA
ATOM      8  H5  UNL d   1      -2.648  -3.435   2.317  0.00  0.00     0.418 HD
ENDBRANCH   4   7
TORSDOF 1
ENDMDL
