MODEL 1
REMARK minimizedAffinity -2.89011288
REMARK minimizedRMSD -1
REMARK  1 active torsions:
REMARK  status: ('A' for Active; 'I' for Inactive)
REMARK    1  A    between atoms: C3_4  and  O_7 
ROOT
ATOM      1  C   UNL d   1       0.040   0.574  -0.383  0.00  0.00    -0.033 A 
ATOM      2  C1  UNL d   1      -1.201   0.079   0.024  0.00  0.00     0.039 A 
ATOM      3  C2  UNL d   1      -1.274  -1.100   0.768  0.00  0.00    -0.080 A 
ATOM      4  C3  UNL d   1      -0.101  -1.773   1.100  0.00  0.00     0.150 A 
ATOM      5  C4  UNL d   1       1.139  -1.283   0.701  0.00  0.00    -0.007 A 
ATOM      6  C5  UNL d   1       1.210  -0.106  -0.043  0.00  0.00     0.039 A 
ENDROOT
BRANCH   4   7
ATOM      7  O   UNL d   1      -0.123  -2.929   1.821  0.00  0.00    -0.526 OA
ATOM      8  H5  UNL d   1      -1.049  -3.162   2.001  0.00  0.00     0.418 HD
ENDBRANCH   4   7
TORSDOF 1
ENDMDL
