MODEL 1
REMARK minimizedAffinity -5.58130932
REMARK minimizedRMSD -1
REMARK  1 active torsions:
REMARK  status: ('A' for Active; 'I' for Inactive)
REMARK    1  A    between atoms: C3_4  and  O_7 
ROOT
ATOM      1  C   UNL d   1      -2.865  -2.093   1.863  0.00  0.00    -0.033 A 
ATOM      2  C1  UNL d   1      -2.855  -0.735   2.186  0.00  0.00     0.039 A 
ATOM      3  C2  UNL d   1      -1.792   0.074   1.779  0.00  0.00    -0.080 A 
ATOM      4  C3  UNL d   1      -0.747  -0.487   1.049  0.00  0.00     0.150 A 
ATOM      5  C4  UNL d   1      -0.753  -1.838   0.719  0.00  0.00    -0.007 A 
ATOM      6  C5  UNL d   1      -1.815  -2.644   1.128  0.00  0.00     0.039 A 
ENDROOT
BRANCH   4   7
ATOM      7  O   UNL d   1       0.314   0.261   0.634  0.00  0.00    -0.526 OA
ATOM      8  H5  UNL d   1       0.196   1.170   0.958  0.00  0.00     0.418 HD
ENDBRANCH   4   7
TORSDOF 1
ENDMDL
