MODEL 1
REMARK minimizedAffinity -3.96338534
REMARK minimizedRMSD -1
REMARK  1 active torsions:
REMARK  status: ('A' for Active; 'I' for Inactive)
REMARK    1  A    between atoms: C3_4  and  O_7 
ROOT
ATOM      1  C   UNL d   1       0.487  -1.622   0.255  0.00  0.00    -0.033 A 
ATOM      2  C1  UNL d   1       0.329  -0.266  -0.040  0.00  0.00     0.039 A 
ATOM      3  C2  UNL d   1      -0.707   0.462   0.548  0.00  0.00    -0.080 A 
ATOM      4  C3  UNL d   1      -1.576  -0.176   1.429  0.00  0.00     0.150 A 
ATOM      5  C4  UNL d   1      -1.422  -1.525   1.731  0.00  0.00    -0.007 A 
ATOM      6  C5  UNL d   1      -0.387  -2.251   1.142  0.00  0.00     0.039 A 
ENDROOT
BRANCH   4   7
ATOM      7  O   UNL d   1      -2.605   0.492   2.024  0.00  0.00    -0.526 OA
ATOM      8  H5  UNL d   1      -2.605   1.408   1.700  0.00  0.00     0.418 HD
ENDBRANCH   4   7
TORSDOF 1
ENDMDL
