MODEL 1
REMARK minimizedAffinity -3.1456213
REMARK minimizedRMSD -1
REMARK  1 active torsions:
REMARK  status: ('A' for Active; 'I' for Inactive)
REMARK    1  A    between atoms: C3_4  and  O_7 
ROOT
ATOM      1  C   UNL d   1      -1.529  -2.111   1.869  0.00  0.00    -0.033 A 
ATOM      2  C1  UNL d   1      -2.143  -0.858   1.907  0.00  0.00     0.039 A 
ATOM      3  C2  UNL d   1      -1.556   0.229   1.257  0.00  0.00    -0.080 A 
ATOM      4  C3  UNL d   1      -0.357   0.050   0.572  0.00  0.00     0.150 A 
ATOM      5  C4  UNL d   1       0.258  -1.197   0.526  0.00  0.00    -0.007 A 
ATOM      6  C5  UNL d   1      -0.330  -2.281   1.177  0.00  0.00     0.039 A 
ENDROOT
BRANCH   4   7
ATOM      7  O   UNL d   1       0.256   1.082  -0.074  0.00  0.00    -0.526 OA
ATOM      8  H5  UNL d   1      -0.268   1.888   0.067  0.00  0.00     0.418 HD
ENDBRANCH   4   7
TORSDOF 1
ENDMDL
