MODEL 1
REMARK minimizedAffinity -0.173642606
REMARK minimizedRMSD -1
REMARK  1 active torsions:
REMARK  status: ('A' for Active; 'I' for Inactive)
REMARK    1  A    between atoms: C3_4  and  O_7 
ROOT
ATOM      1  C   UNL d   1       0.154   0.958  -0.149  0.00  0.00    -0.033 A 
ATOM      2  C1  UNL d   1       1.182   0.036  -0.357  0.00  0.00     0.039 A 
ATOM      3  C2  UNL d   1       1.128  -1.221   0.247  0.00  0.00    -0.080 A 
ATOM      4  C3  UNL d   1       0.041  -1.545   1.055  0.00  0.00     0.150 A 
ATOM      5  C4  UNL d   1      -0.988  -0.633   1.264  0.00  0.00    -0.007 A 
ATOM      6  C5  UNL d   1      -0.932   0.623   0.661  0.00  0.00     0.039 A 
ENDROOT
BRANCH   4   7
ATOM      7  O   UNL d   1      -0.054  -2.758   1.670  0.00  0.00    -0.526 OA
ATOM      8  H5  UNL d   1       0.743  -3.273   1.458  0.00  0.00     0.418 HD
ENDBRANCH   4   7
TORSDOF 1
ENDMDL
