MODEL 1
REMARK minimizedAffinity -4.57222271
REMARK minimizedRMSD -1
REMARK  1 active torsions:
REMARK  status: ('A' for Active; 'I' for Inactive)
REMARK    1  A    between atoms: C3_4  and  O_7 
ROOT
ATOM      1  C   UNL d   1      -1.258   0.897   0.744  0.00  0.00    -0.033 A 
ATOM      2  C1  UNL d   1      -0.571  -0.021  -0.053  0.00  0.00     0.039 A 
ATOM      3  C2  UNL d   1      -0.859  -1.384   0.044  0.00  0.00    -0.080 A 
ATOM      4  C3  UNL d   1      -1.834  -1.815   0.939  0.00  0.00     0.150 A 
ATOM      5  C4  UNL d   1      -2.525  -0.905   1.733  0.00  0.00    -0.007 A 
ATOM      6  C5  UNL d   1      -2.236   0.456   1.635  0.00  0.00     0.039 A 
ENDROOT
BRANCH   4   7
ATOM      7  O   UNL d   1      -2.146  -3.135   1.072  0.00  0.00    -0.526 OA
ATOM      8  H5  UNL d   1      -1.569  -3.648   0.482  0.00  0.00     0.418 HD
ENDBRANCH   4   7
TORSDOF 1
ENDMDL
