MODEL 1
REMARK minimizedAffinity -5.15959263
REMARK minimizedRMSD -1
REMARK  1 active torsions:
REMARK  status: ('A' for Active; 'I' for Inactive)
REMARK    1  A    between atoms: C3_4  and  O_7 
ROOT
ATOM      1  C   UNL d   1      -1.769  -2.298   1.790  0.00  0.00    -0.033 A 
ATOM      2  C1  UNL d   1      -2.440  -1.115   1.475  0.00  0.00     0.039 A 
ATOM      3  C2  UNL d   1      -1.790  -0.113   0.752  0.00  0.00    -0.080 A 
ATOM      4  C3  UNL d   1      -0.471  -0.307   0.350  0.00  0.00     0.150 A 
ATOM      5  C4  UNL d   1       0.202  -1.484   0.657  0.00  0.00    -0.007 A 
ATOM      6  C5  UNL d   1      -0.448  -2.483   1.380  0.00  0.00     0.039 A 
ENDROOT
BRANCH   4   7
ATOM      7  O   UNL d   1       0.206   0.645  -0.353  0.00  0.00    -0.526 OA
ATOM      8  H5  UNL d   1      -0.375   1.415  -0.468  0.00  0.00     0.418 HD
ENDBRANCH   4   7
TORSDOF 1
ENDMDL
