MODEL 1
REMARK minimizedAffinity 3.86187792
REMARK minimizedRMSD -1
REMARK  1 active torsions:
REMARK  status: ('A' for Active; 'I' for Inactive)
REMARK    1  A    between atoms: C3_4  and  O_7 
ROOT
ATOM      1  C   UNL d   1       0.647   2.227  -3.177  0.00  0.00    -0.033 A 
ATOM      2  C1  UNL d   1      -0.543   1.846  -2.555  0.00  0.00     0.039 A 
ATOM      3  C2  UNL d   1      -0.512   1.022  -1.429  0.00  0.00    -0.080 A 
ATOM      4  C3  UNL d   1       0.714   0.586  -0.934  0.00  0.00     0.150 A 
ATOM      5  C4  UNL d   1       1.905   0.965  -1.546  0.00  0.00    -0.007 A 
ATOM      6  C5  UNL d   1       1.871   1.788  -2.671  0.00  0.00     0.039 A 
ENDROOT
BRANCH   4   7
ATOM      7  O   UNL d   1       0.795  -0.223   0.160  0.00  0.00    -0.526 OA
ATOM      8  H5  UNL d   1      -0.107  -0.426   0.460  0.00  0.00     0.418 HD
ENDBRANCH   4   7
TORSDOF 1
ENDMDL
