MODEL 1
REMARK minimizedAffinity -4.86801338
REMARK minimizedRMSD -1
REMARK  1 active torsions:
REMARK  status: ('A' for Active; 'I' for Inactive)
REMARK    1  A    between atoms: C3_4  and  O_7 
ROOT
ATOM      1  C   UNL d   1      -2.717  -1.731   1.124  0.00  0.00    -0.033 A 
ATOM      2  C1  UNL d   1      -1.808  -2.433   1.919  0.00  0.00     0.039 A 
ATOM      3  C2  UNL d   1      -0.455  -2.090   1.904  0.00  0.00    -0.080 A 
ATOM      4  C3  UNL d   1      -0.024  -1.044   1.092  0.00  0.00     0.150 A 
ATOM      5  C4  UNL d   1      -0.924  -0.339   0.300  0.00  0.00    -0.007 A 
ATOM      6  C5  UNL d   1      -2.275  -0.684   0.316  0.00  0.00     0.039 A 
ENDROOT
BRANCH   4   7
ATOM      7  O   UNL d   1       1.288  -0.676   1.040  0.00  0.00    -0.526 OA
ATOM      8  H5  UNL d   1       1.797  -1.270   1.617  0.00  0.00     0.418 HD
ENDBRANCH   4   7
TORSDOF 1
ENDMDL
