MODEL 1
REMARK minimizedAffinity -3.00581694
REMARK minimizedRMSD -1
REMARK  1 active torsions:
REMARK  status: ('A' for Active; 'I' for Inactive)
REMARK    1  A    between atoms: C3_4  and  O_7 
ROOT
ATOM      1  C   UNL d   1      -3.025  -0.282   1.769  0.00  0.00    -0.033 A 
ATOM      2  C1  UNL d   1      -3.243  -1.567   2.270  0.00  0.00     0.039 A 
ATOM      3  C2  UNL d   1      -2.642  -2.668   1.657  0.00  0.00    -0.080 A 
ATOM      4  C3  UNL d   1      -1.825  -2.471   0.547  0.00  0.00     0.150 A 
ATOM      5  C4  UNL d   1      -1.601  -1.193   0.045  0.00  0.00    -0.007 A 
ATOM      6  C5  UNL d   1      -2.203  -0.095   0.658  0.00  0.00     0.039 A 
ENDROOT
BRANCH   4   7
ATOM      7  O   UNL d   1      -1.221  -3.515  -0.088  0.00  0.00    -0.526 OA
ATOM      8  H5  UNL d   1      -1.490  -4.339   0.351  0.00  0.00     0.418 HD
ENDBRANCH   4   7
TORSDOF 1
ENDMDL
