MODEL 1
REMARK minimizedAffinity -2.31821012
REMARK minimizedRMSD -1
REMARK  1 active torsions:
REMARK  status: ('A' for Active; 'I' for Inactive)
REMARK    1  A    between atoms: C3_4  and  O_7 
ROOT
ATOM      1  C   UNL d   1       0.522  -2.175   1.352  0.00  0.00    -0.033 A 
ATOM      2  C1  UNL d   1       1.218  -1.234   0.591  0.00  0.00     0.039 A 
ATOM      3  C2  UNL d   1       0.723   0.065   0.459  0.00  0.00    -0.080 A 
ATOM      4  C3  UNL d   1      -0.467   0.410   1.094  0.00  0.00     0.150 A 
ATOM      5  C4  UNL d   1      -1.163  -0.521   1.857  0.00  0.00    -0.007 A 
ATOM      6  C5  UNL d   1      -0.668  -1.818   1.987  0.00  0.00     0.039 A 
ENDROOT
BRANCH   4   7
ATOM      7  O   UNL d   1      -0.992   1.664   0.990  0.00  0.00    -0.526 OA
ATOM      8  H5  UNL d   1      -0.419   2.190   0.409  0.00  0.00     0.418 HD
ENDBRANCH   4   7
TORSDOF 1
ENDMDL
