MODEL 1
REMARK minimizedAffinity -5.42097759
REMARK minimizedRMSD -1
REMARK  1 active torsions:
REMARK  status: ('A' for Active; 'I' for Inactive)
REMARK    1  A    between atoms: C3_4  and  O_7 
ROOT
ATOM      1  C   UNL d   1       0.218  -1.466   0.138  0.00  0.00    -0.033 A 
ATOM      2  C1  UNL d   1      -0.723  -2.217   0.845  0.00  0.00     0.039 A 
ATOM      3  C2  UNL d   1      -1.775  -1.579   1.505  0.00  0.00    -0.080 A 
ATOM      4  C3  UNL d   1      -1.875  -0.192   1.451  0.00  0.00     0.150 A 
ATOM      5  C4  UNL d   1      -0.944   0.563   0.746  0.00  0.00    -0.007 A 
ATOM      6  C5  UNL d   1       0.107  -0.076   0.087  0.00  0.00     0.039 A 
ENDROOT
BRANCH   4   7
ATOM      7  O   UNL d   1      -2.882   0.475   2.083  0.00  0.00    -0.526 OA
ATOM      8  H5  UNL d   1      -3.433  -0.173   2.554  0.00  0.00     0.418 HD
ENDBRANCH   4   7
TORSDOF 1
ENDMDL
