MODEL 1
REMARK minimizedAffinity -5.75496674
REMARK minimizedRMSD -1
REMARK  1 active torsions:
REMARK  status: ('A' for Active; 'I' for Inactive)
REMARK    1  A    between atoms: C3_4  and  O_7 
ROOT
ATOM      1  C   UNL d   1      -2.739  -2.319   2.023  0.00  0.00    -0.033 A 
ATOM      2  C1  UNL d   1      -3.085  -0.967   2.038  0.00  0.00     0.039 A 
ATOM      3  C2  UNL d   1      -2.266  -0.027   1.409  0.00  0.00    -0.080 A 
ATOM      4  C3  UNL d   1      -1.106  -0.453   0.768  0.00  0.00     0.150 A 
ATOM      5  C4  UNL d   1      -0.757  -1.799   0.746  0.00  0.00    -0.007 A 
ATOM      6  C5  UNL d   1      -1.575  -2.736   1.376  0.00  0.00     0.039 A 
ENDROOT
BRANCH   4   7
ATOM      7  O   UNL d   1      -0.273   0.428   0.144  0.00  0.00    -0.526 OA
ATOM      8  H5  UNL d   1      -0.626   1.325   0.266  0.00  0.00     0.418 HD
ENDBRANCH   4   7
TORSDOF 1
ENDMDL
