MODEL 1
REMARK minimizedAffinity 4.63134432
REMARK minimizedRMSD -1
REMARK  2 active torsions:
REMARK  status: ('A' for Active; 'I' for Inactive)
REMARK    1  A    between atoms: C1_2  and  C2_3 
REMARK    2  A    between atoms: C2_3  and  C3_4 
ROOT
ATOM      1  C3  UNL d   1      -4.879  -4.214  -5.271  0.00  0.00    -0.075 A 
ATOM      2  C4  UNL d   1      -5.534  -3.180  -5.954  0.00  0.00     0.002 A 
ATOM      3  C5  UNL d   1      -5.881  -2.002  -5.292  0.00  0.00     0.002 A 
ATOM      4  C6  UNL d   1      -5.587  -1.847  -3.939  0.00  0.00    -0.004 A 
ATOM      5  C7  UNL d   1      -4.951  -2.875  -3.246  0.00  0.00     0.002 A 
ATOM      6  C8  UNL d   1      -4.599  -4.053  -3.907  0.00  0.00     0.002 A 
ENDROOT
BRANCH   1   7
ATOM      7  C2  UNL d   1      -4.475  -5.480  -5.988  0.00  0.00     0.056 C 
BRANCH   7   8
ATOM      8  C1  UNL d   1      -3.077  -5.988  -5.618  0.00  0.00     0.007 C 
ATOM      9  C   UNL d   1      -1.966  -5.016  -5.993  0.00  0.00     0.009 C 
ENDBRANCH   7   8
ENDBRANCH   1   7
TORSDOF 2
ENDMDL
