MODEL 1
REMARK minimizedAffinity 12.762269
REMARK minimizedRMSD -1
REMARK  2 active torsions:
REMARK  status: ('A' for Active; 'I' for Inactive)
REMARK    1  A    between atoms: C1_2  and  C2_3 
REMARK    2  A    between atoms: C2_3  and  C3_4 
ROOT
ATOM      1  C3  UNL d   1      -5.239  -3.063  -4.114  0.00  0.00    -0.075 A 
ATOM      2  C4  UNL d   1      -5.901  -4.298  -4.148  0.00  0.00     0.002 A 
ATOM      3  C5  UNL d   1      -5.539  -5.270  -5.082  0.00  0.00     0.002 A 
ATOM      4  C6  UNL d   1      -4.520  -5.016  -5.997  0.00  0.00    -0.004 A 
ATOM      5  C7  UNL d   1      -3.867  -3.785  -5.983  0.00  0.00     0.002 A 
ATOM      6  C8  UNL d   1      -4.224  -2.813  -5.047  0.00  0.00     0.002 A 
ENDROOT
BRANCH   1   7
ATOM      7  C2  UNL d   1      -5.606  -2.018  -3.087  0.00  0.00     0.056 C 
BRANCH   7   8
ATOM      8  C1  UNL d   1      -5.163  -2.362  -1.661  0.00  0.00     0.007 C 
ATOM      9  C   UNL d   1      -4.602  -1.167  -0.902  0.00  0.00     0.009 C 
ENDBRANCH   7   8
ENDBRANCH   1   7
TORSDOF 2
ENDMDL
