MODEL 1
REMARK minimizedAffinity -0.751844466
REMARK minimizedRMSD -1
REMARK  2 active torsions:
REMARK  status: ('A' for Active; 'I' for Inactive)
REMARK    1  A    between atoms: C1_2  and  C2_3 
REMARK    2  A    between atoms: C2_3  and  C3_4 
ROOT
ATOM      1  C3  UNL d   1      -5.338  -3.598  -4.272  0.00  0.00    -0.075 A 
ATOM      2  C4  UNL d   1      -5.997  -4.835  -4.313  0.00  0.00     0.002 A 
ATOM      3  C5  UNL d   1      -5.556  -5.845  -5.169  0.00  0.00     0.002 A 
ATOM      4  C6  UNL d   1      -4.460  -5.628  -6.000  0.00  0.00    -0.004 A 
ATOM      5  C7  UNL d   1      -3.807  -4.397  -5.980  0.00  0.00     0.002 A 
ATOM      6  C8  UNL d   1      -4.244  -3.387  -5.122  0.00  0.00     0.002 A 
ENDROOT
BRANCH   1   7
ATOM      7  C2  UNL d   1      -5.792  -2.512  -3.327  0.00  0.00     0.056 C 
BRANCH   7   8
ATOM      8  C1  UNL d   1      -6.000  -2.986  -1.885  0.00  0.00     0.007 C 
ATOM      9  C   UNL d   1      -5.257  -2.137  -0.861  0.00  0.00     0.009 C 
ENDBRANCH   7   8
ENDBRANCH   1   7
TORSDOF 2
ENDMDL
