MODEL 1
REMARK minimizedAffinity 17.9468937
REMARK minimizedRMSD -1
REMARK  2 active torsions:
REMARK  status: ('A' for Active; 'I' for Inactive)
REMARK    1  A    between atoms: C1_2  and  C2_3 
REMARK    2  A    between atoms: C2_3  and  C3_4 
ROOT
ATOM      1  C3  UNL d   1      -4.765  -2.324  -0.945  0.00  0.00    -0.075 A 
ATOM      2  C4  UNL d   1      -4.105  -3.547  -0.758  0.00  0.00     0.002 A 
ATOM      3  C5  UNL d   1      -4.332  -4.307   0.390  0.00  0.00     0.002 A 
ATOM      4  C6  UNL d   1      -5.212  -3.850   1.368  0.00  0.00    -0.004 A 
ATOM      5  C7  UNL d   1      -5.861  -2.628   1.201  0.00  0.00     0.002 A 
ATOM      6  C8  UNL d   1      -5.639  -1.868   0.051  0.00  0.00     0.002 A 
ENDROOT
BRANCH   1   7
ATOM      7  C2  UNL d   1      -4.546  -1.511  -2.199  0.00  0.00     0.056 C 
BRANCH   7   8
ATOM      8  C1  UNL d   1      -4.875  -2.261  -3.494  0.00  0.00     0.007 C 
ATOM      9  C   UNL d   1      -5.999  -1.616  -4.293  0.00  0.00     0.009 C 
ENDBRANCH   7   8
ENDBRANCH   1   7
TORSDOF 2
ENDMDL
