MODEL 1
REMARK minimizedAffinity 1.919505
REMARK minimizedRMSD -1
REMARK  2 active torsions:
REMARK  status: ('A' for Active; 'I' for Inactive)
REMARK    1  A    between atoms: C1_2  and  C2_3 
REMARK    2  A    between atoms: C2_3  and  C3_4 
ROOT
ATOM      1  C3  UNL d   1      -5.230  -4.089   0.197  0.00  0.00    -0.075 A 
ATOM      2  C4  UNL d   1      -5.599  -3.800   1.519  0.00  0.00     0.002 A 
ATOM      3  C5  UNL d   1      -5.986  -2.510   1.882  0.00  0.00     0.002 A 
ATOM      4  C6  UNL d   1      -5.999  -1.491   0.932  0.00  0.00    -0.004 A 
ATOM      5  C7  UNL d   1      -5.620  -1.762  -0.381  0.00  0.00     0.002 A 
ATOM      6  C8  UNL d   1      -5.236  -3.054  -0.747  0.00  0.00     0.002 A 
ENDROOT
BRANCH   1   7
ATOM      7  C2  UNL d   1      -4.839  -5.490  -0.208  0.00  0.00     0.056 C 
BRANCH   7   8
ATOM      8  C1  UNL d   1      -3.477  -5.938   0.333  0.00  0.00     0.007 C 
ATOM      9  C   UNL d   1      -3.425  -6.000   1.853  0.00  0.00     0.009 C 
ENDBRANCH   7   8
ENDBRANCH   1   7
TORSDOF 2
ENDMDL
