MODEL 1
REMARK minimizedAffinity 13.1213551
REMARK minimizedRMSD -1
REMARK  2 active torsions:
REMARK  status: ('A' for Active; 'I' for Inactive)
REMARK    1  A    between atoms: C1_2  and  C2_3 
REMARK    2  A    between atoms: C2_3  and  C3_4 
ROOT
ATOM      1  C3  UNL d   1       3.021   1.069  -5.600  0.00  0.00    -0.075 A 
ATOM      2  C4  UNL d   1       4.042   0.184  -5.977  0.00  0.00     0.002 A 
ATOM      3  C5  UNL d   1       3.974  -1.165  -5.628  0.00  0.00     0.002 A 
ATOM      4  C6  UNL d   1       2.893  -1.644  -4.892  0.00  0.00    -0.004 A 
ATOM      5  C7  UNL d   1       1.881  -0.770  -4.498  0.00  0.00     0.002 A 
ATOM      6  C8  UNL d   1       1.944   0.579  -4.850  0.00  0.00     0.002 A 
ENDROOT
BRANCH   1   7
ATOM      7  C2  UNL d   1       3.074   2.524  -6.000  0.00  0.00     0.056 C 
BRANCH   7   8
ATOM      8  C1  UNL d   1       4.470   3.149  -5.899  0.00  0.00     0.007 C 
ATOM      9  C   UNL d   1       4.609   4.125  -4.739  0.00  0.00     0.009 C 
ENDBRANCH   7   8
ENDBRANCH   1   7
TORSDOF 2
ENDMDL
