MODEL 1
REMARK minimizedAffinity 11.2536325
REMARK minimizedRMSD -1
REMARK  2 active torsions:
REMARK  status: ('A' for Active; 'I' for Inactive)
REMARK    1  A    between atoms: C1_2  and  C2_3 
REMARK    2  A    between atoms: C2_3  and  C3_4 
ROOT
ATOM      1  C3  UNL d   1       2.424   0.644  -4.575  0.00  0.00    -0.075 A 
ATOM      2  C4  UNL d   1       1.415   1.028  -5.470  0.00  0.00     0.002 A 
ATOM      3  C5  UNL d   1       0.538   0.080  -5.997  0.00  0.00     0.002 A 
ATOM      4  C6  UNL d   1       0.663  -1.262  -5.645  0.00  0.00    -0.004 A 
ATOM      5  C7  UNL d   1       1.672  -1.657  -4.769  0.00  0.00     0.002 A 
ATOM      6  C8  UNL d   1       2.549  -0.710  -4.237  0.00  0.00     0.002 A 
ENDROOT
BRANCH   1   7
ATOM      7  C2  UNL d   1       3.358   1.669  -3.978  0.00  0.00     0.056 C 
BRANCH   7   8
ATOM      8  C1  UNL d   1       3.541   2.923  -4.839  0.00  0.00     0.007 C 
ATOM      9  C   UNL d   1       5.002   3.298  -5.052  0.00  0.00     0.009 C 
ENDBRANCH   7   8
ENDBRANCH   1   7
TORSDOF 2
ENDMDL
