MODEL 1
REMARK minimizedAffinity 13.5095377
REMARK minimizedRMSD -1
REMARK  2 active torsions:
REMARK  status: ('A' for Active; 'I' for Inactive)
REMARK    1  A    between atoms: C1_2  and  C2_3 
REMARK    2  A    between atoms: C2_3  and  C3_4 
ROOT
ATOM      1  C3  UNL d   1       3.328   2.009  -4.921  0.00  0.00    -0.075 A 
ATOM      2  C4  UNL d   1       3.212   2.198  -3.536  0.00  0.00     0.002 A 
ATOM      3  C5  UNL d   1       2.941   1.118  -2.695  0.00  0.00     0.002 A 
ATOM      4  C6  UNL d   1       2.772  -0.158  -3.227  0.00  0.00    -0.004 A 
ATOM      5  C7  UNL d   1       2.868  -0.354  -4.603  0.00  0.00     0.002 A 
ATOM      6  C8  UNL d   1       3.144   0.723  -5.447  0.00  0.00     0.002 A 
ENDROOT
BRANCH   1   7
ATOM      7  C2  UNL d   1       3.650   3.168  -5.834  0.00  0.00     0.056 C 
BRANCH   7   8
ATOM      8  C1  UNL d   1       4.405   4.312  -5.148  0.00  0.00     0.007 C 
ATOM      9  C   UNL d   1       5.909   4.085  -5.084  0.00  0.00     0.009 C 
ENDBRANCH   7   8
ENDBRANCH   1   7
TORSDOF 2
ENDMDL
