MODEL 1
REMARK minimizedAffinity 3.39451742
REMARK minimizedRMSD -1
REMARK  2 active torsions:
REMARK  status: ('A' for Active; 'I' for Inactive)
REMARK    1  A    between atoms: C1_2  and  C2_3 
REMARK    2  A    between atoms: C2_3  and  C3_4 
ROOT
ATOM      1  C3  UNL d   1      -5.282  -3.515  -5.007  0.00  0.00    -0.075 A 
ATOM      2  C4  UNL d   1      -3.932  -3.498  -5.387  0.00  0.00     0.002 A 
ATOM      3  C5  UNL d   1      -3.322  -4.649  -5.885  0.00  0.00     0.002 A 
ATOM      4  C6  UNL d   1      -4.048  -5.832  -6.000  0.00  0.00    -0.004 A 
ATOM      5  C7  UNL d   1      -5.385  -5.866  -5.610  0.00  0.00     0.002 A 
ATOM      6  C8  UNL d   1      -6.000  -4.714  -5.115  0.00  0.00     0.002 A 
ENDROOT
BRANCH   1   7
ATOM      7  C2  UNL d   1      -5.957  -2.265  -4.494  0.00  0.00     0.056 C 
BRANCH   7   8
ATOM      8  C1  UNL d   1      -5.220  -1.590  -3.333  0.00  0.00     0.007 C 
ATOM      9  C   UNL d   1      -4.223  -0.532  -3.789  0.00  0.00     0.009 C 
ENDBRANCH   7   8
ENDBRANCH   1   7
TORSDOF 2
ENDMDL
