MODEL 1
REMARK minimizedAffinity 6.58648205
REMARK minimizedRMSD -1
REMARK  2 active torsions:
REMARK  status: ('A' for Active; 'I' for Inactive)
REMARK    1  A    between atoms: C1_2  and  C2_3 
REMARK    2  A    between atoms: C2_3  and  C3_4 
ROOT
ATOM      1  C3  UNL d   1       3.753  -5.754   3.048  0.00  0.00    -0.075 A 
ATOM      2  C4  UNL d   1       3.105  -5.276   1.900  0.00  0.00     0.002 A 
ATOM      3  C5  UNL d   1       1.732  -5.025   1.914  0.00  0.00     0.002 A 
ATOM      4  C6  UNL d   1       0.990  -5.260   3.069  0.00  0.00    -0.004 A 
ATOM      5  C7  UNL d   1       1.621  -5.751   4.210  0.00  0.00     0.002 A 
ATOM      6  C8  UNL d   1       2.995  -5.998   4.201  0.00  0.00     0.002 A 
ENDROOT
BRANCH   1   7
ATOM      7  C2  UNL d   1       5.243  -5.999   3.048  0.00  0.00     0.056 C 
BRANCH   7   8
ATOM      8  C1  UNL d   1       5.995  -5.265   4.163  0.00  0.00     0.007 C 
ATOM      9  C   UNL d   1       5.901  -5.965   5.512  0.00  0.00     0.009 C 
ENDBRANCH   7   8
ENDBRANCH   1   7
TORSDOF 2
ENDMDL
