MODEL 1
REMARK minimizedAffinity 5.48544264
REMARK minimizedRMSD -1
REMARK  2 active torsions:
REMARK  status: ('A' for Active; 'I' for Inactive)
REMARK    1  A    between atoms: C1_2  and  C2_3 
REMARK    2  A    between atoms: C2_3  and  C3_4 
ROOT
ATOM      1  C3  UNL d   1      -3.501  -0.986   0.680  0.00  0.00    -0.075 A 
ATOM      2  C4  UNL d   1      -2.229  -0.638   1.157  0.00  0.00     0.002 A 
ATOM      3  C5  UNL d   1      -1.942   0.680   1.514  0.00  0.00     0.002 A 
ATOM      4  C6  UNL d   1      -2.918   1.666   1.390  0.00  0.00    -0.004 A 
ATOM      5  C7  UNL d   1      -4.180   1.335   0.903  0.00  0.00     0.002 A 
ATOM      6  C8  UNL d   1      -4.471   0.017   0.548  0.00  0.00     0.002 A 
ENDROOT
BRANCH   1   7
ATOM      7  C2  UNL d   1      -3.827  -2.416   0.320  0.00  0.00     0.056 C 
BRANCH   7   8
ATOM      8  C1  UNL d   1      -2.595  -3.298   0.092  0.00  0.00     0.007 C 
ATOM      9  C   UNL d   1      -2.800  -4.741   0.532  0.00  0.00     0.009 C 
ENDBRANCH   7   8
ENDBRANCH   1   7
TORSDOF 2
ENDMDL
