MODEL 1
REMARK minimizedAffinity 12.4067593
REMARK minimizedRMSD -1
REMARK  2 active torsions:
REMARK  status: ('A' for Active; 'I' for Inactive)
REMARK    1  A    between atoms: C1_2  and  C2_3 
REMARK    2  A    between atoms: C2_3  and  C3_4 
ROOT
ATOM      1  C3  UNL d   1      -3.845   4.004   3.992  0.00  0.00    -0.075 A 
ATOM      2  C4  UNL d   1      -3.548   5.051   4.877  0.00  0.00     0.002 A 
ATOM      3  C5  UNL d   1      -4.451   5.411   5.877  0.00  0.00     0.002 A 
ATOM      4  C6  UNL d   1      -5.664   4.738   6.000  0.00  0.00    -0.004 A 
ATOM      5  C7  UNL d   1      -5.977   3.708   5.117  0.00  0.00     0.002 A 
ATOM      6  C8  UNL d   1      -5.074   3.342   4.117  0.00  0.00     0.002 A 
ENDROOT
BRANCH   1   7
ATOM      7  C2  UNL d   1      -2.860   3.590   2.926  0.00  0.00     0.056 C 
BRANCH   7   8
ATOM      8  C1  UNL d   1      -3.313   2.388   2.091  0.00  0.00     0.007 C 
ATOM      9  C   UNL d   1      -2.202   1.376   1.842  0.00  0.00     0.009 C 
ENDBRANCH   7   8
ENDBRANCH   1   7
TORSDOF 2
ENDMDL
