MODEL 1
REMARK minimizedAffinity 7.9650507
REMARK minimizedRMSD -1
REMARK  2 active torsions:
REMARK  status: ('A' for Active; 'I' for Inactive)
REMARK    1  A    between atoms: C1_2  and  C2_3 
REMARK    2  A    between atoms: C2_3  and  C3_4 
ROOT
ATOM      1  C3  UNL d   1      -4.914   3.887   3.950  0.00  0.00    -0.075 A 
ATOM      2  C4  UNL d   1      -3.822   4.754   4.100  0.00  0.00     0.002 A 
ATOM      3  C5  UNL d   1      -3.807   5.704   5.122  0.00  0.00     0.002 A 
ATOM      4  C6  UNL d   1      -4.885   5.805   5.998  0.00  0.00    -0.004 A 
ATOM      5  C7  UNL d   1      -5.982   4.960   5.848  0.00  0.00     0.002 A 
ATOM      6  C8  UNL d   1      -5.998   4.006   4.829  0.00  0.00     0.002 A 
ENDROOT
BRANCH   1   7
ATOM      7  C2  UNL d   1      -4.923   2.838   2.864  0.00  0.00     0.056 C 
BRANCH   7   8
ATOM      8  C1  UNL d   1      -3.822   3.017   1.813  0.00  0.00     0.007 C 
ATOM      9  C   UNL d   1      -3.456   1.722   1.100  0.00  0.00     0.009 C 
ENDBRANCH   7   8
ENDBRANCH   1   7
TORSDOF 2
ENDMDL
