MODEL 1
REMARK minimizedAffinity 9.1961813
REMARK minimizedRMSD -1
REMARK  2 active torsions:
REMARK  status: ('A' for Active; 'I' for Inactive)
REMARK    1  A    between atoms: C1_2  and  C2_3 
REMARK    2  A    between atoms: C2_3  and  C3_4 
ROOT
ATOM      1  C3  UNL d   1      -1.263   1.412   2.331  0.00  0.00    -0.075 A 
ATOM      2  C4  UNL d   1      -0.898   0.099   2.662  0.00  0.00     0.002 A 
ATOM      3  C5  UNL d   1      -1.651  -0.982   2.206  0.00  0.00     0.002 A 
ATOM      4  C6  UNL d   1      -2.783  -0.766   1.423  0.00  0.00    -0.004 A 
ATOM      5  C7  UNL d   1      -3.165   0.535   1.101  0.00  0.00     0.002 A 
ATOM      6  C8  UNL d   1      -2.410   1.619   1.553  0.00  0.00     0.002 A 
ENDROOT
BRANCH   1   7
ATOM      7  C2  UNL d   1      -0.435   2.586   2.797  0.00  0.00     0.056 C 
BRANCH   7   8
ATOM      8  C1  UNL d   1       1.029   2.240   3.087  0.00  0.00     0.007 C 
ATOM      9  C   UNL d   1       1.947   2.466   1.893  0.00  0.00     0.009 C 
ENDBRANCH   7   8
ENDBRANCH   1   7
TORSDOF 2
ENDMDL
