MODEL 1
REMARK minimizedAffinity 0.986539006
REMARK minimizedRMSD -1
REMARK  2 active torsions:
REMARK  status: ('A' for Active; 'I' for Inactive)
REMARK    1  A    between atoms: C1_2  and  C2_3 
REMARK    2  A    between atoms: C2_3  and  C3_4 
ROOT
ATOM      1  C3  UNL d   1      -2.800  -1.477   0.614  0.00  0.00    -0.075 A 
ATOM      2  C4  UNL d   1      -1.979  -2.527   0.179  0.00  0.00     0.002 A 
ATOM      3  C5  UNL d   1      -2.520  -3.607  -0.520  0.00  0.00     0.002 A 
ATOM      4  C6  UNL d   1      -3.887  -3.656  -0.783  0.00  0.00    -0.004 A 
ATOM      5  C7  UNL d   1      -4.715  -2.626  -0.340  0.00  0.00     0.002 A 
ATOM      6  C8  UNL d   1      -4.176  -1.543   0.355  0.00  0.00     0.002 A 
ENDROOT
BRANCH   1   7
ATOM      7  C2  UNL d   1      -2.217  -0.292   1.345  0.00  0.00     0.056 C 
BRANCH   7   8
ATOM      8  C1  UNL d   1      -2.574   1.062   0.723  0.00  0.00     0.007 C 
ATOM      9  C   UNL d   1      -3.689   1.788   1.463  0.00  0.00     0.009 C 
ENDBRANCH   7   8
ENDBRANCH   1   7
TORSDOF 2
ENDMDL
