MODEL 1
REMARK minimizedAffinity 12.9993534
REMARK minimizedRMSD -1
REMARK  2 active torsions:
REMARK  status: ('A' for Active; 'I' for Inactive)
REMARK    1  A    between atoms: C1_2  and  C2_3 
REMARK    2  A    between atoms: C2_3  and  C3_4 
ROOT
ATOM      1  C3  UNL d   1       2.909   2.946  -2.596  0.00  0.00    -0.075 A 
ATOM      2  C4  UNL d   1       2.120   3.992  -2.096  0.00  0.00     0.002 A 
ATOM      3  C5  UNL d   1       2.161   5.255  -2.686  0.00  0.00     0.002 A 
ATOM      4  C6  UNL d   1       2.997   5.492  -3.775  0.00  0.00    -0.004 A 
ATOM      5  C7  UNL d   1       3.798   4.465  -4.270  0.00  0.00     0.002 A 
ATOM      6  C8  UNL d   1       3.756   3.199  -3.684  0.00  0.00     0.002 A 
ENDROOT
BRANCH   1   7
ATOM      7  C2  UNL d   1       2.848   1.569  -1.980  0.00  0.00     0.056 C 
BRANCH   7   8
ATOM      8  C1  UNL d   1       1.822   0.638  -2.635  0.00  0.00     0.007 C 
ATOM      9  C   UNL d   1       2.447  -0.366  -3.593  0.00  0.00     0.009 C 
ENDBRANCH   7   8
ENDBRANCH   1   7
TORSDOF 2
ENDMDL
