MODEL 1
REMARK minimizedAffinity 9.92597961
REMARK minimizedRMSD -1
REMARK  2 active torsions:
REMARK  status: ('A' for Active; 'I' for Inactive)
REMARK    1  A    between atoms: C1_2  and  C2_3 
REMARK    2  A    between atoms: C2_3  and  C3_4 
ROOT
ATOM      1  C3  UNL d   1      -3.659   0.759   2.399  0.00  0.00    -0.075 A 
ATOM      2  C4  UNL d   1      -3.680   0.818   3.800  0.00  0.00     0.002 A 
ATOM      3  C5  UNL d   1      -4.838   0.493   4.506  0.00  0.00     0.002 A 
ATOM      4  C6  UNL d   1      -5.991   0.115   3.822  0.00  0.00    -0.004 A 
ATOM      5  C7  UNL d   1      -5.987   0.068   2.429  0.00  0.00     0.002 A 
ATOM      6  C8  UNL d   1      -4.828   0.389   1.720  0.00  0.00     0.002 A 
ENDROOT
BRANCH   1   7
ATOM      7  C2  UNL d   1      -2.400   1.081   1.630  0.00  0.00     0.056 C 
BRANCH   7   8
ATOM      8  C1  UNL d   1      -1.268   0.069   1.834  0.00  0.00     0.007 C 
ATOM      9  C   UNL d   1       0.039   0.711   2.279  0.00  0.00     0.009 C 
ENDBRANCH   7   8
ENDBRANCH   1   7
TORSDOF 2
ENDMDL
