MODEL 1
REMARK minimizedAffinity 5.31092596
REMARK minimizedRMSD -1
REMARK  1 active torsions:
REMARK  status: ('A' for Active; 'I' for Inactive)
REMARK    1  A    between atoms: C1_2  and  C2_3 
ROOT
ATOM      1  C2  UNL d   1       1.303   1.283  -0.031  0.00  0.00    -0.077 A 
ATOM      2  C3  UNL d   1       1.502   1.806  -1.316  0.00  0.00     0.002 A 
ATOM      3  C4  UNL d   1       1.099   1.085  -2.442  0.00  0.00     0.002 A 
ATOM      4  C5  UNL d   1       0.492  -0.160  -2.294  0.00  0.00    -0.004 A 
ATOM      5  C6  UNL d   1       0.292  -0.690  -1.019  0.00  0.00     0.002 A 
ATOM      6  C7  UNL d   1       0.695   0.029   0.107  0.00  0.00     0.002 A 
ENDROOT
BRANCH   1   7
ATOM      7  C1  UNL d   1       1.692   2.081   1.187  0.00  0.00     0.055 C 
ATOM      8  C   UNL d   1       2.192   1.177   2.304  0.00  0.00     0.019 C 
ENDBRANCH   1   7
TORSDOF 1
ENDMDL
