MODEL 1
REMARK minimizedAffinity 3.35735917
REMARK minimizedRMSD -1
REMARK  1 active torsions:
REMARK  status: ('A' for Active; 'I' for Inactive)
REMARK    1  A    between atoms: C1_2  and  C2_3 
ROOT
ATOM      1  C2  UNL d   1       1.243   1.587   0.082  0.00  0.00    -0.077 A 
ATOM      2  C3  UNL d   1       1.227   2.208  -1.175  0.00  0.00     0.002 A 
ATOM      3  C4  UNL d   1       1.162   1.442  -2.341  0.00  0.00     0.002 A 
ATOM      4  C5  UNL d   1       1.108   0.052  -2.260  0.00  0.00    -0.004 A 
ATOM      5  C6  UNL d   1       1.126  -0.575  -1.015  0.00  0.00     0.002 A 
ATOM      6  C7  UNL d   1       1.192   0.189   0.151  0.00  0.00     0.002 A 
ENDROOT
BRANCH   1   7
ATOM      7  C1  UNL d   1       1.263   2.414   1.341  0.00  0.00     0.055 C 
ATOM      8  C   UNL d   1       2.248   1.852   2.356  0.00  0.00     0.019 C 
ENDBRANCH   1   7
TORSDOF 1
ENDMDL
