MODEL 1
REMARK minimizedAffinity 6.9822216
REMARK minimizedRMSD -1
REMARK  1 active torsions:
REMARK  status: ('A' for Active; 'I' for Inactive)
REMARK    1  A    between atoms: C1_2  and  C2_3 
ROOT
ATOM      1  C2  UNL d   1       1.332   2.194  -1.253  0.00  0.00    -0.077 A 
ATOM      2  C3  UNL d   1       1.657   2.035   0.102  0.00  0.00     0.002 A 
ATOM      3  C4  UNL d   1       1.541   0.785   0.714  0.00  0.00     0.002 A 
ATOM      4  C5  UNL d   1       1.105  -0.315  -0.022  0.00  0.00    -0.004 A 
ATOM      5  C6  UNL d   1       0.777  -0.166  -1.369  0.00  0.00     0.002 A 
ATOM      6  C7  UNL d   1       0.891   1.082  -1.982  0.00  0.00     0.002 A 
ENDROOT
BRANCH   1   7
ATOM      7  C1  UNL d   1       1.503   3.530  -1.927  0.00  0.00     0.055 C 
ATOM      8  C   UNL d   1       1.990   4.587  -0.946  0.00  0.00     0.019 C 
ENDBRANCH   1   7
TORSDOF 1
ENDMDL
