MODEL 1
REMARK minimizedAffinity -0.259215087
REMARK minimizedRMSD -1
REMARK  1 active torsions:
REMARK  status: ('A' for Active; 'I' for Inactive)
REMARK    1  A    between atoms: C1_2  and  C2_3 
ROOT
ATOM      1  C2  UNL d   1       1.087   0.814   0.067  0.00  0.00    -0.077 A 
ATOM      2  C3  UNL d   1       0.960  -0.578   0.175  0.00  0.00     0.002 A 
ATOM      3  C4  UNL d   1       0.915  -1.373  -0.972  0.00  0.00     0.002 A 
ATOM      4  C5  UNL d   1       1.000  -0.787  -2.233  0.00  0.00    -0.004 A 
ATOM      5  C6  UNL d   1       1.124   0.597  -2.350  0.00  0.00     0.002 A 
ATOM      6  C7  UNL d   1       1.168   1.394  -1.205  0.00  0.00     0.002 A 
ENDROOT
BRANCH   1   7
ATOM      7  C1  UNL d   1       1.186   1.669   1.304  0.00  0.00     0.055 C 
ATOM      8  C   UNL d   1       2.284   1.174   2.233  0.00  0.00     0.019 C 
ENDBRANCH   1   7
TORSDOF 1
ENDMDL
