MODEL 1
REMARK minimizedAffinity 2.18993855
REMARK minimizedRMSD -1
REMARK  1 active torsions:
REMARK  status: ('A' for Active; 'I' for Inactive)
REMARK    1  A    between atoms: C1_2  and  C2_3 
ROOT
ATOM      1  C2  UNL d   1       1.195   0.266  -1.408  0.00  0.00    -0.077 A 
ATOM      2  C3  UNL d   1       0.777   0.192  -0.072  0.00  0.00     0.002 A 
ATOM      3  C4  UNL d   1       0.987   1.267   0.794  0.00  0.00     0.002 A 
ATOM      4  C5  UNL d   1       1.610   2.425   0.332  0.00  0.00    -0.004 A 
ATOM      5  C6  UNL d   1       2.030   2.507  -0.994  0.00  0.00     0.002 A 
ATOM      6  C7  UNL d   1       1.823   1.433  -1.861  0.00  0.00     0.002 A 
ENDROOT
BRANCH   1   7
ATOM      7  C1  UNL d   1       0.925  -0.873  -2.356  0.00  0.00     0.055 C 
ATOM      8  C   UNL d   1       1.769  -0.754  -3.618  0.00  0.00     0.019 C 
ENDBRANCH   1   7
TORSDOF 1
ENDMDL
