MODEL 1
REMARK minimizedAffinity 1.48083997
REMARK minimizedRMSD -1
REMARK  1 active torsions:
REMARK  status: ('A' for Active; 'I' for Inactive)
REMARK    1  A    between atoms: C1_2  and  C2_3 
ROOT
ATOM      1  C2  UNL d   1      -2.789   1.630   3.829  0.00  0.00    -0.077 A 
ATOM      2  C3  UNL d   1      -3.933   1.033   3.281  0.00  0.00     0.002 A 
ATOM      3  C4  UNL d   1      -4.408   1.434   2.031  0.00  0.00     0.002 A 
ATOM      4  C5  UNL d   1      -3.744   2.428   1.317  0.00  0.00    -0.004 A 
ATOM      5  C6  UNL d   1      -2.606   3.030   1.854  0.00  0.00     0.002 A 
ATOM      6  C7  UNL d   1      -2.130   2.632   3.104  0.00  0.00     0.002 A 
ENDROOT
BRANCH   1   7
ATOM      7  C1  UNL d   1      -2.246   1.165   5.155  0.00  0.00     0.055 C 
ATOM      8  C   UNL d   1      -2.982  -0.070   5.653  0.00  0.00     0.019 C 
ENDBRANCH   1   7
TORSDOF 1
ENDMDL
