MODEL 1
REMARK minimizedAffinity 0.853086293
REMARK minimizedRMSD -1
REMARK  1 active torsions:
REMARK  status: ('A' for Active; 'I' for Inactive)
REMARK    1  A    between atoms: C1_2  and  C2_3 
ROOT
ATOM      1  C2  UNL d   1       0.902   1.006   0.176  0.00  0.00    -0.077 A 
ATOM      2  C3  UNL d   1       1.508   1.763  -0.837  0.00  0.00     0.002 A 
ATOM      3  C4  UNL d   1       1.603   1.257  -2.135  0.00  0.00     0.002 A 
ATOM      4  C5  UNL d   1       1.091  -0.004  -2.432  0.00  0.00    -0.004 A 
ATOM      5  C6  UNL d   1       0.489  -0.765  -1.431  0.00  0.00     0.002 A 
ATOM      6  C7  UNL d   1       0.394  -0.262  -0.133  0.00  0.00     0.002 A 
ENDROOT
BRANCH   1   7
ATOM      7  C1  UNL d   1       0.754   1.570   1.566  0.00  0.00     0.055 C 
ATOM      8  C   UNL d   1       1.530   0.746   2.583  0.00  0.00     0.019 C 
ENDBRANCH   1   7
TORSDOF 1
ENDMDL
