MODEL 1
REMARK minimizedAffinity 0.047420267
REMARK minimizedRMSD -1
REMARK  1 active torsions:
REMARK  status: ('A' for Active; 'I' for Inactive)
REMARK    1  A    between atoms: C1_2  and  C2_3 
ROOT
ATOM      1  C2  UNL d   1       0.994   0.965   0.562  0.00  0.00    -0.077 A 
ATOM      2  C3  UNL d   1       0.437   1.545  -0.587  0.00  0.00     0.002 A 
ATOM      3  C4  UNL d   1       0.142   0.759  -1.702  0.00  0.00     0.002 A 
ATOM      4  C5  UNL d   1       0.397  -0.611  -1.679  0.00  0.00    -0.004 A 
ATOM      5  C6  UNL d   1       0.952  -1.196  -0.542  0.00  0.00     0.002 A 
ATOM      6  C7  UNL d   1       1.249  -0.412   0.573  0.00  0.00     0.002 A 
ENDROOT
BRANCH   1   7
ATOM      7  C1  UNL d   1       1.267   1.803   1.784  0.00  0.00     0.055 C 
ATOM      8  C   UNL d   1       1.342   0.944   3.038  0.00  0.00     0.019 C 
ENDBRANCH   1   7
TORSDOF 1
ENDMDL
