MODEL 1
REMARK minimizedAffinity -2.20891309
REMARK minimizedRMSD -1
REMARK  1 active torsions:
REMARK  status: ('A' for Active; 'I' for Inactive)
REMARK    1  A    between atoms: C1_2  and  C2_3 
ROOT
ATOM      1  C2  UNL d   1       0.964  -1.480  -0.728  0.00  0.00    -0.077 A 
ATOM      2  C3  UNL d   1       0.455  -0.362  -0.053  0.00  0.00     0.002 A 
ATOM      3  C4  UNL d   1       0.779   0.928  -0.478  0.00  0.00     0.002 A 
ATOM      4  C5  UNL d   1       1.609   1.112  -1.582  0.00  0.00    -0.004 A 
ATOM      5  C6  UNL d   1       2.122   0.007  -2.259  0.00  0.00     0.002 A 
ATOM      6  C7  UNL d   1       1.801  -1.283  -1.835  0.00  0.00     0.002 A 
ENDROOT
BRANCH   1   7
ATOM      7  C1  UNL d   1       0.577  -2.871  -0.301  0.00  0.00     0.055 C 
ATOM      8  C   UNL d   1      -0.521  -3.437  -1.190  0.00  0.00     0.019 C 
ENDBRANCH   1   7
TORSDOF 1
ENDMDL
