MODEL 1
REMARK minimizedAffinity 0.99311626
REMARK minimizedRMSD -1
REMARK  1 active torsions:
REMARK  status: ('A' for Active; 'I' for Inactive)
REMARK    1  A    between atoms: C1_2  and  C2_3 
ROOT
ATOM      1  C2  UNL d   1       2.354   1.451   1.126  0.00  0.00    -0.077 A 
ATOM      2  C3  UNL d   1       2.894   0.875  -0.032  0.00  0.00     0.002 A 
ATOM      3  C4  UNL d   1       2.058   0.286  -0.983  0.00  0.00     0.002 A 
ATOM      4  C5  UNL d   1       0.679   0.271  -0.787  0.00  0.00    -0.004 A 
ATOM      5  C6  UNL d   1       0.133   0.839   0.363  0.00  0.00     0.002 A 
ATOM      6  C7  UNL d   1       0.967   1.428   1.315  0.00  0.00     0.002 A 
ENDROOT
BRANCH   1   7
ATOM      7  C1  UNL d   1       3.250   2.130   2.129  0.00  0.00     0.055 C 
ATOM      8  C   UNL d   1       2.770   3.542   2.433  0.00  0.00     0.019 C 
ENDBRANCH   1   7
TORSDOF 1
ENDMDL
