MODEL 1
REMARK minimizedAffinity 3.03716826
REMARK minimizedRMSD -1
REMARK  1 active torsions:
REMARK  status: ('A' for Active; 'I' for Inactive)
REMARK    1  A    between atoms: C1_2  and  C2_3 
ROOT
ATOM      1  C2  UNL d   1       1.395  -0.649  -0.221  0.00  0.00    -0.077 A 
ATOM      2  C3  UNL d   1       1.083  -0.525  -1.582  0.00  0.00     0.002 A 
ATOM      3  C4  UNL d   1       0.876   0.735  -2.147  0.00  0.00     0.002 A 
ATOM      4  C5  UNL d   1       0.984   1.880  -1.361  0.00  0.00    -0.004 A 
ATOM      5  C6  UNL d   1       1.292   1.767  -0.005  0.00  0.00     0.002 A 
ATOM      6  C7  UNL d   1       1.498   0.508   0.562  0.00  0.00     0.002 A 
ENDROOT
BRANCH   1   7
ATOM      7  C1  UNL d   1       1.667  -2.003   0.379  0.00  0.00     0.055 C 
ATOM      8  C   UNL d   1       3.145  -2.355   0.306  0.00  0.00     0.019 C 
ENDBRANCH   1   7
TORSDOF 1
ENDMDL
