MODEL 1
REMARK minimizedAffinity 5.71455717
REMARK minimizedRMSD -1
REMARK  1 active torsions:
REMARK  status: ('A' for Active; 'I' for Inactive)
REMARK    1  A    between atoms: C1_2  and  C2_3 
ROOT
ATOM      1  C2  UNL d   1      -3.080   2.060   3.117  0.00  0.00    -0.077 A 
ATOM      2  C3  UNL d   1      -2.314   3.160   2.706  0.00  0.00     0.002 A 
ATOM      3  C4  UNL d   1      -2.339   3.580   1.375  0.00  0.00     0.002 A 
ATOM      4  C5  UNL d   1      -3.132   2.910   0.446  0.00  0.00    -0.004 A 
ATOM      5  C6  UNL d   1      -3.896   1.814   0.845  0.00  0.00     0.002 A 
ATOM      6  C7  UNL d   1      -3.871   1.391   2.175  0.00  0.00     0.002 A 
ENDROOT
BRANCH   1   7
ATOM      7  C1  UNL d   1      -3.092   1.635   4.563  0.00  0.00     0.055 C 
ATOM      8  C   UNL d   1      -2.218   0.409   4.787  0.00  0.00     0.019 C 
ENDBRANCH   1   7
TORSDOF 1
ENDMDL
