MODEL 1
REMARK minimizedAffinity 1.29064894
REMARK minimizedRMSD -1
REMARK  1 active torsions:
REMARK  status: ('A' for Active; 'I' for Inactive)
REMARK    1  A    between atoms: C1_2  and  C2_3 
ROOT
ATOM      1  C2  UNL d   1       0.809  -1.063  -0.239  0.00  0.00    -0.077 A 
ATOM      2  C3  UNL d   1       1.421  -0.615   0.941  0.00  0.00     0.002 A 
ATOM      3  C4  UNL d   1       1.383   0.737   1.287  0.00  0.00     0.002 A 
ATOM      4  C5  UNL d   1       0.731   1.651   0.462  0.00  0.00    -0.004 A 
ATOM      5  C6  UNL d   1       0.121   1.216  -0.714  0.00  0.00     0.002 A 
ATOM      6  C7  UNL d   1       0.160  -0.134  -1.063  0.00  0.00     0.002 A 
ENDROOT
BRANCH   1   7
ATOM      7  C1  UNL d   1       0.807  -2.528  -0.589  0.00  0.00     0.055 C 
ATOM      8  C   UNL d   1      -0.555  -2.971  -1.105  0.00  0.00     0.019 C 
ENDBRANCH   1   7
TORSDOF 1
ENDMDL
