MODEL 1
REMARK minimizedAffinity 8.92496777
REMARK minimizedRMSD -1
REMARK  2 active torsions:
REMARK  status: ('A' for Active; 'I' for Inactive)
REMARK    1  A    between atoms: C1_2  and  C2_3 
REMARK    2  A    between atoms: C2_3  and  C3_4 
ROOT
ATOM      1  C3  UNL d   1       0.081   1.266   3.104  0.00  0.00    -0.075 A 
ATOM      2  C4  UNL d   1      -0.832   1.056   2.060  0.00  0.00     0.002 A 
ATOM      3  C5  UNL d   1      -1.497   2.133   1.474  0.00  0.00     0.002 A 
ATOM      4  C6  UNL d   1      -1.266   3.429   1.929  0.00  0.00    -0.004 A 
ATOM      5  C7  UNL d   1      -0.374   3.648   2.976  0.00  0.00     0.002 A 
ATOM      6  C8  UNL d   1       0.297   2.572   3.562  0.00  0.00     0.002 A 
ENDROOT
BRANCH   1   7
ATOM      7  C2  UNL d   1       0.827   0.107   3.723  0.00  0.00     0.056 C 
BRANCH   7   8
ATOM      8  C1  UNL d   1       0.274  -1.268   3.335  0.00  0.00     0.007 C 
ATOM      9  C   UNL d   1       1.186  -2.418   3.743  0.00  0.00     0.009 C 
ENDBRANCH   7   8
ENDBRANCH   1   7
TORSDOF 2
ENDMDL
