MODEL 1
REMARK minimizedAffinity 10.5808468
REMARK minimizedRMSD -1
REMARK  2 active torsions:
REMARK  status: ('A' for Active; 'I' for Inactive)
REMARK    1  A    between atoms: C1_2  and  C2_3 
REMARK    2  A    between atoms: C2_3  and  C3_4 
ROOT
ATOM      1  C3  UNL d   1      -5.356   1.516  -2.980  0.00  0.00    -0.075 A 
ATOM      2  C4  UNL d   1      -6.000   1.055  -1.822  0.00  0.00     0.002 A 
ATOM      3  C5  UNL d   1      -5.388   0.106  -1.002  0.00  0.00     0.002 A 
ATOM      4  C6  UNL d   1      -4.133  -0.400  -1.333  0.00  0.00    -0.004 A 
ATOM      5  C7  UNL d   1      -3.492   0.039  -2.489  0.00  0.00     0.002 A 
ATOM      6  C8  UNL d   1      -4.100   0.991  -3.310  0.00  0.00     0.002 A 
ENDROOT
BRANCH   1   7
ATOM      7  C2  UNL d   1      -6.000   2.563  -3.857  0.00  0.00     0.056 C 
BRANCH   7   8
ATOM      8  C1  UNL d   1      -5.958   3.979  -3.270  0.00  0.00     0.007 C 
ATOM      9  C   UNL d   1      -4.910   4.869  -3.926  0.00  0.00     0.009 C 
ENDBRANCH   7   8
ENDBRANCH   1   7
TORSDOF 2
ENDMDL
