MODEL 1
REMARK minimizedAffinity 6.25271416
REMARK minimizedRMSD -1
REMARK  2 active torsions:
REMARK  status: ('A' for Active; 'I' for Inactive)
REMARK    1  A    between atoms: C1_2  and  C2_3 
REMARK    2  A    between atoms: C2_3  and  C3_4 
ROOT
ATOM      1  C3  UNL d   1       3.373  -0.377  -0.810  0.00  0.00    -0.075 A 
ATOM      2  C4  UNL d   1       3.728  -0.908  -2.058  0.00  0.00     0.002 A 
ATOM      3  C5  UNL d   1       3.279  -2.171  -2.445  0.00  0.00     0.002 A 
ATOM      4  C6  UNL d   1       2.479  -2.922  -1.586  0.00  0.00    -0.004 A 
ATOM      5  C7  UNL d   1       2.134  -2.411  -0.337  0.00  0.00     0.002 A 
ATOM      6  C8  UNL d   1       2.578  -1.145   0.051  0.00  0.00     0.002 A 
ENDROOT
BRANCH   1   7
ATOM      7  C2  UNL d   1       3.831   1.002  -0.398  0.00  0.00     0.056 C 
BRANCH   7   8
ATOM      8  C1  UNL d   1       5.306   1.285  -0.702  0.00  0.00     0.007 C 
ATOM      9  C   UNL d   1       5.824   2.553  -0.034  0.00  0.00     0.009 C 
ENDBRANCH   7   8
ENDBRANCH   1   7
TORSDOF 2
ENDMDL
