MODEL 1
REMARK minimizedAffinity 1.68806255
REMARK minimizedRMSD -1
REMARK  2 active torsions:
REMARK  status: ('A' for Active; 'I' for Inactive)
REMARK    1  A    between atoms: C1_2  and  C2_3 
REMARK    2  A    between atoms: C2_3  and  C3_4 
ROOT
ATOM      1  C3  UNL d   1       0.644   1.114   0.843  0.00  0.00    -0.075 A 
ATOM      2  C4  UNL d   1       0.912   0.536   2.092  0.00  0.00     0.002 A 
ATOM      3  C5  UNL d   1       0.209   0.944   3.227  0.00  0.00     0.002 A 
ATOM      4  C6  UNL d   1      -0.761   1.939   3.128  0.00  0.00    -0.004 A 
ATOM      5  C7  UNL d   1      -1.024   2.531   1.895  0.00  0.00     0.002 A 
ATOM      6  C8  UNL d   1      -0.325   2.122   0.758  0.00  0.00     0.002 A 
ENDROOT
BRANCH   1   7
ATOM      7  C2  UNL d   1       1.380   0.657  -0.394  0.00  0.00     0.056 C 
BRANCH   7   8
ATOM      8  C1  UNL d   1       2.677  -0.105  -0.101  0.00  0.00     0.007 C 
ATOM      9  C   UNL d   1       3.930   0.671  -0.484  0.00  0.00     0.009 C 
ENDBRANCH   7   8
ENDBRANCH   1   7
TORSDOF 2
ENDMDL
