MODEL 1
REMARK minimizedAffinity 8.33827305
REMARK minimizedRMSD -1
REMARK  2 active torsions:
REMARK  status: ('A' for Active; 'I' for Inactive)
REMARK    1  A    between atoms: C1_2  and  C2_3 
REMARK    2  A    between atoms: C2_3  and  C3_4 
ROOT
ATOM      1  C3  UNL d   1       1.678   1.158   0.604  0.00  0.00    -0.075 A 
ATOM      2  C4  UNL d   1       1.487   1.112   1.993  0.00  0.00     0.002 A 
ATOM      3  C5  UNL d   1       0.250   1.436   2.549  0.00  0.00     0.002 A 
ATOM      4  C6  UNL d   1      -0.808   1.820   1.727  0.00  0.00    -0.004 A 
ATOM      5  C7  UNL d   1      -0.625   1.885   0.348  0.00  0.00     0.002 A 
ATOM      6  C8  UNL d   1       0.611   1.556  -0.212  0.00  0.00     0.002 A 
ENDROOT
BRANCH   1   7
ATOM      7  C2  UNL d   1       3.006   0.779  -0.007  0.00  0.00     0.056 C 
BRANCH   7   8
ATOM      8  C1  UNL d   1       3.889   1.978  -0.371  0.00  0.00     0.007 C 
ATOM      9  C   UNL d   1       4.563   2.616   0.836  0.00  0.00     0.009 C 
ENDBRANCH   7   8
ENDBRANCH   1   7
TORSDOF 2
ENDMDL
