MODEL 1
REMARK minimizedAffinity 7.21983719
REMARK minimizedRMSD -1
REMARK  2 active torsions:
REMARK  status: ('A' for Active; 'I' for Inactive)
REMARK    1  A    between atoms: C1_2  and  C2_3 
REMARK    2  A    between atoms: C2_3  and  C3_4 
ROOT
ATOM      1  C3  UNL d   1       3.144  -0.960  -0.902  0.00  0.00    -0.075 A 
ATOM      2  C4  UNL d   1       2.779  -1.500  -2.143  0.00  0.00     0.002 A 
ATOM      3  C5  UNL d   1       2.128  -2.732  -2.216  0.00  0.00     0.002 A 
ATOM      4  C6  UNL d   1       1.842  -3.442  -1.052  0.00  0.00    -0.004 A 
ATOM      5  C7  UNL d   1       2.215  -2.922   0.186  0.00  0.00     0.002 A 
ATOM      6  C8  UNL d   1       2.862  -1.688   0.262  0.00  0.00     0.002 A 
ENDROOT
BRANCH   1   7
ATOM      7  C2  UNL d   1       3.822   0.387  -0.814  0.00  0.00     0.056 C 
BRANCH   7   8
ATOM      8  C1  UNL d   1       5.194   0.351  -0.131  0.00  0.00     0.007 C 
ATOM      9  C   UNL d   1       5.778   1.735   0.116  0.00  0.00     0.009 C 
ENDBRANCH   7   8
ENDBRANCH   1   7
TORSDOF 2
ENDMDL
