MODEL 1
REMARK minimizedAffinity 14.2887926
REMARK minimizedRMSD -1
REMARK  3 active torsions:
REMARK  status: ('A' for Active; 'I' for Inactive)
REMARK    1  A    between atoms: C3'_2  and  C2'_3 
REMARK    2  A    between atoms: C2'_3  and  C1'_4 
REMARK    3  A    between atoms: C1'_4  and  C1_5 
ROOT
ATOM      1  C1  N4B d   1      -2.032   5.363  -1.704  0.00  0.00    -0.075 A 
ATOM      2  C2  N4B d   1      -2.840   5.632  -0.578  0.00  0.00     0.002 A 
ATOM      3  C3  N4B d   1      -4.208   5.568  -0.682  0.00  0.00     0.002 A 
ATOM      4  C4  N4B d   1      -4.788   5.256  -1.902  0.00  0.00    -0.004 A 
ATOM      5  C5  N4B d   1      -4.000   4.973  -2.980  0.00  0.00     0.002 A 
ATOM      6  C6  N4B d   1      -2.624   5.030  -2.888  0.00  0.00     0.002 A 
ENDROOT
BRANCH   1   7
ATOM      7  C1' N4B d   1      -0.535   5.505  -1.660  0.00  0.00     0.057 C 
BRANCH   7   8
ATOM      8  C2' N4B d   1       0.103   4.124  -1.779  0.00  0.00     0.009 C 
BRANCH   8   9
ATOM      9  C3' N4B d   1      -0.669   3.074  -0.999  0.00  0.00     0.004 C 
ATOM     10  C4' N4B d   1       0.064   1.769  -0.901  0.00  0.00     0.003 C 
ENDBRANCH   8   9
ENDBRANCH   7   8
ENDBRANCH   1   7
TORSDOF 3
ENDMDL
