MODEL 1
REMARK minimizedAffinity 9.52153969
REMARK minimizedRMSD -1
REMARK  3 active torsions:
REMARK  status: ('A' for Active; 'I' for Inactive)
REMARK    1  A    between atoms: C3'_2  and  C2'_3 
REMARK    2  A    between atoms: C2'_3  and  C1'_4 
REMARK    3  A    between atoms: C1'_4  and  C1_5 
ROOT
ATOM      1  C1  N4B d   1      -1.806   2.485   1.805  0.00  0.00    -0.075 A 
ATOM      2  C2  N4B d   1      -0.434   2.520   2.138  0.00  0.00     0.002 A 
ATOM      3  C3  N4B d   1       0.505   2.723   1.156  0.00  0.00     0.002 A 
ATOM      4  C4  N4B d   1       0.099   2.876  -0.161  0.00  0.00    -0.004 A 
ATOM      5  C5  N4B d   1      -1.230   2.867  -0.470  0.00  0.00     0.002 A 
ATOM      6  C6  N4B d   1      -2.185   2.667   0.507  0.00  0.00     0.002 A 
ENDROOT
BRANCH   1   7
ATOM      7  C1' N4B d   1      -2.864   2.180   2.831  0.00  0.00     0.057 C 
BRANCH   7   8
ATOM      8  C2' N4B d   1      -2.930   0.671   3.047  0.00  0.00     0.009 C 
BRANCH   8   9
ATOM      9  C3' N4B d   1      -4.359   0.155   3.019  0.00  0.00     0.004 C 
ATOM     10  C4' N4B d   1      -4.441  -1.336   3.161  0.00  0.00     0.003 C 
ENDBRANCH   8   9
ENDBRANCH   7   8
ENDBRANCH   1   7
TORSDOF 3
ENDMDL
