MODEL 1
REMARK minimizedAffinity 17.376442
REMARK minimizedRMSD -1
REMARK  3 active torsions:
REMARK  status: ('A' for Active; 'I' for Inactive)
REMARK    1  A    between atoms: C3'_2  and  C2'_3 
REMARK    2  A    between atoms: C2'_3  and  C1'_4 
REMARK    3  A    between atoms: C1'_4  and  C1_5 
ROOT
ATOM      1  C1  N4B d   1       1.583  -4.789  -1.841  0.00  0.00    -0.075 A 
ATOM      2  C2  N4B d   1       0.932  -4.323  -3.005  0.00  0.00     0.002 A 
ATOM      3  C3  N4B d   1       1.638  -4.174  -4.173  0.00  0.00     0.002 A 
ATOM      4  C4  N4B d   1       2.994  -4.465  -4.197  0.00  0.00    -0.004 A 
ATOM      5  C5  N4B d   1       3.609  -4.938  -3.075  0.00  0.00     0.002 A 
ATOM      6  C6  N4B d   1       2.911  -5.097  -1.895  0.00  0.00     0.002 A 
ENDROOT
BRANCH   1   7
ATOM      7  C1' N4B d   1       0.872  -4.886  -0.519  0.00  0.00     0.057 C 
BRANCH   7   8
ATOM      8  C2' N4B d   1       1.019  -3.564   0.227  0.00  0.00     0.009 C 
BRANCH   8   9
ATOM      9  C3' N4B d   1       2.475  -3.157   0.382  0.00  0.00     0.004 C 
ATOM     10  C4' N4B d   1       2.666  -1.670   0.377  0.00  0.00     0.003 C 
ENDBRANCH   8   9
ENDBRANCH   7   8
ENDBRANCH   1   7
TORSDOF 3
ENDMDL
