MODEL 1
REMARK minimizedAffinity 8.26754475
REMARK minimizedRMSD -1
REMARK  3 active torsions:
REMARK  status: ('A' for Active; 'I' for Inactive)
REMARK    1  A    between atoms: C3'_2  and  C2'_3 
REMARK    2  A    between atoms: C2'_3  and  C1'_4 
REMARK    3  A    between atoms: C1'_4  and  C1_5 
ROOT
ATOM      1  C1  N4B d   1       4.333  -5.085  -1.063  0.00  0.00    -0.075 A 
ATOM      2  C2  N4B d   1       4.088  -5.974  -2.133  0.00  0.00     0.002 A 
ATOM      3  C3  N4B d   1       4.802  -5.857  -3.300  0.00  0.00     0.002 A 
ATOM      4  C4  N4B d   1       5.749  -4.852  -3.427  0.00  0.00    -0.004 A 
ATOM      5  C5  N4B d   1       5.998  -4.014  -2.380  0.00  0.00     0.002 A 
ATOM      6  C6  N4B d   1       5.291  -4.122  -1.200  0.00  0.00     0.002 A 
ENDROOT
BRANCH   1   7
ATOM      7  C1' N4B d   1       3.519  -5.120   0.201  0.00  0.00     0.057 C 
BRANCH   7   8
ATOM      8  C2' N4B d   1       2.368  -4.125   0.082  0.00  0.00     0.009 C 
BRANCH   8   9
ATOM      9  C3' N4B d   1       1.153  -4.739  -0.593  0.00  0.00     0.004 C 
ATOM     10  C4' N4B d   1       0.339  -3.733  -1.350  0.00  0.00     0.003 C 
ENDBRANCH   8   9
ENDBRANCH   7   8
ENDBRANCH   1   7
TORSDOF 3
ENDMDL
