MODEL 1
REMARK minimizedAffinity 8.30685616
REMARK minimizedRMSD -1
REMARK  3 active torsions:
REMARK  status: ('A' for Active; 'I' for Inactive)
REMARK    1  A    between atoms: C3'_2  and  C2'_3 
REMARK    2  A    between atoms: C2'_3  and  C1'_4 
REMARK    3  A    between atoms: C1'_4  and  C1_5 
ROOT
ATOM      1  C1  N4B d   1       2.897  -4.917  -0.919  0.00  0.00    -0.075 A 
ATOM      2  C2  N4B d   1       2.916  -3.756  -0.116  0.00  0.00     0.002 A 
ATOM      3  C3  N4B d   1       1.795  -2.968  -0.021  0.00  0.00     0.002 A 
ATOM      4  C4  N4B d   1       0.654  -3.310  -0.732  0.00  0.00    -0.004 A 
ATOM      5  C5  N4B d   1       0.636  -4.448  -1.485  0.00  0.00     0.002 A 
ATOM      6  C6  N4B d   1       1.754  -5.251  -1.586  0.00  0.00     0.002 A 
ENDROOT
BRANCH   1   7
ATOM      7  C1' N4B d   1       4.124  -5.763  -1.122  0.00  0.00     0.057 C 
BRANCH   7   8
ATOM      8  C2' N4B d   1       5.357  -4.961  -0.715  0.00  0.00     0.009 C 
BRANCH   8   9
ATOM      9  C3' N4B d   1       5.876  -4.100  -1.854  0.00  0.00     0.004 C 
ATOM     10  C4' N4B d   1       6.000  -2.654  -1.478  0.00  0.00     0.003 C 
ENDBRANCH   8   9
ENDBRANCH   7   8
ENDBRANCH   1   7
TORSDOF 3
ENDMDL
