MODEL 1
REMARK minimizedAffinity -4.59613848
REMARK minimizedRMSD -1
REMARK  0 active torsions:
REMARK  status: ('A' for Active; 'I' for Inactive)
ROOT
ATOM      1  C1  DEN d   1       0.130  -1.642   2.008  0.00  0.00     0.130 A 
ATOM      2  C2  DEN d   1       1.148  -2.613   1.613  0.00  0.00    -0.031 A 
ATOM      3  C3  DEN d   1       1.800  -2.116   0.385  0.00  0.00     0.027 A 
ATOM      4  C4  DEN d   1       1.340   0.052  -0.934  0.00  0.00     0.027 A 
ATOM      5  C5  DEN d   1       0.561   1.186  -0.993  0.00  0.00    -0.003 A 
ATOM      6  C6  DEN d   1      -0.431   1.439  -0.083  0.00  0.00     0.001 A 
ATOM      7  C7  DEN d   1      -0.640   0.567   0.953  0.00  0.00     0.017 A 
ATOM      8  C8  DEN d   1       0.137  -0.583   1.014  0.00  0.00    -0.094 A 
ATOM      9  C9  DEN d   1       1.143  -0.814   0.092  0.00  0.00    -0.072 A 
ENDROOT
TORSDOF 0
ENDMDL
