MODEL 1
REMARK minimizedAffinity -5.31821203
REMARK minimizedRMSD -1
REMARK  0 active torsions:
REMARK  status: ('A' for Active; 'I' for Inactive)
ROOT
ATOM      1  C1  DEN d   1       0.363   0.756  -0.273  0.00  0.00     0.130 A 
ATOM      2  C2  DEN d   1      -0.760   1.386   0.417  0.00  0.00    -0.031 A 
ATOM      3  C3  DEN d   1      -1.201   0.479   1.495  0.00  0.00     0.027 A 
ATOM      4  C4  DEN d   1      -0.258  -1.827   2.162  0.00  0.00     0.027 A 
ATOM      5  C5  DEN d   1       0.687  -2.784   1.861  0.00  0.00    -0.003 A 
ATOM      6  C6  DEN d   1       1.560  -2.644   0.815  0.00  0.00     0.001 A 
ATOM      7  C7  DEN d   1       1.536  -1.501   0.059  0.00  0.00     0.017 A 
ATOM      8  C8  DEN d   1       0.582  -0.536   0.352  0.00  0.00    -0.094 A 
ATOM      9  C9  DEN d   1      -0.284  -0.690   1.421  0.00  0.00    -0.072 A 
ENDROOT
TORSDOF 0
ENDMDL
