MODEL 1
REMARK minimizedAffinity -5.99513197
REMARK minimizedRMSD -1
REMARK  0 active torsions:
REMARK  status: ('A' for Active; 'I' for Inactive)
ROOT
ATOM      1  C1  DEN d   1       0.222   4.341  -3.289  0.00  0.00     0.130 A 
ATOM      2  C2  DEN d   1       0.436   4.482  -4.727  0.00  0.00    -0.031 A 
ATOM      3  C3  DEN d   1      -0.344   3.430  -5.409  0.00  0.00     0.027 A 
ATOM      4  C4  DEN d   1      -1.858   1.610  -4.386  0.00  0.00     0.027 A 
ATOM      5  C5  DEN d   1      -2.342   1.084  -3.208  0.00  0.00    -0.003 A 
ATOM      6  C6  DEN d   1      -1.982   1.581  -1.984  0.00  0.00     0.001 A 
ATOM      7  C7  DEN d   1      -1.148   2.665  -1.910  0.00  0.00     0.017 A 
ATOM      8  C8  DEN d   1      -0.649   3.196  -3.093  0.00  0.00    -0.094 A 
ATOM      9  C9  DEN d   1      -1.035   2.687  -4.321  0.00  0.00    -0.072 A 
ENDROOT
TORSDOF 0
ENDMDL
