MODEL 1
REMARK minimizedAffinity -5.41066027
REMARK minimizedRMSD -1
REMARK  0 active torsions:
REMARK  status: ('A' for Active; 'I' for Inactive)
ROOT
ATOM      1  C1  DEN d   1      -1.015   0.795   0.166  0.00  0.00     0.130 A 
ATOM      2  C2  DEN d   1      -0.071   1.295  -0.829  0.00  0.00    -0.031 A 
ATOM      3  C3  DEN d   1       1.108   0.405  -0.826  0.00  0.00     0.027 A 
ATOM      4  C4  DEN d   1       1.558  -1.689   0.611  0.00  0.00     0.027 A 
ATOM      5  C5  DEN d   1       1.053  -2.498   1.604  0.00  0.00    -0.003 A 
ATOM      6  C6  DEN d   1      -0.152  -2.249   2.207  0.00  0.00     0.001 A 
ATOM      7  C7  DEN d   1      -0.913  -1.189   1.790  0.00  0.00     0.017 A 
ATOM      8  C8  DEN d   1      -0.407  -0.365   0.794  0.00  0.00    -0.094 A 
ATOM      9  C9  DEN d   1       0.807  -0.640   0.189  0.00  0.00    -0.072 A 
ENDROOT
TORSDOF 0
ENDMDL
