MODEL 1
REMARK minimizedAffinity -6.5436101
REMARK minimizedRMSD -1
REMARK  0 active torsions:
REMARK  status: ('A' for Active; 'I' for Inactive)
ROOT
ATOM      1  C1  DEN d   1       0.744  -0.025  -0.282  0.00  0.00     0.130 A 
ATOM      2  C2  DEN d   1      -0.336   0.953  -0.181  0.00  0.00    -0.031 A 
ATOM      3  C3  DEN d   1      -1.181   0.582   0.973  0.00  0.00     0.027 A 
ATOM      4  C4  DEN d   1      -0.919  -1.397   2.606  0.00  0.00     0.027 A 
ATOM      5  C5  DEN d   1      -0.161  -2.505   2.915  0.00  0.00    -0.003 A 
ATOM      6  C6  DEN d   1       0.923  -2.880   2.166  0.00  0.00     0.001 A 
ATOM      7  C7  DEN d   1       1.307  -2.115   1.096  0.00  0.00     0.017 A 
ATOM      8  C8  DEN d   1       0.543  -1.001   0.774  0.00  0.00    -0.094 A 
ATOM      9  C9  DEN d   1      -0.543  -0.631   1.551  0.00  0.00    -0.072 A 
ENDROOT
TORSDOF 0
ENDMDL
