MODEL 1
REMARK minimizedAffinity -5.83768606
REMARK minimizedRMSD -1
REMARK  0 active torsions:
REMARK  status: ('A' for Active; 'I' for Inactive)
ROOT
ATOM      1  C1  DEN d   1      -0.453   3.787  -5.241  0.00  0.00     0.130 A 
ATOM      2  C2  DEN d   1       0.290   4.875  -4.611  0.00  0.00    -0.031 A 
ATOM      3  C3  DEN d   1       0.278   4.651  -3.151  0.00  0.00     0.027 A 
ATOM      4  C4  DEN d   1      -0.810   2.734  -1.813  0.00  0.00     0.027 A 
ATOM      5  C5  DEN d   1      -1.560   1.582  -1.908  0.00  0.00    -0.003 A 
ATOM      6  C6  DEN d   1      -2.018   1.107  -3.109  0.00  0.00     0.001 A 
ATOM      7  C7  DEN d   1      -1.693   1.762  -4.267  0.00  0.00     0.017 A 
ATOM      8  C8  DEN d   1      -0.944   2.928  -4.178  0.00  0.00    -0.094 A 
ATOM      9  C9  DEN d   1      -0.480   3.386  -2.956  0.00  0.00    -0.072 A 
ENDROOT
TORSDOF 0
ENDMDL
