MODEL 1
REMARK minimizedAffinity -5.20872402
REMARK minimizedRMSD -1
REMARK  0 active torsions:
REMARK  status: ('A' for Active; 'I' for Inactive)
ROOT
ATOM      1  C1  DEN d   1       0.733   3.612  -2.853  0.00  0.00     0.130 A 
ATOM      2  C2  DEN d   1       0.652   4.069  -4.238  0.00  0.00    -0.031 A 
ATOM      3  C3  DEN d   1      -0.503   3.401  -4.871  0.00  0.00     0.027 A 
ATOM      4  C4  DEN d   1      -2.167   1.717  -3.846  0.00  0.00     0.027 A 
ATOM      5  C5  DEN d   1      -2.496   1.017  -2.707  0.00  0.00    -0.003 A 
ATOM      6  C6  DEN d   1      -1.758   1.105  -1.557  0.00  0.00     0.001 A 
ATOM      7  C7  DEN d   1      -0.679   1.947  -1.506  0.00  0.00     0.017 A 
ATOM      8  C8  DEN d   1      -0.336   2.652  -2.652  0.00  0.00    -0.094 A 
ATOM      9  C9  DEN d   1      -1.102   2.558  -3.802  0.00  0.00    -0.072 A 
ENDROOT
TORSDOF 0
ENDMDL
