MODEL 1
REMARK minimizedAffinity -4.24418879
REMARK minimizedRMSD -1
REMARK  0 active torsions:
REMARK  status: ('A' for Active; 'I' for Inactive)
ROOT
ATOM      1  C1  DEN d   1      -0.538   3.260  -5.148  0.00  0.00     0.130 A 
ATOM      2  C2  DEN d   1       0.569   4.011  -4.562  0.00  0.00    -0.031 A 
ATOM      3  C3  DEN d   1       0.623   3.694  -3.120  0.00  0.00     0.027 A 
ATOM      4  C4  DEN d   1      -0.889   2.119  -1.747  0.00  0.00     0.027 A 
ATOM      5  C5  DEN d   1      -1.972   1.269  -1.805  0.00  0.00    -0.003 A 
ATOM      6  C6  DEN d   1      -2.668   1.052  -2.965  0.00  0.00     0.001 A 
ATOM      7  C7  DEN d   1      -2.261   1.657  -4.124  0.00  0.00     0.017 A 
ATOM      8  C8  DEN d   1      -1.175   2.520  -4.072  0.00  0.00    -0.094 A 
ATOM      9  C9  DEN d   1      -0.476   2.718  -2.893  0.00  0.00    -0.072 A 
ENDROOT
TORSDOF 0
ENDMDL
