MODEL 1
REMARK minimizedAffinity -4.85332966
REMARK minimizedRMSD -1
REMARK  0 active torsions:
REMARK  status: ('A' for Active; 'I' for Inactive)
ROOT
ATOM      1  C1  DEN d   1      -0.453   3.350  -5.041  0.00  0.00     0.130 A 
ATOM      2  C2  DEN d   1       0.686   3.988  -4.386  0.00  0.00    -0.031 A 
ATOM      3  C3  DEN d   1       0.562   3.762  -2.932  0.00  0.00     0.027 A 
ATOM      4  C4  DEN d   1      -1.270   2.490  -1.638  0.00  0.00     0.027 A 
ATOM      5  C5  DEN d   1      -2.448   1.786  -1.760  0.00  0.00    -0.003 A 
ATOM      6  C6  DEN d   1      -3.056   1.585  -2.970  0.00  0.00     0.001 A 
ATOM      7  C7  DEN d   1      -2.465   2.055  -4.113  0.00  0.00     0.017 A 
ATOM      8  C8  DEN d   1      -1.281   2.772  -3.998  0.00  0.00    -0.094 A 
ATOM      9  C9  DEN d   1      -0.675   2.954  -2.766  0.00  0.00    -0.072 A 
ENDROOT
TORSDOF 0
ENDMDL
