MODEL 1
REMARK minimizedAffinity -6.78515005
REMARK minimizedRMSD -1
REMARK  0 active torsions:
REMARK  status: ('A' for Active; 'I' for Inactive)
ROOT
ATOM      1  C1  DEN d   1       0.276   4.250  -2.933  0.00  0.00     0.130 A 
ATOM      2  C2  DEN d   1       0.108   4.642  -4.329  0.00  0.00    -0.031 A 
ATOM      3  C3  DEN d   1      -0.960   3.805  -4.913  0.00  0.00     0.027 A 
ATOM      4  C4  DEN d   1      -2.364   1.953  -3.794  0.00  0.00     0.027 A 
ATOM      5  C5  DEN d   1      -2.574   1.255  -2.625  0.00  0.00    -0.003 A 
ATOM      6  C6  DEN d   1      -1.832   1.481  -1.496  0.00  0.00     0.001 A 
ATOM      7  C7  DEN d   1      -0.875   2.461  -1.498  0.00  0.00     0.017 A 
ATOM      8  C8  DEN d   1      -0.651   3.163  -2.675  0.00  0.00    -0.094 A 
ATOM      9  C9  DEN d   1      -1.420   2.928  -3.802  0.00  0.00    -0.072 A 
ENDROOT
TORSDOF 0
ENDMDL
