MODEL 1
REMARK minimizedAffinity -4.76870441
REMARK minimizedRMSD -1
REMARK  0 active torsions:
REMARK  status: ('A' for Active; 'I' for Inactive)
ROOT
ATOM      1  C1  DEN d   1      -0.817   3.540  -5.150  0.00  0.00     0.130 A 
ATOM      2  C2  DEN d   1       0.409   4.199  -4.710  0.00  0.00    -0.031 A 
ATOM      3  C3  DEN d   1       0.679   3.780  -3.320  0.00  0.00     0.027 A 
ATOM      4  C4  DEN d   1      -0.672   2.178  -1.817  0.00  0.00     0.027 A 
ATOM      5  C5  DEN d   1      -1.794   1.383  -1.747  0.00  0.00    -0.003 A 
ATOM      6  C6  DEN d   1      -2.680   1.278  -2.787  0.00  0.00     0.001 A 
ATOM      7  C7  DEN d   1      -2.435   1.945  -3.958  0.00  0.00     0.017 A 
ATOM      8  C8  DEN d   1      -1.309   2.755  -4.033  0.00  0.00    -0.094 A 
ATOM      9  C9  DEN d   1      -0.419   2.838  -2.975  0.00  0.00    -0.072 A 
ENDROOT
TORSDOF 0
ENDMDL
