MODEL 1
REMARK minimizedAffinity -1.94864953
REMARK minimizedRMSD -1
REMARK  0 active torsions:
REMARK  status: ('A' for Active; 'I' for Inactive)
ROOT
ATOM      1  C1  DEN d   1      -1.197   0.025   1.517  0.00  0.00     0.130 A 
ATOM      2  C2  DEN d   1      -1.637   0.941   0.469  0.00  0.00    -0.031 A 
ATOM      3  C3  DEN d   1      -0.585   0.988  -0.567  0.00  0.00     0.027 A 
ATOM      4  C4  DEN d   1       1.666  -0.267  -0.651  0.00  0.00     0.027 A 
ATOM      5  C5  DEN d   1       2.485  -1.150   0.018  0.00  0.00    -0.003 A 
ATOM      6  C6  DEN d   1       2.152  -1.672   1.240  0.00  0.00     0.001 A 
ATOM      7  C7  DEN d   1       0.949  -1.351   1.810  0.00  0.00     0.017 A 
ATOM      8  C8  DEN d   1       0.121  -0.456   1.145  0.00  0.00    -0.094 A 
ATOM      9  C9  DEN d   1       0.470   0.051  -0.095  0.00  0.00    -0.072 A 
ENDROOT
TORSDOF 0
ENDMDL
