MODEL 1
REMARK minimizedAffinity -2.90609121
REMARK minimizedRMSD -1
REMARK  0 active torsions:
REMARK  status: ('A' for Active; 'I' for Inactive)
ROOT
ATOM      1  C1  DEN d   1      -0.989  -0.335   2.506  0.00  0.00     0.130 A 
ATOM      2  C2  DEN d   1      -0.687  -1.235   3.615  0.00  0.00    -0.031 A 
ATOM      3  C3  DEN d   1       0.570  -1.943   3.298  0.00  0.00     0.027 A 
ATOM      4  C4  DEN d   1       2.070  -1.731   1.211  0.00  0.00     0.027 A 
ATOM      5  C5  DEN d   1       2.218  -1.103  -0.006  0.00  0.00    -0.003 A 
ATOM      6  C6  DEN d   1       1.297  -0.208  -0.483  0.00  0.00     0.001 A 
ATOM      7  C7  DEN d   1       0.209   0.119   0.283  0.00  0.00     0.017 A 
ATOM      8  C8  DEN d   1       0.049  -0.516   1.508  0.00  0.00    -0.094 A 
ATOM      9  C9  DEN d   1       0.998  -1.409   1.977  0.00  0.00    -0.072 A 
ENDROOT
TORSDOF 0
ENDMDL
