MODEL 1
REMARK minimizedAffinity 0.0586088412
REMARK minimizedRMSD -1
REMARK  0 active torsions:
REMARK  status: ('A' for Active; 'I' for Inactive)
ROOT
ATOM      1  C1  DEN d   1      -4.939   2.715  -5.117  0.00  0.00     0.130 A 
ATOM      2  C2  DEN d   1      -5.488   1.419  -5.508  0.00  0.00    -0.031 A 
ATOM      3  C3  DEN d   1      -6.000   0.755  -4.292  0.00  0.00     0.027 A 
ATOM      4  C4  DEN d   1      -6.000   1.604  -1.857  0.00  0.00     0.027 A 
ATOM      5  C5  DEN d   1      -5.631   2.642  -1.030  0.00  0.00    -0.003 A 
ATOM      6  C6  DEN d   1      -4.981   3.753  -1.499  0.00  0.00     0.001 A 
ATOM      7  C7  DEN d   1      -4.719   3.872  -2.838  0.00  0.00     0.017 A 
ATOM      8  C8  DEN d   1      -5.081   2.826  -3.677  0.00  0.00    -0.094 A 
ATOM      9  C9  DEN d   1      -5.749   1.717  -3.186  0.00  0.00    -0.072 A 
ENDROOT
TORSDOF 0
ENDMDL
