MODEL 1
REMARK minimizedAffinity 3.57594132
REMARK minimizedRMSD -1
REMARK  0 active torsions:
REMARK  status: ('A' for Active; 'I' for Inactive)
ROOT
ATOM      1  C1  DEN d   1      -5.954   0.304  -3.936  0.00  0.00     0.130 A 
ATOM      2  C2  DEN d   1      -5.979   0.364  -5.395  0.00  0.00    -0.031 A 
ATOM      3  C3  DEN d   1      -5.999   1.786  -5.794  0.00  0.00     0.027 A 
ATOM      4  C4  DEN d   1      -5.988   3.889  -4.302  0.00  0.00     0.027 A 
ATOM      5  C5  DEN d   1      -5.982   4.343  -3.001  0.00  0.00    -0.003 A 
ATOM      6  C6  DEN d   1      -6.000   3.490  -1.930  0.00  0.00     0.001 A 
ATOM      7  C7  DEN d   1      -5.980   2.136  -2.140  0.00  0.00     0.017 A 
ATOM      8  C8  DEN d   1      -5.994   1.671  -3.449  0.00  0.00    -0.094 A 
ATOM      9  C9  DEN d   1      -5.963   2.550  -4.518  0.00  0.00    -0.072 A 
ENDROOT
TORSDOF 0
ENDMDL
