MODEL 1
REMARK minimizedAffinity 1.02832139
REMARK minimizedRMSD -1
REMARK  0 active torsions:
REMARK  status: ('A' for Active; 'I' for Inactive)
ROOT
ATOM      1  C1  DEN d   1      -5.945   2.918  -0.757  0.00  0.00     0.130 A 
ATOM      2  C2  DEN d   1      -5.974   1.495  -0.431  0.00  0.00    -0.031 A 
ATOM      3  C3  DEN d   1      -5.999   0.736  -1.698  0.00  0.00     0.027 A 
ATOM      4  C4  DEN d   1      -5.993   1.623  -4.120  0.00  0.00     0.027 A 
ATOM      5  C5  DEN d   1      -5.985   2.759  -4.899  0.00  0.00    -0.003 A 
ATOM      6  C6  DEN d   1      -5.997   4.017  -4.357  0.00  0.00     0.001 A 
ATOM      7  C7  DEN d   1      -5.973   4.170  -2.996  0.00  0.00     0.017 A 
ATOM      8  C8  DEN d   1      -5.988   3.029  -2.204  0.00  0.00    -0.094 A 
ATOM      9  C9  DEN d   1      -5.963   1.767  -2.771  0.00  0.00    -0.072 A 
ENDROOT
TORSDOF 0
ENDMDL
