MODEL 1
REMARK minimizedAffinity 1.8087225
REMARK minimizedRMSD -1
REMARK  0 active torsions:
REMARK  status: ('A' for Active; 'I' for Inactive)
ROOT
ATOM      1  C1  DEN d   1      -5.974   1.716  -5.997  0.00  0.00     0.130 A 
ATOM      2  C2  DEN d   1      -5.965   0.320  -5.568  0.00  0.00    -0.031 A 
ATOM      3  C3  DEN d   1      -5.967   0.296  -4.091  0.00  0.00     0.027 A 
ATOM      4  C4  DEN d   1      -5.989   2.274  -2.437  0.00  0.00     0.027 A 
ATOM      5  C5  DEN d   1      -5.988   3.647  -2.329  0.00  0.00    -0.003 A 
ATOM      6  C6  DEN d   1      -5.949   4.466  -3.426  0.00  0.00     0.001 A 
ATOM      7  C7  DEN d   1      -5.954   3.919  -4.682  0.00  0.00     0.017 A 
ATOM      8  C8  DEN d   1      -5.947   2.535  -4.799  0.00  0.00    -0.094 A 
ATOM      9  C9  DEN d   1      -5.999   1.724  -3.677  0.00  0.00    -0.072 A 
ENDROOT
TORSDOF 0
ENDMDL
