MODEL 1
REMARK minimizedAffinity 9.76170731
REMARK minimizedRMSD -1
REMARK  0 active torsions:
REMARK  status: ('A' for Active; 'I' for Inactive)
ROOT
ATOM      1  C1  DEN d   1      -6.000   0.225  -3.450  0.00  0.00     0.130 A 
ATOM      2  C2  DEN d   1      -5.955  -0.178  -4.853  0.00  0.00    -0.031 A 
ATOM      3  C3  DEN d   1      -5.537   0.993  -5.650  0.00  0.00     0.027 A 
ATOM      4  C4  DEN d   1      -4.954   3.375  -4.853  0.00  0.00     0.027 A 
ATOM      5  C5  DEN d   1      -4.858   4.199  -3.753  0.00  0.00    -0.003 A 
ATOM      6  C6  DEN d   1      -5.167   3.769  -2.490  0.00  0.00     0.001 A 
ATOM      7  C7  DEN d   1      -5.543   2.467  -2.289  0.00  0.00     0.017 A 
ATOM      8  C8  DEN d   1      -5.648   1.633  -3.394  0.00  0.00    -0.094 A 
ATOM      9  C9  DEN d   1      -5.320   2.083  -4.661  0.00  0.00    -0.072 A 
ENDROOT
TORSDOF 0
ENDMDL
