MODEL 1
REMARK minimizedAffinity 5.20892334
REMARK minimizedRMSD -1
REMARK  0 active torsions:
REMARK  status: ('A' for Active; 'I' for Inactive)
ROOT
ATOM      1  C1  DEN d   1       4.408  -5.178  -1.241  0.00  0.00     0.130 A 
ATOM      2  C2  DEN d   1       5.494  -4.231  -1.005  0.00  0.00    -0.031 A 
ATOM      3  C3  DEN d   1       4.902  -2.967  -0.523  0.00  0.00     0.027 A 
ATOM      4  C4  DEN d   1       2.422  -2.388  -0.116  0.00  0.00     0.027 A 
ATOM      5  C5  DEN d   1       1.132  -2.866  -0.185  0.00  0.00    -0.003 A 
ATOM      6  C6  DEN d   1       0.843  -4.125  -0.640  0.00  0.00     0.001 A 
ATOM      7  C7  DEN d   1       1.862  -4.967  -1.000  0.00  0.00     0.017 A 
ATOM      8  C8  DEN d   1       3.165  -4.490  -0.940  0.00  0.00    -0.094 A 
ATOM      9  C9  DEN d   1       3.437  -3.218  -0.466  0.00  0.00    -0.072 A 
ENDROOT
TORSDOF 0
ENDMDL
