MODEL 1
REMARK minimizedAffinity 7.01258516
REMARK minimizedRMSD -1
REMARK  0 active torsions:
REMARK  status: ('A' for Active; 'I' for Inactive)
ROOT
ATOM      1  C1  DEN d   1      -6.000  -0.333  -3.829  0.00  0.00     0.130 A 
ATOM      2  C2  DEN d   1      -5.895  -0.611  -5.259  0.00  0.00    -0.031 A 
ATOM      3  C3  DEN d   1      -5.740   0.677  -5.964  0.00  0.00     0.027 A 
ATOM      4  C4  DEN d   1      -5.649   3.062  -4.986  0.00  0.00     0.027 A 
ATOM      5  C5  DEN d   1      -5.708   3.803  -3.826  0.00  0.00    -0.003 A 
ATOM      6  C6  DEN d   1      -5.901   3.224  -2.600  0.00  0.00     0.001 A 
ATOM      7  C7  DEN d   1      -5.997   1.862  -2.499  0.00  0.00     0.017 A 
ATOM      8  C8  DEN d   1      -5.946   1.109  -3.665  0.00  0.00    -0.094 A 
ATOM      9  C9  DEN d   1      -5.737   1.711  -4.894  0.00  0.00    -0.072 A 
ENDROOT
TORSDOF 0
ENDMDL
