MODEL 1
REMARK minimizedAffinity -0.546600699
REMARK minimizedRMSD -1
REMARK  0 active torsions:
REMARK  status: ('A' for Active; 'I' for Inactive)
ROOT
ATOM      1  C1  DEN d   1       2.559  -5.998  -0.741  0.00  0.00     0.130 A 
ATOM      2  C2  DEN d   1       1.221  -5.539  -0.380  0.00  0.00    -0.031 A 
ATOM      3  C3  DEN d   1       1.289  -4.084  -0.134  0.00  0.00     0.027 A 
ATOM      4  C4  DEN d   1       3.324  -2.506  -0.283  0.00  0.00     0.027 A 
ATOM      5  C5  DEN d   1       4.675  -2.439  -0.541  0.00  0.00    -0.003 A 
ATOM      6  C6  DEN d   1       5.416  -3.549  -0.849  0.00  0.00     0.001 A 
ATOM      7  C7  DEN d   1       4.802  -4.769  -0.950  0.00  0.00     0.017 A 
ATOM      8  C8  DEN d   1       3.441  -4.846  -0.683  0.00  0.00    -0.094 A 
ATOM      9  C9  DEN d   1       2.707  -3.711  -0.386  0.00  0.00    -0.072 A 
ENDROOT
TORSDOF 0
ENDMDL
