MODEL 1
REMARK minimizedAffinity -1.93858063
REMARK minimizedRMSD -1
REMARK  0 active torsions:
REMARK  status: ('A' for Active; 'I' for Inactive)
ROOT
ATOM      1  C1  DEN d   1      -5.933   1.676  -2.849  0.00  0.00     0.130 A 
ATOM      2  C2  DEN d   1      -5.964   1.851  -1.400  0.00  0.00    -0.031 A 
ATOM      3  C3  DEN d   1      -5.994   3.300  -1.115  0.00  0.00     0.027 A 
ATOM      4  C4  DEN d   1      -5.999   5.278  -2.770  0.00  0.00     0.027 A 
ATOM      5  C5  DEN d   1      -5.967   5.628  -4.102  0.00  0.00    -0.003 A 
ATOM      6  C6  DEN d   1      -5.889   4.693  -5.100  0.00  0.00     0.001 A 
ATOM      7  C7  DEN d   1      -5.884   3.361  -4.784  0.00  0.00     0.017 A 
ATOM      8  C8  DEN d   1      -5.908   3.001  -3.443  0.00  0.00    -0.094 A 
ATOM      9  C9  DEN d   1      -6.000   3.960  -2.449  0.00  0.00    -0.072 A 
ENDROOT
TORSDOF 0
ENDMDL
