MODEL 1
REMARK minimizedAffinity 8.65155315
REMARK minimizedRMSD -1
REMARK  1 active torsions:
REMARK  status: ('A' for Active; 'I' for Inactive)
REMARK    1  A    between atoms: C1_2  and  C2_3 
ROOT
ATOM      1  C2  UNL d   1      -0.220  -5.002  -3.893  0.00  0.00    -0.076 A 
ATOM      2  C3  UNL d   1       0.741  -4.056  -4.290  0.00  0.00     0.004 A 
ATOM      3  C4  UNL d   1       0.487  -3.170  -5.335  0.00  0.00    -0.003 A 
ATOM      4  C5  UNL d   1      -0.734  -3.214  -6.000  0.00  0.00     0.000 A 
ATOM      5  C6  UNL d   1      -1.706  -4.134  -5.608  0.00  0.00     0.000 A 
ATOM      6  C7  UNL d   1      -1.471  -5.024  -4.546  0.00  0.00    -0.073 A 
ATOM      7  C8  UNL d   1      -2.553  -5.999  -4.169  0.00  0.00     0.078 C 
ENDROOT
BRANCH   1   8
ATOM      8  C1  UNL d   1       0.122  -5.955  -2.771  0.00  0.00     0.053 C 
ATOM      9  C   UNL d   1       1.608  -5.961  -2.444  0.00  0.00     0.018 C 
ENDBRANCH   1   8
TORSDOF 1
ENDMDL
