MODEL 1
REMARK minimizedAffinity -1.09875166
REMARK minimizedRMSD -1
REMARK  1 active torsions:
REMARK  status: ('A' for Active; 'I' for Inactive)
REMARK    1  A    between atoms: C1_2  and  C2_3 
ROOT
ATOM      1  C2  UNL d   1      -3.279  -4.356  -5.958  0.00  0.00    -0.076 A 
ATOM      2  C3  UNL d   1      -3.991  -3.145  -5.982  0.00  0.00     0.004 A 
ATOM      3  C4  UNL d   1      -3.325  -1.921  -5.999  0.00  0.00    -0.003 A 
ATOM      4  C5  UNL d   1      -1.935  -1.888  -5.994  0.00  0.00     0.000 A 
ATOM      5  C6  UNL d   1      -1.212  -3.081  -5.988  0.00  0.00     0.000 A 
ATOM      6  C7  UNL d   1      -1.868  -4.323  -5.987  0.00  0.00    -0.073 A 
ATOM      7  C8  UNL d   1      -1.039  -5.578  -5.975  0.00  0.00     0.078 C 
ENDROOT
BRANCH   1   8
ATOM      8  C1  UNL d   1      -4.056  -5.652  -5.913  0.00  0.00     0.053 C 
ATOM      9  C   UNL d   1      -5.560  -5.431  -5.922  0.00  0.00     0.018 C 
ENDBRANCH   1   8
TORSDOF 1
ENDMDL
