MODEL 1
REMARK minimizedAffinity -2.30046105
REMARK minimizedRMSD -1
REMARK  1 active torsions:
REMARK  status: ('A' for Active; 'I' for Inactive)
REMARK    1  A    between atoms: C1_2  and  C2_3 
ROOT
ATOM      1  C2  UNL d   1       1.855  -5.513  -3.936  0.00  0.00    -0.076 A 
ATOM      2  C3  UNL d   1       2.805  -5.394  -4.965  0.00  0.00     0.004 A 
ATOM      3  C4  UNL d   1       4.165  -5.555  -4.708  0.00  0.00    -0.003 A 
ATOM      4  C5  UNL d   1       4.598  -5.837  -3.417  0.00  0.00     0.000 A 
ATOM      5  C6  UNL d   1       3.668  -5.975  -2.387  0.00  0.00     0.000 A 
ATOM      6  C7  UNL d   1       2.291  -5.833  -2.633  0.00  0.00    -0.073 A 
ATOM      7  C8  UNL d   1       1.333  -5.986  -1.484  0.00  0.00     0.078 C 
ENDROOT
BRANCH   1   8
ATOM      8  C1  UNL d   1       0.395  -5.301  -4.270  0.00  0.00     0.053 C 
ATOM      9  C   UNL d   1       0.200  -4.457  -5.520  0.00  0.00     0.018 C 
ENDBRANCH   1   8
TORSDOF 1
ENDMDL
