MODEL 1
REMARK minimizedAffinity 2.7735436
REMARK minimizedRMSD -1
REMARK  1 active torsions:
REMARK  status: ('A' for Active; 'I' for Inactive)
REMARK    1  A    between atoms: C1_2  and  C2_3 
ROOT
ATOM      1  C2  UNL d   1      -4.389  -2.355   3.800  0.00  0.00    -0.076 A 
ATOM      2  C3  UNL d   1      -5.705  -2.780   4.052  0.00  0.00     0.004 A 
ATOM      3  C4  UNL d   1      -5.999  -3.596   5.143  0.00  0.00    -0.003 A 
ATOM      4  C5  UNL d   1      -4.982  -4.000   6.000  0.00  0.00     0.000 A 
ATOM      5  C6  UNL d   1      -3.673  -3.574   5.775  0.00  0.00     0.000 A 
ATOM      6  C7  UNL d   1      -3.362  -2.738   4.689  0.00  0.00    -0.073 A 
ATOM      7  C8  UNL d   1      -1.933  -2.314   4.491  0.00  0.00     0.078 C 
ENDROOT
BRANCH   1   8
ATOM      8  C1  UNL d   1      -4.126  -1.493   2.586  0.00  0.00     0.053 C 
ATOM      9  C   UNL d   1      -4.886  -0.176   2.630  0.00  0.00     0.018 C 
ENDBRANCH   1   8
TORSDOF 1
ENDMDL
