MODEL 1
REMARK minimizedAffinity 9.3415184
REMARK minimizedRMSD -1
REMARK  1 active torsions:
REMARK  status: ('A' for Active; 'I' for Inactive)
REMARK    1  A    between atoms: C1_2  and  C2_3 
ROOT
ATOM      1  C2  UNL d   1      -2.005  -3.154  -5.971  0.00  0.00    -0.076 A 
ATOM      2  C3  UNL d   1      -0.811  -3.895  -5.981  0.00  0.00     0.004 A 
ATOM      3  C4  UNL d   1      -0.832  -5.289  -5.981  0.00  0.00    -0.003 A 
ATOM      4  C5  UNL d   1      -2.047  -5.964  -5.971  0.00  0.00     0.000 A 
ATOM      5  C6  UNL d   1      -3.242  -5.244  -5.979  0.00  0.00     0.000 A 
ATOM      6  C7  UNL d   1      -3.239  -3.839  -5.996  0.00  0.00    -0.073 A 
ATOM      7  C8  UNL d   1      -4.557  -3.114  -5.998  0.00  0.00     0.078 C 
ENDROOT
BRANCH   1   8
ATOM      8  C1  UNL d   1      -1.920  -1.644  -5.944  0.00  0.00     0.053 C 
ATOM      9  C   UNL d   1      -0.775  -1.140  -5.080  0.00  0.00     0.018 C 
ENDBRANCH   1   8
TORSDOF 1
ENDMDL
