MODEL 1
REMARK minimizedAffinity 10.9305639
REMARK minimizedRMSD -1
REMARK  1 active torsions:
REMARK  status: ('A' for Active; 'I' for Inactive)
REMARK    1  A    between atoms: C1_2  and  C2_3 
ROOT
ATOM      1  C2  UNL d   1       0.325   4.880  -2.066  0.00  0.00    -0.076 A 
ATOM      2  C3  UNL d   1      -1.013   4.537  -2.326  0.00  0.00     0.004 A 
ATOM      3  C4  UNL d   1      -1.764   3.823  -1.394  0.00  0.00    -0.003 A 
ATOM      4  C5  UNL d   1      -1.190   3.442  -0.186  0.00  0.00     0.000 A 
ATOM      5  C6  UNL d   1       0.130   3.789   0.096  0.00  0.00     0.000 A 
ATOM      6  C7  UNL d   1       0.897   4.522  -0.826  0.00  0.00    -0.073 A 
ATOM      7  C8  UNL d   1       2.318   4.865  -0.472  0.00  0.00     0.078 C 
ENDROOT
BRANCH   1   8
ATOM      8  C1  UNL d   1       1.100   5.631  -3.126  0.00  0.00     0.053 C 
ATOM      9  C   UNL d   1       0.242   5.991  -4.329  0.00  0.00     0.018 C 
ENDBRANCH   1   8
TORSDOF 1
ENDMDL
