MODEL 1
REMARK minimizedAffinity 5.56346512
REMARK minimizedRMSD -1
REMARK  2 active torsions:
REMARK  status: ('A' for Active; 'I' for Inactive)
REMARK    1  A    between atoms: C1_2  and  C2_3 
REMARK    2  A    between atoms: C2_3  and  C3_4 
ROOT
ATOM      1  C3  UNL d   1       1.685  -0.924   2.185  0.00  0.00    -0.075 A 
ATOM      2  C4  UNL d   1       1.959  -0.579   3.516  0.00  0.00     0.002 A 
ATOM      3  C5  UNL d   1       2.599   0.623   3.819  0.00  0.00     0.002 A 
ATOM      4  C6  UNL d   1       2.981   1.489   2.796  0.00  0.00    -0.004 A 
ATOM      5  C7  UNL d   1       2.729   1.148   1.469  0.00  0.00     0.002 A 
ATOM      6  C8  UNL d   1       2.085  -0.052   1.164  0.00  0.00     0.002 A 
ENDROOT
BRANCH   1   7
ATOM      7  C2  UNL d   1       0.967  -2.210   1.852  0.00  0.00     0.056 C 
BRANCH   7   8
ATOM      8  C1  UNL d   1       0.094  -2.130   0.595  0.00  0.00     0.007 C 
ATOM      9  C   UNL d   1       0.251  -3.336  -0.322  0.00  0.00     0.009 C 
ENDBRANCH   7   8
ENDBRANCH   1   7
TORSDOF 2
ENDMDL
