MODEL 1
REMARK minimizedAffinity 3.70574045
REMARK minimizedRMSD -1
REMARK  2 active torsions:
REMARK  status: ('A' for Active; 'I' for Inactive)
REMARK    1  A    between atoms: C1_2  and  C2_3 
REMARK    2  A    between atoms: C2_3  and  C3_4 
ROOT
ATOM      1  C3  UNL d   1       1.116  -2.502   2.986  0.00  0.00    -0.075 A 
ATOM      2  C4  UNL d   1       0.233  -3.007   2.020  0.00  0.00     0.002 A 
ATOM      3  C5  UNL d   1      -0.055  -2.272   0.871  0.00  0.00     0.002 A 
ATOM      4  C6  UNL d   1       0.526  -1.020   0.677  0.00  0.00    -0.004 A 
ATOM      5  C7  UNL d   1       1.391  -0.502   1.637  0.00  0.00     0.002 A 
ATOM      6  C8  UNL d   1       1.685  -1.238   2.787  0.00  0.00     0.002 A 
ENDROOT
BRANCH   1   7
ATOM      7  C2  UNL d   1       1.455  -3.306   4.219  0.00  0.00     0.056 C 
BRANCH   7   8
ATOM      8  C1  UNL d   1       2.951  -3.348   4.544  0.00  0.00     0.007 C 
ATOM      9  C   UNL d   1       3.240  -3.699   5.998  0.00  0.00     0.009 C 
ENDBRANCH   7   8
ENDBRANCH   1   7
TORSDOF 2
ENDMDL
