MODEL 1
REMARK minimizedAffinity 1.34889519
REMARK minimizedRMSD -1
REMARK  2 active torsions:
REMARK  status: ('A' for Active; 'I' for Inactive)
REMARK    1  A    between atoms: C1_2  and  C2_3 
REMARK    2  A    between atoms: C2_3  and  C3_4 
ROOT
ATOM      1  C3  UNL d   1      -0.633  -1.484  -0.490  0.00  0.00    -0.075 A 
ATOM      2  C4  UNL d   1       0.209  -2.209   0.366  0.00  0.00     0.002 A 
ATOM      3  C5  UNL d   1       0.693  -3.462  -0.011  0.00  0.00     0.002 A 
ATOM      4  C6  UNL d   1       0.334  -4.010  -1.240  0.00  0.00    -0.004 A 
ATOM      5  C7  UNL d   1      -0.515  -3.306  -2.091  0.00  0.00     0.002 A 
ATOM      6  C8  UNL d   1      -0.998  -2.050  -1.719  0.00  0.00     0.002 A 
ENDROOT
BRANCH   1   7
ATOM      7  C2  UNL d   1      -1.137  -0.115  -0.100  0.00  0.00     0.056 C 
BRANCH   7   8
ATOM      8  C1  UNL d   1      -0.424   1.038  -0.814  0.00  0.00     0.007 C 
ATOM      9  C   UNL d   1       0.875   1.453  -0.136  0.00  0.00     0.009 C 
ENDBRANCH   7   8
ENDBRANCH   1   7
TORSDOF 2
ENDMDL
