MODEL 1
REMARK minimizedAffinity -3.36511898
REMARK minimizedRMSD -1
REMARK  2 active torsions:
REMARK  status: ('A' for Active; 'I' for Inactive)
REMARK    1  A    between atoms: C1_2  and  C2_3 
REMARK    2  A    between atoms: C2_3  and  C3_4 
ROOT
ATOM      1  C3  UNL d   1       0.283  -2.132   1.280  0.00  0.00    -0.075 A 
ATOM      2  C4  UNL d   1       0.702  -3.169   0.434  0.00  0.00     0.002 A 
ATOM      3  C5  UNL d   1      -0.091  -3.570  -0.641  0.00  0.00     0.002 A 
ATOM      4  C6  UNL d   1      -1.315  -2.949  -0.878  0.00  0.00    -0.004 A 
ATOM      5  C7  UNL d   1      -1.750  -1.930  -0.034  0.00  0.00     0.002 A 
ATOM      6  C8  UNL d   1      -0.956  -1.523   1.040  0.00  0.00     0.002 A 
ENDROOT
BRANCH   1   7
ATOM      7  C2  UNL d   1       1.150  -1.673   2.428  0.00  0.00     0.056 C 
BRANCH   7   8
ATOM      8  C1  UNL d   1       1.100  -2.592   3.653  0.00  0.00     0.007 C 
ATOM      9  C   UNL d   1       2.459  -3.171   4.025  0.00  0.00     0.009 C 
ENDBRANCH   7   8
ENDBRANCH   1   7
TORSDOF 2
ENDMDL
