MODEL 1
REMARK minimizedAffinity 6.04252005
REMARK minimizedRMSD -1
REMARK  0 active torsions:
REMARK  status: ('A' for Active; 'I' for Inactive)
ROOT
ATOM      1  N1  IND d   1       3.109   1.385   1.997  0.00  0.00    -0.196 N 
ATOM      2  C2  IND d   1       2.660   1.663   0.736  0.00  0.00     0.054 A 
ATOM      3  C3  IND d   1       1.930   0.631   0.258  0.00  0.00    -0.031 A 
ATOM      4  C4  IND d   1       1.261  -1.572   1.412  0.00  0.00     0.051 A 
ATOM      5  C5  IND d   1       1.464  -2.294   2.554  0.00  0.00    -0.031 A 
ATOM      6  C6  IND d   1       2.239  -1.817   3.591  0.00  0.00     0.015 A 
ATOM      7  C7  IND d   1       2.834  -0.588   3.528  0.00  0.00    -0.016 A 
ATOM      8  C8  IND d   1       2.636   0.145   2.367  0.00  0.00    -0.047 A 
ATOM      9  C9  IND d   1       1.885  -0.352   1.294  0.00  0.00    -0.096 A 
ATOM     10  HN1 IND d   1       3.605   1.897   2.477  0.00  0.00     0.298 HD
ENDROOT
TORSDOF 0
ENDMDL
