MODEL 1
REMARK minimizedAffinity 11.0915632
REMARK minimizedRMSD -1
REMARK  0 active torsions:
REMARK  status: ('A' for Active; 'I' for Inactive)
ROOT
ATOM      1  N1  IND d   1      -3.867   2.852  -5.349  0.00  0.00    -0.196 N 
ATOM      2  C2  IND d   1      -5.171   2.861  -5.759  0.00  0.00     0.054 A 
ATOM      3  C3  IND d   1      -6.000   2.821  -4.692  0.00  0.00    -0.031 A 
ATOM      4  C4  IND d   1      -5.436   2.840  -2.181  0.00  0.00     0.051 A 
ATOM      5  C5  IND d   1      -4.381   2.792  -1.313  0.00  0.00    -0.031 A 
ATOM      6  C6  IND d   1      -3.074   2.763  -1.756  0.00  0.00     0.015 A 
ATOM      7  C7  IND d   1      -2.772   2.794  -3.088  0.00  0.00    -0.016 A 
ATOM      8  C8  IND d   1      -3.841   2.835  -3.971  0.00  0.00    -0.047 A 
ATOM      9  C9  IND d   1      -5.170   2.821  -3.529  0.00  0.00    -0.096 A 
ATOM     10  HN1 IND d   1      -3.178   2.856  -5.864  0.00  0.00     0.298 HD
ENDROOT
TORSDOF 0
ENDMDL
