MODEL 1
REMARK minimizedAffinity 4.90556049
REMARK minimizedRMSD -1
REMARK  0 active torsions:
REMARK  status: ('A' for Active; 'I' for Inactive)
ROOT
ATOM      1  N1  IND d   1       1.502   0.917   0.114  0.00  0.00    -0.196 N 
ATOM      2  C2  IND d   1       2.507   1.728   0.562  0.00  0.00     0.054 A 
ATOM      3  C3  IND d   1       3.074   1.204   1.672  0.00  0.00    -0.031 A 
ATOM      4  C4  IND d   1       2.581  -1.023   2.865  0.00  0.00     0.051 A 
ATOM      5  C5  IND d   1       1.725  -2.088   2.847  0.00  0.00    -0.031 A 
ATOM      6  C6  IND d   1       0.733  -2.210   1.897  0.00  0.00     0.015 A 
ATOM      7  C7  IND d   1       0.566  -1.273   0.917  0.00  0.00    -0.016 A 
ATOM      8  C8  IND d   1       1.429  -0.186   0.936  0.00  0.00    -0.047 A 
ATOM      9  C9  IND d   1       2.411  -0.036   1.924  0.00  0.00    -0.096 A 
ATOM     10  HN1 IND d   1       1.000   1.069  -0.568  0.00  0.00     0.298 HD
ENDROOT
TORSDOF 0
ENDMDL
