MODEL 1
REMARK minimizedAffinity 8.57605171
REMARK minimizedRMSD -1
REMARK  0 active torsions:
REMARK  status: ('A' for Active; 'I' for Inactive)
ROOT
ATOM      1  N1  IND d   1       1.145  -2.507   2.783  0.00  0.00    -0.196 N 
ATOM      2  C2  IND d   1       1.482  -1.322   2.190  0.00  0.00     0.054 A 
ATOM      3  C3  IND d   1       2.730  -0.952   2.556  0.00  0.00    -0.031 A 
ATOM      4  C4  IND d   1       4.436  -2.190   4.035  0.00  0.00     0.051 A 
ATOM      5  C5  IND d   1       4.571  -3.293   4.831  0.00  0.00    -0.031 A 
ATOM      6  C6  IND d   1       3.552  -4.210   4.986  0.00  0.00     0.015 A 
ATOM      7  C7  IND d   1       2.358  -4.064   4.338  0.00  0.00    -0.016 A 
ATOM      8  C8  IND d   1       2.214  -2.942   3.535  0.00  0.00    -0.047 A 
ATOM      9  C9  IND d   1       3.230  -1.985   3.407  0.00  0.00    -0.096 A 
ATOM     10  HN1 IND d   1       0.391  -2.913   2.699  0.00  0.00     0.298 HD
ENDROOT
TORSDOF 0
ENDMDL
