MODEL 1
REMARK minimizedAffinity 5.99820232
REMARK minimizedRMSD -1
REMARK  0 active torsions:
REMARK  status: ('A' for Active; 'I' for Inactive)
ROOT
ATOM      1  N1  IND d   1       0.190  -2.898  -2.866  0.00  0.00    -0.196 N 
ATOM      2  C2  IND d   1       1.491  -3.160  -2.542  0.00  0.00     0.054 A 
ATOM      3  C3  IND d   1       1.749  -2.765  -1.275  0.00  0.00    -0.031 A 
ATOM      4  C4  IND d   1       0.158  -1.758   0.481  0.00  0.00     0.051 A 
ATOM      5  C5  IND d   1      -1.119  -1.299   0.639  0.00  0.00    -0.031 A 
ATOM      6  C6  IND d   1      -2.045  -1.353  -0.383  0.00  0.00     0.015 A 
ATOM      7  C7  IND d   1      -1.730  -1.880  -1.603  0.00  0.00    -0.016 A 
ATOM      8  C8  IND d   1      -0.432  -2.341  -1.769  0.00  0.00    -0.047 A 
ATOM      9  C9  IND d   1       0.524  -2.251  -0.750  0.00  0.00    -0.096 A 
ATOM     10  HN1 IND d   1      -0.179  -3.054  -3.627  0.00  0.00     0.298 HD
ENDROOT
TORSDOF 0
ENDMDL
