MODEL 1
REMARK minimizedAffinity 2.48638868
REMARK minimizedRMSD -1
REMARK  0 active torsions:
REMARK  status: ('A' for Active; 'I' for Inactive)
ROOT
ATOM      1  N1  IND d   1       1.211  -3.180   2.362  0.00  0.00    -0.196 N 
ATOM      2  C2  IND d   1       0.806  -3.134   1.057  0.00  0.00     0.054 A 
ATOM      3  C3  IND d   1       1.204  -1.977   0.481  0.00  0.00    -0.031 A 
ATOM      4  C4  IND d   1       2.619  -0.064   1.464  0.00  0.00     0.051 A 
ATOM      5  C5  IND d   1       3.193   0.363   2.628  0.00  0.00    -0.031 A 
ATOM      6  C6  IND d   1       3.137  -0.386   3.786  0.00  0.00     0.015 A 
ATOM      7  C7  IND d   1       2.512  -1.600   3.820  0.00  0.00    -0.016 A 
ATOM      8  C8  IND d   1       1.922  -2.034   2.641  0.00  0.00    -0.047 A 
ATOM      9  C9  IND d   1       1.939  -1.259   1.474  0.00  0.00    -0.096 A 
ATOM     10  HN1 IND d   1       1.049  -3.818   2.915  0.00  0.00     0.298 HD
ENDROOT
TORSDOF 0
ENDMDL
