MODEL 1
REMARK minimizedAffinity 6.18575954
REMARK minimizedRMSD -1
REMARK  0 active torsions:
REMARK  status: ('A' for Active; 'I' for Inactive)
ROOT
ATOM      1  N1  IND d   1      -0.124  -2.650  -2.803  0.00  0.00    -0.196 N 
ATOM      2  C2  IND d   1       1.135  -2.332  -2.376  0.00  0.00     0.054 A 
ATOM      3  C3  IND d   1       1.075  -1.571  -1.261  0.00  0.00    -0.031 A 
ATOM      4  C4  IND d   1      -0.979  -0.813   0.093  0.00  0.00     0.051 A 
ATOM      5  C5  IND d   1      -2.345  -0.826   0.076  0.00  0.00    -0.031 A 
ATOM      6  C6  IND d   1      -3.056  -1.463  -0.921  0.00  0.00     0.015 A 
ATOM      7  C7  IND d   1      -2.423  -2.124  -1.936  0.00  0.00    -0.016 A 
ATOM      8  C8  IND d   1      -1.036  -2.106  -1.925  0.00  0.00    -0.047 A 
ATOM      9  C9  IND d   1      -0.309  -1.425  -0.940  0.00  0.00    -0.096 A 
ATOM     10  HN1 IND d   1      -0.315  -3.112  -3.503  0.00  0.00     0.298 HD
ENDROOT
TORSDOF 0
ENDMDL
