MODEL 1
REMARK minimizedAffinity 6.31091452
REMARK minimizedRMSD -1
REMARK  0 active torsions:
REMARK  status: ('A' for Active; 'I' for Inactive)
ROOT
ATOM      1  N1  IND d   1      -2.598   0.987   1.542  0.00  0.00    -0.196 N 
ATOM      2  C2  IND d   1      -2.219   0.775   0.246  0.00  0.00     0.054 A 
ATOM      3  C3  IND d   1      -3.085   1.375  -0.602  0.00  0.00    -0.031 A 
ATOM      4  C4  IND d   1      -5.135   2.842  -0.078  0.00  0.00     0.051 A 
ATOM      5  C5  IND d   1      -5.900   3.291   0.961  0.00  0.00    -0.031 A 
ATOM      6  C6  IND d   1      -5.597   2.992   2.273  0.00  0.00     0.015 A 
ATOM      7  C7  IND d   1      -4.504   2.238   2.598  0.00  0.00    -0.016 A 
ATOM      8  C8  IND d   1      -3.729   1.774   1.545  0.00  0.00    -0.047 A 
ATOM      9  C9  IND d   1      -4.056   2.039   0.209  0.00  0.00    -0.096 A 
ATOM     10  HN1 IND d   1      -2.197   0.681   2.238  0.00  0.00     0.298 HD
ENDROOT
TORSDOF 0
ENDMDL
