MODEL 1
REMARK minimizedAffinity 5.5556345
REMARK minimizedRMSD -1
REMARK  0 active torsions:
REMARK  status: ('A' for Active; 'I' for Inactive)
ROOT
ATOM      1  N1  IND d   1       1.889  -1.419   3.621  0.00  0.00    -0.196 N 
ATOM      2  C2  IND d   1       1.646  -2.356   2.656  0.00  0.00     0.054 A 
ATOM      3  C3  IND d   1       1.862  -1.832   1.428  0.00  0.00    -0.031 A 
ATOM      4  C4  IND d   1       2.714   0.507   0.774  0.00  0.00     0.051 A 
ATOM      5  C5  IND d   1       3.039   1.723   1.307  0.00  0.00    -0.031 A 
ATOM      6  C6  IND d   1       2.998   1.958   2.666  0.00  0.00     0.015 A 
ATOM      7  C7  IND d   1       2.641   0.977   3.548  0.00  0.00    -0.016 A 
ATOM      8  C8  IND d   1       2.304  -0.257   3.010  0.00  0.00    -0.047 A 
ATOM      9  C9  IND d   1       2.302  -0.488   1.628  0.00  0.00    -0.096 A 
ATOM     10  HN1 IND d   1       1.797  -1.536   4.468  0.00  0.00     0.298 HD
ENDROOT
TORSDOF 0
ENDMDL
