MODEL 1
REMARK minimizedAffinity 11.6666994
REMARK minimizedRMSD -1
REMARK  0 active torsions:
REMARK  status: ('A' for Active; 'I' for Inactive)
ROOT
ATOM      1  N1  IND d   1      -1.265  -0.727   0.549  0.00  0.00    -0.196 N 
ATOM      2  C2  IND d   1      -2.346  -0.618  -0.281  0.00  0.00     0.054 A 
ATOM      3  C3  IND d   1      -2.143  -1.329  -1.413  0.00  0.00    -0.031 A 
ATOM      4  C4  IND d   1      -0.155  -2.828  -2.068  0.00  0.00     0.051 A 
ATOM      5  C5  IND d   1       1.087  -3.214  -1.650  0.00  0.00    -0.031 A 
ATOM      6  C6  IND d   1       1.618  -2.784  -0.451  0.00  0.00     0.015 A 
ATOM      7  C7  IND d   1       0.919  -1.958   0.383  0.00  0.00    -0.016 A 
ATOM      8  C8  IND d   1      -0.340  -1.558  -0.043  0.00  0.00    -0.047 A 
ATOM      9  C9  IND d   1      -0.867  -1.957  -1.278  0.00  0.00    -0.096 A 
ATOM     10  HN1 IND d   1      -1.179  -0.342   1.313  0.00  0.00     0.298 HD
ENDROOT
TORSDOF 0
ENDMDL
