MODEL 1
REMARK minimizedAffinity -3.93516397
REMARK minimizedRMSD -1
REMARK  1 active torsions:
REMARK  status: ('A' for Active; 'I' for Inactive)
REMARK    1  A    between atoms: C1_2  and  C2_3 
ROOT
ATOM      1  C2  UNL d   1      -0.065   0.117   0.038  0.00  0.00    -0.073 A 
ATOM      2  C3  UNL d   1      -0.429  -1.234   0.018  0.00  0.00    -0.002 A 
ATOM      3  C4  UNL d   1       0.461  -2.196  -0.460  0.00  0.00     0.004 A 
ATOM      4  C5  UNL d   1       1.724  -1.820  -0.917  0.00  0.00    -0.004 A 
ATOM      5  C6  UNL d   1       2.110  -0.476  -0.894  0.00  0.00    -0.075 A 
ATOM      6  C7  UNL d   1       3.464  -0.054  -1.384  0.00  0.00     0.076 C 
ATOM      7  C8  UNL d   1       1.210   0.485  -0.415  0.00  0.00     0.001 A 
ENDROOT
BRANCH   1   8
ATOM      8  C1  UNL d   1      -1.020   1.160   0.560  0.00  0.00     0.053 C 
ATOM      9  C   UNL d   1      -2.040   0.569   1.520  0.00  0.00     0.018 C 
ENDBRANCH   1   8
TORSDOF 1
ENDMDL
