MODEL 1
REMARK minimizedAffinity -5.14173174
REMARK minimizedRMSD -1
REMARK  1 active torsions:
REMARK  status: ('A' for Active; 'I' for Inactive)
REMARK    1  A    between atoms: C1_2  and  C2_3 
ROOT
ATOM      1  C2  UNL d   1      -1.241   0.052   0.352  0.00  0.00    -0.073 A 
ATOM      2  C3  UNL d   1      -1.224   0.987  -0.689  0.00  0.00    -0.002 A 
ATOM      3  C4  UNL d   1      -0.193   0.975  -1.630  0.00  0.00     0.004 A 
ATOM      4  C5  UNL d   1       0.825   0.025  -1.545  0.00  0.00    -0.004 A 
ATOM      5  C6  UNL d   1       0.818  -0.925  -0.519  0.00  0.00    -0.075 A 
ATOM      6  C7  UNL d   1       1.907  -1.952  -0.412  0.00  0.00     0.076 C 
ATOM      7  C8  UNL d   1      -0.219  -0.905   0.424  0.00  0.00     0.001 A 
ENDROOT
BRANCH   1   8
ATOM      8  C1  UNL d   1      -2.355   0.057   1.366  0.00  0.00     0.053 C 
ATOM      9  C   UNL d   1      -1.943   0.737   2.662  0.00  0.00     0.018 C 
ENDBRANCH   1   8
TORSDOF 1
ENDMDL
