MODEL 1
REMARK minimizedAffinity 1.53688896
REMARK minimizedRMSD -1
REMARK  1 active torsions:
REMARK  status: ('A' for Active; 'I' for Inactive)
REMARK    1  A    between atoms: C1_2  and  C2_3 
ROOT
ATOM      1  C2  UNL d   1       5.259   1.317   4.767  0.00  0.00    -0.073 A 
ATOM      2  C3  UNL d   1       3.895   1.249   4.464  0.00  0.00    -0.002 A 
ATOM      3  C4  UNL d   1       3.214   2.382   4.017  0.00  0.00     0.004 A 
ATOM      4  C5  UNL d   1       3.891   3.592   3.861  0.00  0.00    -0.004 A 
ATOM      5  C6  UNL d   1       5.258   3.677   4.147  0.00  0.00    -0.075 A 
ATOM      6  C7  UNL d   1       6.000   4.971   3.987  0.00  0.00     0.076 C 
ATOM      7  C8  UNL d   1       5.933   2.535   4.599  0.00  0.00     0.001 A 
ENDROOT
BRANCH   1   8
ATOM      8  C1  UNL d   1       5.999   0.095   5.245  0.00  0.00     0.053 C 
ATOM      9  C   UNL d   1       5.154  -1.164   5.133  0.00  0.00     0.018 C 
ENDBRANCH   1   8
TORSDOF 1
ENDMDL
