MODEL 1
REMARK minimizedAffinity -3.64852285
REMARK minimizedRMSD -1
REMARK  1 active torsions:
REMARK  status: ('A' for Active; 'I' for Inactive)
REMARK    1  A    between atoms: C1_2  and  C2_3 
ROOT
ATOM      1  C2  UNL d   1      -0.815   0.097   0.535  0.00  0.00    -0.073 A 
ATOM      2  C3  UNL d   1      -0.563   1.380   0.036  0.00  0.00    -0.002 A 
ATOM      3  C4  UNL d   1       0.515   1.605  -0.820  0.00  0.00     0.004 A 
ATOM      4  C5  UNL d   1       1.348   0.549  -1.192  0.00  0.00    -0.004 A 
ATOM      5  C6  UNL d   1       1.105  -0.743  -0.714  0.00  0.00    -0.075 A 
ATOM      6  C7  UNL d   1       1.992  -1.888  -1.103  0.00  0.00     0.076 C 
ATOM      7  C8  UNL d   1       0.022  -0.959   0.148  0.00  0.00     0.001 A 
ENDROOT
BRANCH   1   8
ATOM      8  C1  UNL d   1      -1.982  -0.151   1.455  0.00  0.00     0.053 C 
ATOM      9  C   UNL d   1      -1.895   0.681   2.724  0.00  0.00     0.018 C 
ENDBRANCH   1   8
TORSDOF 1
ENDMDL
