MODEL 1
REMARK minimizedAffinity -3.94217181
REMARK minimizedRMSD -1
REMARK  1 active torsions:
REMARK  status: ('A' for Active; 'I' for Inactive)
REMARK    1  A    between atoms: C1_2  and  C2_3 
ROOT
ATOM      1  C2  UNL d   1       0.119   0.055  -0.624  0.00  0.00    -0.073 A 
ATOM      2  C3  UNL d   1       1.131   0.807  -1.232  0.00  0.00    -0.002 A 
ATOM      3  C4  UNL d   1       2.347   0.209  -1.569  0.00  0.00     0.004 A 
ATOM      4  C5  UNL d   1       2.559  -1.144  -1.308  0.00  0.00    -0.004 A 
ATOM      5  C6  UNL d   1       1.556  -1.915  -0.712  0.00  0.00    -0.075 A 
ATOM      6  C7  UNL d   1       1.770  -3.371  -0.423  0.00  0.00     0.076 C 
ATOM      7  C8  UNL d   1       0.339  -1.307  -0.374  0.00  0.00     0.001 A 
ENDROOT
BRANCH   1   8
ATOM      8  C1  UNL d   1      -1.197   0.695  -0.264  0.00  0.00     0.053 C 
ATOM      9  C   UNL d   1      -1.540   0.506   1.206  0.00  0.00     0.018 C 
ENDBRANCH   1   8
TORSDOF 1
ENDMDL
