MODEL 1
REMARK minimizedAffinity -0.863353789
REMARK minimizedRMSD -1
REMARK  1 active torsions:
REMARK  status: ('A' for Active; 'I' for Inactive)
REMARK    1  A    between atoms: C1_2  and  C2_3 
ROOT
ATOM      1  C2  UNL d   1      -1.341   0.662   1.626  0.00  0.00    -0.073 A 
ATOM      2  C3  UNL d   1      -1.048   1.897   2.216  0.00  0.00    -0.002 A 
ATOM      3  C4  UNL d   1      -1.477   2.178   3.513  0.00  0.00     0.004 A 
ATOM      4  C5  UNL d   1      -2.196   1.226   4.236  0.00  0.00    -0.004 A 
ATOM      5  C6  UNL d   1      -2.488  -0.018   3.669  0.00  0.00    -0.075 A 
ATOM      6  C7  UNL d   1      -3.262  -1.052   4.433  0.00  0.00     0.076 C 
ATOM      7  C8  UNL d   1      -2.056  -0.292   2.364  0.00  0.00     0.001 A 
ENDROOT
BRANCH   1   8
ATOM      8  C1  UNL d   1      -0.874   0.351   0.227  0.00  0.00     0.053 C 
ATOM      9  C   UNL d   1       0.566   0.782  -0.001  0.00  0.00     0.018 C 
ENDBRANCH   1   8
TORSDOF 1
ENDMDL
