MODEL 1
REMARK minimizedAffinity -6.72523546
REMARK minimizedRMSD -1
REMARK  1 active torsions:
REMARK  status: ('A' for Active; 'I' for Inactive)
REMARK    1  A    between atoms: C1_2  and  C2_3 
ROOT
ATOM      1  C2  UNL d   1       1.642  -0.084  -1.322  0.00  0.00    -0.073 A 
ATOM      2  C3  UNL d   1       1.801  -1.469  -1.207  0.00  0.00    -0.002 A 
ATOM      3  C4  UNL d   1       0.864  -2.231  -0.508  0.00  0.00     0.004 A 
ATOM      4  C5  UNL d   1      -0.244  -1.617   0.077  0.00  0.00    -0.004 A 
ATOM      5  C6  UNL d   1      -0.427  -0.235  -0.037  0.00  0.00    -0.075 A 
ATOM      6  C7  UNL d   1      -1.612   0.441   0.588  0.00  0.00     0.076 C 
ATOM      7  C8  UNL d   1       0.520   0.523  -0.739  0.00  0.00     0.001 A 
ENDROOT
BRANCH   1   8
ATOM      8  C1  UNL d   1       2.647   0.742  -2.082  0.00  0.00     0.053 C 
ATOM      9  C   UNL d   1       1.978   1.756  -2.996  0.00  0.00     0.018 C 
ENDBRANCH   1   8
TORSDOF 1
ENDMDL
