MODEL 1
REMARK minimizedAffinity -6.24913931
REMARK minimizedRMSD -1
REMARK  1 active torsions:
REMARK  status: ('A' for Active; 'I' for Inactive)
REMARK    1  A    between atoms: C1_2  and  C2_3 
ROOT
ATOM      1  C2  UNL d   1      -0.103  -0.232  -0.141  0.00  0.00    -0.073 A 
ATOM      2  C3  UNL d   1      -0.234  -1.617   0.014  0.00  0.00    -0.002 A 
ATOM      3  C4  UNL d   1       0.767  -2.475  -0.442  0.00  0.00     0.004 A 
ATOM      4  C5  UNL d   1       1.912  -1.958  -1.050  0.00  0.00    -0.004 A 
ATOM      5  C6  UNL d   1       2.067  -0.577  -1.203  0.00  0.00    -0.075 A 
ATOM      6  C7  UNL d   1       3.290  -0.005  -1.856  0.00  0.00     0.076 C 
ATOM      7  C8  UNL d   1       1.055   0.278  -0.744  0.00  0.00     0.001 A 
ENDROOT
BRANCH   1   8
ATOM      8  C1  UNL d   1      -1.179   0.699   0.356  0.00  0.00     0.053 C 
ATOM      9  C   UNL d   1      -1.637   0.342   1.761  0.00  0.00     0.018 C 
ENDBRANCH   1   8
TORSDOF 1
ENDMDL
