MODEL 1
REMARK minimizedAffinity -4.2514677
REMARK minimizedRMSD -1
REMARK  1 active torsions:
REMARK  status: ('A' for Active; 'I' for Inactive)
REMARK    1  A    between atoms: C1_2  and  C2_3 
ROOT
ATOM      1  C2  UNL d   1      -0.655   0.364   0.249  0.00  0.00    -0.073 A 
ATOM      2  C3  UNL d   1      -0.663   1.540  -0.509  0.00  0.00    -0.002 A 
ATOM      3  C4  UNL d   1       0.367   1.802  -1.414  0.00  0.00     0.004 A 
ATOM      4  C5  UNL d   1       1.409   0.890  -1.575  0.00  0.00    -0.004 A 
ATOM      5  C6  UNL d   1       1.429  -0.297  -0.835  0.00  0.00    -0.075 A 
ATOM      6  C7  UNL d   1       2.544  -1.288  -0.994  0.00  0.00     0.076 C 
ATOM      7  C8  UNL d   1       0.393  -0.551   0.074  0.00  0.00     0.001 A 
ENDROOT
BRANCH   1   8
ATOM      8  C1  UNL d   1      -1.768   0.074   1.223  0.00  0.00     0.053 C 
ATOM      9  C   UNL d   1      -1.858   1.127   2.316  0.00  0.00     0.018 C 
ENDBRANCH   1   8
TORSDOF 1
ENDMDL
