MODEL 1
REMARK minimizedAffinity -3.17556334
REMARK minimizedRMSD -1
REMARK  0 active torsions:
REMARK  status: ('A' for Active; 'I' for Inactive)
ROOT
ATOM      1  C   UNL d   1      -0.812  -0.706   0.999  0.00  0.00     0.020 A 
ATOM      2  C1  UNL d   1      -1.339   0.581   0.889  0.00  0.00     0.020 A 
ATOM      3  C2  UNL d   1      -0.696   1.532   0.094  0.00  0.00     0.034 A 
ATOM      4  C3  UNL d   1       0.477   1.199  -0.593  0.00  0.00     0.017 A 
ATOM      5  C4  UNL d   1       1.005  -0.092  -0.482  0.00  0.00     0.017 A 
ATOM      6  C5  UNL d   1       0.357  -1.041   0.316  0.00  0.00     0.034 A 
ATOM      7 Cl   UNL d   1       2.448  -0.577  -1.300  0.00  0.00    -0.070 Cl
ATOM      8 Cl1  UNL d   1       1.218   2.426  -1.558  0.00  0.00    -0.070 Cl
ENDROOT
TORSDOF 0
ENDMDL
