MODEL 1
REMARK minimizedAffinity -1.90354884
REMARK minimizedRMSD -1
REMARK  0 active torsions:
REMARK  status: ('A' for Active; 'I' for Inactive)
ROOT
ATOM      1  C   UNL d   1       2.627  -0.582  -1.537  0.00  0.00     0.020 A 
ATOM      2  C1  UNL d   1       2.487   0.805  -1.507  0.00  0.00     0.020 A 
ATOM      3  C2  UNL d   1       1.329   1.379  -0.978  0.00  0.00     0.034 A 
ATOM      4  C3  UNL d   1       0.306   0.565  -0.477  0.00  0.00     0.017 A 
ATOM      5  C4  UNL d   1       0.447  -0.827  -0.508  0.00  0.00     0.017 A 
ATOM      6  C5  UNL d   1       1.609  -1.396  -1.039  0.00  0.00     0.034 A 
ATOM      7 Cl   UNL d   1      -0.772  -1.896   0.091  0.00  0.00    -0.070 Cl
ATOM      8 Cl1  UNL d   1      -1.099   1.342   0.163  0.00  0.00    -0.070 Cl
ENDROOT
TORSDOF 0
ENDMDL
