MODEL 1
REMARK minimizedAffinity -3.13671994
REMARK minimizedRMSD -1
REMARK  0 active torsions:
REMARK  status: ('A' for Active; 'I' for Inactive)
ROOT
ATOM      1  C   UNL d   1       2.450   0.434  -0.815  0.00  0.00     0.020 A 
ATOM      2  C1  UNL d   1       2.765  -0.902  -1.054  0.00  0.00     0.020 A 
ATOM      3  C2  UNL d   1       1.792  -1.890  -0.888  0.00  0.00     0.034 A 
ATOM      4  C3  UNL d   1       0.499  -1.543  -0.482  0.00  0.00     0.017 A 
ATOM      5  C4  UNL d   1       0.183  -0.200  -0.242  0.00  0.00     0.017 A 
ATOM      6  C5  UNL d   1       1.161   0.784  -0.409  0.00  0.00     0.034 A 
ATOM      7 Cl   UNL d   1      -1.391   0.305   0.262  0.00  0.00    -0.070 Cl
ATOM      8 Cl1  UNL d   1      -0.654  -2.816  -0.297  0.00  0.00    -0.070 Cl
ENDROOT
TORSDOF 0
ENDMDL
