MODEL 1
REMARK minimizedAffinity -2.14858556
REMARK minimizedRMSD -1
REMARK  0 active torsions:
REMARK  status: ('A' for Active; 'I' for Inactive)
ROOT
ATOM      1  C   UNL d   1       0.323   1.781  -1.065  0.00  0.00     0.020 A 
ATOM      2  C1  UNL d   1      -0.786   1.165  -0.487  0.00  0.00     0.020 A 
ATOM      3  C2  UNL d   1      -0.728  -0.184  -0.131  0.00  0.00     0.034 A 
ATOM      4  C3  UNL d   1       0.441  -0.921  -0.353  0.00  0.00     0.017 A 
ATOM      5  C4  UNL d   1       1.553  -0.302  -0.933  0.00  0.00     0.017 A 
ATOM      6  C5  UNL d   1       1.490   1.049  -1.287  0.00  0.00     0.034 A 
ATOM      7 Cl   UNL d   1       3.031  -1.146  -1.237  0.00  0.00    -0.070 Cl
ATOM      8 Cl1  UNL d   1       0.441  -2.585   0.113  0.00  0.00    -0.070 Cl
ENDROOT
TORSDOF 0
ENDMDL
