MODEL 1
REMARK minimizedAffinity -3.60019422
REMARK minimizedRMSD -1
REMARK  0 active torsions:
REMARK  status: ('A' for Active; 'I' for Inactive)
ROOT
ATOM      1  C   UNL d   1       2.899  -0.753  -1.042  0.00  0.00     0.020 A 
ATOM      2  C1  UNL d   1       2.603   0.601  -0.888  0.00  0.00     0.020 A 
ATOM      3  C2  UNL d   1       1.352   0.992  -0.406  0.00  0.00     0.034 A 
ATOM      4  C3  UNL d   1       0.392   0.028  -0.078  0.00  0.00     0.017 A 
ATOM      5  C4  UNL d   1       0.690  -1.331  -0.233  0.00  0.00     0.017 A 
ATOM      6  C5  UNL d   1       1.944  -1.717  -0.715  0.00  0.00     0.034 A 
ATOM      7 Cl   UNL d   1      -0.443  -2.578   0.152  0.00  0.00    -0.070 Cl
ATOM      8 Cl1  UNL d   1      -1.135   0.582   0.513  0.00  0.00    -0.070 Cl
ENDROOT
TORSDOF 0
ENDMDL
