MODEL 1
REMARK minimizedAffinity -1.29500842
REMARK minimizedRMSD -1
REMARK  0 active torsions:
REMARK  status: ('A' for Active; 'I' for Inactive)
ROOT
ATOM      1  C   UNL d   1      -0.528   1.216  -0.164  0.00  0.00     0.020 A 
ATOM      2  C1  UNL d   1      -1.410   0.336   0.462  0.00  0.00     0.020 A 
ATOM      3  C2  UNL d   1      -1.049  -0.999   0.650  0.00  0.00     0.034 A 
ATOM      4  C3  UNL d   1       0.198  -1.459   0.211  0.00  0.00     0.017 A 
ATOM      5  C4  UNL d   1       1.084  -0.576  -0.416  0.00  0.00     0.017 A 
ATOM      6  C5  UNL d   1       0.717   0.761  -0.602  0.00  0.00     0.034 A 
ATOM      7 Cl   UNL d   1       2.640  -1.070  -0.984  0.00  0.00    -0.070 Cl
ATOM      8 Cl1  UNL d   1       0.579  -3.124   0.477  0.00  0.00    -0.070 Cl
ENDROOT
TORSDOF 0
ENDMDL
