MODEL 1
REMARK minimizedAffinity -1.79464293
REMARK minimizedRMSD -1
REMARK  0 active torsions:
REMARK  status: ('A' for Active; 'I' for Inactive)
ROOT
ATOM      1  C   UNL d   1      -0.578   0.222  -0.184  0.00  0.00     0.020 A 
ATOM      2  C1  UNL d   1       0.458   0.653   0.644  0.00  0.00     0.020 A 
ATOM      3  C2  UNL d   1       0.232   0.832   2.010  0.00  0.00     0.034 A 
ATOM      4  C3  UNL d   1      -1.034   0.581   2.553  0.00  0.00     0.017 A 
ATOM      5  C4  UNL d   1      -2.073   0.149   1.721  0.00  0.00     0.017 A 
ATOM      6  C5  UNL d   1      -1.841  -0.029   0.354  0.00  0.00     0.034 A 
ATOM      7 Cl   UNL d   1      -3.661  -0.182   2.318  0.00  0.00    -0.070 Cl
ATOM      8 Cl1  UNL d   1      -1.242   0.823   4.251  0.00  0.00    -0.070 Cl
ENDROOT
TORSDOF 0
ENDMDL
