MODEL 1
REMARK minimizedAffinity -1.98547792
REMARK minimizedRMSD -1
REMARK  0 active torsions:
REMARK  status: ('A' for Active; 'I' for Inactive)
ROOT
ATOM      1  C   UNL d   1      -0.701  -0.835   0.179  0.00  0.00     0.020 A 
ATOM      2  C1  UNL d   1      -1.413   0.355   0.038  0.00  0.00     0.020 A 
ATOM      3  C2  UNL d   1      -0.822   1.452  -0.593  0.00  0.00     0.034 A 
ATOM      4  C3  UNL d   1       0.484   1.360  -1.087  0.00  0.00     0.017 A 
ATOM      5  C4  UNL d   1       1.199   0.165  -0.945  0.00  0.00     0.017 A 
ATOM      6  C5  UNL d   1       0.602  -0.930  -0.312  0.00  0.00     0.034 A 
ATOM      7 Cl   UNL d   1       2.815  -0.024  -1.528  0.00  0.00    -0.070 Cl
ATOM      8 Cl1  UNL d   1       1.152   2.756  -1.857  0.00  0.00    -0.070 Cl
ENDROOT
TORSDOF 0
ENDMDL
