MODEL 1
REMARK minimizedAffinity -4.47696686
REMARK minimizedRMSD -1
REMARK  0 active torsions:
REMARK  status: ('A' for Active; 'I' for Inactive)
ROOT
ATOM      1  C   UNL d   1      -0.987  -0.396  -0.018  0.00  0.00     0.020 A 
ATOM      2  C1  UNL d   1      -0.237  -1.560   0.138  0.00  0.00     0.020 A 
ATOM      3  C2  UNL d   1       1.109  -1.578  -0.234  0.00  0.00     0.034 A 
ATOM      4  C3  UNL d   1       1.709  -0.430  -0.763  0.00  0.00     0.017 A 
ATOM      5  C4  UNL d   1       0.954   0.739  -0.919  0.00  0.00     0.017 A 
ATOM      6  C5  UNL d   1      -0.393   0.751  -0.546  0.00  0.00     0.034 A 
ATOM      7 Cl   UNL d   1       1.624   2.195  -1.565  0.00  0.00    -0.070 Cl
ATOM      8 Cl1  UNL d   1       3.378  -0.523  -1.200  0.00  0.00    -0.070 Cl
ENDROOT
TORSDOF 0
ENDMDL
