MODEL 1
REMARK minimizedAffinity -3.86706448
REMARK minimizedRMSD -1
REMARK  0 active torsions:
REMARK  status: ('A' for Active; 'I' for Inactive)
ROOT
ATOM      1  C   UNL d   1       2.569  -1.363  -0.738  0.00  0.00     0.020 A 
ATOM      2  C1  UNL d   1       1.441  -1.949  -0.165  0.00  0.00     0.020 A 
ATOM      3  C2  UNL d   1       0.287  -1.191   0.039  0.00  0.00     0.034 A 
ATOM      4  C3  UNL d   1       0.257   0.159  -0.330  0.00  0.00     0.017 A 
ATOM      5  C4  UNL d   1       1.389   0.747  -0.905  0.00  0.00     0.017 A 
ATOM      6  C5  UNL d   1       2.543  -0.017  -1.107  0.00  0.00     0.034 A 
ATOM      7 Cl   UNL d   1       1.428   2.407  -1.387  0.00  0.00    -0.070 Cl
ATOM      8 Cl1  UNL d   1      -1.205   1.037  -0.049  0.00  0.00    -0.070 Cl
ENDROOT
TORSDOF 0
ENDMDL
