MODEL 1
REMARK minimizedAffinity -3.34879112
REMARK minimizedRMSD -1
REMARK  0 active torsions:
REMARK  status: ('A' for Active; 'I' for Inactive)
ROOT
ATOM      1  C   UNL d   1       2.251   0.722  -1.884  0.00  0.00     0.020 A 
ATOM      2  C1  UNL d   1       2.593  -0.629  -1.875  0.00  0.00     0.020 A 
ATOM      3  C2  UNL d   1       1.744  -1.560  -1.271  0.00  0.00     0.034 A 
ATOM      4  C3  UNL d   1       0.550  -1.141  -0.674  0.00  0.00     0.017 A 
ATOM      5  C4  UNL d   1       0.208   0.216  -0.684  0.00  0.00     0.017 A 
ATOM      6  C5  UNL d   1       1.060   1.144  -1.289  0.00  0.00     0.034 A 
ATOM      7 Cl   UNL d   1      -1.249   0.809   0.033  0.00  0.00    -0.070 Cl
ATOM      8 Cl1  UNL d   1      -0.451  -2.347   0.053  0.00  0.00    -0.070 Cl
ENDROOT
TORSDOF 0
ENDMDL
