MODEL 1
REMARK minimizedAffinity -5.24075842
REMARK minimizedRMSD -1
REMARK  0 active torsions:
REMARK  status: ('A' for Active; 'I' for Inactive)
ROOT
ATOM      1  C   UNL d   1       2.877  -0.032  -1.284  0.00  0.00     0.020 A 
ATOM      2  C1  UNL d   1       2.308   1.241  -1.278  0.00  0.00     0.020 A 
ATOM      3  C2  UNL d   1       1.005   1.420  -0.809  0.00  0.00     0.034 A 
ATOM      4  C3  UNL d   1       0.267   0.326  -0.344  0.00  0.00     0.017 A 
ATOM      5  C4  UNL d   1       0.839  -0.951  -0.350  0.00  0.00     0.017 A 
ATOM      6  C5  UNL d   1       2.144  -1.126  -0.820  0.00  0.00     0.034 A 
ATOM      7 Cl   UNL d   1      -0.009  -2.350   0.209  0.00  0.00    -0.070 Cl
ATOM      8 Cl1  UNL d   1      -1.339   0.621   0.222  0.00  0.00    -0.070 Cl
ENDROOT
TORSDOF 0
ENDMDL
