MODEL 1
REMARK minimizedAffinity -4.87184954
REMARK minimizedRMSD -1
REMARK  0 active torsions:
REMARK  status: ('A' for Active; 'I' for Inactive)
ROOT
ATOM      1  C   UNL d   1       1.544  -1.970  -0.247  0.00  0.00     0.020 A 
ATOM      2  C1  UNL d   1       2.351  -1.336  -1.191  0.00  0.00     0.020 A 
ATOM      3  C2  UNL d   1       2.048  -0.040  -1.612  0.00  0.00     0.034 A 
ATOM      4  C3  UNL d   1       0.934   0.627  -1.089  0.00  0.00     0.017 A 
ATOM      5  C4  UNL d   1       0.124  -0.009  -0.142  0.00  0.00     0.017 A 
ATOM      6  C5  UNL d   1       0.433  -1.308   0.276  0.00  0.00     0.034 A 
ATOM      7 Cl   UNL d   1      -1.267   0.750   0.549  0.00  0.00    -0.070 Cl
ATOM      8 Cl1  UNL d   1       0.618   2.229  -1.655  0.00  0.00    -0.070 Cl
ENDROOT
TORSDOF 0
ENDMDL
