MODEL 1
REMARK minimizedAffinity -1.66786349
REMARK minimizedRMSD -1
REMARK  0 active torsions:
REMARK  status: ('A' for Active; 'I' for Inactive)
ROOT
ATOM      1  C   UNL d   1       0.862  -2.268  -0.081  0.00  0.00     0.020 A 
ATOM      2  C1  UNL d   1       1.696  -1.810  -1.100  0.00  0.00     0.020 A 
ATOM      3  C2  UNL d   1       1.548  -0.512  -1.593  0.00  0.00     0.034 A 
ATOM      4  C3  UNL d   1       0.564   0.333  -1.068  0.00  0.00     0.017 A 
ATOM      5  C4  UNL d   1      -0.273  -0.127  -0.045  0.00  0.00     0.017 A 
ATOM      6  C5  UNL d   1      -0.121  -1.428   0.445  0.00  0.00     0.034 A 
ATOM      7 Cl   UNL d   1      -1.510   0.857   0.653  0.00  0.00    -0.070 Cl
ATOM      8 Cl1  UNL d   1       0.438   1.925  -1.726  0.00  0.00    -0.070 Cl
ENDROOT
TORSDOF 0
ENDMDL
