MODEL 1
REMARK minimizedAffinity -2.85398197
REMARK minimizedRMSD -1
REMARK  0 active torsions:
REMARK  status: ('A' for Active; 'I' for Inactive)
ROOT
ATOM      1  C   UNL d   1      -1.097  -1.035   0.712  0.00  0.00     0.020 A 
ATOM      2  C1  UNL d   1      -1.653   0.235   0.561  0.00  0.00     0.020 A 
ATOM      3  C2  UNL d   1      -1.005   1.193  -0.222  0.00  0.00     0.034 A 
ATOM      4  C3  UNL d   1       0.204   0.883  -0.856  0.00  0.00     0.017 A 
ATOM      5  C4  UNL d   1       0.761  -0.392  -0.704  0.00  0.00     0.017 A 
ATOM      6  C5  UNL d   1       0.108  -1.347   0.081  0.00  0.00     0.034 A 
ATOM      7 Cl   UNL d   1       2.249  -0.848  -1.455  0.00  0.00    -0.070 Cl
ATOM      8 Cl1  UNL d   1       0.950   2.116  -1.809  0.00  0.00    -0.070 Cl
ENDROOT
TORSDOF 0
ENDMDL
