MODEL 1
REMARK minimizedAffinity -3.77783632
REMARK minimizedRMSD -1
REMARK  0 active torsions:
REMARK  status: ('A' for Active; 'I' for Inactive)
ROOT
ATOM      1  C   UNL d   1       2.370  -0.245  -0.211  0.00  0.00     0.020 A 
ATOM      2  C1  UNL d   1       2.104   0.332  -1.452  0.00  0.00     0.020 A 
ATOM      3  C2  UNL d   1       0.862   0.924  -1.694  0.00  0.00     0.034 A 
ATOM      4  C3  UNL d   1      -0.117   0.940  -0.694  0.00  0.00     0.017 A 
ATOM      5  C4  UNL d   1       0.152   0.361   0.551  0.00  0.00     0.017 A 
ATOM      6  C5  UNL d   1       1.396  -0.230   0.789  0.00  0.00     0.034 A 
ATOM      7 Cl   UNL d   1      -1.006   0.342   1.834  0.00  0.00    -0.070 Cl
ATOM      8 Cl1  UNL d   1      -1.630   1.689  -1.063  0.00  0.00    -0.070 Cl
ENDROOT
TORSDOF 0
ENDMDL
