MODEL 1
REMARK minimizedAffinity 12.9936457
REMARK minimizedRMSD -1
REMARK  2 active torsions:
REMARK  status: ('A' for Active; 'I' for Inactive)
REMARK    1  A    between atoms: C2'_3  and  C1'_4 
REMARK    2  A    between atoms: C1'_4  and  C1_5 
ROOT
ATOM      1  C1  I4B d   1      -1.250   1.926  -0.253  0.00  0.00    -0.075 A 
ATOM      2  C2  I4B d   1      -0.873   0.744  -0.841  0.00  0.00     0.003 A 
ATOM      3  C3  I4B d   1      -1.755  -0.364  -0.843  0.00  0.00     0.002 A 
ATOM      4  C4  I4B d   1      -2.975  -0.262  -0.206  0.00  0.00    -0.004 A 
ATOM      5  C5  I4B d   1      -3.365   0.944   0.369  0.00  0.00     0.002 A 
ATOM      6  C6  I4B d   1      -2.502   2.049   0.335  0.00  0.00     0.003 A 
ENDROOT
BRANCH   1   7
ATOM      7  C1' I4B d   1      -0.281   3.065  -0.240  0.00  0.00     0.060 C 
BRANCH   7   8
ATOM      8  C2' I4B d   1      -0.357   3.728   1.120  0.00  0.00    -0.013 C 
ATOM      9  C4' I4B d   1       0.985   3.724   1.804  0.00  0.00     0.013 C 
ATOM     10  C3' I4B d   1      -0.863   5.126   0.927  0.00  0.00     0.013 C 
ENDBRANCH   7   8
ENDBRANCH   1   7
TORSDOF 2
ENDMDL
