MODEL 1
REMARK minimizedAffinity 17.2679081
REMARK minimizedRMSD -1
REMARK  2 active torsions:
REMARK  status: ('A' for Active; 'I' for Inactive)
REMARK    1  A    between atoms: C2'_3  and  C1'_4 
REMARK    2  A    between atoms: C1'_4  and  C1_5 
ROOT
ATOM      1  C1  I4B d   1       4.928   1.518  -1.391  0.00  0.00    -0.075 A 
ATOM      2  C2  I4B d   1       4.018   0.787  -2.114  0.00  0.00     0.003 A 
ATOM      3  C3  I4B d   1       3.010   0.046  -1.449  0.00  0.00     0.002 A 
ATOM      4  C4  I4B d   1       2.982   0.024  -0.070  0.00  0.00    -0.004 A 
ATOM      5  C5  I4B d   1       3.891   0.783   0.660  0.00  0.00     0.002 A 
ATOM      6  C6  I4B d   1       4.863   1.545  -0.004  0.00  0.00     0.003 A 
ENDROOT
BRANCH   1   7
ATOM      7  C1' I4B d   1       5.999   2.262  -2.124  0.00  0.00     0.060 C 
BRANCH   7   8
ATOM      8  C2' I4B d   1       5.463   3.639  -2.461  0.00  0.00    -0.013 C 
ATOM      9  C4' I4B d   1       5.999   4.679  -1.514  0.00  0.00     0.013 C 
ATOM     10  C3' I4B d   1       5.843   3.949  -3.878  0.00  0.00     0.013 C 
ENDBRANCH   7   8
ENDBRANCH   1   7
TORSDOF 2
ENDMDL
