MODEL 1
REMARK minimizedAffinity 19.3059502
REMARK minimizedRMSD -1
REMARK  2 active torsions:
REMARK  status: ('A' for Active; 'I' for Inactive)
REMARK    1  A    between atoms: C2'_3  and  C1'_4 
REMARK    2  A    between atoms: C1'_4  and  C1_5 
ROOT
ATOM      1  C1  I4B d   1       1.037   2.752   3.496  0.00  0.00    -0.075 A 
ATOM      2  C2  I4B d   1       0.889   1.844   4.515  0.00  0.00     0.003 A 
ATOM      3  C3  I4B d   1       1.869   0.844   4.727  0.00  0.00     0.002 A 
ATOM      4  C4  I4B d   1       2.948   0.758   3.871  0.00  0.00    -0.004 A 
ATOM      5  C5  I4B d   1       3.109   1.694   2.854  0.00  0.00     0.002 A 
ATOM      6  C6  I4B d   1       2.154   2.705   2.672  0.00  0.00     0.003 A 
ENDROOT
BRANCH   1   7
ATOM      7  C1' I4B d   1      -0.033   3.774   3.281  0.00  0.00     0.060 C 
BRANCH   7   8
ATOM      8  C2' I4B d   1       0.001   4.185   1.823  0.00  0.00    -0.013 C 
ATOM      9  C4' I4B d   1      -1.030   3.435   1.021  0.00  0.00     0.013 C 
ATOM     10  C3' I4B d   1      -0.231   5.665   1.753  0.00  0.00     0.013 C 
ENDBRANCH   7   8
ENDBRANCH   1   7
TORSDOF 2
ENDMDL
