MODEL 1
REMARK minimizedAffinity 11.9983702
REMARK minimizedRMSD -1
REMARK  2 active torsions:
REMARK  status: ('A' for Active; 'I' for Inactive)
REMARK    1  A    between atoms: C2'_3  and  C1'_4 
REMARK    2  A    between atoms: C1'_4  and  C1_5 
ROOT
ATOM      1  C1  I4B d   1       4.611   1.742  -0.374  0.00  0.00    -0.075 A 
ATOM      2  C2  I4B d   1       3.746   1.034  -1.171  0.00  0.00     0.003 A 
ATOM      3  C3  I4B d   1       2.605   0.412  -0.607  0.00  0.00     0.002 A 
ATOM      4  C4  I4B d   1       2.397   0.480   0.755  0.00  0.00    -0.004 A 
ATOM      5  C5  I4B d   1       3.264   1.216   1.558  0.00  0.00     0.002 A 
ATOM      6  C6  I4B d   1       4.371   1.862   0.989  0.00  0.00     0.003 A 
ENDROOT
BRANCH   1   7
ATOM      7  C1' I4B d   1       5.824   2.358  -0.996  0.00  0.00     0.060 C 
BRANCH   7   8
ATOM      8  C2' I4B d   1       5.458   2.791  -2.401  0.00  0.00    -0.013 C 
ATOM      9  C4' I4B d   1       6.000   4.162  -2.708  0.00  0.00     0.013 C 
ATOM     10  C3' I4B d   1       5.999   1.769  -3.356  0.00  0.00     0.013 C 
ENDBRANCH   7   8
ENDBRANCH   1   7
TORSDOF 2
ENDMDL
