MODEL 1
REMARK minimizedAffinity 10.6308098
REMARK minimizedRMSD -1
REMARK  2 active torsions:
REMARK  status: ('A' for Active; 'I' for Inactive)
REMARK    1  A    between atoms: C2'_3  and  C1'_4 
REMARK    2  A    between atoms: C1'_4  and  C1_5 
ROOT
ATOM      1  C1  I4B d   1       4.713   1.729  -0.296  0.00  0.00    -0.075 A 
ATOM      2  C2  I4B d   1       3.757   1.092  -1.048  0.00  0.00     0.003 A 
ATOM      3  C3  I4B d   1       2.686   0.417  -0.414  0.00  0.00     0.002 A 
ATOM      4  C4  I4B d   1       2.637   0.362   0.964  0.00  0.00    -0.004 A 
ATOM      5  C5  I4B d   1       3.594   1.028   1.724  0.00  0.00     0.002 A 
ATOM      6  C6  I4B d   1       4.632   1.727   1.090  0.00  0.00     0.003 A 
ENDROOT
BRANCH   1   7
ATOM      7  C1' I4B d   1       5.849   2.405  -0.997  0.00  0.00     0.060 C 
BRANCH   7   8
ATOM      8  C2' I4B d   1       5.454   2.596  -2.448  0.00  0.00    -0.013 C 
ATOM      9  C4' I4B d   1       5.970   3.906  -2.984  0.00  0.00     0.013 C 
ATOM     10  C3' I4B d   1       5.997   1.439  -3.232  0.00  0.00     0.013 C 
ENDBRANCH   7   8
ENDBRANCH   1   7
TORSDOF 2
ENDMDL
