MODEL 1
REMARK minimizedAffinity -5.22239542
REMARK minimizedRMSD -1
REMARK  0 active torsions:
REMARK  status: ('A' for Active; 'I' for Inactive)
ROOT
ATOM      1  C4' PXY d   1       3.870   0.397  -2.082  0.00  0.00     0.077 C 
ATOM      2  C1' PXY d   1      -1.498  -0.757  -0.274  0.00  0.00     0.077 C 
ATOM      3  C1  PXY d   1      -0.095  -0.449  -0.759  0.00  0.00    -0.082 A 
ATOM      4  C2  PXY d   1       0.922  -1.170  -0.318  0.00  0.00     0.003 A 
ATOM      5  C3  PXY d   1       2.201  -0.885  -0.722  0.00  0.00     0.003 A 
ATOM      6  C4  PXY d   1       2.435   0.116  -1.627  0.00  0.00    -0.082 A 
ATOM      7  C5  PXY d   1       1.401   0.849  -2.090  0.00  0.00     0.003 A 
ATOM      8  C6  PXY d   1       0.115   0.570  -1.636  0.00  0.00     0.003 A 
ENDROOT
TORSDOF 0
ENDMDL
