MODEL 1
REMARK minimizedAffinity -2.98924732
REMARK minimizedRMSD -1
REMARK  0 active torsions:
REMARK  status: ('A' for Active; 'I' for Inactive)
ROOT
ATOM      1  C4' PXY d   1      -2.476   2.640   2.998  0.00  0.00     0.077 C 
ATOM      2  C1' PXY d   1      -0.314  -1.433  -0.488  0.00  0.00     0.077 C 
ATOM      3  C1  PXY d   1      -0.891  -0.373   0.429  0.00  0.00    -0.082 A 
ATOM      4  C2  PXY d   1      -0.601   0.901   0.221  0.00  0.00     0.003 A 
ATOM      5  C3  PXY d   1      -1.088   1.870   1.060  0.00  0.00     0.003 A 
ATOM      6  C4  PXY d   1      -1.924   1.536   2.092  0.00  0.00    -0.082 A 
ATOM      7  C5  PXY d   1      -2.234   0.240   2.305  0.00  0.00     0.003 A 
ATOM      8  C6  PXY d   1      -1.695  -0.732   1.466  0.00  0.00     0.003 A 
ENDROOT
TORSDOF 0
ENDMDL
