MODEL 1
REMARK minimizedAffinity -4.23417091
REMARK minimizedRMSD -1
REMARK  0 active torsions:
REMARK  status: ('A' for Active; 'I' for Inactive)
ROOT
ATOM      1  C4' PXY d   1      -1.913   0.293   1.563  0.00  0.00     0.077 C 
ATOM      2  C1' PXY d   1       1.654   1.199  -2.895  0.00  0.00     0.077 C 
ATOM      3  C1  PXY d   1       0.720   0.949  -1.727  0.00  0.00    -0.082 A 
ATOM      4  C2  PXY d   1      -0.211   1.840  -1.432  0.00  0.00     0.003 A 
ATOM      5  C3  PXY d   1      -1.043   1.645  -0.359  0.00  0.00     0.003 A 
ATOM      6  C4  PXY d   1      -0.955   0.500   0.386  0.00  0.00    -0.082 A 
ATOM      7  C5  PXY d   1      -0.014  -0.420   0.085  0.00  0.00     0.003 A 
ATOM      8  C6  PXY d   1       0.848  -0.183  -0.983  0.00  0.00     0.003 A 
ENDROOT
TORSDOF 0
ENDMDL
