MODEL 1
REMARK minimizedAffinity -3.15989399
REMARK minimizedRMSD -1
REMARK  0 active torsions:
REMARK  status: ('A' for Active; 'I' for Inactive)
ROOT
ATOM      1  C4' PXY d   1       0.282   2.297  -2.331  0.00  0.00     0.077 C 
ATOM      2  C1' PXY d   1       1.018  -2.831   0.235  0.00  0.00     0.077 C 
ATOM      3  C1  PXY d   1       0.838  -1.486  -0.442  0.00  0.00    -0.082 A 
ATOM      4  C2  PXY d   1      -0.107  -0.662  -0.018  0.00  0.00     0.003 A 
ATOM      5  C3  PXY d   1      -0.305   0.544  -0.640  0.00  0.00     0.003 A 
ATOM      6  C4  PXY d   1       0.507   0.933  -1.671  0.00  0.00    -0.082 A 
ATOM      7  C5  PXY d   1       1.480   0.103  -2.102  0.00  0.00     0.003 A 
ATOM      8  C6  PXY d   1       1.638  -1.135  -1.484  0.00  0.00     0.003 A 
ENDROOT
TORSDOF 0
ENDMDL
