MODEL 1
REMARK minimizedAffinity -4.56464672
REMARK minimizedRMSD -1
REMARK  0 active torsions:
REMARK  status: ('A' for Active; 'I' for Inactive)
ROOT
ATOM      1  C4' PXY d   1       1.198   2.353  -2.628  0.00  0.00     0.077 C 
ATOM      2  C1' PXY d   1       0.714  -2.554   0.389  0.00  0.00     0.077 C 
ATOM      3  C1  PXY d   1       0.853  -1.270  -0.405  0.00  0.00    -0.082 A 
ATOM      4  C2  PXY d   1       0.057  -0.247  -0.140  0.00  0.00     0.003 A 
ATOM      5  C3  PXY d   1       0.148   0.910  -0.870  0.00  0.00     0.003 A 
ATOM      6  C4  PXY d   1       1.099   1.041  -1.846  0.00  0.00    -0.082 A 
ATOM      7  C5  PXY d   1       1.923   0.006  -2.115  0.00  0.00     0.003 A 
ATOM      8  C6  PXY d   1       1.787  -1.175  -1.391  0.00  0.00     0.003 A 
ENDROOT
TORSDOF 0
ENDMDL
