MODEL 1
REMARK minimizedAffinity -4.15965176
REMARK minimizedRMSD -1
REMARK  0 active torsions:
REMARK  status: ('A' for Active; 'I' for Inactive)
ROOT
ATOM      1  C4' PXY d   1      -1.964   0.176   1.947  0.00  0.00     0.077 C 
ATOM      2  C1' PXY d   1       2.472  -1.038  -1.554  0.00  0.00     0.077 C 
ATOM      3  C1  PXY d   1       1.311  -0.707  -0.638  0.00  0.00    -0.082 A 
ATOM      4  C2  PXY d   1       0.951  -1.568   0.300  0.00  0.00     0.003 A 
ATOM      5  C3  PXY d   1      -0.117  -1.299   1.116  0.00  0.00     0.003 A 
ATOM      6  C4  PXY d   1      -0.791  -0.112   1.006  0.00  0.00    -0.082 A 
ATOM      7  C5  PXY d   1      -0.423   0.776   0.058  0.00  0.00     0.003 A 
ATOM      8  C6  PXY d   1       0.638   0.466  -0.787  0.00  0.00     0.003 A 
ENDROOT
TORSDOF 0
ENDMDL
