MODEL 1
REMARK minimizedAffinity -4.23335791
REMARK minimizedRMSD -1
REMARK  0 active torsions:
REMARK  status: ('A' for Active; 'I' for Inactive)
ROOT
ATOM      1  C4' PXY d   1       3.013  -0.692  -1.692  0.00  0.00     0.077 C 
ATOM      2  C1' PXY d   1      -1.949   0.431   1.052  0.00  0.00     0.077 C 
ATOM      3  C1  PXY d   1      -0.645   0.127   0.341  0.00  0.00    -0.082 A 
ATOM      4  C2  PXY d   1      -0.103   1.040  -0.449  0.00  0.00     0.003 A 
ATOM      5  C3  PXY d   1       1.060   0.770  -1.124  0.00  0.00     0.003 A 
ATOM      6  C4  PXY d   1       1.702  -0.426  -0.947  0.00  0.00    -0.082 A 
ATOM      7  C5  PXY d   1       1.161  -1.358  -0.134  0.00  0.00     0.003 A 
ATOM      8  C6  PXY d   1      -0.041  -1.080   0.510  0.00  0.00     0.003 A 
ENDROOT
TORSDOF 0
ENDMDL
