MODEL 1
REMARK minimizedAffinity -4.09278679
REMARK minimizedRMSD -1
REMARK  0 active torsions:
REMARK  status: ('A' for Active; 'I' for Inactive)
ROOT
ATOM      1  C4' PXY d   1       3.521   0.042  -2.472  0.00  0.00     0.077 C 
ATOM      2  C1' PXY d   1      -1.101   0.189   0.996  0.00  0.00     0.077 C 
ATOM      3  C1  PXY d   1       0.106   0.160   0.079  0.00  0.00    -0.082 A 
ATOM      4  C2  PXY d   1       0.860  -0.926   0.025  0.00  0.00     0.003 A 
ATOM      5  C3  PXY d   1       1.973  -0.958  -0.775  0.00  0.00     0.003 A 
ATOM      6  C4  PXY d   1       2.288   0.113  -1.568  0.00  0.00    -0.082 A 
ATOM      7  C5  PXY d   1       1.518   1.220  -1.526  0.00  0.00     0.003 A 
ATOM      8  C6  PXY d   1       0.415   1.248  -0.677  0.00  0.00     0.003 A 
ENDROOT
TORSDOF 0
ENDMDL
