MODEL 1
REMARK minimizedAffinity -1.19572198
REMARK minimizedRMSD -1
REMARK  0 active torsions:
REMARK  status: ('A' for Active; 'I' for Inactive)
ROOT
ATOM      1  C4' PXY d   1      -1.612   0.527   3.796  0.00  0.00     0.077 C 
ATOM      2  C1' PXY d   1       0.504   1.636  -1.468  0.00  0.00     0.077 C 
ATOM      3  C1  PXY d   1      -0.042   1.353  -0.083  0.00  0.00    -0.082 A 
ATOM      4  C2  PXY d   1      -0.738   0.249   0.133  0.00  0.00     0.003 A 
ATOM      5  C3  PXY d   1      -1.266  -0.008   1.372  0.00  0.00     0.003 A 
ATOM      6  C4  PXY d   1      -1.034   0.849   2.415  0.00  0.00    -0.082 A 
ATOM      7  C5  PXY d   1      -0.315   1.973   2.205  0.00  0.00     0.003 A 
ATOM      8  C6  PXY d   1       0.177   2.235   0.930  0.00  0.00     0.003 A 
ENDROOT
TORSDOF 0
ENDMDL
