MODEL 1
REMARK minimizedAffinity -4.17921257
REMARK minimizedRMSD -1
REMARK  0 active torsions:
REMARK  status: ('A' for Active; 'I' for Inactive)
ROOT
ATOM      1  C4' PXY d   1      -1.132   0.266   0.811  0.00  0.00     0.077 C 
ATOM      2  C1' PXY d   1       3.480   0.116  -2.671  0.00  0.00     0.077 C 
ATOM      3  C1  PXY d   1       2.268   0.143  -1.761  0.00  0.00    -0.082 A 
ATOM      4  C2  PXY d   1       1.668   1.294  -1.505  0.00  0.00     0.003 A 
ATOM      5  C3  PXY d   1       0.590   1.341  -0.659  0.00  0.00     0.003 A 
ATOM      6  C4  PXY d   1       0.089   0.190  -0.110  0.00  0.00    -0.082 A 
ATOM      7  C5  PXY d   1       0.690  -0.989  -0.375  0.00  0.00     0.003 A 
ATOM      8  C6  PXY d   1       1.808  -1.010  -1.204  0.00  0.00     0.003 A 
ENDROOT
TORSDOF 0
ENDMDL
