MODEL 1
REMARK minimizedAffinity -3.92381001
REMARK minimizedRMSD -1
REMARK  0 active torsions:
REMARK  status: ('A' for Active; 'I' for Inactive)
ROOT
ATOM      1  C4' PXY d   1       2.310  -1.087  -2.279  0.00  0.00     0.077 C 
ATOM      2  C1' PXY d   1      -1.735   0.462   1.548  0.00  0.00     0.077 C 
ATOM      3  C1  PXY d   1      -0.670   0.047   0.553  0.00  0.00    -0.082 A 
ATOM      4  C2  PXY d   1      -0.313   0.882  -0.410  0.00  0.00     0.003 A 
ATOM      5  C3  PXY d   1       0.626   0.510  -1.337  0.00  0.00     0.003 A 
ATOM      6  C4  PXY d   1       1.245  -0.707  -1.247  0.00  0.00    -0.082 A 
ATOM      7  C5  PXY d   1       0.895  -1.560  -0.261  0.00  0.00     0.003 A 
ATOM      8  C6  PXY d   1      -0.090  -1.180   0.646  0.00  0.00     0.003 A 
ENDROOT
TORSDOF 0
ENDMDL
