MODEL 1
REMARK minimizedAffinity -1.42196441
REMARK minimizedRMSD -1
REMARK  0 active torsions:
REMARK  status: ('A' for Active; 'I' for Inactive)
ROOT
ATOM      1  C4' PXY d   1      -1.475   0.779   2.901  0.00  0.00     0.077 C 
ATOM      2  C1' PXY d   1       1.050  -1.290  -1.870  0.00  0.00     0.077 C 
ATOM      3  C1  PXY d   1       0.386  -0.736  -0.624  0.00  0.00    -0.082 A 
ATOM      4  C2  PXY d   1       0.628  -1.296   0.550  0.00  0.00     0.003 A 
ATOM      5  C3  PXY d   1       0.011  -0.828   1.682  0.00  0.00     0.003 A 
ATOM      6  C4  PXY d   1      -0.820   0.259   1.619  0.00  0.00    -0.082 A 
ATOM      7  C5  PXY d   1      -1.063   0.842   0.426  0.00  0.00     0.003 A 
ATOM      8  C6  PXY d   1      -0.460   0.326  -0.717  0.00  0.00     0.003 A 
ENDROOT
TORSDOF 0
ENDMDL
