MODEL 1
REMARK minimizedAffinity -4.84077549
REMARK minimizedRMSD -1
REMARK  0 active torsions:
REMARK  status: ('A' for Active; 'I' for Inactive)
ROOT
ATOM      1  C4' PXY d   1      -1.138   0.425   0.749  0.00  0.00     0.077 C 
ATOM      2  C1' PXY d   1       3.623  -0.201  -2.470  0.00  0.00     0.077 C 
ATOM      3  C1  PXY d   1       2.371  -0.049  -1.629  0.00  0.00    -0.082 A 
ATOM      4  C2  PXY d   1       1.872   1.157  -1.410  0.00  0.00     0.003 A 
ATOM      5  C3  PXY d   1       0.759   1.315  -0.625  0.00  0.00     0.003 A 
ATOM      6  C4  PXY d   1       0.119   0.224  -0.102  0.00  0.00    -0.082 A 
ATOM      7  C5  PXY d   1       0.616  -1.011  -0.330  0.00  0.00     0.003 A 
ATOM      8  C6  PXY d   1       1.770  -1.147  -1.095  0.00  0.00     0.003 A 
ENDROOT
TORSDOF 0
ENDMDL
