MODEL 1
REMARK minimizedAffinity -5.65718031
REMARK minimizedRMSD -1
REMARK  0 active torsions:
REMARK  status: ('A' for Active; 'I' for Inactive)
ROOT
ATOM      1  C4' PXY d   1      -1.138  -0.108   0.329  0.00  0.00     0.077 C 
ATOM      2  C1' PXY d   1       3.899   0.079  -2.500  0.00  0.00     0.077 C 
ATOM      3  C1  PXY d   1       2.577   0.017  -1.761  0.00  0.00    -0.082 A 
ATOM      4  C2  PXY d   1       1.854   1.116  -1.621  0.00  0.00     0.003 A 
ATOM      5  C3  PXY d   1       0.672   1.085  -0.928  0.00  0.00     0.003 A 
ATOM      6  C4  PXY d   1       0.199  -0.094  -0.418  0.00  0.00    -0.082 A 
ATOM      7  C5  PXY d   1       0.926  -1.222  -0.565  0.00  0.00     0.003 A 
ATOM      8  C6  PXY d   1       2.143  -1.161  -1.237  0.00  0.00     0.003 A 
ENDROOT
TORSDOF 0
ENDMDL
