MODEL 1
REMARK minimizedAffinity -1.17294121
REMARK minimizedRMSD -1
REMARK  0 active torsions:
REMARK  status: ('A' for Active; 'I' for Inactive)
ROOT
ATOM      1  C4' PXY d   1       5.990  -5.135   4.996  0.00  0.00     0.077 C 
ATOM      2  C1' PXY d   1       4.612   0.479   4.997  0.00  0.00     0.077 C 
ATOM      3  C1  PXY d   1       4.964  -0.996   4.988  0.00  0.00    -0.082 A 
ATOM      4  C2  PXY d   1       5.646  -1.511   5.998  0.00  0.00     0.003 A 
ATOM      5  C3  PXY d   1       6.000  -2.836   5.992  0.00  0.00     0.003 A 
ATOM      6  C4  PXY d   1       5.605  -3.653   4.966  0.00  0.00    -0.082 A 
ATOM      7  C5  PXY d   1       4.900  -3.137   3.938  0.00  0.00     0.003 A 
ATOM      8  C6  PXY d   1       4.586  -1.781   3.943  0.00  0.00     0.003 A 
ENDROOT
TORSDOF 0
ENDMDL
