MODEL 1
REMARK minimizedAffinity -0.179144487
REMARK minimizedRMSD -1
REMARK  0 active torsions:
REMARK  status: ('A' for Active; 'I' for Inactive)
ROOT
ATOM      1  C4' PXY d   1      -1.768   2.617   3.065  0.00  0.00     0.077 C 
ATOM      2  C1' PXY d   1       1.431   2.533  -1.750  0.00  0.00     0.077 C 
ATOM      3  C1  PXY d   1       0.603   2.551  -0.480  0.00  0.00    -0.082 A 
ATOM      4  C2  PXY d   1      -0.710   2.398  -0.553  0.00  0.00     0.003 A 
ATOM      5  C3  PXY d   1      -1.478   2.444   0.582  0.00  0.00     0.003 A 
ATOM      6  C4  PXY d   1      -0.891   2.596   1.810  0.00  0.00    -0.082 A 
ATOM      7  C5  PXY d   1       0.449   2.742   1.894  0.00  0.00     0.003 A 
ATOM      8  C6  PXY d   1       1.206   2.734   0.726  0.00  0.00     0.003 A 
ENDROOT
TORSDOF 0
ENDMDL
