MODEL 1
REMARK minimizedAffinity -4.72451544
REMARK minimizedRMSD -1
REMARK  0 active torsions:
REMARK  status: ('A' for Active; 'I' for Inactive)
ROOT
ATOM      1  C4' PXY d   1       6.000  -1.683   5.991  0.00  0.00     0.077 C 
ATOM      2  C1' PXY d   1       2.646  -4.820   2.479  0.00  0.00     0.077 C 
ATOM      3  C1  PXY d   1       3.525  -4.007   3.409  0.00  0.00    -0.082 A 
ATOM      4  C2  PXY d   1       3.575  -2.691   3.278  0.00  0.00     0.003 A 
ATOM      5  C3  PXY d   1       4.389  -1.944   4.090  0.00  0.00     0.003 A 
ATOM      6  C4  PXY d   1       5.119  -2.544   5.080  0.00  0.00    -0.082 A 
ATOM      7  C5  PXY d   1       5.066  -3.885   5.227  0.00  0.00     0.003 A 
ATOM      8  C6  PXY d   1       4.265  -4.630   4.367  0.00  0.00     0.003 A 
ENDROOT
TORSDOF 0
ENDMDL
