MODEL 1
REMARK minimizedAffinity -4.69358921
REMARK minimizedRMSD -1
REMARK  0 active torsions:
REMARK  status: ('A' for Active; 'I' for Inactive)
ROOT
ATOM      1  C4' PXY d   1       2.745  -0.692  -2.368  0.00  0.00     0.077 C 
ATOM      2  C1' PXY d   1      -1.911   0.600   0.805  0.00  0.00     0.077 C 
ATOM      3  C1  PXY d   1      -0.693   0.271  -0.035  0.00  0.00    -0.082 A 
ATOM      4  C2  PXY d   1      -0.183  -0.950   0.002  0.00  0.00     0.003 A 
ATOM      5  C3  PXY d   1       0.938  -1.255  -0.727  0.00  0.00     0.003 A 
ATOM      6  C4  PXY d   1       1.511  -0.317  -1.543  0.00  0.00    -0.082 A 
ATOM      7  C5  PXY d   1       0.990   0.927  -1.595  0.00  0.00     0.003 A 
ATOM      8  C6  PXY d   1      -0.124   1.229  -0.816  0.00  0.00     0.003 A 
ENDROOT
TORSDOF 0
ENDMDL
