MODEL 1
REMARK minimizedAffinity -5.35115767
REMARK minimizedRMSD -1
REMARK  0 active torsions:
REMARK  status: ('A' for Active; 'I' for Inactive)
ROOT
ATOM      1  C4' PXY d   1      -1.505   0.737   2.273  0.00  0.00     0.077 C 
ATOM      2  C1' PXY d   1       1.833  -0.187  -2.355  0.00  0.00     0.077 C 
ATOM      3  C1  PXY d   1       0.960   0.043  -1.137  0.00  0.00    -0.082 A 
ATOM      4  C2  PXY d   1       0.010   0.963  -1.178  0.00  0.00     0.003 A 
ATOM      5  C3  PXY d   1      -0.768   1.206  -0.075  0.00  0.00     0.003 A 
ATOM      6  C4  PXY d   1      -0.606   0.464   1.064  0.00  0.00    -0.082 A 
ATOM      7  C5  PXY d   1       0.355  -0.484   1.110  0.00  0.00     0.003 A 
ATOM      8  C6  PXY d   1       1.161  -0.687  -0.007  0.00  0.00     0.003 A 
ENDROOT
TORSDOF 0
ENDMDL
