MODEL 1
REMARK minimizedAffinity -4.17105436
REMARK minimizedRMSD -1
REMARK  0 active torsions:
REMARK  status: ('A' for Active; 'I' for Inactive)
ROOT
ATOM      1  C4' PXY d   1      -0.293  -1.820   0.420  0.00  0.00     0.077 C 
ATOM      2  C1' PXY d   1       2.676   1.556  -3.213  0.00  0.00     0.077 C 
ATOM      3  C1  PXY d   1       1.894   0.681  -2.254  0.00  0.00    -0.082 A 
ATOM      4  C2  PXY d   1       2.214  -0.596  -2.124  0.00  0.00     0.003 A 
ATOM      5  C3  PXY d   1       1.496  -1.409  -1.284  0.00  0.00     0.003 A 
ATOM      6  C4  PXY d   1       0.475  -0.897  -0.530  0.00  0.00    -0.082 A 
ATOM      7  C5  PXY d   1       0.149   0.408  -0.648  0.00  0.00     0.003 A 
ATOM      8  C6  PXY d   1       0.863   1.207  -1.537  0.00  0.00     0.003 A 
ENDROOT
TORSDOF 0
ENDMDL
