MODEL 1
REMARK minimizedAffinity 9.45636463
REMARK minimizedRMSD -1
REMARK  0 active torsions:
REMARK  status: ('A' for Active; 'I' for Inactive)
ROOT
ATOM      1  C   UNL d   1       4.446   3.264   0.301  0.00  0.00     0.020 A 
ATOM      2  C1  UNL d   1       5.441   2.376  -0.107  0.00  0.00     0.020 A 
ATOM      3  C2  UNL d   1       5.900   1.391   0.770  0.00  0.00     0.034 A 
ATOM      4  C3  UNL d   1       5.365   1.292   2.059  0.00  0.00     0.017 A 
ATOM      5  C4  UNL d   1       4.367   2.184   2.468  0.00  0.00     0.017 A 
ATOM      6  C5  UNL d   1       3.911   3.168   1.586  0.00  0.00     0.034 A 
ATOM      7 Cl   UNL d   1       3.659   2.124   4.044  0.00  0.00    -0.070 Cl
ATOM      8 Cl1  UNL d   1       5.979   0.049   3.091  0.00  0.00    -0.070 Cl
ENDROOT
TORSDOF 0
ENDMDL
