MODEL 1
REMARK minimizedAffinity 14.4649515
REMARK minimizedRMSD -1
REMARK  0 active torsions:
REMARK  status: ('A' for Active; 'I' for Inactive)
ROOT
ATOM      1  C   UNL d   1       4.488   3.111   0.343  0.00  0.00     0.020 A 
ATOM      2  C1  UNL d   1       5.531   2.244   0.021  0.00  0.00     0.020 A 
ATOM      3  C2  UNL d   1       5.983   1.315   0.960  0.00  0.00     0.034 A 
ATOM      4  C3  UNL d   1       5.391   1.250   2.227  0.00  0.00     0.017 A 
ATOM      5  C4  UNL d   1       4.343   2.120   2.550  0.00  0.00     0.017 A 
ATOM      6  C5  UNL d   1       3.895   3.049   1.605  0.00  0.00     0.034 A 
ATOM      7 Cl   UNL d   1       3.563   2.100   4.092  0.00  0.00    -0.070 Cl
ATOM      8 Cl1  UNL d   1       5.999   0.076   3.339  0.00  0.00    -0.070 Cl
ENDROOT
TORSDOF 0
ENDMDL
