MODEL 1
REMARK minimizedAffinity 8.86968994
REMARK minimizedRMSD -1
REMARK  0 active torsions:
REMARK  status: ('A' for Active; 'I' for Inactive)
ROOT
ATOM      1  C   UNL d   1      -4.490  -5.999   0.378  0.00  0.00     0.020 A 
ATOM      2  C1  UNL d   1      -5.308  -4.891   0.594  0.00  0.00     0.020 A 
ATOM      3  C2  UNL d   1      -4.744  -3.618   0.700  0.00  0.00     0.034 A 
ATOM      4  C3  UNL d   1      -3.359  -3.450   0.590  0.00  0.00     0.017 A 
ATOM      5  C4  UNL d   1      -2.539  -4.563   0.372  0.00  0.00     0.017 A 
ATOM      6  C5  UNL d   1      -3.109  -5.836   0.267  0.00  0.00     0.034 A 
ATOM      7 Cl   UNL d   1      -0.822  -4.435   0.225  0.00  0.00    -0.070 Cl
ATOM      8 Cl1  UNL d   1      -2.731  -1.846   0.730  0.00  0.00    -0.070 Cl
ENDROOT
TORSDOF 0
ENDMDL
