MODEL 1
REMARK minimizedAffinity 9.52703667
REMARK minimizedRMSD -1
REMARK  0 active torsions:
REMARK  status: ('A' for Active; 'I' for Inactive)
ROOT
ATOM      1  C   UNL d   1       4.362   2.327   3.151  0.00  0.00     0.020 A 
ATOM      2  C1  UNL d   1       3.440   1.358   2.757  0.00  0.00     0.020 A 
ATOM      3  C2  UNL d   1       2.935   1.363   1.455  0.00  0.00     0.034 A 
ATOM      4  C3  UNL d   1       3.351   2.339   0.542  0.00  0.00     0.017 A 
ATOM      5  C4  UNL d   1       4.277   3.311   0.938  0.00  0.00     0.017 A 
ATOM      6  C5  UNL d   1       4.780   3.301   2.243  0.00  0.00     0.034 A 
ATOM      7 Cl   UNL d   1       4.838   4.547  -0.132  0.00  0.00    -0.070 Cl
ATOM      8 Cl1  UNL d   1       2.685   2.285  -1.051  0.00  0.00    -0.070 Cl
ENDROOT
TORSDOF 0
ENDMDL
