MODEL 1
REMARK minimizedAffinity 12.989295
REMARK minimizedRMSD -1
REMARK  0 active torsions:
REMARK  status: ('A' for Active; 'I' for Inactive)
ROOT
ATOM      1  C   UNL d   1       2.648  -0.292  -1.914  0.00  0.00     0.020 A 
ATOM      2  C1  UNL d   1       2.659   1.102  -1.904  0.00  0.00     0.020 A 
ATOM      3  C2  UNL d   1       3.674   1.797  -2.565  0.00  0.00     0.034 A 
ATOM      4  C3  UNL d   1       4.682   1.097  -3.239  0.00  0.00     0.017 A 
ATOM      5  C4  UNL d   1       4.670  -0.302  -3.248  0.00  0.00     0.017 A 
ATOM      6  C5  UNL d   1       3.651  -0.993  -2.584  0.00  0.00     0.034 A 
ATOM      7 Cl   UNL d   1       5.879  -1.234  -4.058  0.00  0.00    -0.070 Cl
ATOM      8 Cl1  UNL d   1       5.906   2.021  -4.036  0.00  0.00    -0.070 Cl
ENDROOT
TORSDOF 0
ENDMDL
