MODEL 1
REMARK minimizedAffinity 7.75983286
REMARK minimizedRMSD -1
REMARK  0 active torsions:
REMARK  status: ('A' for Active; 'I' for Inactive)
ROOT
ATOM      1  C   UNL d   1      -1.861  -1.240   2.230  0.00  0.00     0.020 A 
ATOM      2  C1  UNL d   1      -1.281  -2.438   2.645  0.00  0.00     0.020 A 
ATOM      3  C2  UNL d   1      -0.934  -3.408   1.702  0.00  0.00     0.034 A 
ATOM      4  C3  UNL d   1      -1.167  -3.182   0.341  0.00  0.00     0.017 A 
ATOM      5  C4  UNL d   1      -1.749  -1.979  -0.074  0.00  0.00     0.017 A 
ATOM      6  C5  UNL d   1      -2.094  -1.011   0.874  0.00  0.00     0.034 A 
ATOM      7 Cl   UNL d   1      -2.067  -1.628  -1.736  0.00  0.00    -0.070 Cl
ATOM      8 Cl1  UNL d   1      -0.713  -4.426  -0.770  0.00  0.00    -0.070 Cl
ENDROOT
TORSDOF 0
ENDMDL
