MODEL 1
REMARK minimizedAffinity 10.3242588
REMARK minimizedRMSD -1
REMARK  0 active torsions:
REMARK  status: ('A' for Active; 'I' for Inactive)
ROOT
ATOM      1  C   UNL d   1      -1.469  -2.557   2.212  0.00  0.00     0.020 A 
ATOM      2  C1  UNL d   1      -1.843  -1.313   1.704  0.00  0.00     0.020 A 
ATOM      3  C2  UNL d   1      -1.978  -1.135   0.325  0.00  0.00     0.034 A 
ATOM      4  C3  UNL d   1      -1.740  -2.201  -0.549  0.00  0.00     0.017 A 
ATOM      5  C4  UNL d   1      -1.365  -3.449  -0.038  0.00  0.00     0.017 A 
ATOM      6  C5  UNL d   1      -1.231  -3.622   1.343  0.00  0.00     0.034 A 
ATOM      7 Cl   UNL d   1      -1.054  -4.812  -1.054  0.00  0.00    -0.070 Cl
ATOM      8 Cl1  UNL d   1      -1.926  -1.909  -2.242  0.00  0.00    -0.070 Cl
ENDROOT
TORSDOF 0
ENDMDL
