MODEL 1
REMARK minimizedAffinity 9.92866421
REMARK minimizedRMSD -1
REMARK  0 active torsions:
REMARK  status: ('A' for Active; 'I' for Inactive)
ROOT
ATOM      1  C   UNL d   1      -0.593  -5.428   0.906  0.00  0.00     0.020 A 
ATOM      2  C1  UNL d   1      -0.777  -5.743   2.252  0.00  0.00     0.020 A 
ATOM      3  C2  UNL d   1      -1.524  -4.893   3.072  0.00  0.00     0.034 A 
ATOM      4  C3  UNL d   1      -2.089  -3.725   2.546  0.00  0.00     0.017 A 
ATOM      5  C4  UNL d   1      -1.903  -3.411   1.195  0.00  0.00     0.017 A 
ATOM      6  C5  UNL d   1      -1.155  -4.265   0.379  0.00  0.00     0.034 A 
ATOM      7 Cl   UNL d   1      -2.569  -1.988   0.475  0.00  0.00    -0.070 Cl
ATOM      8 Cl1  UNL d   1      -3.000  -2.721   3.617  0.00  0.00    -0.070 Cl
ENDROOT
TORSDOF 0
ENDMDL
