MODEL 1
REMARK minimizedAffinity 4.56529474
REMARK minimizedRMSD -1
REMARK  0 active torsions:
REMARK  status: ('A' for Active; 'I' for Inactive)
ROOT
ATOM      1  C   UNL d   1      -5.991   4.859   1.934  0.00  0.00     0.020 A 
ATOM      2  C1  UNL d   1      -5.999   5.986   1.113  0.00  0.00     0.020 A 
ATOM      3  C2  UNL d   1      -5.247   5.999  -0.063  0.00  0.00     0.034 A 
ATOM      4  C3  UNL d   1      -4.484   4.882  -0.423  0.00  0.00     0.017 A 
ATOM      5  C4  UNL d   1      -4.476   3.751   0.402  0.00  0.00     0.017 A 
ATOM      6  C5  UNL d   1      -5.231   3.744   1.579  0.00  0.00     0.034 A 
ATOM      7 Cl   UNL d   1      -3.559   2.336   0.025  0.00  0.00    -0.070 Cl
ATOM      8 Cl1  UNL d   1      -3.579   4.967  -1.892  0.00  0.00    -0.070 Cl
ENDROOT
TORSDOF 0
ENDMDL
