MODEL 1
REMARK minimizedAffinity 18.6664505
REMARK minimizedRMSD -1
REMARK  0 active torsions:
REMARK  status: ('A' for Active; 'I' for Inactive)
ROOT
ATOM      1  C   UNL d   1       1.807   1.357  -1.388  0.00  0.00     0.020 A 
ATOM      2  C1  UNL d   1       2.165   0.159  -0.770  0.00  0.00     0.020 A 
ATOM      3  C2  UNL d   1       3.094   0.162   0.273  0.00  0.00     0.034 A 
ATOM      4  C3  UNL d   1       3.668   1.365   0.701  0.00  0.00     0.017 A 
ATOM      5  C4  UNL d   1       3.307   2.566   0.080  0.00  0.00     0.017 A 
ATOM      6  C5  UNL d   1       2.377   2.557  -0.964  0.00  0.00     0.034 A 
ATOM      7 Cl   UNL d   1       3.973   4.090   0.552  0.00  0.00    -0.070 Cl
ATOM      8 Cl1  UNL d   1       4.809   1.295   1.996  0.00  0.00    -0.070 Cl
ENDROOT
TORSDOF 0
ENDMDL
