MODEL 1
REMARK minimizedAffinity 11.4889555
REMARK minimizedRMSD -1
REMARK  0 active torsions:
REMARK  status: ('A' for Active; 'I' for Inactive)
ROOT
ATOM      1  C   UNL d   1      -2.093  -0.900  -0.154  0.00  0.00     0.020 A 
ATOM      2  C1  UNL d   1      -1.205  -1.697  -0.873  0.00  0.00     0.020 A 
ATOM      3  C2  UNL d   1      -0.702  -2.870  -0.306  0.00  0.00     0.034 A 
ATOM      4  C3  UNL d   1      -1.087  -3.248   0.986  0.00  0.00     0.017 A 
ATOM      5  C4  UNL d   1      -1.979  -2.447   1.707  0.00  0.00     0.017 A 
ATOM      6  C5  UNL d   1      -2.480  -1.274   1.134  0.00  0.00     0.034 A 
ATOM      7 Cl   UNL d   1      -2.501  -2.848   3.306  0.00  0.00    -0.070 Cl
ATOM      8 Cl1  UNL d   1      -0.426  -4.711   1.625  0.00  0.00    -0.070 Cl
ENDROOT
TORSDOF 0
ENDMDL
