MODEL 1
REMARK minimizedAffinity 8.9944191
REMARK minimizedRMSD -1
REMARK  0 active torsions:
REMARK  status: ('A' for Active; 'I' for Inactive)
ROOT
ATOM      1  C   UNL d   1      -2.187  -1.360  -0.702  0.00  0.00     0.020 A 
ATOM      2  C1  UNL d   1      -1.233  -2.240  -1.209  0.00  0.00     0.020 A 
ATOM      3  C2  UNL d   1      -0.710  -3.247  -0.395  0.00  0.00     0.034 A 
ATOM      4  C3  UNL d   1      -1.140  -3.376   0.931  0.00  0.00     0.017 A 
ATOM      5  C4  UNL d   1      -2.098  -2.491   1.439  0.00  0.00     0.017 A 
ATOM      6  C5  UNL d   1      -2.619  -1.485   0.619  0.00  0.00     0.034 A 
ATOM      7 Cl   UNL d   1      -2.679  -2.587   3.064  0.00  0.00    -0.070 Cl
ATOM      8 Cl1  UNL d   1      -0.451  -4.644   1.880  0.00  0.00    -0.070 Cl
ENDROOT
TORSDOF 0
ENDMDL
