MODEL 1
REMARK minimizedAffinity 9.9556551
REMARK minimizedRMSD -1
REMARK  0 active torsions:
REMARK  status: ('A' for Active; 'I' for Inactive)
ROOT
ATOM      1  C   UNL d   1      -2.054  -1.790  -1.260  0.00  0.00     0.020 A 
ATOM      2  C1  UNL d   1      -1.449  -1.100  -0.210  0.00  0.00     0.020 A 
ATOM      3  C2  UNL d   1      -0.289  -0.357  -0.439  0.00  0.00     0.034 A 
ATOM      4  C3  UNL d   1       0.270  -0.303  -1.720  0.00  0.00     0.017 A 
ATOM      5  C4  UNL d   1      -0.337  -0.995  -2.774  0.00  0.00     0.017 A 
ATOM      6  C5  UNL d   1      -1.499  -1.737  -2.539  0.00  0.00     0.034 A 
ATOM      7 Cl   UNL d   1       0.294  -0.975  -4.383  0.00  0.00    -0.070 Cl
ATOM      8 Cl1  UNL d   1       1.706   0.636  -1.931  0.00  0.00    -0.070 Cl
ENDROOT
TORSDOF 0
ENDMDL
