MODEL 1
REMARK minimizedAffinity 7.30880308
REMARK minimizedRMSD -1
REMARK  0 active torsions:
REMARK  status: ('A' for Active; 'I' for Inactive)
ROOT
ATOM      1  C   UNL d   1       4.822   3.036  -0.260  0.00  0.00     0.020 A 
ATOM      2  C1  UNL d   1       4.549   4.258   0.353  0.00  0.00     0.020 A 
ATOM      3  C2  UNL d   1       4.218   4.300   1.709  0.00  0.00     0.034 A 
ATOM      4  C3  UNL d   1       4.158   3.118   2.456  0.00  0.00     0.017 A 
ATOM      5  C4  UNL d   1       4.432   1.892   1.840  0.00  0.00     0.017 A 
ATOM      6  C5  UNL d   1       4.763   1.855   0.482  0.00  0.00     0.034 A 
ATOM      7 Cl   UNL d   1       4.378   0.392   2.696  0.00  0.00    -0.070 Cl
ATOM      8 Cl1  UNL d   1       3.742   3.245   4.128  0.00  0.00    -0.070 Cl
ENDROOT
TORSDOF 0
ENDMDL
