MODEL 1
REMARK minimizedAffinity 14.6041756
REMARK minimizedRMSD -1
REMARK  0 active torsions:
REMARK  status: ('A' for Active; 'I' for Inactive)
ROOT
ATOM      1  C   UNL d   1       3.813   2.270   2.262  0.00  0.00     0.020 A 
ATOM      2  C1  UNL d   1       4.458   1.247   1.567  0.00  0.00     0.020 A 
ATOM      3  C2  UNL d   1       5.127   1.528   0.374  0.00  0.00     0.034 A 
ATOM      4  C3  UNL d   1       5.152   2.834  -0.129  0.00  0.00     0.017 A 
ATOM      5  C4  UNL d   1       4.504   3.859   0.569  0.00  0.00     0.017 A 
ATOM      6  C5  UNL d   1       3.836   3.573   1.764  0.00  0.00     0.034 A 
ATOM      7 Cl   UNL d   1       4.492   5.495   0.012  0.00  0.00    -0.070 Cl
ATOM      8 Cl1  UNL d   1       5.998   3.108  -1.610  0.00  0.00    -0.070 Cl
ENDROOT
TORSDOF 0
ENDMDL
