MODEL 1
REMARK minimizedAffinity 21.2888508
REMARK minimizedRMSD -1
REMARK  0 active torsions:
REMARK  status: ('A' for Active; 'I' for Inactive)
ROOT
ATOM      1  C   UNL d   1       3.386   2.202  -0.016  0.00  0.00     0.020 A 
ATOM      2  C1  UNL d   1       3.190   2.468   1.339  0.00  0.00     0.020 A 
ATOM      3  C2  UNL d   1       3.729   3.623   1.909  0.00  0.00     0.034 A 
ATOM      4  C3  UNL d   1       4.466   4.518   1.124  0.00  0.00     0.017 A 
ATOM      5  C4  UNL d   1       4.662   4.251  -0.236  0.00  0.00     0.017 A 
ATOM      6  C5  UNL d   1       4.120   3.092  -0.802  0.00  0.00     0.034 A 
ATOM      7 Cl   UNL d   1       5.559   5.307  -1.268  0.00  0.00    -0.070 Cl
ATOM      8 Cl1  UNL d   1       5.102   5.927   1.895  0.00  0.00    -0.070 Cl
ENDROOT
TORSDOF 0
ENDMDL
