MODEL 1
REMARK minimizedAffinity 17.7558899
REMARK minimizedRMSD -1
REMARK  0 active torsions:
REMARK  status: ('A' for Active; 'I' for Inactive)
ROOT
ATOM      1  C   UNL d   1      -0.981  -2.244  -1.235  0.00  0.00     0.020 A 
ATOM      2  C1  UNL d   1      -1.912  -1.355  -0.699  0.00  0.00     0.020 A 
ATOM      3  C2  UNL d   1      -2.370  -1.527   0.609  0.00  0.00     0.034 A 
ATOM      4  C3  UNL d   1      -1.896  -2.591   1.386  0.00  0.00     0.017 A 
ATOM      5  C4  UNL d   1      -0.962  -3.483   0.847  0.00  0.00     0.017 A 
ATOM      6  C5  UNL d   1      -0.507  -3.305  -0.463  0.00  0.00     0.034 A 
ATOM      7 Cl   UNL d   1      -0.331  -4.819   1.744  0.00  0.00    -0.070 Cl
ATOM      8 Cl1  UNL d   1      -2.505  -2.744   2.996  0.00  0.00    -0.070 Cl
ENDROOT
TORSDOF 0
ENDMDL
