MODEL 1
REMARK minimizedAffinity 12.2539158
REMARK minimizedRMSD -1
REMARK  0 active torsions:
REMARK  status: ('A' for Active; 'I' for Inactive)
ROOT
ATOM      1  C   UNL d   1      -2.287  -1.036  -0.655  0.00  0.00     0.020 A 
ATOM      2  C1  UNL d   1      -1.373  -1.795  -1.385  0.00  0.00     0.020 A 
ATOM      3  C2  UNL d   1      -0.748  -2.895  -0.793  0.00  0.00     0.034 A 
ATOM      4  C3  UNL d   1      -1.036  -3.239   0.533  0.00  0.00     0.017 A 
ATOM      5  C4  UNL d   1      -1.954  -2.476   1.265  0.00  0.00     0.017 A 
ATOM      6  C5  UNL d   1      -2.576  -1.376   0.667  0.00  0.00     0.034 A 
ATOM      7 Cl   UNL d   1      -2.360  -2.838   2.905  0.00  0.00    -0.070 Cl
ATOM      8 Cl1  UNL d   1      -0.227  -4.611   1.201  0.00  0.00    -0.070 Cl
ENDROOT
TORSDOF 0
ENDMDL
