MODEL 1
REMARK minimizedAffinity 21.3359661
REMARK minimizedRMSD -1
REMARK  0 active torsions:
REMARK  status: ('A' for Active; 'I' for Inactive)
ROOT
ATOM      1  C   UNL d   1      -0.209  -4.553   0.542  0.00  0.00     0.020 A 
ATOM      2  C1  UNL d   1      -0.204  -4.860   1.902  0.00  0.00     0.020 A 
ATOM      3  C2  UNL d   1      -1.085  -4.208   2.767  0.00  0.00     0.034 A 
ATOM      4  C3  UNL d   1      -1.975  -3.247   2.274  0.00  0.00     0.017 A 
ATOM      5  C4  UNL d   1      -1.979  -2.940   0.908  0.00  0.00     0.017 A 
ATOM      6  C5  UNL d   1      -1.094  -3.596   0.046  0.00  0.00     0.034 A 
ATOM      7 Cl   UNL d   1      -3.047  -1.766   0.225  0.00  0.00    -0.070 Cl
ATOM      8 Cl1  UNL d   1      -3.037  -2.481   3.401  0.00  0.00    -0.070 Cl
ENDROOT
TORSDOF 0
ENDMDL
