MODEL 1
REMARK minimizedAffinity 18.5916691
REMARK minimizedRMSD -1
REMARK  0 active torsions:
REMARK  status: ('A' for Active; 'I' for Inactive)
ROOT
ATOM      1  C   UNL d   1       3.018   3.650   5.261  0.00  0.00     0.020 A 
ATOM      2  C1  UNL d   1       3.729   2.704   5.996  0.00  0.00     0.020 A 
ATOM      3  C2  UNL d   1       4.118   1.503   5.398  0.00  0.00     0.034 A 
ATOM      4  C3  UNL d   1       3.795   1.246   4.061  0.00  0.00     0.017 A 
ATOM      5  C4  UNL d   1       3.081   2.197   3.324  0.00  0.00     0.017 A 
ATOM      6  C5  UNL d   1       2.694   3.397   3.927  0.00  0.00     0.034 A 
ATOM      7 Cl   UNL d   1       2.646   1.951   1.669  0.00  0.00    -0.070 Cl
ATOM      8 Cl1  UNL d   1       4.308  -0.260   3.386  0.00  0.00    -0.070 Cl
ENDROOT
TORSDOF 0
ENDMDL
