MODEL 1
REMARK minimizedAffinity 3.33466601
REMARK minimizedRMSD -1
REMARK  2 active torsions:
REMARK  status: ('A' for Active; 'I' for Inactive)
REMARK    1  A    between atoms: C1_2  and  C2_3 
REMARK    2  A    between atoms: C2_3  and  C3_4 
ROOT
ATOM      1  C3  UNL d   1       2.327  -2.082   1.171  0.00  0.00    -0.075 A 
ATOM      2  C4  UNL d   1       2.742  -0.959   0.440  0.00  0.00     0.002 A 
ATOM      3  C5  UNL d   1       2.366  -0.805  -0.895  0.00  0.00     0.002 A 
ATOM      4  C6  UNL d   1       1.581  -1.773  -1.517  0.00  0.00    -0.004 A 
ATOM      5  C7  UNL d   1       1.177  -2.900  -0.805  0.00  0.00     0.002 A 
ATOM      6  C8  UNL d   1       1.547  -3.055   0.532  0.00  0.00     0.002 A 
ENDROOT
BRANCH   1   7
ATOM      7  C2  UNL d   1       2.705  -2.240   2.625  0.00  0.00     0.056 C 
BRANCH   7   8
ATOM      8  C1  UNL d   1       1.543  -2.023   3.599  0.00  0.00     0.007 C 
ATOM      9  C   UNL d   1       1.581  -2.962   4.798  0.00  0.00     0.009 C 
ENDBRANCH   7   8
ENDBRANCH   1   7
TORSDOF 2
ENDMDL
