MODEL 1
REMARK minimizedAffinity 7.39233875
REMARK minimizedRMSD -1
REMARK  2 active torsions:
REMARK  status: ('A' for Active; 'I' for Inactive)
REMARK    1  A    between atoms: C1_2  and  C2_3 
REMARK    2  A    between atoms: C2_3  and  C3_4 
ROOT
ATOM      1  C3  UNL d   1      -3.406   0.171  -2.380  0.00  0.00    -0.075 A 
ATOM      2  C4  UNL d   1      -2.073   0.538  -2.616  0.00  0.00     0.002 A 
ATOM      3  C5  UNL d   1      -1.747   1.373  -3.684  0.00  0.00     0.002 A 
ATOM      4  C6  UNL d   1      -2.744   1.844  -4.535  0.00  0.00    -0.004 A 
ATOM      5  C7  UNL d   1      -4.070   1.472  -4.320  0.00  0.00     0.002 A 
ATOM      6  C8  UNL d   1      -4.400   0.640  -3.249  0.00  0.00     0.002 A 
ENDROOT
BRANCH   1   7
ATOM      7  C2  UNL d   1      -3.770  -0.709  -1.208  0.00  0.00     0.056 C 
BRANCH   7   8
ATOM      8  C1  UNL d   1      -4.518   0.022  -0.088  0.00  0.00     0.007 C 
ATOM      9  C   UNL d   1      -5.999  -0.327  -0.028  0.00  0.00     0.009 C 
ENDBRANCH   7   8
ENDBRANCH   1   7
TORSDOF 2
ENDMDL
