MODEL 1
REMARK minimizedAffinity 2.45668197
REMARK minimizedRMSD -1
REMARK  2 active torsions:
REMARK  status: ('A' for Active; 'I' for Inactive)
REMARK    1  A    between atoms: C1_2  and  C2_3 
REMARK    2  A    between atoms: C2_3  and  C3_4 
ROOT
ATOM      1  C3  UNL d   1       0.476   1.025  -0.046  0.00  0.00    -0.075 A 
ATOM      2  C4  UNL d   1      -0.288   0.472  -1.085  0.00  0.00     0.002 A 
ATOM      3  C5  UNL d   1       0.181  -0.631  -1.799  0.00  0.00     0.002 A 
ATOM      4  C6  UNL d   1       1.420  -1.188  -1.492  0.00  0.00    -0.004 A 
ATOM      5  C7  UNL d   1       2.194  -0.638  -0.473  0.00  0.00     0.002 A 
ATOM      6  C8  UNL d   1       1.726   0.464   0.246  0.00  0.00     0.002 A 
ENDROOT
BRANCH   1   7
ATOM      7  C2  UNL d   1      -0.038   2.200   0.750  0.00  0.00     0.056 C 
BRANCH   7   8
ATOM      8  C1  UNL d   1      -1.112   1.834   1.779  0.00  0.00     0.007 C 
ATOM      9  C   UNL d   1      -0.650   0.786   2.783  0.00  0.00     0.009 C 
ENDBRANCH   7   8
ENDBRANCH   1   7
TORSDOF 2
ENDMDL
