MODEL 1
REMARK minimizedAffinity 6.173841
REMARK minimizedRMSD -1
REMARK  2 active torsions:
REMARK  status: ('A' for Active; 'I' for Inactive)
REMARK    1  A    between atoms: C1_2  and  C2_3 
REMARK    2  A    between atoms: C2_3  and  C3_4 
ROOT
ATOM      1  C3  UNL d   1       2.549  -0.835   0.188  0.00  0.00    -0.075 A 
ATOM      2  C4  UNL d   1       1.397  -0.046   0.067  0.00  0.00     0.002 A 
ATOM      3  C5  UNL d   1       1.471   1.342   0.195  0.00  0.00     0.002 A 
ATOM      4  C6  UNL d   1       2.694   1.955   0.457  0.00  0.00    -0.004 A 
ATOM      5  C7  UNL d   1       3.843   1.179   0.596  0.00  0.00     0.002 A 
ATOM      6  C8  UNL d   1       3.772  -0.209   0.463  0.00  0.00     0.002 A 
ENDROOT
BRANCH   1   7
ATOM      7  C2  UNL d   1       2.480  -2.334   0.021  0.00  0.00     0.056 C 
BRANCH   7   8
ATOM      8  C1  UNL d   1       1.506  -3.025   0.981  0.00  0.00     0.007 C 
ATOM      9  C   UNL d   1       0.400  -3.789   0.266  0.00  0.00     0.009 C 
ENDBRANCH   7   8
ENDBRANCH   1   7
TORSDOF 2
ENDMDL
