MODEL 1
REMARK minimizedAffinity 8.90047455
REMARK minimizedRMSD -1
REMARK  2 active torsions:
REMARK  status: ('A' for Active; 'I' for Inactive)
REMARK    1  A    between atoms: C1_2  and  C2_3 
REMARK    2  A    between atoms: C2_3  and  C3_4 
ROOT
ATOM      1  C3  UNL d   1       0.925   1.113   0.923  0.00  0.00    -0.075 A 
ATOM      2  C4  UNL d   1       0.537   0.669   2.196  0.00  0.00     0.002 A 
ATOM      3  C5  UNL d   1      -0.453   1.344   2.910  0.00  0.00     0.002 A 
ATOM      4  C6  UNL d   1      -1.060   2.475   2.366  0.00  0.00    -0.004 A 
ATOM      5  C7  UNL d   1      -0.670   2.934   1.110  0.00  0.00     0.002 A 
ATOM      6  C8  UNL d   1       0.317   2.258   0.392  0.00  0.00     0.002 A 
ENDROOT
BRANCH   1   7
ATOM      7  C2  UNL d   1       1.976   0.370   0.133  0.00  0.00     0.056 C 
BRANCH   7   8
ATOM      8  C1  UNL d   1       1.429  -0.815  -0.670  0.00  0.00     0.007 C 
ATOM      9  C   UNL d   1       2.017  -2.153  -0.241  0.00  0.00     0.009 C 
ENDBRANCH   7   8
ENDBRANCH   1   7
TORSDOF 2
ENDMDL
