MODEL 1
REMARK minimizedAffinity 9.81303596
REMARK minimizedRMSD -1
REMARK  2 active torsions:
REMARK  status: ('A' for Active; 'I' for Inactive)
REMARK    1  A    between atoms: C1_2  and  C2_3 
REMARK    2  A    between atoms: C2_3  and  C3_4 
ROOT
ATOM      1  C3  UNL d   1       2.275  -1.322   2.418  0.00  0.00    -0.075 A 
ATOM      2  C4  UNL d   1       1.716  -2.192   3.365  0.00  0.00     0.002 A 
ATOM      3  C5  UNL d   1       0.659  -1.773   4.174  0.00  0.00     0.002 A 
ATOM      4  C6  UNL d   1       0.155  -0.480   4.054  0.00  0.00    -0.004 A 
ATOM      5  C7  UNL d   1       0.714   0.398   3.128  0.00  0.00     0.002 A 
ATOM      6  C8  UNL d   1       1.769  -0.019   2.314  0.00  0.00     0.002 A 
ENDROOT
BRANCH   1   7
ATOM      7  C2  UNL d   1       3.400  -1.777   1.519  0.00  0.00     0.056 C 
BRANCH   7   8
ATOM      8  C1  UNL d   1       3.045  -1.782   0.029  0.00  0.00     0.007 C 
ATOM      9  C   UNL d   1       1.888  -2.713  -0.310  0.00  0.00     0.009 C 
ENDBRANCH   7   8
ENDBRANCH   1   7
TORSDOF 2
ENDMDL
