MODEL 1
REMARK minimizedAffinity 2.29030657
REMARK minimizedRMSD -1
REMARK  2 active torsions:
REMARK  status: ('A' for Active; 'I' for Inactive)
REMARK    1  A    between atoms: C1_2  and  C2_3 
REMARK    2  A    between atoms: C2_3  and  C3_4 
ROOT
ATOM      1  C3  UNL d   1      -3.961  -0.562  -0.655  0.00  0.00    -0.075 A 
ATOM      2  C4  UNL d   1      -4.085  -1.855  -1.185  0.00  0.00     0.002 A 
ATOM      3  C5  UNL d   1      -5.102  -2.705  -0.748  0.00  0.00     0.002 A 
ATOM      4  C6  UNL d   1      -5.998  -2.279   0.230  0.00  0.00    -0.004 A 
ATOM      5  C7  UNL d   1      -5.873  -1.003   0.776  0.00  0.00     0.002 A 
ATOM      6  C8  UNL d   1      -4.860  -0.149   0.337  0.00  0.00     0.002 A 
ENDROOT
BRANCH   1   7
ATOM      7  C2  UNL d   1      -2.882   0.373  -1.145  0.00  0.00     0.056 C 
BRANCH   7   8
ATOM      8  C1  UNL d   1      -1.484  -0.253  -1.183  0.00  0.00     0.007 C 
ATOM      9  C   UNL d   1      -0.747   0.004  -2.491  0.00  0.00     0.009 C 
ENDBRANCH   7   8
ENDBRANCH   1   7
TORSDOF 2
ENDMDL
