MODEL 1
REMARK minimizedAffinity -4.81080484
REMARK minimizedRMSD -1
REMARK  3 active torsions:
REMARK  status: ('A' for Active; 'I' for Inactive)
REMARK    1  A    between atoms: C3'_2  and  C2'_3 
REMARK    2  A    between atoms: C2'_3  and  C1'_4 
REMARK    3  A    between atoms: C1'_4  and  C1_5 
ROOT
ATOM      1  C1  N4B d   1      -0.012  -0.006  -0.144  0.00  0.00    -0.075 A 
ATOM      2  C2  N4B d   1      -0.491  -0.293  -1.442  0.00  0.00     0.002 A 
ATOM      3  C3  N4B d   1      -1.816  -0.598  -1.632  0.00  0.00     0.002 A 
ATOM      4  C4  N4B d   1      -2.674  -0.640  -0.543  0.00  0.00    -0.004 A 
ATOM      5  C5  N4B d   1      -2.209  -0.336   0.703  0.00  0.00     0.002 A 
ATOM      6  C6  N4B d   1      -0.880  -0.024   0.909  0.00  0.00     0.002 A 
ENDROOT
BRANCH   1   7
ATOM      7  C1' N4B d   1       1.446   0.249   0.126  0.00  0.00     0.057 C 
BRANCH   7   8
ATOM      8  C2' N4B d   1       1.575   1.268   1.254  0.00  0.00     0.009 C 
BRANCH   8   9
ATOM      9  C3' N4B d   1       2.773   2.182   1.060  0.00  0.00     0.004 C 
ATOM     10  C4' N4B d   1       2.382   3.615   0.852  0.00  0.00     0.003 C 
ENDBRANCH   8   9
ENDBRANCH   7   8
ENDBRANCH   1   7
TORSDOF 3
ENDMDL
