MODEL 1
REMARK minimizedAffinity -2.43362975
REMARK minimizedRMSD -1
REMARK  3 active torsions:
REMARK  status: ('A' for Active; 'I' for Inactive)
REMARK    1  A    between atoms: C3'_2  and  C2'_3 
REMARK    2  A    between atoms: C2'_3  and  C1'_4 
REMARK    3  A    between atoms: C1'_4  and  C1_5 
ROOT
ATOM      1  C1  N4B d   1       1.826   1.461   0.782  0.00  0.00    -0.075 A 
ATOM      2  C2  N4B d   1       1.731   1.700   2.171  0.00  0.00     0.002 A 
ATOM      3  C3  N4B d   1       2.300   2.825   2.715  0.00  0.00     0.002 A 
ATOM      4  C4  N4B d   1       2.982   3.713   1.896  0.00  0.00    -0.004 A 
ATOM      5  C5  N4B d   1       3.047   3.488   0.552  0.00  0.00     0.002 A 
ATOM      6  C6  N4B d   1       2.477   2.363  -0.009  0.00  0.00     0.002 A 
ENDROOT
BRANCH   1   7
ATOM      7  C1' N4B d   1       1.294   0.202   0.154  0.00  0.00     0.057 C 
BRANCH   7   8
ATOM      8  C2' N4B d   1      -0.196   0.082   0.458  0.00  0.00     0.009 C 
BRANCH   8   9
ATOM      9  C3' N4B d   1      -1.052   0.450  -0.743  0.00  0.00     0.004 C 
ATOM     10  C4' N4B d   1      -2.253  -0.435  -0.892  0.00  0.00     0.003 C 
ENDBRANCH   8   9
ENDBRANCH   7   8
ENDBRANCH   1   7
TORSDOF 3
ENDMDL
