MODEL 1
REMARK minimizedAffinity -5.04458189
REMARK minimizedRMSD -1
REMARK  3 active torsions:
REMARK  status: ('A' for Active; 'I' for Inactive)
REMARK    1  A    between atoms: C3'_2  and  C2'_3 
REMARK    2  A    between atoms: C2'_3  and  C1'_4 
REMARK    3  A    between atoms: C1'_4  and  C1_5 
ROOT
ATOM      1  C1  N4B d   1      -0.016   0.177  -0.233  0.00  0.00    -0.075 A 
ATOM      2  C2  N4B d   1      -0.459  -0.122  -1.540  0.00  0.00     0.002 A 
ATOM      3  C3  N4B d   1      -1.762  -0.503  -1.752  0.00  0.00     0.002 A 
ATOM      4  C4  N4B d   1      -2.630  -0.608  -0.676  0.00  0.00    -0.004 A 
ATOM      5  C5  N4B d   1      -2.200  -0.293   0.580  0.00  0.00     0.002 A 
ATOM      6  C6  N4B d   1      -0.895   0.095   0.808  0.00  0.00     0.002 A 
ENDROOT
BRANCH   1   7
ATOM      7  C1' N4B d   1       1.421   0.514   0.061  0.00  0.00     0.057 C 
BRANCH   7   8
ATOM      8  C2' N4B d   1       1.482   1.426   1.283  0.00  0.00     0.009 C 
BRANCH   8   9
ATOM      9  C3' N4B d   1       2.578   2.470   1.158  0.00  0.00     0.004 C 
ATOM     10  C4' N4B d   1       2.116   3.845   1.539  0.00  0.00     0.003 C 
ENDBRANCH   8   9
ENDBRANCH   7   8
ENDBRANCH   1   7
TORSDOF 3
ENDMDL
