MODEL 1
REMARK minimizedAffinity -5.54017925
REMARK minimizedRMSD -1
REMARK  3 active torsions:
REMARK  status: ('A' for Active; 'I' for Inactive)
REMARK    1  A    between atoms: C3'_2  and  C2'_3 
REMARK    2  A    between atoms: C2'_3  and  C1'_4 
REMARK    3  A    between atoms: C1'_4  and  C1_5 
ROOT
ATOM      1  C1  N4B d   1      -0.151  -0.332   0.406  0.00  0.00    -0.075 A 
ATOM      2  C2  N4B d   1      -0.504  -0.038  -0.929  0.00  0.00     0.002 A 
ATOM      3  C3  N4B d   1      -1.825  -0.042  -1.306  0.00  0.00     0.002 A 
ATOM      4  C4  N4B d   1      -2.803  -0.353  -0.374  0.00  0.00    -0.004 A 
ATOM      5  C5  N4B d   1      -2.455  -0.611   0.919  0.00  0.00     0.002 A 
ATOM      6  C6  N4B d   1      -1.132  -0.607   1.313  0.00  0.00     0.002 A 
ENDROOT
BRANCH   1   7
ATOM      7  C1' N4B d   1       1.285  -0.425   0.845  0.00  0.00     0.057 C 
BRANCH   7   8
ATOM      8  C2' N4B d   1       1.975   0.911   0.586  0.00  0.00     0.009 C 
BRANCH   8   9
ATOM      9  C3' N4B d   1       1.560   1.970   1.594  0.00  0.00     0.004 C 
ATOM     10  C4' N4B d   1       2.681   2.896   1.959  0.00  0.00     0.003 C 
ENDBRANCH   8   9
ENDBRANCH   7   8
ENDBRANCH   1   7
TORSDOF 3
ENDMDL
