MODEL 1
REMARK minimizedAffinity -5.58131218
REMARK minimizedRMSD -1
REMARK  3 active torsions:
REMARK  status: ('A' for Active; 'I' for Inactive)
REMARK    1  A    between atoms: C3'_2  and  C2'_3 
REMARK    2  A    between atoms: C2'_3  and  C1'_4 
REMARK    3  A    between atoms: C1'_4  and  C1_5 
ROOT
ATOM      1  C1  N4B d   1      -0.760   0.142  -0.293  0.00  0.00    -0.075 A 
ATOM      2  C2  N4B d   1      -1.430  -0.152   0.915  0.00  0.00     0.002 A 
ATOM      3  C3  N4B d   1      -2.549  -0.947   0.903  0.00  0.00     0.002 A 
ATOM      4  C4  N4B d   1      -3.026  -1.442  -0.301  0.00  0.00    -0.004 A 
ATOM      5  C5  N4B d   1      -2.359  -1.175  -1.461  0.00  0.00     0.002 A 
ATOM      6  C6  N4B d   1      -1.230  -0.380  -1.463  0.00  0.00     0.002 A 
ENDROOT
BRANCH   1   7
ATOM      7  C1' N4B d   1       0.418   1.076  -0.341  0.00  0.00     0.057 C 
BRANCH   7   8
ATOM      8  C2' N4B d   1       1.509   0.555   0.589  0.00  0.00     0.009 C 
BRANCH   8   9
ATOM      9  C3' N4B d   1       2.595   1.590   0.829  0.00  0.00     0.004 C 
ATOM     10  C4' N4B d   1       2.278   2.511   1.969  0.00  0.00     0.003 C 
ENDBRANCH   8   9
ENDBRANCH   7   8
ENDBRANCH   1   7
TORSDOF 3
ENDMDL
