MODEL 1
REMARK minimizedAffinity -2.38767838
REMARK minimizedRMSD -1
REMARK  3 active torsions:
REMARK  status: ('A' for Active; 'I' for Inactive)
REMARK    1  A    between atoms: C3'_2  and  C2'_3 
REMARK    2  A    between atoms: C2'_3  and  C1'_4 
REMARK    3  A    between atoms: C1'_4  and  C1_5 
ROOT
ATOM      1  C1  N4B d   1       1.024   0.203   0.682  0.00  0.00    -0.075 A 
ATOM      2  C2  N4B d   1       0.799  -1.077   1.234  0.00  0.00     0.002 A 
ATOM      3  C3  N4B d   1      -0.414  -1.697   1.061  0.00  0.00     0.002 A 
ATOM      4  C4  N4B d   1      -1.420  -1.051   0.358  0.00  0.00    -0.004 A 
ATOM      5  C5  N4B d   1      -1.186   0.175  -0.194  0.00  0.00     0.002 A 
ATOM      6  C6  N4B d   1       0.029   0.808  -0.031  0.00  0.00     0.002 A 
ENDROOT
BRANCH   1   7
ATOM      7  C1' N4B d   1       2.304   0.956   0.918  0.00  0.00     0.057 C 
BRANCH   7   8
ATOM      8  C2' N4B d   1       1.998   2.449   1.001  0.00  0.00     0.009 C 
BRANCH   8   9
ATOM      9  C3' N4B d   1       2.688   3.105   2.185  0.00  0.00     0.004 C 
ATOM     10  C4' N4B d   1       3.006   2.135   3.283  0.00  0.00     0.003 C 
ENDBRANCH   8   9
ENDBRANCH   7   8
ENDBRANCH   1   7
TORSDOF 3
ENDMDL
