MODEL 1
REMARK minimizedAffinity -6.0914464
REMARK minimizedRMSD -1
REMARK  3 active torsions:
REMARK  status: ('A' for Active; 'I' for Inactive)
REMARK    1  A    between atoms: C3'_2  and  C2'_3 
REMARK    2  A    between atoms: C2'_3  and  C1'_4 
REMARK    3  A    between atoms: C1'_4  and  C1_5 
ROOT
ATOM      1  C1  N4B d   1      -0.383  -0.400   0.179  0.00  0.00    -0.075 A 
ATOM      2  C2  N4B d   1      -0.930  -1.292   1.127  0.00  0.00     0.002 A 
ATOM      3  C3  N4B d   1      -2.268  -1.600   1.088  0.00  0.00     0.002 A 
ATOM      4  C4  N4B d   1      -3.078  -1.015   0.127  0.00  0.00    -0.004 A 
ATOM      5  C5  N4B d   1      -2.538  -0.174  -0.801  0.00  0.00     0.002 A 
ATOM      6  C6  N4B d   1      -1.194   0.141  -0.777  0.00  0.00     0.002 A 
ENDROOT
BRANCH   1   7
ATOM      7  C1' N4B d   1       1.057   0.033   0.234  0.00  0.00     0.057 C 
BRANCH   7   8
ATOM      8  C2' N4B d   1       1.128   1.473   0.734  0.00  0.00     0.009 C 
BRANCH   8   9
ATOM      9  C3' N4B d   1       2.533   2.040   0.635  0.00  0.00     0.004 C 
ATOM     10  C4' N4B d   1       2.873   2.953   1.775  0.00  0.00     0.003 C 
ENDBRANCH   8   9
ENDBRANCH   7   8
ENDBRANCH   1   7
TORSDOF 3
ENDMDL
