MODEL 1
REMARK minimizedAffinity -3.56457496
REMARK minimizedRMSD -1
REMARK  3 active torsions:
REMARK  status: ('A' for Active; 'I' for Inactive)
REMARK    1  A    between atoms: C3'_2  and  C2'_3 
REMARK    2  A    between atoms: C2'_3  and  C1'_4 
REMARK    3  A    between atoms: C1'_4  and  C1_5 
ROOT
ATOM      1  C1  N4B d   1      -0.324  -0.124  -0.054  0.00  0.00    -0.075 A 
ATOM      2  C2  N4B d   1      -0.937  -0.600  -1.234  0.00  0.00     0.002 A 
ATOM      3  C3  N4B d   1      -2.286  -0.861  -1.249  0.00  0.00     0.002 A 
ATOM      4  C4  N4B d   1      -3.034  -0.671  -0.098  0.00  0.00    -0.004 A 
ATOM      5  C5  N4B d   1      -2.439  -0.187   1.030  0.00  0.00     0.002 A 
ATOM      6  C6  N4B d   1      -1.086   0.083   1.059  0.00  0.00     0.002 A 
ENDROOT
BRANCH   1   7
ATOM      7  C1' N4B d   1       1.162   0.093   0.037  0.00  0.00     0.057 C 
BRANCH   7   8
ATOM      8  C2' N4B d   1       1.470   0.942   1.267  0.00  0.00     0.009 C 
BRANCH   8   9
ATOM      9  C3' N4B d   1       2.563   1.961   0.995  0.00  0.00     0.004 C 
ATOM     10  C4' N4B d   1       2.189   3.345   1.434  0.00  0.00     0.003 C 
ENDBRANCH   8   9
ENDBRANCH   7   8
ENDBRANCH   1   7
TORSDOF 3
ENDMDL
