MODEL 1
REMARK minimizedAffinity -2.488235
REMARK minimizedRMSD -1
REMARK  3 active torsions:
REMARK  status: ('A' for Active; 'I' for Inactive)
REMARK    1  A    between atoms: C3'_2  and  C2'_3 
REMARK    2  A    between atoms: C2'_3  and  C1'_4 
REMARK    3  A    between atoms: C1'_4  and  C1_5 
ROOT
ATOM      1  C1  N4B d   1      -0.194  -0.264  -0.173  0.00  0.00    -0.075 A 
ATOM      2  C2  N4B d   1      -0.969  -0.392   1.001  0.00  0.00     0.002 A 
ATOM      3  C3  N4B d   1      -2.273  -0.813   0.920  0.00  0.00     0.002 A 
ATOM      4  C4  N4B d   1      -2.829  -1.091  -0.319  0.00  0.00    -0.004 A 
ATOM      5  C5  N4B d   1      -2.067  -0.989  -1.446  0.00  0.00     0.002 A 
ATOM      6  C6  N4B d   1      -0.753  -0.571  -1.380  0.00  0.00     0.002 A 
ENDROOT
BRANCH   1   7
ATOM      7  C1' N4B d   1       1.210   0.275  -0.143  0.00  0.00     0.057 C 
BRANCH   7   8
ATOM      8  C2' N4B d   1       1.295   1.395   0.889  0.00  0.00     0.009 C 
BRANCH   8   9
ATOM      9  C3' N4B d   1       2.415   2.373   0.576  0.00  0.00     0.004 C 
ATOM     10  C4' N4B d   1       3.282   1.917  -0.560  0.00  0.00     0.003 C 
ENDBRANCH   8   9
ENDBRANCH   7   8
ENDBRANCH   1   7
TORSDOF 3
ENDMDL
