MODEL 1
REMARK minimizedAffinity 2.1733768
REMARK minimizedRMSD -1
REMARK  1 active torsions:
REMARK  status: ('A' for Active; 'I' for Inactive)
REMARK    1  A    between atoms: N_2  and  C1_3 
ROOT
ATOM      1  C1  UNL d   1      -5.257  -2.163   3.975  0.00  0.00     0.143 A 
ATOM      2  C2  UNL d   1      -4.138  -2.137   3.137  0.00  0.00    -0.057 A 
ATOM      3  C3  UNL d   1      -3.746  -0.962   2.485  0.00  0.00     0.033 A 
ATOM      4  C4  UNL d   1      -4.486   0.206   2.638  0.00  0.00    -0.042 A 
ATOM      5  C5  UNL d   1      -5.617   0.197   3.447  0.00  0.00     0.033 A 
ATOM      6  C6  UNL d   1      -6.000  -0.979   4.100  0.00  0.00    -0.057 A 
ENDROOT
BRANCH   1   7
ATOM      7  N   UNL d   1      -5.755  -3.324   4.573  0.00  0.00    -0.732 N 
ATOM      8  C   UNL d   1      -5.998  -3.373   5.999  0.00  0.00     0.284 C 
ATOM      9  H3  UNL d   1      -6.477  -3.770   4.012  0.00  0.00     0.395 HD
ENDBRANCH   1   7
TORSDOF 1
ENDMDL
