MODEL 1
REMARK minimizedAffinity -0.0113518275
REMARK minimizedRMSD -1
REMARK  1 active torsions:
REMARK  status: ('A' for Active; 'I' for Inactive)
REMARK    1  A    between atoms: N_2  and  C1_3 
ROOT
ATOM      1  C1  UNL d   1      -1.513  -3.851  -5.988  0.00  0.00     0.143 A 
ATOM      2  C2  UNL d   1      -1.573  -5.249  -5.960  0.00  0.00    -0.057 A 
ATOM      3  C3  UNL d   1      -2.800  -5.924  -5.979  0.00  0.00     0.033 A 
ATOM      4  C4  UNL d   1      -3.993  -5.209  -5.997  0.00  0.00    -0.042 A 
ATOM      5  C5  UNL d   1      -3.958  -3.819  -6.000  0.00  0.00     0.033 A 
ATOM      6  C6  UNL d   1      -2.730  -3.151  -5.987  0.00  0.00    -0.057 A 
ENDROOT
BRANCH   1   7
ATOM      7  N   UNL d   1      -0.328  -3.121  -5.871  0.00  0.00    -0.732 N 
ATOM      8  C   UNL d   1       0.956  -3.775  -5.996  0.00  0.00     0.284 C 
ATOM      9  H3  UNL d   1      -0.381  -2.217  -6.336  0.00  0.00     0.395 HD
ENDBRANCH   1   7
TORSDOF 1
ENDMDL
