MODEL 1
REMARK minimizedAffinity 1.43202782
REMARK minimizedRMSD -1
REMARK  1 active torsions:
REMARK  status: ('A' for Active; 'I' for Inactive)
REMARK    1  A    between atoms: N_2  and  C1_3 
ROOT
ATOM      1  C1  UNL d   1      -2.294  -5.060  -5.972  0.00  0.00     0.143 A 
ATOM      2  C2  UNL d   1      -2.501  -3.677  -5.984  0.00  0.00    -0.057 A 
ATOM      3  C3  UNL d   1      -1.424  -2.782  -6.000  0.00  0.00     0.033 A 
ATOM      4  C4  UNL d   1      -0.117  -3.257  -5.974  0.00  0.00    -0.042 A 
ATOM      5  C5  UNL d   1       0.112  -4.628  -5.936  0.00  0.00     0.033 A 
ATOM      6  C6  UNL d   1      -0.967  -5.516  -5.928  0.00  0.00    -0.057 A 
ENDROOT
BRANCH   1   7
ATOM      7  N   UNL d   1      -3.322  -5.999  -5.856  0.00  0.00    -0.732 N 
ATOM      8  C   UNL d   1      -4.706  -5.599  -5.998  0.00  0.00     0.284 C 
ATOM      9  H3  UNL d   1      -3.096  -6.881  -6.311  0.00  0.00     0.395 HD
ENDBRANCH   1   7
TORSDOF 1
ENDMDL
