MODEL 1
REMARK minimizedAffinity 5.17017794
REMARK minimizedRMSD -1
REMARK  1 active torsions:
REMARK  status: ('A' for Active; 'I' for Inactive)
REMARK    1  A    between atoms: N_2  and  C1_3 
ROOT
ATOM      1  C1  UNL d   1      -1.695   5.086  -0.755  0.00  0.00     0.143 A 
ATOM      2  C2  UNL d   1      -0.875   5.383  -1.849  0.00  0.00    -0.057 A 
ATOM      3  C3  UNL d   1       0.066   4.461  -2.323  0.00  0.00     0.033 A 
ATOM      4  C4  UNL d   1       0.224   3.232  -1.690  0.00  0.00    -0.042 A 
ATOM      5  C5  UNL d   1      -0.563   2.925  -0.586  0.00  0.00     0.033 A 
ATOM      6  C6  UNL d   1      -1.505   3.848  -0.121  0.00  0.00    -0.057 A 
ENDROOT
BRANCH   1   7
ATOM      7  N   UNL d   1      -2.580   5.999  -0.176  0.00  0.00    -0.732 N 
ATOM      8  C   UNL d   1      -2.993   5.852   1.203  0.00  0.00     0.284 C 
ATOM      9  H3  UNL d   1      -2.383   6.959  -0.451  0.00  0.00     0.395 HD
ENDBRANCH   1   7
TORSDOF 1
ENDMDL
