MODEL 1
REMARK minimizedAffinity 5.40996456
REMARK minimizedRMSD -1
REMARK  1 active torsions:
REMARK  status: ('A' for Active; 'I' for Inactive)
REMARK    1  A    between atoms: N_2  and  C1_3 
ROOT
ATOM      1  C1  UNL d   1      -1.655  -3.714  -5.904  0.00  0.00     0.143 A 
ATOM      2  C2  UNL d   1      -2.975  -3.256  -5.983  0.00  0.00    -0.057 A 
ATOM      3  C3  UNL d   1      -4.053  -4.149  -5.999  0.00  0.00     0.033 A 
ATOM      4  C4  UNL d   1      -3.828  -5.521  -5.967  0.00  0.00    -0.042 A 
ATOM      5  C5  UNL d   1      -2.524  -6.000  -5.914  0.00  0.00     0.033 A 
ATOM      6  C6  UNL d   1      -1.451  -5.103  -5.891  0.00  0.00    -0.057 A 
ENDROOT
BRANCH   1   7
ATOM      7  N   UNL d   1      -0.537  -2.880  -5.983  0.00  0.00    -0.732 N 
ATOM      8  C   UNL d   1       0.799  -3.438  -5.999  0.00  0.00     0.284 C 
ATOM      9  H3  UNL d   1      -0.673  -2.108  -6.632  0.00  0.00     0.395 HD
ENDBRANCH   1   7
TORSDOF 1
ENDMDL
