MODEL 1
REMARK minimizedAffinity -2.10275197
REMARK minimizedRMSD -1
REMARK  1 active torsions:
REMARK  status: ('A' for Active; 'I' for Inactive)
REMARK    1  A    between atoms: N_2  and  C1_3 
ROOT
ATOM      1  C1  UNL d   1      -4.367  -3.459  -5.986  0.00  0.00     0.143 A 
ATOM      2  C2  UNL d   1      -3.026  -3.062  -6.000  0.00  0.00    -0.057 A 
ATOM      3  C3  UNL d   1      -1.991  -3.998  -5.882  0.00  0.00     0.033 A 
ATOM      4  C4  UNL d   1      -2.281  -5.348  -5.719  0.00  0.00    -0.042 A 
ATOM      5  C5  UNL d   1      -3.607  -5.762  -5.678  0.00  0.00     0.033 A 
ATOM      6  C6  UNL d   1      -4.636  -4.824  -5.802  0.00  0.00    -0.057 A 
ENDROOT
BRANCH   1   7
ATOM      7  N   UNL d   1      -5.442  -2.567  -6.000  0.00  0.00    -0.732 N 
ATOM      8  C   UNL d   1      -5.214  -1.138  -6.000  0.00  0.00     0.284 C 
ATOM      9  H3  UNL d   1      -6.189  -2.869  -6.621  0.00  0.00     0.395 HD
ENDBRANCH   1   7
TORSDOF 1
ENDMDL
