MODEL 1
REMARK minimizedAffinity -2.43619013
REMARK minimizedRMSD -1
REMARK  1 active torsions:
REMARK  status: ('A' for Active; 'I' for Inactive)
REMARK    1  A    between atoms: N_2  and  C1_3 
ROOT
ATOM      1  C1  UNL d   1      -3.520  -5.252  -5.653  0.00  0.00     0.143 A 
ATOM      2  C2  UNL d   1      -3.415  -3.869  -5.832  0.00  0.00    -0.057 A 
ATOM      3  C3  UNL d   1      -2.169  -3.251  -5.997  0.00  0.00     0.033 A 
ATOM      4  C4  UNL d   1      -1.001  -4.005  -5.955  0.00  0.00    -0.042 A 
ATOM      5  C5  UNL d   1      -1.081  -5.379  -5.753  0.00  0.00     0.033 A 
ATOM      6  C6  UNL d   1      -2.328  -5.991  -5.596  0.00  0.00    -0.057 A 
ENDROOT
BRANCH   1   7
ATOM      7  N   UNL d   1      -4.722  -5.913  -5.385  0.00  0.00    -0.732 N 
ATOM      8  C   UNL d   1      -5.962  -5.453  -5.973  0.00  0.00     0.284 C 
ATOM      9  H3  UNL d   1      -4.616  -6.924  -5.377  0.00  0.00     0.395 HD
ENDBRANCH   1   7
TORSDOF 1
ENDMDL
