MODEL 1
REMARK minimizedAffinity -5.36192989
REMARK minimizedRMSD -1
REMARK  0 active torsions:
REMARK  status: ('A' for Active; 'I' for Inactive)
ROOT
ATOM      1  C   UNL d   1      -2.307  -0.435   2.980  0.00  0.00     0.023 A 
ATOM      2  C1  UNL d   1      -1.007  -0.935   2.902  0.00  0.00     0.003 A 
ATOM      3  C2  UNL d   1      -0.290  -0.837   1.708  0.00  0.00     0.048 A 
ATOM      4  C3  UNL d   1      -0.878  -0.237   0.596  0.00  0.00     0.023 A 
ATOM      5  C4  UNL d   1      -2.178   0.266   0.669  0.00  0.00     0.048 A 
ATOM      6  C5  UNL d   1      -2.891   0.165   1.864  0.00  0.00     0.003 A 
ATOM      7  I   UNL d   1       0.188  -0.089  -1.183  0.00  0.00    -0.146 I 
ENDROOT
TORSDOF 0
ENDMDL
