MODEL 1
REMARK minimizedAffinity -2.61489487
REMARK minimizedRMSD -1
REMARK  0 active torsions:
REMARK  status: ('A' for Active; 'I' for Inactive)
ROOT
ATOM      1  C   UNL d   1      -0.830  -0.708   3.124  0.00  0.00     0.023 A 
ATOM      2  C1  UNL d   1       0.455  -1.011   2.675  0.00  0.00     0.003 A 
ATOM      3  C2  UNL d   1       0.795  -0.809   1.336  0.00  0.00     0.048 A 
ATOM      4  C3  UNL d   1      -0.156  -0.302   0.451  0.00  0.00     0.023 A 
ATOM      5  C4  UNL d   1      -1.443   0.003   0.895  0.00  0.00     0.048 A 
ATOM      6  C5  UNL d   1      -1.779  -0.202   2.235  0.00  0.00     0.003 A 
ATOM      7  I   UNL d   1       0.347  -0.000  -1.543  0.00  0.00    -0.146 I 
ENDROOT
TORSDOF 0
ENDMDL
