MODEL 1
REMARK minimizedAffinity -4.69156981
REMARK minimizedRMSD -1
REMARK  0 active torsions:
REMARK  status: ('A' for Active; 'I' for Inactive)
ROOT
ATOM      1  C   UNL d   1       0.409  -0.810  -2.497  0.00  0.00     0.023 A 
ATOM      2  C1  UNL d   1       0.080   0.378  -1.846  0.00  0.00     0.003 A 
ATOM      3  C2  UNL d   1      -0.006   0.411  -0.452  0.00  0.00     0.048 A 
ATOM      4  C3  UNL d   1       0.239  -0.748   0.283  0.00  0.00     0.023 A 
ATOM      5  C4  UNL d   1       0.569  -1.939  -0.364  0.00  0.00     0.048 A 
ATOM      6  C5  UNL d   1       0.653  -1.968  -1.758  0.00  0.00     0.003 A 
ATOM      7  I   UNL d   1       0.112  -0.701   2.357  0.00  0.00    -0.146 I 
ENDROOT
TORSDOF 0
ENDMDL
