MODEL 1
REMARK minimizedAffinity -0.622818232
REMARK minimizedRMSD -1
REMARK  0 active torsions:
REMARK  status: ('A' for Active; 'I' for Inactive)
ROOT
ATOM      1  C   UNL d   1      -0.507   0.095   1.749  0.00  0.00     0.023 A 
ATOM      2  C1  UNL d   1       0.827  -0.206   1.470  0.00  0.00     0.003 A 
ATOM      3  C2  UNL d   1       1.253  -0.328   0.146  0.00  0.00     0.048 A 
ATOM      4  C3  UNL d   1       0.342  -0.147  -0.894  0.00  0.00     0.023 A 
ATOM      5  C4  UNL d   1      -0.993   0.155  -0.619  0.00  0.00     0.048 A 
ATOM      6  C5  UNL d   1      -1.415   0.275   0.706  0.00  0.00     0.003 A 
ATOM      7  I   UNL d   1       0.974  -0.327  -2.866  0.00  0.00    -0.146 I 
ENDROOT
TORSDOF 0
ENDMDL
