MODEL 1
REMARK minimizedAffinity -1.17816257
REMARK minimizedRMSD -1
REMARK  0 active torsions:
REMARK  status: ('A' for Active; 'I' for Inactive)
ROOT
ATOM      1  C   UNL d   1      -1.563   0.324   3.162  0.00  0.00     0.023 A 
ATOM      2  C1  UNL d   1      -0.193   0.163   2.954  0.00  0.00     0.003 A 
ATOM      3  C2  UNL d   1       0.300  -0.038   1.663  0.00  0.00     0.048 A 
ATOM      4  C3  UNL d   1      -0.583  -0.076   0.584  0.00  0.00     0.023 A 
ATOM      5  C4  UNL d   1      -1.955   0.086   0.788  0.00  0.00     0.048 A 
ATOM      6  C5  UNL d   1      -2.442   0.285   2.080  0.00  0.00     0.003 A 
ATOM      7  I   UNL d   1       0.147  -0.374  -1.339  0.00  0.00    -0.146 I 
ENDROOT
TORSDOF 0
ENDMDL
