MODEL 1
REMARK minimizedAffinity -1.91471958
REMARK minimizedRMSD -1
REMARK  0 active torsions:
REMARK  status: ('A' for Active; 'I' for Inactive)
ROOT
ATOM      1  C   UNL d   1      -0.453   0.280   1.455  0.00  0.00     0.023 A 
ATOM      2  C1  UNL d   1       0.822  -0.238   1.231  0.00  0.00     0.003 A 
ATOM      3  C2  UNL d   1       1.283  -0.424  -0.074  0.00  0.00     0.048 A 
ATOM      4  C3  UNL d   1       0.464  -0.088  -1.151  0.00  0.00     0.023 A 
ATOM      5  C4  UNL d   1      -0.813   0.433  -0.932  0.00  0.00     0.048 A 
ATOM      6  C5  UNL d   1      -1.270   0.616   0.375  0.00  0.00     0.003 A 
ATOM      7  I   UNL d   1       1.147  -0.363  -3.094  0.00  0.00    -0.146 I 
ENDROOT
TORSDOF 0
ENDMDL
