MODEL 1
REMARK minimizedAffinity -2.34096766
REMARK minimizedRMSD -1
REMARK  0 active torsions:
REMARK  status: ('A' for Active; 'I' for Inactive)
ROOT
ATOM      1  C   UNL d   1       1.581  -1.317  -4.334  0.00  0.00     0.023 A 
ATOM      2  C1  UNL d   1       0.866  -2.223  -3.550  0.00  0.00     0.003 A 
ATOM      3  C2  UNL d   1       0.420  -1.850  -2.281  0.00  0.00     0.048 A 
ATOM      4  C3  UNL d   1       0.692  -0.569  -1.801  0.00  0.00     0.023 A 
ATOM      5  C4  UNL d   1       1.407   0.341  -2.582  0.00  0.00     0.048 A 
ATOM      6  C5  UNL d   1       1.851  -0.037  -3.850  0.00  0.00     0.003 A 
ATOM      7  I   UNL d   1       0.030  -0.012   0.088  0.00  0.00    -0.146 I 
ENDROOT
TORSDOF 0
ENDMDL
