MODEL 1
REMARK minimizedAffinity -1.60854566
REMARK minimizedRMSD -1
REMARK  0 active torsions:
REMARK  status: ('A' for Active; 'I' for Inactive)
ROOT
ATOM      1  C   UNL d   1      -0.191   0.231   1.594  0.00  0.00     0.023 A 
ATOM      2  C1  UNL d   1      -1.117   0.328   0.556  0.00  0.00     0.003 A 
ATOM      3  C2  UNL d   1      -0.701   0.184  -0.769  0.00  0.00     0.048 A 
ATOM      4  C3  UNL d   1       0.644  -0.058  -1.048  0.00  0.00     0.023 A 
ATOM      5  C4  UNL d   1       1.574  -0.156  -0.013  0.00  0.00     0.048 A 
ATOM      6  C5  UNL d   1       1.153  -0.011   1.310  0.00  0.00     0.003 A 
ATOM      7  I   UNL d   1       1.266  -0.272  -3.020  0.00  0.00    -0.146 I 
ENDROOT
TORSDOF 0
ENDMDL
