MODEL 1
REMARK minimizedAffinity -1.35956609
REMARK minimizedRMSD -1
REMARK  0 active torsions:
REMARK  status: ('A' for Active; 'I' for Inactive)
ROOT
ATOM      1  C   UNL d   1       1.669  -1.922  -4.349  0.00  0.00     0.023 A 
ATOM      2  C1  UNL d   1       2.013  -0.663  -3.857  0.00  0.00     0.003 A 
ATOM      3  C2  UNL d   1       1.220  -0.051  -2.885  0.00  0.00     0.048 A 
ATOM      4  C3  UNL d   1       0.083  -0.704  -2.408  0.00  0.00     0.023 A 
ATOM      5  C4  UNL d   1      -0.265  -1.964  -2.897  0.00  0.00     0.048 A 
ATOM      6  C5  UNL d   1       0.532  -2.572  -3.870  0.00  0.00     0.003 A 
ATOM      7  I   UNL d   1      -1.099   0.204  -0.961  0.00  0.00    -0.146 I 
ENDROOT
TORSDOF 0
ENDMDL
