MODEL 1
REMARK minimizedAffinity -2.05587435
REMARK minimizedRMSD -1
REMARK  0 active torsions:
REMARK  status: ('A' for Active; 'I' for Inactive)
ROOT
ATOM      1  C   UNL d   1       0.654   0.375   1.215  0.00  0.00     0.023 A 
ATOM      2  C1  UNL d   1       0.819   1.228   0.124  0.00  0.00     0.003 A 
ATOM      3  C2  UNL d   1       0.809   0.713  -1.174  0.00  0.00     0.048 A 
ATOM      4  C3  UNL d   1       0.631  -0.656  -1.373  0.00  0.00     0.023 A 
ATOM      5  C4  UNL d   1       0.464  -1.513  -0.284  0.00  0.00     0.048 A 
ATOM      6  C5  UNL d   1       0.477  -0.993   1.012  0.00  0.00     0.003 A 
ATOM      7  I   UNL d   1       0.615  -1.425  -3.304  0.00  0.00    -0.146 I 
ENDROOT
TORSDOF 0
ENDMDL
