MODEL 1
REMARK minimizedAffinity -2.60708332
REMARK minimizedRMSD -1
REMARK  0 active torsions:
REMARK  status: ('A' for Active; 'I' for Inactive)
ROOT
ATOM      1  C   UNL d   1       0.749  -1.686  -3.255  0.00  0.00     0.023 A 
ATOM      2  C1  UNL d   1       1.831  -2.203  -3.969  0.00  0.00     0.003 A 
ATOM      3  C2  UNL d   1       2.919  -1.386  -4.279  0.00  0.00     0.048 A 
ATOM      4  C3  UNL d   1       2.921  -0.052  -3.872  0.00  0.00     0.023 A 
ATOM      5  C4  UNL d   1       1.842   0.469  -3.156  0.00  0.00     0.048 A 
ATOM      6  C5  UNL d   1       0.755  -0.352  -2.850  0.00  0.00     0.003 A 
ATOM      7  I   UNL d   1       4.540   1.167  -4.332  0.00  0.00    -0.146 I 
ENDROOT
TORSDOF 0
ENDMDL
