MODEL 1
REMARK minimizedAffinity -4.65062094
REMARK minimizedRMSD -1
REMARK  0 active torsions:
REMARK  status: ('A' for Active; 'I' for Inactive)
ROOT
ATOM      1  C   UNL d   1      -0.954  -0.431   3.239  0.00  0.00     0.023 A 
ATOM      2  C1  UNL d   1      -1.733  -1.040   2.255  0.00  0.00     0.003 A 
ATOM      3  C2  UNL d   1      -1.345  -0.975   0.915  0.00  0.00     0.048 A 
ATOM      4  C3  UNL d   1      -0.176  -0.301   0.566  0.00  0.00     0.023 A 
ATOM      5  C4  UNL d   1       0.608   0.310   1.547  0.00  0.00     0.048 A 
ATOM      6  C5  UNL d   1       0.215   0.243   2.885  0.00  0.00     0.003 A 
ATOM      7  I   UNL d   1       0.404  -0.203  -1.427  0.00  0.00    -0.146 I 
ENDROOT
TORSDOF 0
ENDMDL
