MODEL 1
REMARK minimizedAffinity -3.1538763
REMARK minimizedRMSD -1
REMARK  0 active torsions:
REMARK  status: ('A' for Active; 'I' for Inactive)
ROOT
ATOM      1  C   UNL d   1       0.611  -0.428  -4.104  0.00  0.00     0.023 A 
ATOM      2  C1  UNL d   1       0.870  -1.601  -3.395  0.00  0.00     0.003 A 
ATOM      3  C2  UNL d   1       0.813  -1.601  -2.000  0.00  0.00     0.048 A 
ATOM      4  C3  UNL d   1       0.494  -0.426  -1.320  0.00  0.00     0.023 A 
ATOM      5  C4  UNL d   1       0.232   0.749  -2.026  0.00  0.00     0.048 A 
ATOM      6  C5  UNL d   1       0.293   0.746  -3.421  0.00  0.00     0.003 A 
ATOM      7  I   UNL d   1       0.407  -0.425   0.756  0.00  0.00    -0.146 I 
ENDROOT
TORSDOF 0
ENDMDL
