MODEL 1
REMARK minimizedAffinity -0.993927777
REMARK minimizedRMSD -1
REMARK  0 active torsions:
REMARK  status: ('A' for Active; 'I' for Inactive)
ROOT
ATOM      1  C   UNL d   1       0.085   0.356  -1.330  0.00  0.00     0.023 A 
ATOM      2  C1  UNL d   1      -1.184   0.589  -0.799  0.00  0.00     0.003 A 
ATOM      3  C2  UNL d   1      -1.403   0.455   0.574  0.00  0.00     0.048 A 
ATOM      4  C3  UNL d   1      -0.348   0.087   1.409  0.00  0.00     0.023 A 
ATOM      5  C4  UNL d   1       0.923  -0.146   0.882  0.00  0.00     0.048 A 
ATOM      6  C5  UNL d   1       1.137  -0.011  -0.491  0.00  0.00     0.003 A 
ATOM      7  I   UNL d   1      -0.671  -0.113   3.453  0.00  0.00    -0.146 I 
ENDROOT
TORSDOF 0
ENDMDL
