MODEL 1
REMARK minimizedAffinity -2.94391346
REMARK minimizedRMSD -1
REMARK  0 active torsions:
REMARK  status: ('A' for Active; 'I' for Inactive)
ROOT
ATOM      1  C   UNL d   1       0.174  -0.086   2.526  0.00  0.00     0.023 A 
ATOM      2  C1  UNL d   1      -0.790   0.192   1.556  0.00  0.00     0.003 A 
ATOM      3  C2  UNL d   1      -0.548  -0.129   0.219  0.00  0.00     0.048 A 
ATOM      4  C3  UNL d   1       0.659  -0.728  -0.141  0.00  0.00     0.023 A 
ATOM      5  C4  UNL d   1       1.625  -1.008   0.826  0.00  0.00     0.048 A 
ATOM      6  C5  UNL d   1       1.379  -0.684   2.162  0.00  0.00     0.003 A 
ATOM      7  I   UNL d   1       1.021  -1.206  -2.131  0.00  0.00    -0.146 I 
ENDROOT
TORSDOF 0
ENDMDL
