MODEL 1
REMARK minimizedAffinity 5.10759926
REMARK minimizedRMSD -1
REMARK  3 active torsions:
REMARK  status: ('A' for Active; 'I' for Inactive)
REMARK    1  A    between atoms: C3'_2  and  C2'_3 
REMARK    2  A    between atoms: C2'_3  and  C1'_4 
REMARK    3  A    between atoms: C1'_4  and  C1_5 
ROOT
ATOM      1  C1  N4B d   1       1.987   2.809   2.346  0.00  0.00    -0.075 A 
ATOM      2  C2  N4B d   1       1.426   3.415   3.491  0.00  0.00     0.002 A 
ATOM      3  C3  N4B d   1       0.463   2.755   4.215  0.00  0.00     0.002 A 
ATOM      4  C4  N4B d   1       0.035   1.502   3.805  0.00  0.00    -0.004 A 
ATOM      5  C5  N4B d   1       0.600   0.912   2.712  0.00  0.00     0.002 A 
ATOM      6  C6  N4B d   1       1.571   1.562   1.977  0.00  0.00     0.002 A 
ENDROOT
BRANCH   1   7
ATOM      7  C1' N4B d   1       2.980   3.527   1.473  0.00  0.00     0.057 C 
BRANCH   7   8
ATOM      8  C2' N4B d   1       2.601   3.321   0.010  0.00  0.00     0.009 C 
BRANCH   8   9
ATOM      9  C3' N4B d   1       3.824   3.252  -0.889  0.00  0.00     0.004 C 
ATOM     10  C4' N4B d   1       4.115   4.555  -1.573  0.00  0.00     0.003 C 
ENDBRANCH   8   9
ENDBRANCH   7   8
ENDBRANCH   1   7
TORSDOF 3
ENDMDL
