MODEL 1
REMARK minimizedAffinity 5.19489717
REMARK minimizedRMSD -1
REMARK  3 active torsions:
REMARK  status: ('A' for Active; 'I' for Inactive)
REMARK    1  A    between atoms: C3'_2  and  C2'_3 
REMARK    2  A    between atoms: C2'_3  and  C1'_4 
REMARK    3  A    between atoms: C1'_4  and  C1_5 
ROOT
ATOM      1  C1  N4B d   1       1.699  -0.366  -2.019  0.00  0.00    -0.075 A 
ATOM      2  C2  N4B d   1       2.944  -0.906  -2.408  0.00  0.00     0.002 A 
ATOM      3  C3  N4B d   1       3.283  -0.961  -3.738  0.00  0.00     0.002 A 
ATOM      4  C4  N4B d   1       2.389  -0.502  -4.693  0.00  0.00    -0.004 A 
ATOM      5  C5  N4B d   1       1.199   0.041  -4.307  0.00  0.00     0.002 A 
ATOM      6  C6  N4B d   1       0.847   0.107  -2.974  0.00  0.00     0.002 A 
ENDROOT
BRANCH   1   7
ATOM      7  C1' N4B d   1       1.248  -0.364  -0.584  0.00  0.00     0.057 C 
BRANCH   7   8
ATOM      8  C2' N4B d   1      -0.170   0.193  -0.505  0.00  0.00     0.009 C 
BRANCH   8   9
ATOM      9  C3' N4B d   1      -1.196  -0.899  -0.254  0.00  0.00     0.004 C 
ATOM     10  C4' N4B d   1      -2.478  -0.371   0.317  0.00  0.00     0.003 C 
ENDBRANCH   8   9
ENDBRANCH   7   8
ENDBRANCH   1   7
TORSDOF 3
ENDMDL
