MODEL 1
REMARK minimizedAffinity 7.67167377
REMARK minimizedRMSD -1
REMARK  3 active torsions:
REMARK  status: ('A' for Active; 'I' for Inactive)
REMARK    1  A    between atoms: C3'_2  and  C2'_3 
REMARK    2  A    between atoms: C2'_3  and  C1'_4 
REMARK    3  A    between atoms: C1'_4  and  C1_5 
ROOT
ATOM      1  C1  N4B d   1      -5.071   5.443   1.948  0.00  0.00    -0.075 A 
ATOM      2  C2  N4B d   1      -5.995   6.000   1.036  0.00  0.00     0.002 A 
ATOM      3  C3  N4B d   1      -5.912   5.691  -0.299  0.00  0.00     0.002 A 
ATOM      4  C4  N4B d   1      -4.908   4.846  -0.747  0.00  0.00    -0.004 A 
ATOM      5  C5  N4B d   1      -4.035   4.293   0.143  0.00  0.00     0.002 A 
ATOM      6  C6  N4B d   1      -4.108   4.591   1.489  0.00  0.00     0.002 A 
ENDROOT
BRANCH   1   7
ATOM      7  C1' N4B d   1      -5.068   5.818   3.405  0.00  0.00     0.057 C 
BRANCH   7   8
ATOM      8  C2' N4B d   1      -3.630   5.832   3.916  0.00  0.00     0.009 C 
BRANCH   8   9
ATOM      9  C3' N4B d   1      -3.328   4.629   4.792  0.00  0.00     0.004 C 
ATOM     10  C4' N4B d   1      -1.859   4.433   5.024  0.00  0.00     0.003 C 
ENDBRANCH   8   9
ENDBRANCH   7   8
ENDBRANCH   1   7
TORSDOF 3
ENDMDL
