MODEL 1
REMARK minimizedAffinity -2.8622129
REMARK minimizedRMSD -1
REMARK  3 active torsions:
REMARK  status: ('A' for Active; 'I' for Inactive)
REMARK    1  A    between atoms: C3'_2  and  C2'_3 
REMARK    2  A    between atoms: C2'_3  and  C1'_4 
REMARK    3  A    between atoms: C1'_4  and  C1_5 
ROOT
ATOM      1  C1  N4B d   1      -4.708   3.529   5.267  0.00  0.00    -0.075 A 
ATOM      2  C2  N4B d   1      -4.874   3.622   3.868  0.00  0.00     0.002 A 
ATOM      3  C3  N4B d   1      -4.888   4.852   3.258  0.00  0.00     0.002 A 
ATOM      4  C4  N4B d   1      -4.758   6.000   4.026  0.00  0.00    -0.004 A 
ATOM      5  C5  N4B d   1      -4.572   5.901   5.374  0.00  0.00     0.002 A 
ATOM      6  C6  N4B d   1      -4.552   4.670   6.000  0.00  0.00     0.002 A 
ENDROOT
BRANCH   1   7
ATOM      7  C1' N4B d   1      -4.771   2.211   5.989  0.00  0.00     0.057 C 
BRANCH   7   8
ATOM      8  C2' N4B d   1      -4.471   1.085   5.003  0.00  0.00     0.009 C 
BRANCH   8   9
ATOM      9  C3' N4B d   1      -4.494  -0.278   5.673  0.00  0.00     0.004 C 
ATOM     10  C4' N4B d   1      -3.442  -1.204   5.140  0.00  0.00     0.003 C 
ENDBRANCH   8   9
ENDBRANCH   7   8
ENDBRANCH   1   7
TORSDOF 3
ENDMDL
