MODEL 1
REMARK minimizedAffinity 0.837641239
REMARK minimizedRMSD -1
REMARK  3 active torsions:
REMARK  status: ('A' for Active; 'I' for Inactive)
REMARK    1  A    between atoms: C3'_2  and  C2'_3 
REMARK    2  A    between atoms: C2'_3  and  C1'_4 
REMARK    3  A    between atoms: C1'_4  and  C1_5 
ROOT
ATOM      1  C1  N4B d   1       2.325   2.266   3.264  0.00  0.00    -0.075 A 
ATOM      2  C2  N4B d   1       2.823   0.953   3.112  0.00  0.00     0.002 A 
ATOM      3  C3  N4B d   1       2.494  -0.017   4.026  0.00  0.00     0.002 A 
ATOM      4  C4  N4B d   1       1.687   0.305   5.107  0.00  0.00    -0.004 A 
ATOM      5  C5  N4B d   1       1.189   1.569   5.233  0.00  0.00     0.002 A 
ATOM      6  C6  N4B d   1       1.508   2.553   4.319  0.00  0.00     0.002 A 
ENDROOT
BRANCH   1   7
ATOM      7  C1' N4B d   1       2.726   3.380   2.337  0.00  0.00     0.057 C 
BRANCH   7   8
ATOM      8  C2' N4B d   1       2.538   2.924   0.894  0.00  0.00     0.009 C 
BRANCH   8   9
ATOM      9  C3' N4B d   1       3.584   3.521  -0.032  0.00  0.00     0.004 C 
ATOM     10  C4' N4B d   1       3.271   3.300  -1.482  0.00  0.00     0.003 C 
ENDBRANCH   8   9
ENDBRANCH   7   8
ENDBRANCH   1   7
TORSDOF 3
ENDMDL
