MODEL 1
REMARK minimizedAffinity 9.63372612
REMARK minimizedRMSD -1
REMARK  3 active torsions:
REMARK  status: ('A' for Active; 'I' for Inactive)
REMARK    1  A    between atoms: C3'_2  and  C2'_3 
REMARK    2  A    between atoms: C2'_3  and  C1'_4 
REMARK    3  A    between atoms: C1'_4  and  C1_5 
ROOT
ATOM      1  C1  N4B d   1      -2.011  -2.198  -2.275  0.00  0.00    -0.075 A 
ATOM      2  C2  N4B d   1      -1.784  -1.400  -3.418  0.00  0.00     0.002 A 
ATOM      3  C3  N4B d   1      -2.062  -1.897  -4.668  0.00  0.00     0.002 A 
ATOM      4  C4  N4B d   1      -2.546  -3.189  -4.800  0.00  0.00    -0.004 A 
ATOM      5  C5  N4B d   1      -2.787  -3.944  -3.690  0.00  0.00     0.002 A 
ATOM      6  C6  N4B d   1      -2.516  -3.457  -2.427  0.00  0.00     0.002 A 
ENDROOT
BRANCH   1   7
ATOM      7  C1' N4B d   1      -1.642  -1.730  -0.893  0.00  0.00     0.057 C 
BRANCH   7   8
ATOM      8  C2' N4B d   1      -0.606  -0.615  -1.002  0.00  0.00     0.009 C 
BRANCH   8   9
ATOM      9  C3' N4B d   1      -0.796   0.444   0.070  0.00  0.00     0.004 C 
ATOM     10  C4' N4B d   1      -2.032   0.225   0.890  0.00  0.00     0.003 C 
ENDBRANCH   8   9
ENDBRANCH   7   8
ENDBRANCH   1   7
TORSDOF 3
ENDMDL
