MODEL 1
REMARK minimizedAffinity -0.303347111
REMARK minimizedRMSD -1
REMARK  0 active torsions:
REMARK  status: ('A' for Active; 'I' for Inactive)
ROOT
ATOM      1  C   UNL d   1       1.097  -5.984  -5.587  0.00  0.00     0.023 A 
ATOM      2  C1  UNL d   1       1.407  -5.993  -4.227  0.00  0.00     0.003 A 
ATOM      3  C2  UNL d   1       0.384  -5.997  -3.277  0.00  0.00     0.048 A 
ATOM      4  C3  UNL d   1      -0.947  -5.993  -3.693  0.00  0.00     0.023 A 
ATOM      5  C4  UNL d   1      -1.262  -5.985  -5.053  0.00  0.00     0.048 A 
ATOM      6  C5  UNL d   1      -0.236  -5.980  -6.000  0.00  0.00     0.003 A 
ATOM      7  I   UNL d   1      -2.471  -6.000  -2.281  0.00  0.00    -0.146 I 
ENDROOT
TORSDOF 0
ENDMDL
