MODEL 1
REMARK minimizedAffinity 0.979378223
REMARK minimizedRMSD -1
REMARK  0 active torsions:
REMARK  status: ('A' for Active; 'I' for Inactive)
ROOT
ATOM      1  C   UNL d   1       1.738  -5.979  -5.426  0.00  0.00     0.023 A 
ATOM      2  C1  UNL d   1       1.878  -5.995  -4.038  0.00  0.00     0.003 A 
ATOM      3  C2  UNL d   1       0.747  -6.000  -3.220  0.00  0.00     0.048 A 
ATOM      4  C3  UNL d   1      -0.523  -5.990  -3.797  0.00  0.00     0.023 A 
ATOM      5  C4  UNL d   1      -0.669  -5.975  -5.185  0.00  0.00     0.048 A 
ATOM      6  C5  UNL d   1       0.466  -5.969  -5.999  0.00  0.00     0.003 A 
ATOM      7  I   UNL d   1      -2.209  -5.998  -2.582  0.00  0.00    -0.146 I 
ENDROOT
TORSDOF 0
ENDMDL
