MODEL 1
REMARK minimizedAffinity 0.397666186
REMARK minimizedRMSD -1
REMARK  0 active torsions:
REMARK  status: ('A' for Active; 'I' for Inactive)
ROOT
ATOM      1  C   UNL d   1       0.319  -5.974  -5.705  0.00  0.00     0.023 A 
ATOM      2  C1  UNL d   1      -1.049  -5.982  -5.979  0.00  0.00     0.003 A 
ATOM      3  C2  UNL d   1      -1.972  -5.990  -4.931  0.00  0.00     0.048 A 
ATOM      4  C3  UNL d   1      -1.520  -5.989  -3.612  0.00  0.00     0.023 A 
ATOM      5  C4  UNL d   1      -0.153  -5.979  -3.333  0.00  0.00     0.048 A 
ATOM      6  C5  UNL d   1       0.767  -5.972  -4.384  0.00  0.00     0.003 A 
ATOM      7  I   UNL d   1      -2.892  -6.000  -2.050  0.00  0.00    -0.146 I 
ENDROOT
TORSDOF 0
ENDMDL
