MODEL 1
REMARK minimizedAffinity -1.26390803
REMARK minimizedRMSD -1
REMARK  0 active torsions:
REMARK  status: ('A' for Active; 'I' for Inactive)
ROOT
ATOM      1  C   UNL d   1       0.606  -5.979  -5.483  0.00  0.00     0.023 A 
ATOM      2  C1  UNL d   1       0.822  -5.974  -4.105  0.00  0.00     0.003 A 
ATOM      3  C2  UNL d   1      -0.263  -5.980  -3.226  0.00  0.00     0.048 A 
ATOM      4  C3  UNL d   1      -1.562  -5.991  -3.732  0.00  0.00     0.023 A 
ATOM      5  C4  UNL d   1      -1.784  -5.997  -5.110  0.00  0.00     0.048 A 
ATOM      6  C5  UNL d   1      -0.696  -5.990  -5.985  0.00  0.00     0.003 A 
ATOM      7  I   UNL d   1      -3.179  -6.000  -2.426  0.00  0.00    -0.146 I 
ENDROOT
TORSDOF 0
ENDMDL
