MODEL 1
REMARK minimizedAffinity -0.262518913
REMARK minimizedRMSD -1
REMARK  0 active torsions:
REMARK  status: ('A' for Active; 'I' for Inactive)
ROOT
ATOM      1  C   UNL d   1      -2.134  -5.998  -3.749  0.00  0.00     0.023 A 
ATOM      2  C1  UNL d   1      -2.075  -5.999  -5.142  0.00  0.00     0.003 A 
ATOM      3  C2  UNL d   1      -0.838  -5.996  -5.790  0.00  0.00     0.048 A 
ATOM      4  C3  UNL d   1       0.336  -5.995  -5.038  0.00  0.00     0.023 A 
ATOM      5  C4  UNL d   1       0.282  -5.996  -3.643  0.00  0.00     0.048 A 
ATOM      6  C5  UNL d   1      -0.957  -5.997  -3.000  0.00  0.00     0.003 A 
ATOM      7  I   UNL d   1       2.179  -5.992  -5.999  0.00  0.00    -0.146 I 
ENDROOT
TORSDOF 0
ENDMDL
