MODEL 1
REMARK minimizedAffinity 1.75483501
REMARK minimizedRMSD -1
REMARK  0 active torsions:
REMARK  status: ('A' for Active; 'I' for Inactive)
ROOT
ATOM      1  C   UNL d   1      -2.244  -5.993  -4.530  0.00  0.00     0.023 A 
ATOM      2  C1  UNL d   1      -1.425  -5.988  -3.400  0.00  0.00     0.003 A 
ATOM      3  C2  UNL d   1      -0.036  -5.990  -3.543  0.00  0.00     0.048 A 
ATOM      4  C3  UNL d   1       0.528  -5.995  -4.818  0.00  0.00     0.023 A 
ATOM      5  C4  UNL d   1      -0.287  -6.000  -5.951  0.00  0.00     0.048 A 
ATOM      6  C5  UNL d   1      -1.676  -5.999  -5.804  0.00  0.00     0.003 A 
ATOM      7  I   UNL d   1       2.595  -5.998  -5.033  0.00  0.00    -0.146 I 
ENDROOT
TORSDOF 0
ENDMDL
