MODEL 1
REMARK minimizedAffinity -1.31409049
REMARK minimizedRMSD -1
REMARK  0 active torsions:
REMARK  status: ('A' for Active; 'I' for Inactive)
ROOT
ATOM      1  C   UNL d   1      -2.350  -5.995  -2.583  0.00  0.00     0.023 A 
ATOM      2  C1  UNL d   1      -1.009  -5.990  -2.198  0.00  0.00     0.003 A 
ATOM      3  C2  UNL d   1      -0.003  -5.992  -3.166  0.00  0.00     0.048 A 
ATOM      4  C3  UNL d   1      -0.344  -5.997  -4.518  0.00  0.00     0.023 A 
ATOM      5  C4  UNL d   1      -1.684  -6.000  -4.908  0.00  0.00     0.048 A 
ATOM      6  C5  UNL d   1      -2.687  -5.999  -3.937  0.00  0.00     0.003 A 
ATOM      7  I   UNL d   1       1.152  -5.999  -5.960  0.00  0.00    -0.146 I 
ENDROOT
TORSDOF 0
ENDMDL
