MODEL 1
REMARK minimizedAffinity 2.96913338
REMARK minimizedRMSD -1
REMARK  0 active torsions:
REMARK  status: ('A' for Active; 'I' for Inactive)
ROOT
ATOM      1  C   UNL d   1       2.289  -0.045   1.110  0.00  0.00     0.023 A 
ATOM      2  C1  UNL d   1       3.120   0.024   2.229  0.00  0.00     0.003 A 
ATOM      3  C2  UNL d   1       2.783  -0.666   3.395  0.00  0.00     0.048 A 
ATOM      4  C3  UNL d   1       1.614  -1.426   3.435  0.00  0.00     0.023 A 
ATOM      5  C4  UNL d   1       0.780  -1.499   2.318  0.00  0.00     0.048 A 
ATOM      6  C5  UNL d   1       1.121  -0.806   1.155  0.00  0.00     0.003 A 
ATOM      7  I   UNL d   1       1.110  -2.455   5.169  0.00  0.00    -0.146 I 
ENDROOT
TORSDOF 0
ENDMDL
