MODEL 1
REMARK minimizedAffinity -1.20086217
REMARK minimizedRMSD -1
REMARK  0 active torsions:
REMARK  status: ('A' for Active; 'I' for Inactive)
ROOT
ATOM      1  C   UNL d   1      -2.920  -5.971  -1.915  0.00  0.00     0.023 A 
ATOM      2  C1  UNL d   1      -1.529  -5.989  -1.806  0.00  0.00     0.003 A 
ATOM      3  C2  UNL d   1      -0.737  -5.997  -2.956  0.00  0.00     0.048 A 
ATOM      4  C3  UNL d   1      -1.342  -5.987  -4.212  0.00  0.00     0.023 A 
ATOM      5  C4  UNL d   1      -2.733  -5.968  -4.327  0.00  0.00     0.048 A 
ATOM      6  C5  UNL d   1      -3.521  -5.960  -3.174  0.00  0.00     0.003 A 
ATOM      7  I   UNL d   1      -0.165  -5.999  -5.925  0.00  0.00    -0.146 I 
ENDROOT
TORSDOF 0
ENDMDL
