MODEL 1
REMARK minimizedAffinity 1.01856673
REMARK minimizedRMSD -1
REMARK  0 active torsions:
REMARK  status: ('A' for Active; 'I' for Inactive)
ROOT
ATOM      1  C   UNL d   1      -0.215  -5.960  -5.228  0.00  0.00     0.023 A 
ATOM      2  C1  UNL d   1      -0.007  -5.943  -3.848  0.00  0.00     0.003 A 
ATOM      3  C2  UNL d   1      -1.098  -5.954  -2.976  0.00  0.00     0.048 A 
ATOM      4  C3  UNL d   1      -2.394  -5.982  -3.490  0.00  0.00     0.023 A 
ATOM      5  C4  UNL d   1      -2.606  -6.000  -4.870  0.00  0.00     0.048 A 
ATOM      6  C5  UNL d   1      -1.513  -5.988  -5.738  0.00  0.00     0.003 A 
ATOM      7  I   UNL d   1      -4.018  -5.998  -2.195  0.00  0.00    -0.146 I 
ENDROOT
TORSDOF 0
ENDMDL
