MODEL 1
REMARK minimizedAffinity -2.61840463
REMARK minimizedRMSD -1
REMARK  0 active torsions:
REMARK  status: ('A' for Active; 'I' for Inactive)
ROOT
ATOM      1  C   UNL d   1      -2.858  -6.000  -3.931  0.00  0.00     0.023 A 
ATOM      2  C1  UNL d   1      -2.008  -5.998  -2.825  0.00  0.00     0.003 A 
ATOM      3  C2  UNL d   1      -0.623  -5.998  -3.007  0.00  0.00     0.048 A 
ATOM      4  C3  UNL d   1      -0.095  -5.997  -4.298  0.00  0.00     0.023 A 
ATOM      5  C4  UNL d   1      -0.942  -5.998  -5.407  0.00  0.00     0.048 A 
ATOM      6  C5  UNL d   1      -2.325  -6.000  -5.221  0.00  0.00     0.003 A 
ATOM      7  I   UNL d   1       1.965  -5.996  -4.571  0.00  0.00    -0.146 I 
ENDROOT
TORSDOF 0
ENDMDL
