MODEL 1
REMARK minimizedAffinity 0.182559446
REMARK minimizedRMSD -1
REMARK  0 active torsions:
REMARK  status: ('A' for Active; 'I' for Inactive)
ROOT
ATOM      1  C   UNL d   1      -5.556  -5.985   1.322  0.00  0.00     0.023 A 
ATOM      2  C1  UNL d   1      -5.975  -5.986  -0.009  0.00  0.00     0.003 A 
ATOM      3  C2  UNL d   1      -5.033  -5.990  -1.039  0.00  0.00     0.048 A 
ATOM      4  C3  UNL d   1      -3.673  -5.993  -0.732  0.00  0.00     0.023 A 
ATOM      5  C4  UNL d   1      -3.249  -5.993   0.598  0.00  0.00     0.048 A 
ATOM      6  C5  UNL d   1      -4.195  -5.989   1.625  0.00  0.00     0.003 A 
ATOM      7  I   UNL d   1      -2.268  -5.999  -2.264  0.00  0.00    -0.146 I 
ENDROOT
TORSDOF 0
ENDMDL
