MODEL 1
REMARK minimizedAffinity -0.737649262
REMARK minimizedRMSD -1
REMARK  0 active torsions:
REMARK  status: ('A' for Active; 'I' for Inactive)
ROOT
ATOM      1  C   UNL d   1       0.165  -5.993  -4.876  0.00  0.00     0.023 A 
ATOM      2  C1  UNL d   1       0.375  -5.997  -3.497  0.00  0.00     0.003 A 
ATOM      3  C2  UNL d   1      -0.714  -5.998  -2.623  0.00  0.00     0.048 A 
ATOM      4  C3  UNL d   1      -2.011  -5.997  -3.134  0.00  0.00     0.023 A 
ATOM      5  C4  UNL d   1      -2.226  -5.994  -4.513  0.00  0.00     0.048 A 
ATOM      6  C5  UNL d   1      -1.135  -5.991  -5.383  0.00  0.00     0.003 A 
ATOM      7  I   UNL d   1      -3.633  -5.999  -1.835  0.00  0.00    -0.146 I 
ENDROOT
TORSDOF 0
ENDMDL
