MODEL 1
REMARK minimizedAffinity -1.94687331
REMARK minimizedRMSD -1
REMARK  0 active torsions:
REMARK  status: ('A' for Active; 'I' for Inactive)
ROOT
ATOM      1  C   UNL d   1      -3.096  -5.999  -2.093  0.00  0.00     0.023 A 
ATOM      2  C1  UNL d   1      -1.719  -6.000  -1.865  0.00  0.00     0.003 A 
ATOM      3  C2  UNL d   1      -0.832  -6.000  -2.943  0.00  0.00     0.048 A 
ATOM      4  C3  UNL d   1      -1.327  -5.998  -4.247  0.00  0.00     0.023 A 
ATOM      5  C4  UNL d   1      -2.703  -5.997  -4.480  0.00  0.00     0.048 A 
ATOM      6  C5  UNL d   1      -3.587  -5.998  -3.399  0.00  0.00     0.003 A 
ATOM      7  I   UNL d   1      -0.008  -5.998  -5.853  0.00  0.00    -0.146 I 
ENDROOT
TORSDOF 0
ENDMDL
