MODEL 1
REMARK minimizedAffinity -1.2443074
REMARK minimizedRMSD -1
REMARK  0 active torsions:
REMARK  status: ('A' for Active; 'I' for Inactive)
ROOT
ATOM      1  C   UNL d   1       1.414  -5.993  -4.796  0.00  0.00     0.023 A 
ATOM      2  C1  UNL d   1       0.724  -5.998  -3.583  0.00  0.00     0.003 A 
ATOM      3  C2  UNL d   1      -0.672  -5.999  -3.573  0.00  0.00     0.048 A 
ATOM      4  C3  UNL d   1      -1.372  -5.997  -4.779  0.00  0.00     0.023 A 
ATOM      5  C4  UNL d   1      -0.686  -5.993  -5.995  0.00  0.00     0.048 A 
ATOM      6  C5  UNL d   1       0.710  -5.990  -6.000  0.00  0.00     0.003 A 
ATOM      7  I   UNL d   1      -3.451  -5.999  -4.767  0.00  0.00    -0.146 I 
ENDROOT
TORSDOF 0
ENDMDL
