MODEL 1
REMARK minimizedAffinity -1.43034196
REMARK minimizedRMSD -1
REMARK  0 active torsions:
REMARK  status: ('A' for Active; 'I' for Inactive)
ROOT
ATOM      1  C   UNL d   1       0.475  -5.998  -5.536  0.00  0.00     0.023 A 
ATOM      2  C1  UNL d   1       0.828  -5.999  -4.187  0.00  0.00     0.003 A 
ATOM      3  C2  UNL d   1      -0.164  -5.999  -3.204  0.00  0.00     0.048 A 
ATOM      4  C3  UNL d   1      -1.508  -5.999  -3.578  0.00  0.00     0.023 A 
ATOM      5  C4  UNL d   1      -1.866  -5.999  -4.927  0.00  0.00     0.048 A 
ATOM      6  C5  UNL d   1      -0.870  -5.998  -5.906  0.00  0.00     0.003 A 
ATOM      7  I   UNL d   1      -2.986  -5.999  -2.117  0.00  0.00    -0.146 I 
ENDROOT
TORSDOF 0
ENDMDL
