MODEL 1
REMARK minimizedAffinity 1.32903135
REMARK minimizedRMSD -1
REMARK  0 active torsions:
REMARK  status: ('A' for Active; 'I' for Inactive)
ROOT
ATOM      1  C   UNL d   1      -4.350   1.471  -2.546  0.00  0.00     0.023 A 
ATOM      2  C1  UNL d   1      -3.704   1.799  -1.354  0.00  0.00     0.003 A 
ATOM      3  C2  UNL d   1      -4.062   1.159  -0.166  0.00  0.00     0.048 A 
ATOM      4  C3  UNL d   1      -5.066   0.192  -0.177  0.00  0.00     0.023 A 
ATOM      5  C4  UNL d   1      -5.714  -0.141  -1.367  0.00  0.00     0.048 A 
ATOM      6  C5  UNL d   1      -5.353   0.502  -2.553  0.00  0.00     0.003 A 
ATOM      7  I   UNL d   1      -5.601  -0.762   1.591  0.00  0.00    -0.146 I 
ENDROOT
TORSDOF 0
ENDMDL
