MODEL 1
REMARK minimizedAffinity -3.19458175
REMARK minimizedRMSD -1
REMARK  0 active torsions:
REMARK  status: ('A' for Active; 'I' for Inactive)
ROOT
ATOM      1  C1  BNZ d   1      -2.302  -1.618  -2.831  0.00  0.00     0.000 A 
ATOM      2  C2  BNZ d   1      -1.538  -0.510  -2.580  0.00  0.00     0.000 A 
ATOM      3  C3  BNZ d   1      -0.802  -0.412  -1.433  0.00  0.00     0.000 A 
ATOM      4  C4  BNZ d   1      -0.862  -1.403  -0.520  0.00  0.00     0.000 A 
ATOM      5  C5  BNZ d   1      -1.635  -2.522  -0.753  0.00  0.00     0.000 A 
ATOM      6  C6  BNZ d   1      -2.344  -2.635  -1.927  0.00  0.00     0.000 A 
ENDROOT
TORSDOF 0
ENDMDL
