MODEL 1
REMARK minimizedAffinity -3.77350187
REMARK minimizedRMSD -1
REMARK  0 active torsions:
REMARK  status: ('A' for Active; 'I' for Inactive)
ROOT
ATOM      1  C1  BNZ d   1      -2.767  -2.964  -2.027  0.00  0.00     0.000 A 
ATOM      2  C2  BNZ d   1      -3.403  -3.229  -0.843  0.00  0.00     0.000 A 
ATOM      3  C3  BNZ d   1      -2.952  -2.691   0.329  0.00  0.00     0.000 A 
ATOM      4  C4  BNZ d   1      -1.845  -1.921   0.323  0.00  0.00     0.000 A 
ATOM      5  C5  BNZ d   1      -1.188  -1.651  -0.860  0.00  0.00     0.000 A 
ATOM      6  C6  BNZ d   1      -1.666  -2.163  -2.044  0.00  0.00     0.000 A 
ENDROOT
TORSDOF 0
ENDMDL
