MODEL 1
REMARK minimizedAffinity -4.08359575
REMARK minimizedRMSD -1
REMARK  0 active torsions:
REMARK  status: ('A' for Active; 'I' for Inactive)
ROOT
ATOM      1  C1  BNZ d   1      -2.063  -1.946  -0.766  0.00  0.00     0.000 A 
ATOM      2  C2  BNZ d   1      -1.775  -1.763  -2.092  0.00  0.00     0.000 A 
ATOM      3  C3  BNZ d   1      -2.416  -2.491  -3.055  0.00  0.00     0.000 A 
ATOM      4  C4  BNZ d   1      -3.314  -3.429  -2.689  0.00  0.00     0.000 A 
ATOM      5  C5  BNZ d   1      -3.608  -3.632  -1.355  0.00  0.00     0.000 A 
ATOM      6  C6  BNZ d   1      -2.989  -2.870  -0.391  0.00  0.00     0.000 A 
ENDROOT
TORSDOF 0
ENDMDL
