MODEL 1
REMARK minimizedAffinity -1.38422084
REMARK minimizedRMSD -1
REMARK  0 active torsions:
REMARK  status: ('A' for Active; 'I' for Inactive)
ROOT
ATOM      1  C1  BNZ d   1      -2.809  -2.256  -1.606  0.00  0.00     0.000 A 
ATOM      2  C2  BNZ d   1      -1.499  -1.864  -1.680  0.00  0.00     0.000 A 
ATOM      3  C3  BNZ d   1      -0.929  -1.133  -0.676  0.00  0.00     0.000 A 
ATOM      4  C4  BNZ d   1      -1.679  -0.760   0.381  0.00  0.00     0.000 A 
ATOM      5  C5  BNZ d   1      -3.004  -1.139   0.466  0.00  0.00     0.000 A 
ATOM      6  C6  BNZ d   1      -3.564  -1.908  -0.528  0.00  0.00     0.000 A 
ENDROOT
TORSDOF 0
ENDMDL
