MODEL 1
REMARK minimizedAffinity -2.73926044
REMARK minimizedRMSD -1
REMARK  0 active torsions:
REMARK  status: ('A' for Active; 'I' for Inactive)
ROOT
ATOM      1  C1  BNZ d   1      -1.112  -0.317  -1.260  0.00  0.00     0.000 A 
ATOM      2  C2  BNZ d   1      -2.014  -0.732  -2.202  0.00  0.00     0.000 A 
ATOM      3  C3  BNZ d   1      -2.635  -1.945  -2.091  0.00  0.00     0.000 A 
ATOM      4  C4  BNZ d   1      -2.323  -2.757  -1.061  0.00  0.00     0.000 A 
ATOM      5  C5  BNZ d   1      -1.408  -2.357  -0.107  0.00  0.00     0.000 A 
ATOM      6  C6  BNZ d   1      -0.814  -1.119  -0.201  0.00  0.00     0.000 A 
ENDROOT
TORSDOF 0
ENDMDL
