MODEL 1
REMARK minimizedAffinity -3.34531784
REMARK minimizedRMSD -1
REMARK  0 active torsions:
REMARK  status: ('A' for Active; 'I' for Inactive)
ROOT
ATOM      1  C1  BNZ d   1      -2.131  -1.456  -0.006  0.00  0.00     0.000 A 
ATOM      2  C2  BNZ d   1      -2.499  -1.810  -1.277  0.00  0.00     0.000 A 
ATOM      3  C3  BNZ d   1      -1.913  -1.224  -2.364  0.00  0.00     0.000 A 
ATOM      4  C4  BNZ d   1      -0.991  -0.258  -2.180  0.00  0.00     0.000 A 
ATOM      5  C5  BNZ d   1      -0.616   0.118  -0.905  0.00  0.00     0.000 A 
ATOM      6  C6  BNZ d   1      -1.179  -0.502   0.187  0.00  0.00     0.000 A 
ENDROOT
TORSDOF 0
ENDMDL
