MODEL 1
REMARK minimizedAffinity -1.66514492
REMARK minimizedRMSD -1
REMARK  0 active torsions:
REMARK  status: ('A' for Active; 'I' for Inactive)
ROOT
ATOM      1  C1  BNZ d   1      -4.475   5.049   2.887  0.00  0.00     0.000 A 
ATOM      2  C2  BNZ d   1      -4.128   4.100   1.963  0.00  0.00     0.000 A 
ATOM      3  C3  BNZ d   1      -4.692   4.097   0.717  0.00  0.00     0.000 A 
ATOM      4  C4  BNZ d   1      -5.629   5.018   0.412  0.00  0.00     0.000 A 
ATOM      5  C5  BNZ d   1      -5.995   5.976   1.336  0.00  0.00     0.000 A 
ATOM      6  C6  BNZ d   1      -5.398   5.999   2.575  0.00  0.00     0.000 A 
ENDROOT
TORSDOF 0
ENDMDL
