MODEL 1
REMARK minimizedAffinity -1.2197156
REMARK minimizedRMSD -1
REMARK  0 active torsions:
REMARK  status: ('A' for Active; 'I' for Inactive)
ROOT
ATOM      1  C1  BNZ d   1      -5.049   5.283   3.518  0.00  0.00     0.000 A 
ATOM      2  C2  BNZ d   1      -5.998   5.985   2.824  0.00  0.00     0.000 A 
ATOM      3  C3  BNZ d   1      -5.997   6.000   1.457  0.00  0.00     0.000 A 
ATOM      4  C4  BNZ d   1      -5.025   5.347   0.787  0.00  0.00     0.000 A 
ATOM      5  C5  BNZ d   1      -4.056   4.643   1.473  0.00  0.00     0.000 A 
ATOM      6  C6  BNZ d   1      -4.083   4.598   2.848  0.00  0.00     0.000 A 
ENDROOT
TORSDOF 0
ENDMDL
