MODEL 1
REMARK minimizedAffinity 0.228563443
REMARK minimizedRMSD -1
REMARK  0 active torsions:
REMARK  status: ('A' for Active; 'I' for Inactive)
ROOT
ATOM      1  C1  BNZ d   1      -0.393  -0.749  -0.010  0.00  0.00     0.000 A 
ATOM      2  C2  BNZ d   1      -1.446  -0.601   0.854  0.00  0.00     0.000 A 
ATOM      3  C3  BNZ d   1      -2.162   0.563   0.891  0.00  0.00     0.000 A 
ATOM      4  C4  BNZ d   1      -1.801   1.590   0.095  0.00  0.00     0.000 A 
ATOM      5  C5  BNZ d   1      -0.736   1.459  -0.774  0.00  0.00     0.000 A 
ATOM      6  C6  BNZ d   1      -0.042   0.273  -0.837  0.00  0.00     0.000 A 
ENDROOT
TORSDOF 0
ENDMDL
