MODEL 1
REMARK minimizedAffinity 1.42415345
REMARK minimizedRMSD -1
REMARK  0 active torsions:
REMARK  status: ('A' for Active; 'I' for Inactive)
ROOT
ATOM      1  C1  BNZ d   1      -2.383  -2.614  -1.783  0.00  0.00     0.000 A 
ATOM      2  C2  BNZ d   1      -1.610  -2.286  -0.701  0.00  0.00     0.000 A 
ATOM      3  C3  BNZ d   1      -1.139  -1.013  -0.538  0.00  0.00     0.000 A 
ATOM      4  C4  BNZ d   1      -1.407  -0.081  -1.475  0.00  0.00     0.000 A 
ATOM      5  C5  BNZ d   1      -2.178  -0.399  -2.576  0.00  0.00     0.000 A 
ATOM      6  C6  BNZ d   1      -2.683  -1.671  -2.717  0.00  0.00     0.000 A 
ENDROOT
TORSDOF 0
ENDMDL
