MODEL 1
REMARK minimizedAffinity 0.15535745
REMARK minimizedRMSD -1
REMARK  0 active torsions:
REMARK  status: ('A' for Active; 'I' for Inactive)
ROOT
ATOM      1  C1  BNZ d   1      -3.334  -4.185  -3.746  0.00  0.00     0.000 A 
ATOM      2  C2  BNZ d   1      -3.681  -4.208  -2.421  0.00  0.00     0.000 A 
ATOM      3  C3  BNZ d   1      -3.522  -3.100  -1.637  0.00  0.00     0.000 A 
ATOM      4  C4  BNZ d   1      -2.981  -1.984  -2.166  0.00  0.00     0.000 A 
ATOM      5  C5  BNZ d   1      -2.617  -1.948  -3.498  0.00  0.00     0.000 A 
ATOM      6  C6  BNZ d   1      -2.814  -3.053  -4.294  0.00  0.00     0.000 A 
ENDROOT
TORSDOF 0
ENDMDL
