MODEL 1
REMARK minimizedAffinity -0.795820594
REMARK minimizedRMSD -1
REMARK  0 active torsions:
REMARK  status: ('A' for Active; 'I' for Inactive)
ROOT
ATOM      1  C1  BNZ d   1      -3.609   5.906   3.193  0.00  0.00     0.000 A 
ATOM      2  C2  BNZ d   1      -3.657   5.828   1.827  0.00  0.00     0.000 A 
ATOM      3  C3  BNZ d   1      -4.853   5.852   1.166  0.00  0.00     0.000 A 
ATOM      4  C4  BNZ d   1      -6.000   5.915   1.873  0.00  0.00     0.000 A 
ATOM      5  C5  BNZ d   1      -5.969   5.985   3.251  0.00  0.00     0.000 A 
ATOM      6  C6  BNZ d   1      -4.761   6.000   3.911  0.00  0.00     0.000 A 
ENDROOT
TORSDOF 0
ENDMDL
