MODEL 1
REMARK minimizedAffinity 5.74391794
REMARK minimizedRMSD -1
REMARK  0 active torsions:
REMARK  status: ('A' for Active; 'I' for Inactive)
ROOT
ATOM      1  C1  BNZ d   1      -2.337  -1.800  -2.737  0.00  0.00     0.000 A 
ATOM      2  C2  BNZ d   1      -2.800  -2.867  -2.014  0.00  0.00     0.000 A 
ATOM      3  C3  BNZ d   1      -3.249  -3.995  -2.641  0.00  0.00     0.000 A 
ATOM      4  C4  BNZ d   1      -3.272  -4.040  -3.989  0.00  0.00     0.000 A 
ATOM      5  C5  BNZ d   1      -2.818  -2.969  -4.732  0.00  0.00     0.000 A 
ATOM      6  C6  BNZ d   1      -2.330  -1.850  -4.097  0.00  0.00     0.000 A 
ENDROOT
TORSDOF 0
ENDMDL
