MODEL 1
REMARK minimizedAffinity -1.78438818
REMARK minimizedRMSD -1
REMARK  0 active torsions:
REMARK  status: ('A' for Active; 'I' for Inactive)
ROOT
ATOM      1  C1  BNZ d   1      -4.639   3.721   5.129  0.00  0.00     0.000 A 
ATOM      2  C2  BNZ d   1      -4.853   3.737   3.776  0.00  0.00     0.000 A 
ATOM      3  C3  BNZ d   1      -5.245   4.883   3.143  0.00  0.00     0.000 A 
ATOM      4  C4  BNZ d   1      -5.461   6.000   3.867  0.00  0.00     0.000 A 
ATOM      5  C5  BNZ d   1      -5.258   5.998   5.233  0.00  0.00     0.000 A 
ATOM      6  C6  BNZ d   1      -4.826   4.853   5.861  0.00  0.00     0.000 A 
ENDROOT
TORSDOF 0
ENDMDL
