MODEL 1
REMARK minimizedAffinity -1.63346004
REMARK minimizedRMSD -1
REMARK  0 active torsions:
REMARK  status: ('A' for Active; 'I' for Inactive)
ROOT
ATOM      1  C1  BNZ d   1      -5.616   4.972   2.018  0.00  0.00     0.000 A 
ATOM      2  C2  BNZ d   1      -4.870   3.939   2.519  0.00  0.00     0.000 A 
ATOM      3  C3  BNZ d   1      -4.499   3.917   3.834  0.00  0.00     0.000 A 
ATOM      4  C4  BNZ d   1      -4.841   4.947   4.636  0.00  0.00     0.000 A 
ATOM      5  C5  BNZ d   1      -5.585   6.000   4.144  0.00  0.00     0.000 A 
ATOM      6  C6  BNZ d   1      -5.989   5.999   2.828  0.00  0.00     0.000 A 
ENDROOT
TORSDOF 0
ENDMDL
