MODEL 1
REMARK minimizedAffinity 0.860632956
REMARK minimizedRMSD -1
REMARK  0 active torsions:
REMARK  status: ('A' for Active; 'I' for Inactive)
ROOT
ATOM      1  C1  BNZ d   1       0.778   1.191   3.678  0.00  0.00     0.000 A 
ATOM      2  C2  BNZ d   1       1.402  -0.025   3.758  0.00  0.00     0.000 A 
ATOM      3  C3  BNZ d   1       2.507  -0.195   4.545  0.00  0.00     0.000 A 
ATOM      4  C4  BNZ d   1       3.009   0.860   5.218  0.00  0.00     0.000 A 
ATOM      5  C5  BNZ d   1       2.397   2.095   5.140  0.00  0.00     0.000 A 
ATOM      6  C6  BNZ d   1       1.263   2.253   4.378  0.00  0.00     0.000 A 
ENDROOT
TORSDOF 0
ENDMDL
