MODEL 1
REMARK minimizedAffinity -3.0516727
REMARK minimizedRMSD -1
REMARK  0 active torsions:
REMARK  status: ('A' for Active; 'I' for Inactive)
ROOT
ATOM      1  C1  BNZ d   1      -4.257   3.192   4.318  0.00  0.00     0.000 A 
ATOM      2  C2  BNZ d   1      -4.965   3.686   5.381  0.00  0.00     0.000 A 
ATOM      3  C3  BNZ d   1      -5.671   4.851   5.271  0.00  0.00     0.000 A 
ATOM      4  C4  BNZ d   1      -5.638   5.540   4.112  0.00  0.00     0.000 A 
ATOM      5  C5  BNZ d   1      -4.921   5.059   3.034  0.00  0.00     0.000 A 
ATOM      6  C6  BNZ d   1      -4.243   3.866   3.136  0.00  0.00     0.000 A 
ENDROOT
TORSDOF 0
ENDMDL
