MODEL 1
REMARK minimizedAffinity -3.3760047
REMARK minimizedRMSD -1
REMARK  0 active torsions:
REMARK  status: ('A' for Active; 'I' for Inactive)
ROOT
ATOM      1  C1  BNZ d   1      -4.711   0.926   5.718  0.00  0.00     0.000 A 
ATOM      2  C2  BNZ d   1      -3.422   0.506   5.909  0.00  0.00     0.000 A 
ATOM      3  C3  BNZ d   1      -3.081  -0.807   5.739  0.00  0.00     0.000 A 
ATOM      4  C4  BNZ d   1      -4.036  -1.704   5.419  0.00  0.00     0.000 A 
ATOM      5  C5  BNZ d   1      -5.342  -1.298   5.232  0.00  0.00     0.000 A 
ATOM      6  C6  BNZ d   1      -5.674   0.031   5.366  0.00  0.00     0.000 A 
ENDROOT
TORSDOF 0
ENDMDL
