MODEL 1
REMARK minimizedAffinity -2.52636576
REMARK minimizedRMSD -1
REMARK  0 active torsions:
REMARK  status: ('A' for Active; 'I' for Inactive)
ROOT
ATOM      1  C1  BNZ d   1      -6.000   5.995   3.169  0.00  0.00     0.000 A 
ATOM      2  C2  BNZ d   1      -5.972   6.000   4.538  0.00  0.00     0.000 A 
ATOM      3  C3  BNZ d   1      -4.847   5.621   5.217  0.00  0.00     0.000 A 
ATOM      4  C4  BNZ d   1      -3.767   5.199   4.527  0.00  0.00     0.000 A 
ATOM      5  C5  BNZ d   1      -3.783   5.180   3.147  0.00  0.00     0.000 A 
ATOM      6  C6  BNZ d   1      -4.904   5.599   2.467  0.00  0.00     0.000 A 
ENDROOT
TORSDOF 0
ENDMDL
