MODEL 1
REMARK minimizedAffinity -4.52415609
REMARK minimizedRMSD -1
REMARK  0 active torsions:
REMARK  status: ('A' for Active; 'I' for Inactive)
ROOT
ATOM      1  C   UNL d   1       1.675   0.089   1.130  0.00  0.00     0.020 A 
ATOM      2  C1  UNL d   1       1.039  -0.157   2.346  0.00  0.00     0.020 A 
ATOM      3  C2  UNL d   1      -0.335   0.063   2.473  0.00  0.00     0.034 A 
ATOM      4  C3  UNL d   1      -1.076   0.529   1.381  0.00  0.00     0.017 A 
ATOM      5  C4  UNL d   1      -0.437   0.775   0.161  0.00  0.00     0.017 A 
ATOM      6  C5  UNL d   1       0.938   0.554   0.040  0.00  0.00     0.034 A 
ATOM      7 Cl   UNL d   1      -1.285   1.351  -1.231  0.00  0.00    -0.070 Cl
ATOM      8 Cl1  UNL d   1      -2.771   0.778   1.609  0.00  0.00    -0.070 Cl
ENDROOT
TORSDOF 0
ENDMDL
