MODEL 1
REMARK minimizedAffinity -1.4810549
REMARK minimizedRMSD -1
REMARK  0 active torsions:
REMARK  status: ('A' for Active; 'I' for Inactive)
ROOT
ATOM      1  C   UNL d   1       0.356   0.110   2.745  0.00  0.00     0.020 A 
ATOM      2  C1  UNL d   1       1.258   0.134   1.682  0.00  0.00     0.020 A 
ATOM      3  C2  UNL d   1       0.805   0.395   0.388  0.00  0.00     0.034 A 
ATOM      4  C3  UNL d   1      -0.554   0.633   0.152  0.00  0.00     0.017 A 
ATOM      5  C4  UNL d   1      -1.459   0.609   1.220  0.00  0.00     0.017 A 
ATOM      6  C5  UNL d   1      -0.999   0.348   2.514  0.00  0.00     0.034 A 
ATOM      7 Cl   UNL d   1      -3.150   0.894   1.008  0.00  0.00    -0.070 Cl
ATOM      8 Cl1  UNL d   1      -1.045   0.949  -1.474  0.00  0.00    -0.070 Cl
ENDROOT
TORSDOF 0
ENDMDL
