MODEL 1
REMARK minimizedAffinity -2.85600543
REMARK minimizedRMSD -1
REMARK  0 active torsions:
REMARK  status: ('A' for Active; 'I' for Inactive)
ROOT
ATOM      1  C   UNL d   1      -0.004   0.217   3.142  0.00  0.00     0.020 A 
ATOM      2  C1  UNL d   1       1.124   0.001   2.352  0.00  0.00     0.020 A 
ATOM      3  C2  UNL d   1       1.007  -0.025   0.961  0.00  0.00     0.034 A 
ATOM      4  C3  UNL d   1      -0.240   0.165   0.355  0.00  0.00     0.017 A 
ATOM      5  C4  UNL d   1      -1.372   0.383   1.149  0.00  0.00     0.017 A 
ATOM      6  C5  UNL d   1      -1.249   0.408   2.542  0.00  0.00     0.034 A 
ATOM      7 Cl   UNL d   1      -2.944   0.626   0.475  0.00  0.00    -0.070 Cl
ATOM      8 Cl1  UNL d   1      -0.311   0.121  -1.371  0.00  0.00    -0.070 Cl
ENDROOT
TORSDOF 0
ENDMDL
