MODEL 1
REMARK minimizedAffinity 0.61914891
REMARK minimizedRMSD -1
REMARK  0 active torsions:
REMARK  status: ('A' for Active; 'I' for Inactive)
ROOT
ATOM      1  C   UNL d   1       0.030   0.000  -1.447  0.00  0.00     0.020 A 
ATOM      2  C1  UNL d   1       1.062   0.035  -0.510  0.00  0.00     0.020 A 
ATOM      3  C2  UNL d   1       0.775   0.265   0.837  0.00  0.00     0.034 A 
ATOM      4  C3  UNL d   1      -0.547   0.462   1.251  0.00  0.00     0.017 A 
ATOM      5  C4  UNL d   1      -1.583   0.427   0.310  0.00  0.00     0.017 A 
ATOM      6  C5  UNL d   1      -1.290   0.196  -1.037  0.00  0.00     0.034 A 
ATOM      7 Cl   UNL d   1      -3.239   0.660   0.746  0.00  0.00    -0.070 Cl
ATOM      8 Cl1  UNL d   1      -0.829   0.741   2.933  0.00  0.00    -0.070 Cl
ENDROOT
TORSDOF 0
ENDMDL
