MODEL 1
REMARK minimizedAffinity -0.0145686297
REMARK minimizedRMSD -1
REMARK  0 active torsions:
REMARK  status: ('A' for Active; 'I' for Inactive)
ROOT
ATOM      1  C   UNL d   1       1.600  -0.027   1.835  0.00  0.00     0.020 A 
ATOM      2  C1  UNL d   1       0.496   0.105   2.677  0.00  0.00     0.020 A 
ATOM      3  C2  UNL d   1      -0.780   0.266   2.134  0.00  0.00     0.034 A 
ATOM      4  C3  UNL d   1      -0.956   0.296   0.746  0.00  0.00     0.017 A 
ATOM      5  C4  UNL d   1       0.152   0.164  -0.098  0.00  0.00     0.017 A 
ATOM      6  C5  UNL d   1       1.428   0.003   0.451  0.00  0.00     0.034 A 
ATOM      7 Cl   UNL d   1       0.014   0.192  -1.821  0.00  0.00    -0.070 Cl
ATOM      8 Cl1  UNL d   1      -2.563   0.498   0.144  0.00  0.00    -0.070 Cl
ENDROOT
TORSDOF 0
ENDMDL
