MODEL 1
REMARK minimizedAffinity -1.72735274
REMARK minimizedRMSD -1
REMARK  0 active torsions:
REMARK  status: ('A' for Active; 'I' for Inactive)
ROOT
ATOM      1  C   UNL d   1      -0.379   0.071  -1.350  0.00  0.00     0.020 A 
ATOM      2  C1  UNL d   1       0.784  -0.245  -0.649  0.00  0.00     0.020 A 
ATOM      3  C2  UNL d   1       0.774  -0.258   0.748  0.00  0.00     0.034 A 
ATOM      4  C3  UNL d   1      -0.400   0.044   1.447  0.00  0.00     0.017 A 
ATOM      5  C4  UNL d   1      -1.567   0.360   0.741  0.00  0.00     0.017 A 
ATOM      6  C5  UNL d   1      -1.551   0.372  -0.657  0.00  0.00     0.034 A 
ATOM      7 Cl   UNL d   1      -3.054   0.744   1.534  0.00  0.00    -0.070 Cl
ATOM      8 Cl1  UNL d   1      -0.339   0.008   3.173  0.00  0.00    -0.070 Cl
ENDROOT
TORSDOF 0
ENDMDL
