MODEL 1
REMARK minimizedAffinity -0.680566907
REMARK minimizedRMSD -1
REMARK  0 active torsions:
REMARK  status: ('A' for Active; 'I' for Inactive)
ROOT
ATOM      1  C   UNL d   1       1.475  -1.242  -4.157  0.00  0.00     0.020 A 
ATOM      2  C1  UNL d   1       1.905  -2.245  -3.290  0.00  0.00     0.020 A 
ATOM      3  C2  UNL d   1       1.672  -2.128  -1.918  0.00  0.00     0.034 A 
ATOM      4  C3  UNL d   1       1.007  -1.007  -1.409  0.00  0.00     0.017 A 
ATOM      5  C4  UNL d   1       0.576  -0.000  -2.281  0.00  0.00     0.017 A 
ATOM      6  C5  UNL d   1       0.811  -0.122  -3.654  0.00  0.00     0.034 A 
ATOM      7 Cl   UNL d   1      -0.252   1.413  -1.728  0.00  0.00    -0.070 Cl
ATOM      8 Cl1  UNL d   1       0.753  -0.929   0.298  0.00  0.00    -0.070 Cl
ENDROOT
TORSDOF 0
ENDMDL
