MODEL 1
REMARK minimizedAffinity -0.150668785
REMARK minimizedRMSD -1
REMARK  0 active torsions:
REMARK  status: ('A' for Active; 'I' for Inactive)
ROOT
ATOM      1  C   UNL d   1       0.432  -1.699  -2.043  0.00  0.00     0.020 A 
ATOM      2  C1  UNL d   1       0.998  -0.639  -2.751  0.00  0.00     0.020 A 
ATOM      3  C2  UNL d   1       1.287   0.561  -2.097  0.00  0.00     0.034 A 
ATOM      4  C3  UNL d   1       1.010   0.704  -0.733  0.00  0.00     0.017 A 
ATOM      5  C4  UNL d   1       0.442  -0.361  -0.024  0.00  0.00     0.017 A 
ATOM      6  C5  UNL d   1       0.155  -1.560  -0.683  0.00  0.00     0.034 A 
ATOM      7 Cl   UNL d   1       0.071  -0.260   1.661  0.00  0.00    -0.070 Cl
ATOM      8 Cl1  UNL d   1       1.393   2.215   0.011  0.00  0.00    -0.070 Cl
ENDROOT
TORSDOF 0
ENDMDL
