MODEL 1
REMARK minimizedAffinity -1.10196257
REMARK minimizedRMSD -1
REMARK  0 active torsions:
REMARK  status: ('A' for Active; 'I' for Inactive)
ROOT
ATOM      1  C   UNL d   1      -0.090   0.216  -3.283  0.00  0.00     0.020 A 
ATOM      2  C1  UNL d   1       1.247  -0.022  -2.965  0.00  0.00     0.020 A 
ATOM      3  C2  UNL d   1       1.639  -0.122  -1.628  0.00  0.00     0.034 A 
ATOM      4  C3  UNL d   1       0.693   0.015  -0.605  0.00  0.00     0.017 A 
ATOM      5  C4  UNL d   1      -0.648   0.253  -0.926  0.00  0.00     0.017 A 
ATOM      6  C5  UNL d   1      -1.035   0.352  -2.266  0.00  0.00     0.034 A 
ATOM      7 Cl   UNL d   1      -1.872   0.433   0.281  0.00  0.00    -0.070 Cl
ATOM      8 Cl1  UNL d   1       1.248  -0.122   1.026  0.00  0.00    -0.070 Cl
ENDROOT
TORSDOF 0
ENDMDL
