MODEL 1
REMARK minimizedAffinity -1.81727338
REMARK minimizedRMSD -1
REMARK  0 active torsions:
REMARK  status: ('A' for Active; 'I' for Inactive)
ROOT
ATOM      1  C   UNL d   1       1.679  -0.116   1.925  0.00  0.00     0.020 A 
ATOM      2  C1  UNL d   1       0.802  -0.008   3.004  0.00  0.00     0.020 A 
ATOM      3  C2  UNL d   1      -0.554   0.237   2.779  0.00  0.00     0.034 A 
ATOM      4  C3  UNL d   1      -1.038   0.374   1.473  0.00  0.00     0.017 A 
ATOM      5  C4  UNL d   1      -0.157   0.265   0.391  0.00  0.00     0.017 A 
ATOM      6  C5  UNL d   1       1.201   0.020   0.622  0.00  0.00     0.034 A 
ATOM      7 Cl   UNL d   1      -0.679   0.422  -1.249  0.00  0.00    -0.070 Cl
ATOM      8 Cl1  UNL d   1      -2.727   0.675   1.268  0.00  0.00    -0.070 Cl
ENDROOT
TORSDOF 0
ENDMDL
