MODEL 1
REMARK minimizedAffinity -3.46466231
REMARK minimizedRMSD -1
REMARK  0 active torsions:
REMARK  status: ('A' for Active; 'I' for Inactive)
ROOT
ATOM      1  C   UNL d   1       1.099  -0.047   0.776  0.00  0.00     0.020 A 
ATOM      2  C1  UNL d   1       0.912   0.040   2.155  0.00  0.00     0.020 A 
ATOM      3  C2  UNL d   1      -0.331   0.414   2.669  0.00  0.00     0.034 A 
ATOM      4  C3  UNL d   1      -1.393   0.701   1.804  0.00  0.00     0.017 A 
ATOM      5  C4  UNL d   1      -1.205   0.613   0.419  0.00  0.00     0.017 A 
ATOM      6  C5  UNL d   1       0.042   0.239  -0.090  0.00  0.00     0.034 A 
ATOM      7 Cl   UNL d   1      -2.467   0.953  -0.711  0.00  0.00    -0.070 Cl
ATOM      8 Cl1  UNL d   1      -2.903   1.157   2.509  0.00  0.00    -0.070 Cl
ENDROOT
TORSDOF 0
ENDMDL
