MODEL 1
REMARK minimizedAffinity -1.89877605
REMARK minimizedRMSD -1
REMARK  0 active torsions:
REMARK  status: ('A' for Active; 'I' for Inactive)
ROOT
ATOM      1  C   UNL d   1       0.419   0.251  -1.021  0.00  0.00     0.020 A 
ATOM      2  C1  UNL d   1      -0.883   0.473  -1.467  0.00  0.00     0.020 A 
ATOM      3  C2  UNL d   1      -1.904   0.723  -0.548  0.00  0.00     0.034 A 
ATOM      4  C3  UNL d   1      -1.624   0.750   0.824  0.00  0.00     0.017 A 
ATOM      5  C4  UNL d   1      -0.317   0.527   1.271  0.00  0.00     0.017 A 
ATOM      6  C5  UNL d   1       0.701   0.278   0.346  0.00  0.00     0.034 A 
ATOM      7 Cl   UNL d   1       0.105   0.546   2.947  0.00  0.00    -0.070 Cl
ATOM      8 Cl1  UNL d   1      -2.935   1.065   1.905  0.00  0.00    -0.070 Cl
ENDROOT
TORSDOF 0
ENDMDL
