MODEL 1
REMARK minimizedAffinity -4.43955135
REMARK minimizedRMSD -1
REMARK  0 active torsions:
REMARK  status: ('A' for Active; 'I' for Inactive)
ROOT
ATOM      1  C   UNL d   1       1.584  -0.446   0.532  0.00  0.00     0.020 A 
ATOM      2  C1  UNL d   1       2.294  -1.338  -0.270  0.00  0.00     0.020 A 
ATOM      3  C2  UNL d   1       1.954  -1.490  -1.615  0.00  0.00     0.034 A 
ATOM      4  C3  UNL d   1       0.900  -0.750  -2.163  0.00  0.00     0.017 A 
ATOM      5  C4  UNL d   1       0.187   0.145  -1.357  0.00  0.00     0.017 A 
ATOM      6  C5  UNL d   1       0.533   0.294  -0.010  0.00  0.00     0.034 A 
ATOM      7 Cl   UNL d   1      -1.125   1.094  -1.962  0.00  0.00    -0.070 Cl
ATOM      8 Cl1  UNL d   1       0.534  -0.989  -3.835  0.00  0.00    -0.070 Cl
ENDROOT
TORSDOF 0
ENDMDL
