MODEL 1
REMARK minimizedAffinity -0.941842794
REMARK minimizedRMSD -1
REMARK  0 active torsions:
REMARK  status: ('A' for Active; 'I' for Inactive)
ROOT
ATOM      1  C   UNL d   1       0.488   0.026  -1.230  0.00  0.00     0.020 A 
ATOM      2  C1  UNL d   1       1.472  -0.016  -0.244  0.00  0.00     0.020 A 
ATOM      3  C2  UNL d   1       1.130   0.197   1.093  0.00  0.00     0.034 A 
ATOM      4  C3  UNL d   1      -0.199   0.454   1.447  0.00  0.00     0.017 A 
ATOM      5  C4  UNL d   1      -1.186   0.497   0.456  0.00  0.00     0.017 A 
ATOM      6  C5  UNL d   1      -0.838   0.283  -0.881  0.00  0.00     0.034 A 
ATOM      7 Cl   UNL d   1      -2.848   0.809   0.816  0.00  0.00    -0.070 Cl
ATOM      8 Cl1  UNL d   1      -0.550   0.709   3.120  0.00  0.00    -0.070 Cl
ENDROOT
TORSDOF 0
ENDMDL
