MODEL 1
REMARK minimizedAffinity -2.67543817
REMARK minimizedRMSD -1
REMARK  0 active torsions:
REMARK  status: ('A' for Active; 'I' for Inactive)
ROOT
ATOM      1  C   UNL d   1       1.749  -2.208  -3.578  0.00  0.00     0.020 A 
ATOM      2  C1  UNL d   1       1.178  -1.137  -4.265  0.00  0.00     0.020 A 
ATOM      3  C2  UNL d   1       0.541  -0.114  -3.558  0.00  0.00     0.034 A 
ATOM      4  C3  UNL d   1       0.473  -0.161  -2.161  0.00  0.00     0.017 A 
ATOM      5  C4  UNL d   1       1.047  -1.236  -1.473  0.00  0.00     0.017 A 
ATOM      6  C5  UNL d   1       1.684  -2.257  -2.185  0.00  0.00     0.034 A 
ATOM      7 Cl   UNL d   1       1.003  -1.363   0.250  0.00  0.00    -0.070 Cl
ATOM      8 Cl1  UNL d   1      -0.329   1.138  -1.352  0.00  0.00    -0.070 Cl
ENDROOT
TORSDOF 0
ENDMDL
