MODEL 1
REMARK minimizedAffinity -4.4655962
REMARK minimizedRMSD -1
REMARK  0 active torsions:
REMARK  status: ('A' for Active; 'I' for Inactive)
ROOT
ATOM      1  C   UNL d   1       1.759   0.072   1.271  0.00  0.00     0.020 A 
ATOM      2  C1  UNL d   1       1.128  -0.128   2.498  0.00  0.00     0.020 A 
ATOM      3  C2  UNL d   1      -0.247   0.084   2.619  0.00  0.00     0.034 A 
ATOM      4  C3  UNL d   1      -0.996   0.497   1.511  0.00  0.00     0.017 A 
ATOM      5  C4  UNL d   1      -0.362   0.697   0.280  0.00  0.00     0.017 A 
ATOM      6  C5  UNL d   1       1.015   0.483   0.164  0.00  0.00     0.034 A 
ATOM      7 Cl   UNL d   1      -1.219   1.206  -1.132  0.00  0.00    -0.070 Cl
ATOM      8 Cl1  UNL d   1      -2.692   0.739   1.733  0.00  0.00    -0.070 Cl
ENDROOT
TORSDOF 0
ENDMDL
