MODEL 1
REMARK minimizedAffinity -2.36091018
REMARK minimizedRMSD -1
REMARK  0 active torsions:
REMARK  status: ('A' for Active; 'I' for Inactive)
ROOT
ATOM      1  C   UNL d   1       0.739  -0.261   1.208  0.00  0.00     0.020 A 
ATOM      2  C1  UNL d   1       1.536  -1.271   0.670  0.00  0.00     0.020 A 
ATOM      3  C2  UNL d   1       1.486  -1.546  -0.698  0.00  0.00     0.034 A 
ATOM      4  C3  UNL d   1       0.637  -0.811  -1.533  0.00  0.00     0.017 A 
ATOM      5  C4  UNL d   1      -0.162   0.203  -0.993  0.00  0.00     0.017 A 
ATOM      6  C5  UNL d   1      -0.108   0.475   0.378  0.00  0.00     0.034 A 
ATOM      7 Cl   UNL d   1      -1.233   1.154  -1.960  0.00  0.00    -0.070 Cl
ATOM      8 Cl1  UNL d   1       0.627  -1.205  -3.216  0.00  0.00    -0.070 Cl
ENDROOT
TORSDOF 0
ENDMDL
