MODEL 1
REMARK minimizedAffinity -1.70406294
REMARK minimizedRMSD -1
REMARK  0 active torsions:
REMARK  status: ('A' for Active; 'I' for Inactive)
ROOT
ATOM      1  C   UNL d   1      -2.646   0.488   1.027  0.00  0.00     0.020 A 
ATOM      2  C1  UNL d   1      -2.108   0.623   2.306  0.00  0.00     0.020 A 
ATOM      3  C2  UNL d   1      -0.727   0.531   2.496  0.00  0.00     0.034 A 
ATOM      4  C3  UNL d   1       0.120   0.304   1.405  0.00  0.00     0.017 A 
ATOM      5  C4  UNL d   1      -0.422   0.170   0.121  0.00  0.00     0.017 A 
ATOM      6  C5  UNL d   1      -1.805   0.262  -0.063  0.00  0.00     0.034 A 
ATOM      7 Cl   UNL d   1       0.559  -0.112  -1.274  0.00  0.00    -0.070 Cl
ATOM      8 Cl1  UNL d   1       1.817   0.203   1.713  0.00  0.00    -0.070 Cl
ENDROOT
TORSDOF 0
ENDMDL
