MODEL 1
REMARK minimizedAffinity -1.35908592
REMARK minimizedRMSD -1
REMARK  0 active torsions:
REMARK  status: ('A' for Active; 'I' for Inactive)
ROOT
ATOM      1  C   UNL d   1       1.161  -0.819   1.107  0.00  0.00     0.020 A 
ATOM      2  C1  UNL d   1       0.764   0.494   0.857  0.00  0.00     0.020 A 
ATOM      3  C2  UNL d   1       0.580   0.931  -0.457  0.00  0.00     0.034 A 
ATOM      4  C3  UNL d   1       0.794   0.053  -1.526  0.00  0.00     0.017 A 
ATOM      5  C4  UNL d   1       1.193  -1.265  -1.275  0.00  0.00     0.017 A 
ATOM      6  C5  UNL d   1       1.375  -1.696   0.043  0.00  0.00     0.034 A 
ATOM      7 Cl   UNL d   1       1.475  -2.405  -2.542  0.00  0.00    -0.070 Cl
ATOM      8 Cl1  UNL d   1       0.548   0.660  -3.125  0.00  0.00    -0.070 Cl
ENDROOT
TORSDOF 0
ENDMDL
