MODEL 1
REMARK minimizedAffinity -4.24126768
REMARK minimizedRMSD -1
REMARK  0 active torsions:
REMARK  status: ('A' for Active; 'I' for Inactive)
ROOT
ATOM      1  C   UNL d   1       0.971  -0.317   1.200  0.00  0.00     0.020 A 
ATOM      2  C1  UNL d   1       1.525  -1.476   0.657  0.00  0.00     0.020 A 
ATOM      3  C2  UNL d   1       1.316  -1.786  -0.688  0.00  0.00     0.034 A 
ATOM      4  C3  UNL d   1       0.552  -0.935  -1.496  0.00  0.00     0.017 A 
ATOM      5  C4  UNL d   1      -0.003   0.228  -0.951  0.00  0.00     0.017 A 
ATOM      6  C5  UNL d   1       0.209   0.533   0.397  0.00  0.00     0.034 A 
ATOM      7 Cl   UNL d   1      -0.957   1.326  -1.885  0.00  0.00    -0.070 Cl
ATOM      8 Cl1  UNL d   1       0.336  -1.380  -3.152  0.00  0.00    -0.070 Cl
ENDROOT
TORSDOF 0
ENDMDL
