MODEL 1
REMARK minimizedAffinity 5.00878859
REMARK minimizedRMSD -1
REMARK  0 active torsions:
REMARK  status: ('A' for Active; 'I' for Inactive)
ROOT
ATOM      1  C   UNL d   1       0.307   0.213   1.606  0.00  0.00    -0.002 A 
ATOM      2  C1  UNL d   1       1.490  -0.512   1.614  0.00  0.00     0.010 A 
ATOM      3  C2  UNL d   1       1.500  -1.860   1.251  0.00  0.00     0.041 A 
ATOM      4  C3  UNL d   1       0.289  -2.473   0.875  0.00  0.00    -0.075 A 
ATOM      5  S   UNL d   1       0.060  -4.112   0.391  0.00  0.00     0.015 SA
ATOM      6  C4  UNL d   1      -1.614  -3.889   0.161  0.00  0.00     0.022 A 
ATOM      7  C5  UNL d   1      -2.006  -2.602   0.443  0.00  0.00     0.026 A 
ATOM      8  C6  UNL d   1      -0.916  -1.764   0.858  0.00  0.00    -0.082 A 
ATOM      9  C7  UNL d   1      -0.893  -0.399   1.232  0.00  0.00     0.045 A 
ENDROOT
TORSDOF 0
ENDMDL
