MODEL 1
REMARK minimizedAffinity 11.4747009
REMARK minimizedRMSD -1
REMARK  0 active torsions:
REMARK  status: ('A' for Active; 'I' for Inactive)
ROOT
ATOM      1  C   UNL d   1       1.273  -3.341   5.701  0.00  0.00    -0.002 A 
ATOM      2  C1  UNL d   1       2.091  -4.225   5.012  0.00  0.00     0.010 A 
ATOM      3  C2  UNL d   1       2.519  -3.933   3.715  0.00  0.00     0.041 A 
ATOM      4  C3  UNL d   1       2.107  -2.726   3.118  0.00  0.00    -0.075 A 
ATOM      5  S   UNL d   1       2.508  -2.158   1.540  0.00  0.00     0.015 SA
ATOM      6  C4  UNL d   1       1.603  -0.728   1.744  0.00  0.00     0.022 A 
ATOM      7  C5  UNL d   1       1.003  -0.669   2.979  0.00  0.00     0.026 A 
ATOM      8  C6  UNL d   1       1.284  -1.819   3.792  0.00  0.00    -0.082 A 
ATOM      9  C7  UNL d   1       0.867  -2.144   5.105  0.00  0.00     0.045 A 
ENDROOT
TORSDOF 0
ENDMDL
