MODEL 1
REMARK minimizedAffinity 7.99783611
REMARK minimizedRMSD -1
REMARK  0 active torsions:
REMARK  status: ('A' for Active; 'I' for Inactive)
ROOT
ATOM      1  C   UNL d   1      -2.965  -3.758  -0.415  0.00  0.00    -0.002 A 
ATOM      2  C1  UNL d   1      -2.667  -5.006   0.113  0.00  0.00     0.010 A 
ATOM      3  C2  UNL d   1      -1.512  -5.686  -0.280  0.00  0.00     0.041 A 
ATOM      4  C3  UNL d   1      -0.653  -5.083  -1.220  0.00  0.00    -0.075 A 
ATOM      5  S   UNL d   1       0.817  -5.729  -1.847  0.00  0.00     0.015 SA
ATOM      6  C4  UNL d   1       1.085  -4.362  -2.830  0.00  0.00     0.022 A 
ATOM      7  C5  UNL d   1       0.086  -3.427  -2.696  0.00  0.00     0.026 A 
ATOM      8  C6  UNL d   1      -0.931  -3.827  -1.765  0.00  0.00    -0.082 A 
ATOM      9  C7  UNL d   1      -2.110  -3.163  -1.347  0.00  0.00     0.045 A 
ENDROOT
TORSDOF 0
ENDMDL
