MODEL 1
REMARK minimizedAffinity 5.90269804
REMARK minimizedRMSD -1
REMARK  0 active torsions:
REMARK  status: ('A' for Active; 'I' for Inactive)
ROOT
ATOM      1  C   UNL d   1      -2.954  -0.700  -0.221  0.00  0.00    -0.002 A 
ATOM      2  C1  UNL d   1      -2.554  -1.936  -0.710  0.00  0.00     0.010 A 
ATOM      3  C2  UNL d   1      -1.338  -2.496  -0.315  0.00  0.00     0.041 A 
ATOM      4  C3  UNL d   1      -0.524  -1.788   0.591  0.00  0.00    -0.075 A 
ATOM      5  S   UNL d   1       1.006  -2.279   1.216  0.00  0.00     0.015 SA
ATOM      6  C4  UNL d   1       1.164  -0.861   2.148  0.00  0.00     0.022 A 
ATOM      7  C5  UNL d   1       0.086  -0.022   1.997  0.00  0.00     0.026 A 
ATOM      8  C6  UNL d   1      -0.905  -0.543   1.098  0.00  0.00    -0.082 A 
ATOM      9  C7  UNL d   1      -2.144  -0.001   0.677  0.00  0.00     0.045 A 
ENDROOT
TORSDOF 0
ENDMDL
