MODEL 1
REMARK minimizedAffinity -3.19796538
REMARK minimizedRMSD -1
REMARK  0 active torsions:
REMARK  status: ('A' for Active; 'I' for Inactive)
ROOT
ATOM      1  C1  BNZ d   1       0.653  -0.289   0.697  0.00  0.00     0.000 A 
ATOM      2  C2  BNZ d   1       0.625  -1.502   1.331  0.00  0.00     0.000 A 
ATOM      3  C3  BNZ d   1       1.739  -1.992   1.953  0.00  0.00     0.000 A 
ATOM      4  C4  BNZ d   1       2.888  -1.288   1.906  0.00  0.00     0.000 A 
ATOM      5  C5  BNZ d   1       2.935  -0.067   1.263  0.00  0.00     0.000 A 
ATOM      6  C6  BNZ d   1       1.801   0.441   0.671  0.00  0.00     0.000 A 
ENDROOT
TORSDOF 0
ENDMDL
