MODEL 1
REMARK minimizedAffinity 2.57434416
REMARK minimizedRMSD -1
REMARK  0 active torsions:
REMARK  status: ('A' for Active; 'I' for Inactive)
ROOT
ATOM      1  C1  BNZ d   1      -3.381  -0.865  -3.385  0.00  0.00     0.000 A 
ATOM      2  C2  BNZ d   1      -2.711  -2.021  -3.084  0.00  0.00     0.000 A 
ATOM      3  C3  BNZ d   1      -1.896  -2.092  -1.989  0.00  0.00     0.000 A 
ATOM      4  C4  BNZ d   1      -1.721  -0.998  -1.220  0.00  0.00     0.000 A 
ATOM      5  C5  BNZ d   1      -2.382   0.177  -1.516  0.00  0.00     0.000 A 
ATOM      6  C6  BNZ d   1      -3.232   0.234  -2.597  0.00  0.00     0.000 A 
ENDROOT
TORSDOF 0
ENDMDL
