MODEL 1
REMARK minimizedAffinity -0.810245752
REMARK minimizedRMSD -1
REMARK  0 active torsions:
REMARK  status: ('A' for Active; 'I' for Inactive)
ROOT
ATOM      1  C1  BNZ d   1       0.340  -0.595   1.146  0.00  0.00     0.000 A 
ATOM      2  C2  BNZ d   1       0.398   0.502   0.329  0.00  0.00     0.000 A 
ATOM      3  C3  BNZ d   1       1.451   1.371   0.397  0.00  0.00     0.000 A 
ATOM      4  C4  BNZ d   1       2.423   1.164   1.309  0.00  0.00     0.000 A 
ATOM      5  C5  BNZ d   1       2.374   0.068   2.147  0.00  0.00     0.000 A 
ATOM      6  C6  BNZ d   1       1.332  -0.826   2.048  0.00  0.00     0.000 A 
ENDROOT
TORSDOF 0
ENDMDL
