MODEL 1
REMARK minimizedAffinity 7.29100561
REMARK minimizedRMSD -1
REMARK  0 active torsions:
REMARK  status: ('A' for Active; 'I' for Inactive)
ROOT
ATOM      1  C1  BNZ d   1      -5.276   1.880  -3.019  0.00  0.00     0.000 A 
ATOM      2  C2  BNZ d   1      -6.000   1.869  -1.856  0.00  0.00     0.000 A 
ATOM      3  C3  BNZ d   1      -5.509   2.452  -0.721  0.00  0.00     0.000 A 
ATOM      4  C4  BNZ d   1      -4.281   3.009  -0.739  0.00  0.00     0.000 A 
ATOM      5  C5  BNZ d   1      -3.536   3.019  -1.901  0.00  0.00     0.000 A 
ATOM      6  C6  BNZ d   1      -4.049   2.466  -3.052  0.00  0.00     0.000 A 
ENDROOT
TORSDOF 0
ENDMDL
