MODEL 1
REMARK minimizedAffinity 2.64040947
REMARK minimizedRMSD -1
REMARK  0 active torsions:
REMARK  status: ('A' for Active; 'I' for Inactive)
ROOT
ATOM      1  C1  BNZ d   1       0.795   0.558   0.614  0.00  0.00     0.000 A 
ATOM      2  C2  BNZ d   1       1.495   1.681   0.263  0.00  0.00     0.000 A 
ATOM      3  C3  BNZ d   1       2.666   2.000   0.891  0.00  0.00     0.000 A 
ATOM      4  C4  BNZ d   1       3.114   1.219   1.896  0.00  0.00     0.000 A 
ATOM      5  C5  BNZ d   1       2.414   0.088   2.267  0.00  0.00     0.000 A 
ATOM      6  C6  BNZ d   1       1.256  -0.251   1.606  0.00  0.00     0.000 A 
ENDROOT
TORSDOF 0
ENDMDL
