MODEL 1
REMARK minimizedAffinity -1.92753053
REMARK minimizedRMSD -1
REMARK  0 active torsions:
REMARK  status: ('A' for Active; 'I' for Inactive)
ROOT
ATOM      1  C1  BNZ d   1       0.158   2.266   0.743  0.00  0.00     0.000 A 
ATOM      2  C2  BNZ d   1       0.264   3.422   0.017  0.00  0.00     0.000 A 
ATOM      3  C3  BNZ d   1       1.427   3.738  -0.629  0.00  0.00     0.000 A 
ATOM      4  C4  BNZ d   1       2.492   2.919  -0.516  0.00  0.00     0.000 A 
ATOM      5  C5  BNZ d   1       2.403   1.755   0.220  0.00  0.00     0.000 A 
ATOM      6  C6  BNZ d   1       1.220   1.420   0.837  0.00  0.00     0.000 A 
ENDROOT
TORSDOF 0
ENDMDL
