MODEL 1
REMARK minimizedAffinity -0.936420262
REMARK minimizedRMSD -1
REMARK  0 active torsions:
REMARK  status: ('A' for Active; 'I' for Inactive)
ROOT
ATOM      1  C1  BNZ d   1       5.081   5.896  -4.505  0.00  0.00     0.000 A 
ATOM      2  C2  BNZ d   1       5.999   5.983  -3.494  0.00  0.00     0.000 A 
ATOM      3  C3  BNZ d   1       5.601   5.999  -2.186  0.00  0.00     0.000 A 
ATOM      4  C4  BNZ d   1       4.285   5.969  -1.894  0.00  0.00     0.000 A 
ATOM      5  C5  BNZ d   1       3.346   5.891  -2.903  0.00  0.00     0.000 A 
ATOM      6  C6  BNZ d   1       3.752   5.835  -4.216  0.00  0.00     0.000 A 
ENDROOT
TORSDOF 0
ENDMDL
