MODEL 1
REMARK minimizedAffinity 1.88378572
REMARK minimizedRMSD -1
REMARK  0 active torsions:
REMARK  status: ('A' for Active; 'I' for Inactive)
ROOT
ATOM      1  C1  BNZ d   1       2.866   1.996   0.022  0.00  0.00     0.000 A 
ATOM      2  C2  BNZ d   1       3.404   0.944   0.714  0.00  0.00     0.000 A 
ATOM      3  C3  BNZ d   1       2.652   0.237   1.610  0.00  0.00     0.000 A 
ATOM      4  C4  BNZ d   1       1.376   0.608   1.843  0.00  0.00     0.000 A 
ATOM      5  C5  BNZ d   1       0.822   1.673   1.160  0.00  0.00     0.000 A 
ATOM      6  C6  BNZ d   1       1.571   2.357   0.231  0.00  0.00     0.000 A 
ENDROOT
TORSDOF 0
ENDMDL
