MODEL 1
REMARK minimizedAffinity -0.884604394
REMARK minimizedRMSD -1
REMARK  0 active torsions:
REMARK  status: ('A' for Active; 'I' for Inactive)
ROOT
ATOM      1  C1  BNZ d   1       2.827   1.929   0.379  0.00  0.00     0.000 A 
ATOM      2  C2  BNZ d   1       2.944   1.171   1.513  0.00  0.00     0.000 A 
ATOM      3  C3  BNZ d   1       1.879   0.460   1.993  0.00  0.00     0.000 A 
ATOM      4  C4  BNZ d   1       0.690   0.539   1.361  0.00  0.00     0.000 A 
ATOM      5  C5  BNZ d   1       0.554   1.307   0.221  0.00  0.00     0.000 A 
ATOM      6  C6  BNZ d   1       1.638   1.990  -0.280  0.00  0.00     0.000 A 
ENDROOT
TORSDOF 0
ENDMDL
