MODEL 1
REMARK minimizedAffinity 4.9980135
REMARK minimizedRMSD -1
REMARK  0 active torsions:
REMARK  status: ('A' for Active; 'I' for Inactive)
ROOT
ATOM      1  C1  BNZ d   1      -1.233  -0.172   0.792  0.00  0.00     0.000 A 
ATOM      2  C2  BNZ d   1      -0.720   1.097   0.758  0.00  0.00     0.000 A 
ATOM      3  C3  BNZ d   1       0.622   1.314   0.899  0.00  0.00     0.000 A 
ATOM      4  C4  BNZ d   1       1.444   0.267   1.114  0.00  0.00     0.000 A 
ATOM      5  C5  BNZ d   1       0.941  -1.018   1.160  0.00  0.00     0.000 A 
ATOM      6  C6  BNZ d   1      -0.405  -1.236   0.979  0.00  0.00     0.000 A 
ENDROOT
TORSDOF 0
ENDMDL
