MODEL 1
REMARK minimizedAffinity 0.650126338
REMARK minimizedRMSD -1
REMARK  0 active torsions:
REMARK  status: ('A' for Active; 'I' for Inactive)
ROOT
ATOM      1  C1  BNZ d   1       0.668  -3.230   3.513  0.00  0.00     0.000 A 
ATOM      2  C2  BNZ d   1       1.479  -4.277   3.861  0.00  0.00     0.000 A 
ATOM      3  C3  BNZ d   1       2.801  -4.075   4.143  0.00  0.00     0.000 A 
ATOM      4  C4  BNZ d   1       3.319  -2.834   4.038  0.00  0.00     0.000 A 
ATOM      5  C5  BNZ d   1       2.516  -1.769   3.679  0.00  0.00     0.000 A 
ATOM      6  C6  BNZ d   1       1.177  -1.970   3.434  0.00  0.00     0.000 A 
ENDROOT
TORSDOF 0
ENDMDL
