MODEL 1
REMARK minimizedAffinity 3.43654633
REMARK minimizedRMSD -1
REMARK  3 active torsions:
REMARK  status: ('A' for Active; 'I' for Inactive)
REMARK    1  A    between atoms: C3'_2  and  C2'_3 
REMARK    2  A    between atoms: C2'_3  and  C1'_4 
REMARK    3  A    between atoms: C1'_4  and  C1_5 
ROOT
ATOM      1  C1  N4B d   1       0.863  -1.936   1.080  0.00  0.00    -0.075 A 
ATOM      2  C2  N4B d   1       0.837  -0.600   1.535  0.00  0.00     0.002 A 
ATOM      3  C3  N4B d   1      -0.244  -0.136   2.244  0.00  0.00     0.002 A 
ATOM      4  C4  N4B d   1      -1.315  -0.982   2.491  0.00  0.00    -0.004 A 
ATOM      5  C5  N4B d   1      -1.272  -2.279   2.070  0.00  0.00     0.002 A 
ATOM      6  C6  N4B d   1      -0.189  -2.759   1.361  0.00  0.00     0.002 A 
ENDROOT
BRANCH   1   7
ATOM      7  C1' N4B d   1       1.985  -2.464   0.228  0.00  0.00     0.057 C 
BRANCH   7   8
ATOM      8  C2' N4B d   1       2.265  -3.914   0.611  0.00  0.00     0.009 C 
BRANCH   8   9
ATOM      9  C3' N4B d   1       3.748  -4.239   0.560  0.00  0.00     0.004 C 
ATOM     10  C4' N4B d   1       4.062  -5.380  -0.360  0.00  0.00     0.003 C 
ENDBRANCH   8   9
ENDBRANCH   7   8
ENDBRANCH   1   7
TORSDOF 3
ENDMDL
