MODEL 1
REMARK minimizedAffinity 2.02409244
REMARK minimizedRMSD -1
REMARK  3 active torsions:
REMARK  status: ('A' for Active; 'I' for Inactive)
REMARK    1  A    between atoms: C3'_2  and  C2'_3 
REMARK    2  A    between atoms: C2'_3  and  C1'_4 
REMARK    3  A    between atoms: C1'_4  and  C1_5 
ROOT
ATOM      1  C1  N4B d   1       1.104  -0.604   1.696  0.00  0.00    -0.075 A 
ATOM      2  C2  N4B d   1       2.331   0.096   1.693  0.00  0.00     0.002 A 
ATOM      3  C3  N4B d   1       2.778   0.692   0.540  0.00  0.00     0.002 A 
ATOM      4  C4  N4B d   1       2.028   0.587  -0.622  0.00  0.00    -0.004 A 
ATOM      5  C5  N4B d   1       0.832  -0.069  -0.604  0.00  0.00     0.002 A 
ATOM      6  C6  N4B d   1       0.368  -0.669   0.549  0.00  0.00     0.002 A 
ENDROOT
BRANCH   1   7
ATOM      7  C1' N4B d   1       0.615  -1.345   2.911  0.00  0.00     0.057 C 
BRANCH   7   8
ATOM      8  C2' N4B d   1       0.945  -2.827   2.760  0.00  0.00     0.009 C 
BRANCH   8   9
ATOM      9  C3' N4B d   1      -0.306  -3.689   2.747  0.00  0.00     0.004 C 
ATOM     10  C4' N4B d   1      -1.500  -2.988   3.323  0.00  0.00     0.003 C 
ENDBRANCH   8   9
ENDBRANCH   7   8
ENDBRANCH   1   7
TORSDOF 3
ENDMDL
