MODEL 1
REMARK minimizedAffinity 9.75827503
REMARK minimizedRMSD -1
REMARK  3 active torsions:
REMARK  status: ('A' for Active; 'I' for Inactive)
REMARK    1  A    between atoms: C3'_2  and  C2'_3 
REMARK    2  A    between atoms: C2'_3  and  C1'_4 
REMARK    3  A    between atoms: C1'_4  and  C1_5 
ROOT
ATOM      1  C1  N4B d   1       4.648  -0.292  -0.036  0.00  0.00    -0.075 A 
ATOM      2  C2  N4B d   1       3.519  -1.141  -0.011  0.00  0.00     0.002 A 
ATOM      3  C3  N4B d   1       2.287  -0.655  -0.375  0.00  0.00     0.002 A 
ATOM      4  C4  N4B d   1       2.157   0.674  -0.748  0.00  0.00    -0.004 A 
ATOM      5  C5  N4B d   1       3.257   1.480  -0.794  0.00  0.00     0.002 A 
ATOM      6  C6  N4B d   1       4.502   1.005  -0.435  0.00  0.00     0.002 A 
ENDROOT
BRANCH   1   7
ATOM      7  C1' N4B d   1       5.999  -0.755   0.436  0.00  0.00     0.057 C 
BRANCH   7   8
ATOM      8  C2' N4B d   1       5.939  -2.248   0.743  0.00  0.00     0.009 C 
BRANCH   8   9
ATOM      9  C3' N4B d   1       5.830  -3.084  -0.521  0.00  0.00     0.004 C 
ATOM     10  C4' N4B d   1       4.739  -4.110  -0.447  0.00  0.00     0.003 C 
ENDBRANCH   8   9
ENDBRANCH   7   8
ENDBRANCH   1   7
TORSDOF 3
ENDMDL
