MODEL 1
REMARK minimizedAffinity 3.06932926
REMARK minimizedRMSD -1
REMARK  3 active torsions:
REMARK  status: ('A' for Active; 'I' for Inactive)
REMARK    1  A    between atoms: C3'_2  and  C2'_3 
REMARK    2  A    between atoms: C2'_3  and  C1'_4 
REMARK    3  A    between atoms: C1'_4  and  C1_5 
ROOT
ATOM      1  C1  N4B d   1       1.140  -1.475   1.143  0.00  0.00    -0.075 A 
ATOM      2  C2  N4B d   1       0.212  -0.988   2.090  0.00  0.00     0.002 A 
ATOM      3  C3  N4B d   1      -0.289  -1.828   3.054  0.00  0.00     0.002 A 
ATOM      4  C4  N4B d   1       0.107  -3.157   3.080  0.00  0.00    -0.004 A 
ATOM      5  C5  N4B d   1       1.023  -3.612   2.178  0.00  0.00     0.002 A 
ATOM      6  C6  N4B d   1       1.538  -2.779   1.205  0.00  0.00     0.002 A 
ENDROOT
BRANCH   1   7
ATOM      7  C1' N4B d   1       1.650  -0.617   0.018  0.00  0.00     0.057 C 
BRANCH   7   8
ATOM      8  C2' N4B d   1       3.153  -0.832  -0.134  0.00  0.00     0.009 C 
BRANCH   8   9
ATOM      9  C3' N4B d   1       3.897   0.477  -0.340  0.00  0.00     0.004 C 
ATOM     10  C4' N4B d   1       3.365   1.271  -1.495  0.00  0.00     0.003 C 
ENDBRANCH   8   9
ENDBRANCH   7   8
ENDBRANCH   1   7
TORSDOF 3
ENDMDL
