MODEL 1
REMARK minimizedAffinity -2.10327005
REMARK minimizedRMSD -1
REMARK  3 active torsions:
REMARK  status: ('A' for Active; 'I' for Inactive)
REMARK    1  A    between atoms: C3'_2  and  C2'_3 
REMARK    2  A    between atoms: C2'_3  and  C1'_4 
REMARK    3  A    between atoms: C1'_4  and  C1_5 
ROOT
ATOM      1  C1  N4B d   1      -1.103  -0.090  -0.898  0.00  0.00    -0.075 A 
ATOM      2  C2  N4B d   1       0.093  -0.413  -0.220  0.00  0.00     0.002 A 
ATOM      3  C3  N4B d   1       0.072  -0.657   1.131  0.00  0.00     0.002 A 
ATOM      4  C4  N4B d   1      -1.125  -0.567   1.826  0.00  0.00    -0.004 A 
ATOM      5  C5  N4B d   1      -2.280  -0.279   1.160  0.00  0.00     0.002 A 
ATOM      6  C6  N4B d   1      -2.274  -0.035  -0.199  0.00  0.00     0.002 A 
ENDROOT
BRANCH   1   7
ATOM      7  C1' N4B d   1      -1.116   0.270  -2.358  0.00  0.00     0.057 C 
BRANCH   7   8
ATOM      8  C2' N4B d   1      -2.328   1.150  -2.646  0.00  0.00     0.009 C 
BRANCH   8   9
ATOM      9  C3' N4B d   1      -1.972   2.627  -2.640  0.00  0.00     0.004 C 
ATOM     10  C4' N4B d   1      -0.529   2.878  -2.961  0.00  0.00     0.003 C 
ENDBRANCH   8   9
ENDBRANCH   7   8
ENDBRANCH   1   7
TORSDOF 3
ENDMDL
