MODEL 1
REMARK minimizedAffinity -4.16401958
REMARK minimizedRMSD -1
REMARK  3 active torsions:
REMARK  status: ('A' for Active; 'I' for Inactive)
REMARK    1  A    between atoms: C3'_2  and  C2'_3 
REMARK    2  A    between atoms: C2'_3  and  C1'_4 
REMARK    3  A    between atoms: C1'_4  and  C1_5 
ROOT
ATOM      1  C1  N4B d   1       1.076  -2.220   1.485  0.00  0.00    -0.075 A 
ATOM      2  C2  N4B d   1       0.012  -1.529   2.107  0.00  0.00     0.002 A 
ATOM      3  C3  N4B d   1      -0.532  -0.421   1.505  0.00  0.00     0.002 A 
ATOM      4  C4  N4B d   1      -0.019   0.024   0.296  0.00  0.00    -0.004 A 
ATOM      5  C5  N4B d   1       0.992  -0.663  -0.310  0.00  0.00     0.002 A 
ATOM      6  C6  N4B d   1       1.546  -1.781   0.282  0.00  0.00     0.002 A 
ENDROOT
BRANCH   1   7
ATOM      7  C1' N4B d   1       1.760  -3.385   2.146  0.00  0.00     0.057 C 
BRANCH   7   8
ATOM      8  C2' N4B d   1       2.199  -4.380   1.076  0.00  0.00     0.009 C 
BRANCH   8   9
ATOM      9  C3' N4B d   1       3.634  -4.835   1.279  0.00  0.00     0.004 C 
ATOM     10  C4' N4B d   1       4.056  -4.803   2.717  0.00  0.00     0.003 C 
ENDBRANCH   8   9
ENDBRANCH   7   8
ENDBRANCH   1   7
TORSDOF 3
ENDMDL
