MODEL 1
REMARK minimizedAffinity -4.55462217
REMARK minimizedRMSD -1
REMARK  1 active torsions:
REMARK  status: ('A' for Active; 'I' for Inactive)
REMARK    1  A    between atoms: C1_2  and  C2_3 
ROOT
ATOM      1  C2  UNL d   1       1.231  -1.221   0.788  0.00  0.00    -0.077 A 
ATOM      2  C3  UNL d   1       1.579  -0.158  -0.058  0.00  0.00     0.002 A 
ATOM      3  C4  UNL d   1       0.682   0.888  -0.283  0.00  0.00     0.002 A 
ATOM      4  C5  UNL d   1      -0.566   0.884   0.337  0.00  0.00    -0.004 A 
ATOM      5  C6  UNL d   1      -0.922  -0.169   1.179  0.00  0.00     0.002 A 
ATOM      6  C7  UNL d   1      -0.027  -1.217   1.404  0.00  0.00     0.002 A 
ENDROOT
BRANCH   1   7
ATOM      7  C1  UNL d   1       2.215  -2.326   1.071  0.00  0.00     0.055 C 
ATOM      8  C   UNL d   1       1.555  -3.479   1.811  0.00  0.00     0.019 C 
ENDBRANCH   1   7
TORSDOF 1
ENDMDL
