MODEL 1
REMARK minimizedAffinity -4.05969286
REMARK minimizedRMSD -1
REMARK  1 active torsions:
REMARK  status: ('A' for Active; 'I' for Inactive)
REMARK    1  A    between atoms: C1_2  and  C2_3 
ROOT
ATOM      1  C2  UNL d   1       0.091  -0.589   0.080  0.00  0.00    -0.077 A 
ATOM      2  C3  UNL d   1       1.445  -0.819  -0.201  0.00  0.00     0.002 A 
ATOM      3  C4  UNL d   1       2.252  -1.496   0.716  0.00  0.00     0.002 A 
ATOM      4  C5  UNL d   1       1.713  -1.952   1.917  0.00  0.00    -0.004 A 
ATOM      5  C6  UNL d   1       0.368  -1.726   2.207  0.00  0.00     0.002 A 
ATOM      6  C7  UNL d   1      -0.440  -1.049   1.292  0.00  0.00     0.002 A 
ENDROOT
BRANCH   1   7
ATOM      7  C1  UNL d   1      -0.793   0.097  -0.929  0.00  0.00     0.055 C 
ATOM      8  C   UNL d   1      -1.179   1.494  -0.466  0.00  0.00     0.019 C 
ENDBRANCH   1   7
TORSDOF 1
ENDMDL
