MODEL 1
REMARK minimizedAffinity -5.36686945
REMARK minimizedRMSD -1
REMARK  1 active torsions:
REMARK  status: ('A' for Active; 'I' for Inactive)
REMARK    1  A    between atoms: C1_2  and  C2_3 
ROOT
ATOM      1  C2  UNL d   1       0.353  -0.831   0.356  0.00  0.00    -0.077 A 
ATOM      2  C3  UNL d   1       1.286  -1.842   0.624  0.00  0.00     0.002 A 
ATOM      3  C4  UNL d   1       1.219  -2.568   1.815  0.00  0.00     0.002 A 
ATOM      4  C5  UNL d   1       0.219  -2.294   2.745  0.00  0.00    -0.004 A 
ATOM      5  C6  UNL d   1      -0.713  -1.288   2.489  0.00  0.00     0.002 A 
ATOM      6  C7  UNL d   1      -0.647  -0.561   1.300  0.00  0.00     0.002 A 
ENDROOT
BRANCH   1   7
ATOM      7  C1  UNL d   1       0.394  -0.080  -0.949  0.00  0.00     0.055 C 
ATOM      8  C   UNL d   1      -0.839   0.795  -1.123  0.00  0.00     0.019 C 
ENDBRANCH   1   7
TORSDOF 1
ENDMDL
