MODEL 1
REMARK minimizedAffinity -5.42012835
REMARK minimizedRMSD -1
REMARK  1 active torsions:
REMARK  status: ('A' for Active; 'I' for Inactive)
REMARK    1  A    between atoms: C1_2  and  C2_3 
ROOT
ATOM      1  C2  UNL d   1       0.390  -0.995   0.197  0.00  0.00    -0.077 A 
ATOM      2  C3  UNL d   1      -0.321  -1.258   1.377  0.00  0.00     0.002 A 
ATOM      3  C4  UNL d   1       0.144  -2.213   2.283  0.00  0.00     0.002 A 
ATOM      4  C5  UNL d   1       1.322  -2.909   2.022  0.00  0.00    -0.004 A 
ATOM      5  C6  UNL d   1       2.035  -2.656   0.851  0.00  0.00     0.002 A 
ATOM      6  C7  UNL d   1       1.572  -1.703  -0.057  0.00  0.00     0.002 A 
ENDROOT
BRANCH   1   7
ATOM      7  C1  UNL d   1      -0.083   0.069  -0.758  0.00  0.00     0.055 C 
ATOM      8  C   UNL d   1      -0.690   1.250  -0.015  0.00  0.00     0.019 C 
ENDBRANCH   1   7
TORSDOF 1
ENDMDL
