MODEL 1
REMARK minimizedAffinity -4.08982944
REMARK minimizedRMSD -1
REMARK  1 active torsions:
REMARK  status: ('A' for Active; 'I' for Inactive)
REMARK    1  A    between atoms: C1_2  and  C2_3 
ROOT
ATOM      1  C2  UNL d   1       0.147  -0.321   0.691  0.00  0.00    -0.077 A 
ATOM      2  C3  UNL d   1      -0.489  -0.815   1.838  0.00  0.00     0.002 A 
ATOM      3  C4  UNL d   1       0.107  -1.826   2.595  0.00  0.00     0.002 A 
ATOM      4  C5  UNL d   1       1.342  -2.348   2.215  0.00  0.00    -0.004 A 
ATOM      5  C6  UNL d   1       1.980  -1.864   1.074  0.00  0.00     0.002 A 
ATOM      6  C7  UNL d   1       1.386  -0.855   0.316  0.00  0.00     0.002 A 
ENDROOT
BRANCH   1   7
ATOM      7  C1  UNL d   1      -0.471   0.804  -0.099  0.00  0.00     0.055 C 
ATOM      8  C   UNL d   1      -0.956   0.323  -1.459  0.00  0.00     0.019 C 
ENDBRANCH   1   7
TORSDOF 1
ENDMDL
