MODEL 1
REMARK minimizedAffinity -4.66724539
REMARK minimizedRMSD -1
REMARK  1 active torsions:
REMARK  status: ('A' for Active; 'I' for Inactive)
REMARK    1  A    between atoms: C1_2  and  C2_3 
ROOT
ATOM      1  C2  UNL d   1       0.564  -0.960   0.430  0.00  0.00    -0.077 A 
ATOM      2  C3  UNL d   1      -0.325  -1.064   1.509  0.00  0.00     0.002 A 
ATOM      3  C4  UNL d   1      -0.218  -2.124   2.412  0.00  0.00     0.002 A 
ATOM      4  C5  UNL d   1       0.778  -3.084   2.248  0.00  0.00    -0.004 A 
ATOM      5  C6  UNL d   1       1.666  -2.990   1.177  0.00  0.00     0.002 A 
ATOM      6  C7  UNL d   1       1.560  -1.932   0.273  0.00  0.00     0.002 A 
ENDROOT
BRANCH   1   7
ATOM      7  C1  UNL d   1       0.482   0.209  -0.517  0.00  0.00     0.055 C 
ATOM      8  C   UNL d   1      -0.655   1.147  -0.140  0.00  0.00     0.019 C 
ENDBRANCH   1   7
TORSDOF 1
ENDMDL
