MODEL 1
REMARK minimizedAffinity -5.14523172
REMARK minimizedRMSD -1
REMARK  1 active torsions:
REMARK  status: ('A' for Active; 'I' for Inactive)
REMARK    1  A    between atoms: C1_2  and  C2_3 
ROOT
ATOM      1  C2  UNL d   1       0.715  -1.369   1.038  0.00  0.00    -0.077 A 
ATOM      2  C3  UNL d   1       1.936  -1.254   0.358  0.00  0.00     0.002 A 
ATOM      3  C4  UNL d   1       2.029  -0.474  -0.797  0.00  0.00     0.002 A 
ATOM      4  C5  UNL d   1       0.908   0.199  -1.278  0.00  0.00    -0.004 A 
ATOM      5  C6  UNL d   1      -0.310   0.089  -0.610  0.00  0.00     0.002 A 
ATOM      6  C7  UNL d   1      -0.406  -0.691   0.544  0.00  0.00     0.002 A 
ENDROOT
BRANCH   1   7
ATOM      7  C1  UNL d   1       0.624  -2.169   2.311  0.00  0.00     0.055 C 
ATOM      8  C   UNL d   1      -0.693  -1.917   3.030  0.00  0.00     0.019 C 
ENDBRANCH   1   7
TORSDOF 1
ENDMDL
