MODEL 1
REMARK minimizedAffinity -5.70406008
REMARK minimizedRMSD -1
REMARK  1 active torsions:
REMARK  status: ('A' for Active; 'I' for Inactive)
REMARK    1  A    between atoms: C1_2  and  C2_3 
ROOT
ATOM      1  C2  UNL d   1       0.271  -0.570   0.380  0.00  0.00    -0.077 A 
ATOM      2  C3  UNL d   1      -0.217  -1.404   1.396  0.00  0.00     0.002 A 
ATOM      3  C4  UNL d   1       0.486  -2.553   1.764  0.00  0.00     0.002 A 
ATOM      4  C5  UNL d   1       1.681  -2.876   1.125  0.00  0.00    -0.004 A 
ATOM      5  C6  UNL d   1       2.173  -2.053   0.112  0.00  0.00     0.002 A 
ATOM      6  C7  UNL d   1       1.472  -0.905  -0.258  0.00  0.00     0.002 A 
ENDROOT
BRANCH   1   7
ATOM      7  C1  UNL d   1      -0.460   0.696   0.016  0.00  0.00     0.055 C 
ATOM      8  C   UNL d   1      -0.959   0.653  -1.421  0.00  0.00     0.019 C 
ENDBRANCH   1   7
TORSDOF 1
ENDMDL
