MODEL 1
REMARK minimizedAffinity -3.19522119
REMARK minimizedRMSD -1
REMARK  1 active torsions:
REMARK  status: ('A' for Active; 'I' for Inactive)
REMARK    1  A    between atoms: C1_2  and  C2_3 
ROOT
ATOM      1  C2  UNL d   1       0.213  -0.090   0.659  0.00  0.00    -0.077 A 
ATOM      2  C3  UNL d   1       1.500  -0.569   0.375  0.00  0.00     0.002 A 
ATOM      3  C4  UNL d   1       2.101  -1.515   1.208  0.00  0.00     0.002 A 
ATOM      4  C5  UNL d   1       1.422  -1.992   2.327  0.00  0.00    -0.004 A 
ATOM      5  C6  UNL d   1       0.143  -1.520   2.619  0.00  0.00     0.002 A 
ATOM      6  C7  UNL d   1      -0.459  -0.574   1.789  0.00  0.00     0.002 A 
ENDROOT
BRANCH   1   7
ATOM      7  C1  UNL d   1      -0.456   0.893  -0.265  0.00  0.00     0.055 C 
ATOM      8  C   UNL d   1      -1.068   0.192  -1.469  0.00  0.00     0.019 C 
ENDBRANCH   1   7
TORSDOF 1
ENDMDL
