MODEL 1
REMARK minimizedAffinity -6.10487223
REMARK minimizedRMSD -1
REMARK  1 active torsions:
REMARK  status: ('A' for Active; 'I' for Inactive)
REMARK    1  A    between atoms: C1_2  and  C2_3 
ROOT
ATOM      1  C2  UNL d   1       0.282  -1.320   0.647  0.00  0.00    -0.077 A 
ATOM      2  C3  UNL d   1      -0.204  -1.731   1.896  0.00  0.00     0.002 A 
ATOM      3  C4  UNL d   1       0.471  -2.708   2.630  0.00  0.00     0.002 A 
ATOM      4  C5  UNL d   1       1.637  -3.280   2.125  0.00  0.00    -0.004 A 
ATOM      5  C6  UNL d   1       2.127  -2.880   0.882  0.00  0.00     0.002 A 
ATOM      6  C7  UNL d   1       1.453  -1.904   0.147  0.00  0.00     0.002 A 
ENDROOT
BRANCH   1   7
ATOM      7  C1  UNL d   1      -0.417  -0.231  -0.124  0.00  0.00     0.055 C 
ATOM      8  C   UNL d   1       0.567   0.825  -0.605  0.00  0.00     0.019 C 
ENDBRANCH   1   7
TORSDOF 1
ENDMDL
