MODEL 1
REMARK minimizedAffinity -1.26496255
REMARK minimizedRMSD -1
REMARK  1 active torsions:
REMARK  status: ('A' for Active; 'I' for Inactive)
REMARK    1  A    between atoms: C1_2  and  C2_3 
ROOT
ATOM      1  C2  UNL d   1      -1.896   1.627  -1.139  0.00  0.00    -0.077 A 
ATOM      2  C3  UNL d   1      -1.500   2.622  -2.043  0.00  0.00     0.002 A 
ATOM      3  C4  UNL d   1      -2.379   3.066  -3.034  0.00  0.00     0.002 A 
ATOM      4  C5  UNL d   1      -3.659   2.523  -3.126  0.00  0.00    -0.004 A 
ATOM      5  C6  UNL d   1      -4.061   1.531  -2.233  0.00  0.00     0.002 A 
ATOM      6  C7  UNL d   1      -3.184   1.086  -1.243  0.00  0.00     0.002 A 
ENDROOT
BRANCH   1   7
ATOM      7  C1  UNL d   1      -0.968   1.182  -0.039  0.00  0.00     0.055 C 
ATOM      8  C   UNL d   1      -0.166  -0.044  -0.453  0.00  0.00     0.019 C 
ENDBRANCH   1   7
TORSDOF 1
ENDMDL
