MODEL 1
REMARK minimizedAffinity 14.8221703
REMARK minimizedRMSD -1
REMARK  0 active torsions:
REMARK  status: ('A' for Active; 'I' for Inactive)
ROOT
ATOM      1  N1  IND d   1      -3.160  -2.690  -3.256  0.00  0.00    -0.196 N 
ATOM      2  C2  IND d   1      -1.974  -2.980  -2.642  0.00  0.00     0.054 A 
ATOM      3  C3  IND d   1      -2.064  -4.151  -1.973  0.00  0.00    -0.031 A 
ATOM      4  C4  IND d   1      -4.030  -5.807  -1.833  0.00  0.00     0.051 A 
ATOM      5  C5  IND d   1      -5.338  -5.960  -2.199  0.00  0.00    -0.031 A 
ATOM      6  C6  IND d   1      -5.999  -5.013  -2.954  0.00  0.00     0.015 A 
ATOM      7  C7  IND d   1      -5.371  -3.878  -3.382  0.00  0.00    -0.016 A 
ATOM      8  C8  IND d   1      -4.045  -3.716  -3.006  0.00  0.00    -0.047 A 
ATOM      9  C9  IND d   1      -3.381  -4.653  -2.204  0.00  0.00    -0.096 A 
ATOM     10  HN1 IND d   1      -3.326  -1.986  -3.720  0.00  0.00     0.298 HD
ENDROOT
TORSDOF 0
ENDMDL
