MODEL 1
REMARK minimizedAffinity 8.73591232
REMARK minimizedRMSD -1
REMARK  0 active torsions:
REMARK  status: ('A' for Active; 'I' for Inactive)
ROOT
ATOM      1  N1  IND d   1       2.955   5.011  -4.067  0.00  0.00    -0.196 N 
ATOM      2  C2  IND d   1       2.579   5.077  -5.380  0.00  0.00     0.054 A 
ATOM      3  C3  IND d   1       2.826   3.901  -6.000  0.00  0.00    -0.031 A 
ATOM      4  C4  IND d   1       3.747   1.702  -5.028  0.00  0.00     0.051 A 
ATOM      5  C5  IND d   1       4.268   1.164  -3.885  0.00  0.00    -0.031 A 
ATOM      6  C6  IND d   1       4.377   1.895  -2.719  0.00  0.00     0.015 A 
ATOM      7  C7  IND d   1       3.957   3.193  -2.651  0.00  0.00    -0.016 A 
ATOM      8  C8  IND d   1       3.435   3.745  -3.812  0.00  0.00    -0.047 A 
ATOM      9  C9  IND d   1       3.361   3.021  -5.009  0.00  0.00    -0.096 A 
ATOM     10  HN1 IND d   1       2.901   5.652  -3.497  0.00  0.00     0.298 HD
ENDROOT
TORSDOF 0
ENDMDL
