MODEL 1
REMARK minimizedAffinity 16.569088
REMARK minimizedRMSD -1
REMARK  0 active torsions:
REMARK  status: ('A' for Active; 'I' for Inactive)
ROOT
ATOM      1  N1  IND d   1      -3.584  -2.203  -2.626  0.00  0.00    -0.196 N 
ATOM      2  C2  IND d   1      -2.253  -2.447  -2.437  0.00  0.00     0.054 A 
ATOM      3  C3  IND d   1      -2.045  -3.761  -2.198  0.00  0.00    -0.031 A 
ATOM      4  C4  IND d   1      -3.732  -5.705  -2.169  0.00  0.00     0.051 A 
ATOM      5  C5  IND d   1      -5.070  -5.971  -2.251  0.00  0.00    -0.031 A 
ATOM      6  C6  IND d   1      -6.000  -4.975  -2.469  0.00  0.00     0.015 A 
ATOM      7  C7  IND d   1      -5.623  -3.671  -2.626  0.00  0.00    -0.016 A 
ATOM      8  C8  IND d   1      -4.266  -3.396  -2.536  0.00  0.00    -0.047 A 
ATOM      9  C9  IND d   1      -3.322  -4.397  -2.272  0.00  0.00    -0.096 A 
ATOM     10  HN1 IND d   1      -3.937  -1.433  -2.775  0.00  0.00     0.298 HD
ENDROOT
TORSDOF 0
ENDMDL
