MODEL 1
REMARK minimizedAffinity 11.5275173
REMARK minimizedRMSD -1
REMARK  0 active torsions:
REMARK  status: ('A' for Active; 'I' for Inactive)
ROOT
ATOM      1  N1  IND d   1      -2.657  -1.389  -2.366  0.00  0.00    -0.196 N 
ATOM      2  C2  IND d   1      -2.894  -2.206  -1.297  0.00  0.00     0.054 A 
ATOM      3  C3  IND d   1      -2.340  -3.422  -1.502  0.00  0.00    -0.031 A 
ATOM      4  C4  IND d   1      -0.913  -4.257  -3.476  0.00  0.00     0.051 A 
ATOM      5  C5  IND d   1      -0.455  -3.883  -4.708  0.00  0.00    -0.031 A 
ATOM      6  C6  IND d   1      -0.711  -2.633  -5.232  0.00  0.00     0.015 A 
ATOM      7  C7  IND d   1      -1.428  -1.701  -4.536  0.00  0.00    -0.016 A 
ATOM      8  C8  IND d   1      -1.900  -2.080  -3.287  0.00  0.00    -0.047 A 
ATOM      9  C9  IND d   1      -1.680  -3.362  -2.768  0.00  0.00    -0.096 A 
ATOM     10  HN1 IND d   1      -2.934  -0.579  -2.450  0.00  0.00     0.298 HD
ENDROOT
TORSDOF 0
ENDMDL
