MODEL 1
REMARK minimizedAffinity 13.8022442
REMARK minimizedRMSD -1
REMARK  0 active torsions:
REMARK  status: ('A' for Active; 'I' for Inactive)
ROOT
ATOM      1  N1  IND d   1      -1.970  -5.004  -2.948  0.00  0.00    -0.196 N 
ATOM      2  C2  IND d   1      -1.563  -3.785  -3.415  0.00  0.00     0.054 A 
ATOM      3  C3  IND d   1      -2.632  -2.995  -3.661  0.00  0.00    -0.031 A 
ATOM      4  C4  IND d   1      -5.134  -3.460  -3.271  0.00  0.00     0.051 A 
ATOM      5  C5  IND d   1      -6.000  -4.447  -2.892  0.00  0.00    -0.031 A 
ATOM      6  C6  IND d   1      -5.558  -5.694  -2.501  0.00  0.00     0.015 A 
ATOM      7  C7  IND d   1      -4.226  -5.999  -2.465  0.00  0.00    -0.016 A 
ATOM      8  C8  IND d   1      -3.345  -5.001  -2.856  0.00  0.00    -0.047 A 
ATOM      9  C9  IND d   1      -3.790  -3.747  -3.293  0.00  0.00    -0.096 A 
ATOM     10  HN1 IND d   1      -1.454  -5.661  -2.745  0.00  0.00     0.298 HD
ENDROOT
TORSDOF 0
ENDMDL
