MODEL 1
REMARK minimizedAffinity 12.4900236
REMARK minimizedRMSD -1
REMARK  0 active torsions:
REMARK  status: ('A' for Active; 'I' for Inactive)
ROOT
ATOM      1  N1  IND d   1      -5.021  -3.001  -3.180  0.00  0.00    -0.196 N 
ATOM      2  C2  IND d   1      -5.999  -3.935  -2.974  0.00  0.00     0.054 A 
ATOM      3  C3  IND d   1      -5.450  -5.126  -2.647  0.00  0.00    -0.031 A 
ATOM      4  C4  IND d   1      -2.976  -5.745  -2.291  0.00  0.00     0.051 A 
ATOM      5  C5  IND d   1      -1.713  -5.237  -2.400  0.00  0.00    -0.031 A 
ATOM      6  C6  IND d   1      -1.482  -3.930  -2.779  0.00  0.00     0.015 A 
ATOM      7  C7  IND d   1      -2.513  -3.076  -3.054  0.00  0.00    -0.016 A 
ATOM      8  C8  IND d   1      -3.797  -3.591  -2.952  0.00  0.00    -0.047 A 
ATOM      9  C9  IND d   1      -4.036  -4.928  -2.609  0.00  0.00    -0.096 A 
ATOM     10  HN1 IND d   1      -5.149  -2.184  -3.414  0.00  0.00     0.298 HD
ENDROOT
TORSDOF 0
ENDMDL
