MODEL 1
REMARK minimizedAffinity 13.5232801
REMARK minimizedRMSD -1
REMARK  0 active torsions:
REMARK  status: ('A' for Active; 'I' for Inactive)
ROOT
ATOM      1  N1  IND d   1      -0.089  -2.829  -0.425  0.00  0.00    -0.196 N 
ATOM      2  C2  IND d   1      -0.939  -2.436   0.571  0.00  0.00     0.054 A 
ATOM      3  C3  IND d   1      -2.196  -2.306   0.092  0.00  0.00    -0.031 A 
ATOM      4  C4  IND d   1      -3.105  -2.784  -2.269  0.00  0.00     0.051 A 
ATOM      5  C5  IND d   1      -2.703  -3.129  -3.529  0.00  0.00    -0.031 A 
ATOM      6  C6  IND d   1      -1.382  -3.400  -3.824  0.00  0.00     0.015 A 
ATOM      7  C7  IND d   1      -0.412  -3.347  -2.863  0.00  0.00    -0.016 A 
ATOM      8  C8  IND d   1      -0.816  -2.990  -1.584  0.00  0.00    -0.047 A 
ATOM      9  C9  IND d   1      -2.148  -2.672  -1.288  0.00  0.00    -0.096 A 
ATOM     10  HN1 IND d   1       0.758  -2.955  -0.342  0.00  0.00     0.298 HD
ENDROOT
TORSDOF 0
ENDMDL
