MODEL 1
REMARK minimizedAffinity 11.7405615
REMARK minimizedRMSD -1
REMARK  0 active torsions:
REMARK  status: ('A' for Active; 'I' for Inactive)
ROOT
ATOM      1  N1  IND d   1      -3.709  -3.777  -1.629  0.00  0.00    -0.196 N 
ATOM      2  C2  IND d   1      -4.184  -4.956  -2.134  0.00  0.00     0.054 A 
ATOM      3  C3  IND d   1      -3.703  -6.000  -1.421  0.00  0.00    -0.031 A 
ATOM      4  C4  IND d   1      -2.205  -6.000   0.672  0.00  0.00     0.051 A 
ATOM      5  C5  IND d   1      -1.488  -5.166   1.483  0.00  0.00    -0.031 A 
ATOM      6  C6  IND d   1      -1.476  -3.799   1.296  0.00  0.00     0.015 A 
ATOM      7  C7  IND d   1      -2.194  -3.211   0.293  0.00  0.00    -0.016 A 
ATOM      8  C8  IND d   1      -2.918  -4.055  -0.537  0.00  0.00    -0.047 A 
ATOM      9  C9  IND d   1      -2.900  -5.447  -0.378  0.00  0.00    -0.096 A 
ATOM     10  HN1 IND d   1      -3.877  -2.994  -1.942  0.00  0.00     0.298 HD
ENDROOT
TORSDOF 0
ENDMDL
