MODEL 1
REMARK minimizedAffinity 15.7571659
REMARK minimizedRMSD -1
REMARK  0 active torsions:
REMARK  status: ('A' for Active; 'I' for Inactive)
ROOT
ATOM      1  N1  IND d   1      -2.853  -2.846  -4.094  0.00  0.00    -0.196 N 
ATOM      2  C2  IND d   1      -1.664  -3.283  -3.580  0.00  0.00     0.054 A 
ATOM      3  C3  IND d   1      -1.871  -4.306  -2.721  0.00  0.00    -0.031 A 
ATOM      4  C4  IND d   1      -4.067  -5.491  -2.087  0.00  0.00     0.051 A 
ATOM      5  C5  IND d   1      -5.420  -5.423  -2.271  0.00  0.00    -0.031 A 
ATOM      6  C6  IND d   1      -5.997  -4.475  -3.091  0.00  0.00     0.015 A 
ATOM      7  C7  IND d   1      -5.239  -3.563  -3.769  0.00  0.00    -0.016 A 
ATOM      8  C8  IND d   1      -3.866  -3.624  -3.579  0.00  0.00    -0.047 A 
ATOM      9  C9  IND d   1      -3.278  -4.557  -2.715  0.00  0.00    -0.096 A 
ATOM     10  HN1 IND d   1      -2.952  -2.194  -4.646  0.00  0.00     0.298 HD
ENDROOT
TORSDOF 0
ENDMDL
