MODEL 1
REMARK minimizedAffinity 14.2452364
REMARK minimizedRMSD -1
REMARK  0 active torsions:
REMARK  status: ('A' for Active; 'I' for Inactive)
ROOT
ATOM      1  N1  IND d   1      -3.509  -4.386  -4.414  0.00  0.00    -0.196 N 
ATOM      2  C2  IND d   1      -4.529  -4.828  -3.618  0.00  0.00     0.054 A 
ATOM      3  C3  IND d   1      -4.342  -4.419  -2.343  0.00  0.00    -0.031 A 
ATOM      4  C4  IND d   1      -2.485  -2.932  -1.358  0.00  0.00     0.051 A 
ATOM      5  C5  IND d   1      -1.311  -2.315  -1.687  0.00  0.00    -0.031 A 
ATOM      6  C6  IND d   1      -0.801  -2.355  -2.969  0.00  0.00     0.015 A 
ATOM      7  C7  IND d   1      -1.455  -3.007  -3.976  0.00  0.00    -0.016 A 
ATOM      8  C8  IND d   1      -2.643  -3.641  -3.643  0.00  0.00    -0.047 A 
ATOM      9  C9  IND d   1      -3.144  -3.640  -2.335  0.00  0.00    -0.096 A 
ATOM     10  HN1 IND d   1      -3.423  -4.546  -5.254  0.00  0.00     0.298 HD
ENDROOT
TORSDOF 0
ENDMDL
