MODEL 1
REMARK minimizedAffinity 6.26790953
REMARK minimizedRMSD -1
REMARK  0 active torsions:
REMARK  status: ('A' for Active; 'I' for Inactive)
ROOT
ATOM      1  N1  IND d   1      -1.011  -6.000  -4.116  0.00  0.00    -0.196 N 
ATOM      2  C2  IND d   1       0.341  -5.826  -4.020  0.00  0.00     0.054 A 
ATOM      3  C3  IND d   1       0.624  -4.765  -3.231  0.00  0.00    -0.031 A 
ATOM      4  C4  IND d   1      -0.972  -3.235  -1.913  0.00  0.00     0.051 A 
ATOM      5  C5  IND d   1      -2.300  -2.979  -1.715  0.00  0.00    -0.031 A 
ATOM      6  C6  IND d   1      -3.286  -3.734  -2.316  0.00  0.00     0.015 A 
ATOM      7  C7  IND d   1      -2.979  -4.785  -3.134  0.00  0.00    -0.016 A 
ATOM      8  C8  IND d   1      -1.632  -5.043  -3.343  0.00  0.00    -0.047 A 
ATOM      9  C9  IND d   1      -0.627  -4.254  -2.769  0.00  0.00    -0.096 A 
ATOM     10  HN1 IND d   1      -1.407  -6.605  -4.580  0.00  0.00     0.298 HD
ENDROOT
TORSDOF 0
ENDMDL
