MODEL 1
REMARK minimizedAffinity 10.9150467
REMARK minimizedRMSD -1
REMARK  0 active torsions:
REMARK  status: ('A' for Active; 'I' for Inactive)
ROOT
ATOM      1  N1  IND d   1      -5.347  -3.657  -2.605  0.00  0.00    -0.196 N 
ATOM      2  C2  IND d   1      -5.970  -4.837  -2.306  0.00  0.00     0.054 A 
ATOM      3  C3  IND d   1      -5.063  -5.834  -2.198  0.00  0.00    -0.031 A 
ATOM      4  C4  IND d   1      -2.496  -5.735  -2.373  0.00  0.00     0.051 A 
ATOM      5  C5  IND d   1      -1.469  -4.884  -2.670  0.00  0.00    -0.031 A 
ATOM      6  C6  IND d   1      -1.686  -3.554  -2.963  0.00  0.00     0.015 A 
ATOM      7  C7  IND d   1      -2.943  -3.019  -2.960  0.00  0.00    -0.016 A 
ATOM      8  C8  IND d   1      -3.990  -3.882  -2.666  0.00  0.00    -0.047 A 
ATOM      9  C9  IND d   1      -3.780  -5.243  -2.409  0.00  0.00    -0.096 A 
ATOM     10  HN1 IND d   1      -5.738  -2.902  -2.733  0.00  0.00     0.298 HD
ENDROOT
TORSDOF 0
ENDMDL
