MODEL 1
REMARK minimizedAffinity 9.0736475
REMARK minimizedRMSD -1
REMARK  0 active torsions:
REMARK  status: ('A' for Active; 'I' for Inactive)
ROOT
ATOM      1  N1  IND d   1      -0.912  -2.148  -2.386  0.00  0.00    -0.196 N 
ATOM      2  C2  IND d   1      -2.023  -2.712  -2.948  0.00  0.00     0.054 A 
ATOM      3  C3  IND d   1      -2.828  -3.223  -1.990  0.00  0.00    -0.031 A 
ATOM      4  C4  IND d   1      -2.569  -3.155   0.571  0.00  0.00     0.051 A 
ATOM      5  C5  IND d   1      -1.699  -2.779   1.556  0.00  0.00    -0.031 A 
ATOM      6  C6  IND d   1      -0.500  -2.159   1.272  0.00  0.00     0.015 A 
ATOM      7  C7  IND d   1      -0.129  -1.880  -0.013  0.00  0.00    -0.016 A 
ATOM      8  C8  IND d   1      -1.006  -2.266  -1.016  0.00  0.00    -0.047 A 
ATOM      9  C9  IND d   1      -2.205  -2.934  -0.737  0.00  0.00    -0.096 A 
ATOM     10  HN1 IND d   1      -0.263  -1.781  -2.815  0.00  0.00     0.298 HD
ENDROOT
TORSDOF 0
ENDMDL
