MODEL 1
REMARK minimizedAffinity 14.3352299
REMARK minimizedRMSD -1
REMARK  0 active torsions:
REMARK  status: ('A' for Active; 'I' for Inactive)
ROOT
ATOM      1  N1  IND d   1      -3.763  -4.932   0.682  0.00  0.00    -0.196 N 
ATOM      2  C2  IND d   1      -3.808  -6.000   1.534  0.00  0.00     0.054 A 
ATOM      3  C3  IND d   1      -2.728  -5.999   2.347  0.00  0.00    -0.031 A 
ATOM      4  C4  IND d   1      -0.815  -4.285   2.522  0.00  0.00     0.051 A 
ATOM      5  C5  IND d   1      -0.320  -3.158   1.928  0.00  0.00    -0.031 A 
ATOM      6  C6  IND d   1      -0.963  -2.551   0.868  0.00  0.00     0.015 A 
ATOM      7  C7  IND d   1      -2.135  -3.044   0.368  0.00  0.00    -0.016 A 
ATOM      8  C8  IND d   1      -2.636  -4.192   0.965  0.00  0.00    -0.047 A 
ATOM      9  C9  IND d   1      -1.966  -4.837   2.013  0.00  0.00    -0.096 A 
ATOM     10  HN1 IND d   1      -4.342  -4.752   0.072  0.00  0.00     0.298 HD
ENDROOT
TORSDOF 0
ENDMDL
