MODEL 1
REMARK minimizedAffinity 0.744305134
REMARK minimizedRMSD -1
REMARK  0 active torsions:
REMARK  status: ('A' for Active; 'I' for Inactive)
ROOT
ATOM      1  N1  IND d   1      -4.957  -5.277  -4.114  0.00  0.00    -0.196 N 
ATOM      2  C2  IND d   1      -5.999  -4.744  -3.409  0.00  0.00     0.054 A 
ATOM      3  C3  IND d   1      -5.554  -3.790  -2.561  0.00  0.00    -0.031 A 
ATOM      4  C4  IND d   1      -3.171  -2.871  -2.238  0.00  0.00     0.051 A 
ATOM      5  C5  IND d   1      -1.878  -3.069  -2.632  0.00  0.00    -0.031 A 
ATOM      6  C6  IND d   1      -1.538  -4.031  -3.561  0.00  0.00     0.015 A 
ATOM      7  C7  IND d   1      -2.485  -4.827  -4.142  0.00  0.00    -0.016 A 
ATOM      8  C8  IND d   1      -3.799  -4.633  -3.739  0.00  0.00    -0.047 A 
ATOM      9  C9  IND d   1      -4.144  -3.687  -2.765  0.00  0.00    -0.096 A 
ATOM     10  HN1 IND d   1      -5.015  -5.909  -4.695  0.00  0.00     0.298 HD
ENDROOT
TORSDOF 0
ENDMDL
