MODEL 1
REMARK minimizedAffinity 23.8899498
REMARK minimizedRMSD -1
REMARK  0 active torsions:
REMARK  status: ('A' for Active; 'I' for Inactive)
ROOT
ATOM      1  N1  IND d   1       0.697  -4.449  -3.395  0.00  0.00    -0.196 N 
ATOM      2  C2  IND d   1       0.440  -5.718  -3.833  0.00  0.00     0.054 A 
ATOM      3  C3  IND d   1      -0.880  -5.992  -3.733  0.00  0.00    -0.031 A 
ATOM      4  C4  IND d   1      -2.813  -4.471  -2.973  0.00  0.00     0.051 A 
ATOM      5  C5  IND d   1      -3.068  -3.237  -2.445  0.00  0.00    -0.031 A 
ATOM      6  C6  IND d   1      -2.062  -2.324  -2.204  0.00  0.00     0.015 A 
ATOM      7  C7  IND d   1      -0.757  -2.609  -2.494  0.00  0.00    -0.016 A 
ATOM      8  C8  IND d   1      -0.493  -3.864  -3.024  0.00  0.00    -0.047 A 
ATOM      9  C9  IND d   1      -1.505  -4.810  -3.231  0.00  0.00    -0.096 A 
ATOM     10  HN1 IND d   1       1.472  -4.079  -3.357  0.00  0.00     0.298 HD
ENDROOT
TORSDOF 0
ENDMDL
