MODEL 1
REMARK minimizedAffinity 17.9724464
REMARK minimizedRMSD -1
REMARK  0 active torsions:
REMARK  status: ('A' for Active; 'I' for Inactive)
ROOT
ATOM      1  N1  IND d   1      -3.772  -4.346  -4.990  0.00  0.00    -0.196 N 
ATOM      2  C2  IND d   1      -4.953  -4.012  -5.592  0.00  0.00     0.054 A 
ATOM      3  C3  IND d   1      -5.997  -4.386  -4.820  0.00  0.00    -0.031 A 
ATOM      4  C4  IND d   1      -5.999  -5.469  -2.484  0.00  0.00     0.051 A 
ATOM      5  C5  IND d   1      -5.162  -5.996  -1.541  0.00  0.00    -0.031 A 
ATOM      6  C6  IND d   1      -3.791  -5.997  -1.701  0.00  0.00     0.015 A 
ATOM      7  C7  IND d   1      -3.203  -5.459  -2.810  0.00  0.00    -0.016 A 
ATOM      8  C8  IND d   1      -4.050  -4.930  -3.774  0.00  0.00    -0.047 A 
ATOM      9  C9  IND d   1      -5.444  -4.964  -3.636  0.00  0.00    -0.096 A 
ATOM     10  HN1 IND d   1      -2.987  -4.214  -5.316  0.00  0.00     0.298 HD
ENDROOT
TORSDOF 0
ENDMDL
