MODEL 1
REMARK minimizedAffinity 13.4771662
REMARK minimizedRMSD -1
REMARK  0 active torsions:
REMARK  status: ('A' for Active; 'I' for Inactive)
ROOT
ATOM      1  N1  IND d   1      -5.350  -5.982  -0.059  0.00  0.00    -0.196 N 
ATOM      2  C2  IND d   1      -4.298  -5.999   0.814  0.00  0.00     0.054 A 
ATOM      3  C3  IND d   1      -3.379  -5.072   0.462  0.00  0.00    -0.031 A 
ATOM      4  C4  IND d   1      -3.443  -3.350  -1.451  0.00  0.00     0.051 A 
ATOM      5  C5  IND d   1      -4.182  -2.973  -2.536  0.00  0.00    -0.031 A 
ATOM      6  C6  IND d   1      -5.374  -3.590  -2.857  0.00  0.00     0.015 A 
ATOM      7  C7  IND d   1      -5.879  -4.604  -2.093  0.00  0.00    -0.016 A 
ATOM      8  C8  IND d   1      -5.127  -4.995  -0.994  0.00  0.00    -0.047 A 
ATOM      9  C9  IND d   1      -3.896  -4.401  -0.688  0.00  0.00    -0.096 A 
ATOM     10  HN1 IND d   1      -6.035  -6.500  -0.030  0.00  0.00     0.298 HD
ENDROOT
TORSDOF 0
ENDMDL
