MODEL 1
REMARK minimizedAffinity -4.92967129
REMARK minimizedRMSD -1
REMARK  0 active torsions:
REMARK  status: ('A' for Active; 'I' for Inactive)
ROOT
ATOM      1  C   UNL d   1      -2.481  -2.096   1.950  0.00  0.00     0.023 A 
ATOM      2  C1  UNL d   1      -2.773  -0.733   1.998  0.00  0.00     0.003 A 
ATOM      3  C2  UNL d   1      -1.925   0.187   1.378  0.00  0.00     0.048 A 
ATOM      4  C3  UNL d   1      -0.787  -0.263   0.709  0.00  0.00     0.023 A 
ATOM      5  C4  UNL d   1      -0.491  -1.626   0.658  0.00  0.00     0.048 A 
ATOM      6  C5  UNL d   1      -1.341  -2.542   1.280  0.00  0.00     0.003 A 
ATOM      7  I   UNL d   1       0.476   1.104  -0.215  0.00  0.00    -0.146 I 
ENDROOT
TORSDOF 0
ENDMDL
