MODEL 1
REMARK minimizedAffinity -1.7713238
REMARK minimizedRMSD -1
REMARK  0 active torsions:
REMARK  status: ('A' for Active; 'I' for Inactive)
ROOT
ATOM      1  C   UNL d   1      -2.531  -1.575   2.388  0.00  0.00     0.023 A 
ATOM      2  C1  UNL d   1      -1.403  -2.185   1.838  0.00  0.00     0.003 A 
ATOM      3  C2  UNL d   1      -0.507  -1.438   1.071  0.00  0.00     0.048 A 
ATOM      4  C3  UNL d   1      -0.744  -0.081   0.858  0.00  0.00     0.023 A 
ATOM      5  C4  UNL d   1      -1.871   0.535   1.406  0.00  0.00     0.048 A 
ATOM      6  C5  UNL d   1      -2.764  -0.216   2.172  0.00  0.00     0.003 A 
ATOM      7  I   UNL d   1       0.588   1.033  -0.284  0.00  0.00    -0.146 I 
ENDROOT
TORSDOF 0
ENDMDL
