MODEL 1
REMARK minimizedAffinity -0.120320775
REMARK minimizedRMSD -1
REMARK  0 active torsions:
REMARK  status: ('A' for Active; 'I' for Inactive)
ROOT
ATOM      1  C   UNL d   1      -0.840  -2.457   1.491  0.00  0.00     0.023 A 
ATOM      2  C1  UNL d   1       0.408  -2.550   0.876  0.00  0.00     0.003 A 
ATOM      3  C2  UNL d   1       0.875  -1.503   0.078  0.00  0.00     0.048 A 
ATOM      4  C3  UNL d   1       0.088  -0.365  -0.099  0.00  0.00     0.023 A 
ATOM      5  C4  UNL d   1      -1.161  -0.267   0.516  0.00  0.00     0.048 A 
ATOM      6  C5  UNL d   1      -1.624  -1.317   1.312  0.00  0.00     0.003 A 
ATOM      7  I   UNL d   1       0.781   1.194  -1.285  0.00  0.00    -0.146 I 
ENDROOT
TORSDOF 0
ENDMDL
