MODEL 1
REMARK minimizedAffinity -2.44595122
REMARK minimizedRMSD -1
REMARK  0 active torsions:
REMARK  status: ('A' for Active; 'I' for Inactive)
ROOT
ATOM      1  C   UNL d   1      -1.632  -2.587   1.458  0.00  0.00     0.023 A 
ATOM      2  C1  UNL d   1      -0.367  -2.186   1.888  0.00  0.00     0.003 A 
ATOM      3  C2  UNL d   1       0.221  -1.037   1.355  0.00  0.00     0.048 A 
ATOM      4  C3  UNL d   1      -0.462  -0.293   0.393  0.00  0.00     0.023 A 
ATOM      5  C4  UNL d   1      -1.728  -0.690  -0.039  0.00  0.00     0.048 A 
ATOM      6  C5  UNL d   1      -2.312  -1.840   0.496  0.00  0.00     0.003 A 
ATOM      7  I   UNL d   1       0.411   1.418  -0.402  0.00  0.00    -0.146 I 
ENDROOT
TORSDOF 0
ENDMDL
