MODEL 1
REMARK minimizedAffinity -0.79542625
REMARK minimizedRMSD -1
REMARK  0 active torsions:
REMARK  status: ('A' for Active; 'I' for Inactive)
ROOT
ATOM      1  C   UNL d   1       1.413   0.733  -0.252  0.00  0.00     0.023 A 
ATOM      2  C1  UNL d   1       1.795  -0.546   0.152  0.00  0.00     0.003 A 
ATOM      3  C2  UNL d   1       0.852  -1.416   0.703  0.00  0.00     0.048 A 
ATOM      4  C3  UNL d   1      -0.472  -1.001   0.846  0.00  0.00     0.023 A 
ATOM      5  C4  UNL d   1      -0.859   0.278   0.442  0.00  0.00     0.048 A 
ATOM      6  C5  UNL d   1       0.088   1.145  -0.107  0.00  0.00     0.003 A 
ATOM      7  I   UNL d   1      -1.877  -2.294   1.666  0.00  0.00    -0.146 I 
ENDROOT
TORSDOF 0
ENDMDL
