MODEL 1
REMARK minimizedAffinity -3.04752994
REMARK minimizedRMSD -1
REMARK  0 active torsions:
REMARK  status: ('A' for Active; 'I' for Inactive)
ROOT
ATOM      1  C   UNL d   1       0.639  -2.504   0.442  0.00  0.00     0.023 A 
ATOM      2  C1  UNL d   1      -0.756  -2.491   0.460  0.00  0.00     0.003 A 
ATOM      3  C2  UNL d   1      -1.444  -1.279   0.541  0.00  0.00     0.048 A 
ATOM      4  C3  UNL d   1      -0.731  -0.082   0.603  0.00  0.00     0.023 A 
ATOM      5  C4  UNL d   1       0.665  -0.090   0.585  0.00  0.00     0.048 A 
ATOM      6  C5  UNL d   1       1.348  -1.304   0.504  0.00  0.00     0.003 A 
ATOM      7  I   UNL d   1      -1.752   1.724   0.725  0.00  0.00    -0.146 I 
ENDROOT
TORSDOF 0
ENDMDL
