MODEL 1
REMARK minimizedAffinity -1.09838045
REMARK minimizedRMSD -1
REMARK  0 active torsions:
REMARK  status: ('A' for Active; 'I' for Inactive)
ROOT
ATOM      1  C   UNL d   1      -1.251  -2.811   0.661  0.00  0.00     0.023 A 
ATOM      2  C1  UNL d   1      -2.238  -1.914   0.254  0.00  0.00     0.003 A 
ATOM      3  C2  UNL d   1      -1.903  -0.591  -0.039  0.00  0.00     0.048 A 
ATOM      4  C3  UNL d   1      -0.579  -0.171   0.075  0.00  0.00     0.023 A 
ATOM      5  C4  UNL d   1       0.413  -1.065   0.481  0.00  0.00     0.048 A 
ATOM      6  C5  UNL d   1       0.073  -2.387   0.775  0.00  0.00     0.003 A 
ATOM      7  I   UNL d   1      -0.078   1.798  -0.362  0.00  0.00    -0.146 I 
ENDROOT
TORSDOF 0
ENDMDL
