MODEL 1
REMARK minimizedAffinity -2.6755352
REMARK minimizedRMSD -1
REMARK  0 active torsions:
REMARK  status: ('A' for Active; 'I' for Inactive)
ROOT
ATOM      1  C   UNL d   1      -0.055  -1.913   0.976  0.00  0.00     0.023 A 
ATOM      2  C1  UNL d   1       1.222  -1.524   0.570  0.00  0.00     0.003 A 
ATOM      3  C2  UNL d   1       1.406  -0.310  -0.095  0.00  0.00     0.048 A 
ATOM      4  C3  UNL d   1       0.308   0.511  -0.350  0.00  0.00     0.023 A 
ATOM      5  C4  UNL d   1      -0.971   0.127   0.055  0.00  0.00     0.048 A 
ATOM      6  C5  UNL d   1      -1.150  -1.088   0.719  0.00  0.00     0.003 A 
ATOM      7  I   UNL d   1       0.579   2.318  -1.340  0.00  0.00    -0.146 I 
ENDROOT
TORSDOF 0
ENDMDL
