MODEL 1
REMARK minimizedAffinity -3.61309266
REMARK minimizedRMSD -1
REMARK  0 active torsions:
REMARK  status: ('A' for Active; 'I' for Inactive)
ROOT
ATOM      1  C   UNL d   1      -1.376  -2.769   1.361  0.00  0.00     0.023 A 
ATOM      2  C1  UNL d   1      -2.097  -1.704   0.819  0.00  0.00     0.003 A 
ATOM      3  C2  UNL d   1      -1.424  -0.639   0.217  0.00  0.00     0.048 A 
ATOM      4  C3  UNL d   1      -0.031  -0.645   0.159  0.00  0.00     0.023 A 
ATOM      5  C4  UNL d   1       0.694  -1.708   0.699  0.00  0.00     0.048 A 
ATOM      6  C5  UNL d   1       0.017  -2.771   1.301  0.00  0.00     0.003 A 
ATOM      7  I   UNL d   1       0.972   0.940  -0.737  0.00  0.00    -0.146 I 
ENDROOT
TORSDOF 0
ENDMDL
