MODEL 1
REMARK minimizedAffinity -5.39064693
REMARK minimizedRMSD -1
REMARK  0 active torsions:
REMARK  status: ('A' for Active; 'I' for Inactive)
ROOT
ATOM      1  C   UNL d   1      -1.282  -2.776   1.021  0.00  0.00     0.023 A 
ATOM      2  C1  UNL d   1      -2.117  -1.729   0.631  0.00  0.00     0.003 A 
ATOM      3  C2  UNL d   1      -1.568  -0.535   0.158  0.00  0.00     0.048 A 
ATOM      4  C3  UNL d   1      -0.183  -0.395   0.076  0.00  0.00     0.023 A 
ATOM      5  C4  UNL d   1       0.657  -1.440   0.465  0.00  0.00     0.048 A 
ATOM      6  C5  UNL d   1       0.103  -2.632   0.938  0.00  0.00     0.003 A 
ATOM      7  I   UNL d   1       0.636   1.380  -0.628  0.00  0.00    -0.146 I 
ENDROOT
TORSDOF 0
ENDMDL
