MODEL 1
REMARK minimizedAffinity -5.28421879
REMARK minimizedRMSD -1
REMARK  0 active torsions:
REMARK  status: ('A' for Active; 'I' for Inactive)
ROOT
ATOM      1  C   UNL d   1      -1.387  -2.691   1.083  0.00  0.00     0.023 A 
ATOM      2  C1  UNL d   1      -2.247  -1.687   0.638  0.00  0.00     0.003 A 
ATOM      3  C2  UNL d   1      -1.728  -0.506   0.103  0.00  0.00     0.048 A 
ATOM      4  C3  UNL d   1      -0.346  -0.337   0.015  0.00  0.00     0.023 A 
ATOM      5  C4  UNL d   1       0.518  -1.339   0.457  0.00  0.00     0.048 A 
ATOM      6  C5  UNL d   1      -0.006  -2.517   0.992  0.00  0.00     0.003 A 
ATOM      7  I   UNL d   1       0.430   1.419  -0.781  0.00  0.00    -0.146 I 
ENDROOT
TORSDOF 0
ENDMDL
