MODEL 1
REMARK minimizedAffinity 17.708004
REMARK minimizedRMSD -1
REMARK  0 active torsions:
REMARK  status: ('A' for Active; 'I' for Inactive)
ROOT
ATOM      1  C   UNL d   1      -0.157  -5.946   0.195  0.00  0.00    -0.002 A 
ATOM      2  C1  UNL d   1      -1.352  -5.955   0.900  0.00  0.00     0.010 A 
ATOM      3  C2  UNL d   1      -2.574  -5.971   0.224  0.00  0.00     0.041 A 
ATOM      4  C3  UNL d   1      -2.575  -5.979  -1.184  0.00  0.00    -0.075 A 
ATOM      5  S   UNL d   1      -3.950  -6.000  -2.223  0.00  0.00     0.015 SA
ATOM      6  C4  UNL d   1      -2.983  -5.998  -3.627  0.00  0.00     0.022 A 
ATOM      7  C5  UNL d   1      -1.641  -5.982  -3.329  0.00  0.00     0.026 A 
ATOM      8  C6  UNL d   1      -1.384  -5.971  -1.916  0.00  0.00    -0.082 A 
ATOM      9  C7  UNL d   1      -0.161  -5.954  -1.202  0.00  0.00     0.045 A 
ENDROOT
TORSDOF 0
ENDMDL
