MODEL 1
REMARK minimizedAffinity 18.3371181
REMARK minimizedRMSD -1
REMARK  0 active torsions:
REMARK  status: ('A' for Active; 'I' for Inactive)
ROOT
ATOM      1  C   UNL d   1       3.336   1.578   0.420  0.00  0.00    -0.002 A 
ATOM      2  C1  UNL d   1       3.175   1.962  -0.903  0.00  0.00     0.010 A 
ATOM      3  C2  UNL d   1       2.720   1.050  -1.858  0.00  0.00     0.041 A 
ATOM      4  C3  UNL d   1       2.424  -0.267  -1.455  0.00  0.00    -0.075 A 
ATOM      5  S   UNL d   1       1.852  -1.554  -2.449  0.00  0.00     0.015 SA
ATOM      6  C4  UNL d   1       1.805  -2.644  -1.139  0.00  0.00     0.022 A 
ATOM      7  C5  UNL d   1       2.213  -2.057   0.035  0.00  0.00     0.026 A 
ATOM      8  C6  UNL d   1       2.576  -0.677  -0.127  0.00  0.00    -0.082 A 
ATOM      9  C7  UNL d   1       3.040   0.271   0.816  0.00  0.00     0.045 A 
ENDROOT
TORSDOF 0
ENDMDL
