MODEL 1
REMARK minimizedAffinity 5.53327847
REMARK minimizedRMSD -1
REMARK  0 active torsions:
REMARK  status: ('A' for Active; 'I' for Inactive)
ROOT
ATOM      1  C   UNL d   1       3.754   1.933  -1.093  0.00  0.00    -0.002 A 
ATOM      2  C1  UNL d   1       4.122   1.413  -2.326  0.00  0.00     0.010 A 
ATOM      3  C2  UNL d   1       3.894   0.069  -2.627  0.00  0.00     0.041 A 
ATOM      4  C3  UNL d   1       3.282  -0.752  -1.659  0.00  0.00    -0.075 A 
ATOM      5  S   UNL d   1       2.903  -2.427  -1.805  0.00  0.00     0.015 SA
ATOM      6  C4  UNL d   1       2.243  -2.492  -0.235  0.00  0.00     0.022 A 
ATOM      7  C5  UNL d   1       2.302  -1.274   0.400  0.00  0.00     0.026 A 
ATOM      8  C6  UNL d   1       2.902  -0.251  -0.410  0.00  0.00    -0.082 A 
ATOM      9  C7  UNL d   1       3.148   1.116  -0.135  0.00  0.00     0.045 A 
ENDROOT
TORSDOF 0
ENDMDL
