MODEL 1
REMARK minimizedAffinity 20.1764851
REMARK minimizedRMSD -1
REMARK  0 active torsions:
REMARK  status: ('A' for Active; 'I' for Inactive)
ROOT
ATOM      1  C   UNL d   1       5.717   2.743  -1.543  0.00  0.00    -0.002 A 
ATOM      2  C1  UNL d   1       6.000   2.613  -0.190  0.00  0.00     0.010 A 
ATOM      3  C2  UNL d   1       5.071   2.035   0.677  0.00  0.00     0.041 A 
ATOM      4  C3  UNL d   1       3.842   1.583   0.157  0.00  0.00    -0.075 A 
ATOM      5  S   UNL d   1       2.554   0.842   1.029  0.00  0.00     0.015 SA
ATOM      6  C4  UNL d   1       1.598   0.679  -0.372  0.00  0.00     0.022 A 
ATOM      7  C5  UNL d   1       2.231   1.173  -1.488  0.00  0.00     0.026 A 
ATOM      8  C6  UNL d   1       3.535   1.702  -1.202  0.00  0.00    -0.082 A 
ATOM      9  C7  UNL d   1       4.497   2.294  -2.055  0.00  0.00     0.045 A 
ENDROOT
TORSDOF 0
ENDMDL
