MODEL 1
REMARK minimizedAffinity -4.30147362
REMARK minimizedRMSD -1
REMARK  0 active torsions:
REMARK  status: ('A' for Active; 'I' for Inactive)
ROOT
ATOM      1  C   UNL d   1      -2.393  -2.507   0.513  0.00  0.00     0.023 A 
ATOM      2  C1  UNL d   1      -2.414  -1.453  -0.401  0.00  0.00     0.003 A 
ATOM      3  C2  UNL d   1      -1.422  -0.471  -0.360  0.00  0.00     0.048 A 
ATOM      4  C3  UNL d   1      -0.410  -0.551   0.596  0.00  0.00     0.023 A 
ATOM      5  C4  UNL d   1      -0.383  -1.604   1.511  0.00  0.00     0.048 A 
ATOM      6  C5  UNL d   1      -1.378  -2.583   1.467  0.00  0.00     0.003 A 
ATOM      7  I   UNL d   1       1.068   0.909   0.659  0.00  0.00    -0.146 I 
ENDROOT
TORSDOF 0
ENDMDL
