MODEL 1
REMARK minimizedAffinity -2.18209815
REMARK minimizedRMSD -1
REMARK  0 active torsions:
REMARK  status: ('A' for Active; 'I' for Inactive)
ROOT
ATOM      1  C   UNL d   1      -3.010  -2.909   0.946  0.00  0.00     0.023 A 
ATOM      2  C1  UNL d   1      -1.822  -2.912   1.677  0.00  0.00     0.003 A 
ATOM      3  C2  UNL d   1      -0.864  -1.920   1.459  0.00  0.00     0.048 A 
ATOM      4  C3  UNL d   1      -1.100  -0.928   0.508  0.00  0.00     0.023 A 
ATOM      5  C4  UNL d   1      -2.288  -0.920  -0.225  0.00  0.00     0.048 A 
ATOM      6  C5  UNL d   1      -3.243  -1.915  -0.004  0.00  0.00     0.003 A 
ATOM      7  I   UNL d   1       0.325   0.550   0.181  0.00  0.00    -0.146 I 
ENDROOT
TORSDOF 0
ENDMDL
