MODEL 1
REMARK minimizedAffinity -2.47853541
REMARK minimizedRMSD -1
REMARK  0 active torsions:
REMARK  status: ('A' for Active; 'I' for Inactive)
ROOT
ATOM      1  C   UNL d   1      -2.447  -2.272  -0.011  0.00  0.00     0.023 A 
ATOM      2  C1  UNL d   1      -2.286  -1.201  -0.890  0.00  0.00     0.003 A 
ATOM      3  C2  UNL d   1      -1.160  -0.381  -0.795  0.00  0.00     0.048 A 
ATOM      4  C3  UNL d   1      -0.199  -0.638   0.182  0.00  0.00     0.023 A 
ATOM      5  C4  UNL d   1      -0.355  -1.708   1.064  0.00  0.00     0.048 A 
ATOM      6  C5  UNL d   1      -1.483  -2.525   0.965  0.00  0.00     0.003 A 
ATOM      7  I   UNL d   1       1.479   0.581   0.326  0.00  0.00    -0.146 I 
ENDROOT
TORSDOF 0
ENDMDL
