MODEL 1
REMARK minimizedAffinity -2.82254839
REMARK minimizedRMSD -1
REMARK  0 active torsions:
REMARK  status: ('A' for Active; 'I' for Inactive)
ROOT
ATOM      1  C   UNL d   1      -0.689  -0.392   0.454  0.00  0.00     0.023 A 
ATOM      2  C1  UNL d   1       0.592  -0.652  -0.035  0.00  0.00     0.003 A 
ATOM      3  C2  UNL d   1       1.619   0.272   0.169  0.00  0.00     0.048 A 
ATOM      4  C3  UNL d   1       1.359   1.453   0.864  0.00  0.00     0.023 A 
ATOM      5  C4  UNL d   1       0.079   1.716   1.356  0.00  0.00     0.048 A 
ATOM      6  C5  UNL d   1      -0.945   0.790   1.149  0.00  0.00     0.003 A 
ATOM      7  I   UNL d   1       2.886   2.829   1.170  0.00  0.00    -0.146 I 
ENDROOT
TORSDOF 0
ENDMDL
