MODEL 1
REMARK minimizedAffinity -4.99132824
REMARK minimizedRMSD -1
REMARK  0 active torsions:
REMARK  status: ('A' for Active; 'I' for Inactive)
ROOT
ATOM      1  C   UNL d   1      -2.771  -2.637   0.802  0.00  0.00     0.023 A 
ATOM      2  C1  UNL d   1      -3.207  -1.465   0.185  0.00  0.00     0.003 A 
ATOM      3  C2  UNL d   1      -2.348  -0.368   0.081  0.00  0.00     0.048 A 
ATOM      4  C3  UNL d   1      -1.054  -0.452   0.594  0.00  0.00     0.023 A 
ATOM      5  C4  UNL d   1      -0.613  -1.624   1.211  0.00  0.00     0.048 A 
ATOM      6  C5  UNL d   1      -1.476  -2.717   1.314  0.00  0.00     0.003 A 
ATOM      7  I   UNL d   1       0.225   1.178   0.440  0.00  0.00    -0.146 I 
ENDROOT
TORSDOF 0
ENDMDL
