MODEL 1
REMARK minimizedAffinity -2.85726547
REMARK minimizedRMSD -1
REMARK  0 active torsions:
REMARK  status: ('A' for Active; 'I' for Inactive)
ROOT
ATOM      1  C   UNL d   1      -1.374   0.026  -0.733  0.00  0.00     0.023 A 
ATOM      2  C1  UNL d   1      -1.487   1.387  -0.448  0.00  0.00     0.003 A 
ATOM      3  C2  UNL d   1      -0.428   2.065   0.159  0.00  0.00     0.048 A 
ATOM      4  C3  UNL d   1       0.742   1.376   0.478  0.00  0.00     0.023 A 
ATOM      5  C4  UNL d   1       0.860   0.015   0.194  0.00  0.00     0.048 A 
ATOM      6  C5  UNL d   1      -0.202  -0.659  -0.412  0.00  0.00     0.003 A 
ATOM      7  I   UNL d   1       2.319   2.384   1.382  0.00  0.00    -0.146 I 
ENDROOT
TORSDOF 0
ENDMDL
