MODEL 1
REMARK minimizedAffinity 2.81585574
REMARK minimizedRMSD -1
REMARK  0 active torsions:
REMARK  status: ('A' for Active; 'I' for Inactive)
ROOT
ATOM      1  C   UNL d   1      -1.042  -0.121  -0.850  0.00  0.00     0.023 A 
ATOM      2  C1  UNL d   1      -1.098   1.271  -0.930  0.00  0.00     0.003 A 
ATOM      3  C2  UNL d   1      -0.064   2.044  -0.399  0.00  0.00     0.048 A 
ATOM      4  C3  UNL d   1       1.024   1.419   0.210  0.00  0.00     0.023 A 
ATOM      5  C4  UNL d   1       1.084   0.027   0.293  0.00  0.00     0.048 A 
ATOM      6  C5  UNL d   1       0.047  -0.742  -0.239  0.00  0.00     0.003 A 
ATOM      7  I   UNL d   1       2.565   2.568   1.002  0.00  0.00    -0.146 I 
ENDROOT
TORSDOF 0
ENDMDL
