MODEL 1
REMARK minimizedAffinity -2.1830039
REMARK minimizedRMSD -1
REMARK  0 active torsions:
REMARK  status: ('A' for Active; 'I' for Inactive)
ROOT
ATOM      1  C   UNL d   1      -2.710  -0.611  -1.455  0.00  0.00     0.023 A 
ATOM      2  C1  UNL d   1      -1.609  -0.165  -2.187  0.00  0.00     0.003 A 
ATOM      3  C2  UNL d   1      -0.457   0.264  -1.526  0.00  0.00     0.048 A 
ATOM      4  C3  UNL d   1      -0.411   0.244  -0.132  0.00  0.00     0.023 A 
ATOM      5  C4  UNL d   1      -1.510  -0.202   0.604  0.00  0.00     0.048 A 
ATOM      6  C5  UNL d   1      -2.660  -0.629  -0.061  0.00  0.00     0.003 A 
ATOM      7  I   UNL d   1       1.304   0.882   0.854  0.00  0.00    -0.146 I 
ENDROOT
TORSDOF 0
ENDMDL
