MODEL 1
REMARK minimizedAffinity -3.40237188
REMARK minimizedRMSD -1
REMARK  0 active torsions:
REMARK  status: ('A' for Active; 'I' for Inactive)
ROOT
ATOM      1  C   UNL d   1      -2.987  -0.511  -0.479  0.00  0.00     0.023 A 
ATOM      2  C1  UNL d   1      -2.500  -0.582   0.826  0.00  0.00     0.003 A 
ATOM      3  C2  UNL d   1      -1.165  -0.269   1.092  0.00  0.00     0.048 A 
ATOM      4  C3  UNL d   1      -0.324   0.116   0.049  0.00  0.00     0.023 A 
ATOM      5  C4  UNL d   1      -0.807   0.189  -1.258  0.00  0.00     0.048 A 
ATOM      6  C5  UNL d   1      -2.142  -0.126  -1.520  0.00  0.00     0.003 A 
ATOM      7  I   UNL d   1       1.663   0.583   0.443  0.00  0.00    -0.146 I 
ENDROOT
TORSDOF 0
ENDMDL
