MODEL 1
REMARK minimizedAffinity -3.74454188
REMARK minimizedRMSD -1
REMARK  0 active torsions:
REMARK  status: ('A' for Active; 'I' for Inactive)
ROOT
ATOM      1  C   UNL d   1      -2.791  -1.124  -0.488  0.00  0.00     0.023 A 
ATOM      2  C1  UNL d   1      -2.268  -1.373   0.781  0.00  0.00     0.003 A 
ATOM      3  C2  UNL d   1      -0.966  -0.977   1.092  0.00  0.00     0.048 A 
ATOM      4  C3  UNL d   1      -0.191  -0.332   0.128  0.00  0.00     0.023 A 
ATOM      5  C4  UNL d   1      -0.710  -0.080  -1.143  0.00  0.00     0.048 A 
ATOM      6  C5  UNL d   1      -2.013  -0.478  -1.449  0.00  0.00     0.003 A 
ATOM      7  I   UNL d   1       1.748   0.259   0.587  0.00  0.00    -0.146 I 
ENDROOT
TORSDOF 0
ENDMDL
