MODEL 1
REMARK minimizedAffinity -3.62372684
REMARK minimizedRMSD -1
REMARK  0 active torsions:
REMARK  status: ('A' for Active; 'I' for Inactive)
ROOT
ATOM      1  C   UNL d   1      -2.506  -0.561  -1.126  0.00  0.00     0.023 A 
ATOM      2  C1  UNL d   1      -1.940  -1.258  -0.059  0.00  0.00     0.003 A 
ATOM      3  C2  UNL d   1      -0.672  -0.910   0.411  0.00  0.00     0.048 A 
ATOM      4  C3  UNL d   1       0.024   0.139  -0.190  0.00  0.00     0.023 A 
ATOM      5  C4  UNL d   1      -0.539   0.840  -1.258  0.00  0.00     0.048 A 
ATOM      6  C5  UNL d   1      -1.806   0.487  -1.724  0.00  0.00     0.003 A 
ATOM      7  I   UNL d   1       1.911   0.660   0.507  0.00  0.00    -0.146 I 
ENDROOT
TORSDOF 0
ENDMDL
