MODEL 1
REMARK minimizedAffinity -4.04282379
REMARK minimizedRMSD -1
REMARK  0 active torsions:
REMARK  status: ('A' for Active; 'I' for Inactive)
ROOT
ATOM      1  C   UNL d   1      -2.423  -2.845   1.604  0.00  0.00     0.023 A 
ATOM      2  C1  UNL d   1      -1.129  -2.378   1.837  0.00  0.00     0.003 A 
ATOM      3  C2  UNL d   1      -0.600  -1.359   1.043  0.00  0.00     0.048 A 
ATOM      4  C3  UNL d   1      -1.370  -0.810   0.019  0.00  0.00     0.023 A 
ATOM      5  C4  UNL d   1      -2.665  -1.273  -0.218  0.00  0.00     0.048 A 
ATOM      6  C5  UNL d   1      -3.190  -2.293   0.578  0.00  0.00     0.003 A 
ATOM      7  I   UNL d   1      -0.584   0.708  -1.164  0.00  0.00    -0.146 I 
ENDROOT
TORSDOF 0
ENDMDL
