MODEL 1
REMARK minimizedAffinity -4.1860342
REMARK minimizedRMSD -1
REMARK  1 active torsions:
REMARK  status: ('A' for Active; 'I' for Inactive)
REMARK    1  A    between atoms: C1_2  and  C2_3 
ROOT
ATOM      1  C2  UNL d   1       0.690  -1.606  -0.562  0.00  0.00    -0.073 A 
ATOM      2  C3  UNL d   1       1.432  -0.574  -1.146  0.00  0.00    -0.002 A 
ATOM      3  C4  UNL d   1       1.195   0.754  -0.788  0.00  0.00     0.004 A 
ATOM      4  C5  UNL d   1       0.222   1.063   0.162  0.00  0.00    -0.004 A 
ATOM      5  C6  UNL d   1      -0.522   0.044   0.766  0.00  0.00    -0.075 A 
ATOM      6  C7  UNL d   1      -1.575   0.359   1.788  0.00  0.00     0.076 C 
ATOM      7  C8  UNL d   1      -0.281  -1.287   0.399  0.00  0.00     0.001 A 
ENDROOT
BRANCH   1   8
ATOM      8  C1  UNL d   1       0.946  -3.042  -0.940  0.00  0.00     0.053 C 
ATOM      9  C   UNL d   1       2.332  -3.236  -1.535  0.00  0.00     0.018 C 
ENDBRANCH   1   8
TORSDOF 1
ENDMDL
