MODEL 1
REMARK minimizedAffinity -5.02343941
REMARK minimizedRMSD -1
REMARK  1 active torsions:
REMARK  status: ('A' for Active; 'I' for Inactive)
REMARK    1  A    between atoms: C1_2  and  C2_3 
ROOT
ATOM      1  C2  UNL d   1       1.171  -0.435  -0.951  0.00  0.00    -0.073 A 
ATOM      2  C3  UNL d   1       1.072  -1.829  -0.876  0.00  0.00    -0.002 A 
ATOM      3  C4  UNL d   1       0.122  -2.423  -0.043  0.00  0.00     0.004 A 
ATOM      4  C5  UNL d   1      -0.740  -1.632   0.715  0.00  0.00    -0.004 A 
ATOM      5  C6  UNL d   1      -0.664  -0.237   0.644  0.00  0.00    -0.075 A 
ATOM      6  C7  UNL d   1      -1.583   0.628   1.455  0.00  0.00     0.076 C 
ATOM      7  C8  UNL d   1       0.294   0.352  -0.192  0.00  0.00     0.001 A 
ENDROOT
BRANCH   1   8
ATOM      8  C1  UNL d   1       2.191   0.211  -1.854  0.00  0.00     0.053 C 
ATOM      9  C   UNL d   1       2.623  -0.714  -2.980  0.00  0.00     0.018 C 
ENDBRANCH   1   8
TORSDOF 1
ENDMDL
