MODEL 1
REMARK minimizedAffinity -3.58443165
REMARK minimizedRMSD -1
REMARK  1 active torsions:
REMARK  status: ('A' for Active; 'I' for Inactive)
REMARK    1  A    between atoms: C1_2  and  C2_3 
ROOT
ATOM      1  C2  UNL d   1       0.674  -1.557  -0.296  0.00  0.00    -0.073 A 
ATOM      2  C3  UNL d   1      -0.264  -1.482   0.739  0.00  0.00    -0.002 A 
ATOM      3  C4  UNL d   1      -0.664  -0.242   1.239  0.00  0.00     0.004 A 
ATOM      4  C5  UNL d   1      -0.136   0.934   0.704  0.00  0.00    -0.004 A 
ATOM      5  C6  UNL d   1       0.794   0.879  -0.339  0.00  0.00    -0.075 A 
ATOM      6  C7  UNL d   1       1.373   2.134  -0.923  0.00  0.00     0.076 C 
ATOM      7  C8  UNL d   1       1.192  -0.370  -0.833  0.00  0.00     0.001 A 
ENDROOT
BRANCH   1   8
ATOM      8  C1  UNL d   1       1.104  -2.894  -0.843  0.00  0.00     0.053 C 
ATOM      9  C   UNL d   1       2.512  -2.849  -1.415  0.00  0.00     0.018 C 
ENDBRANCH   1   8
TORSDOF 1
ENDMDL
