MODEL 1
REMARK minimizedAffinity -1.54430556
REMARK minimizedRMSD -1
REMARK  1 active torsions:
REMARK  status: ('A' for Active; 'I' for Inactive)
REMARK    1  A    between atoms: C1_2  and  C2_3 
ROOT
ATOM      1  C2  UNL d   1      -3.298   4.040  -5.710  0.00  0.00    -0.073 A 
ATOM      2  C3  UNL d   1      -1.905   4.110  -5.588  0.00  0.00    -0.002 A 
ATOM      3  C4  UNL d   1      -1.157   2.953  -5.369  0.00  0.00     0.004 A 
ATOM      4  C5  UNL d   1      -1.792   1.714  -5.277  0.00  0.00    -0.004 A 
ATOM      5  C6  UNL d   1      -3.181   1.622  -5.408  0.00  0.00    -0.075 A 
ATOM      6  C7  UNL d   1      -3.879   0.297  -5.309  0.00  0.00     0.076 C 
ATOM      7  C8  UNL d   1      -3.926   2.789  -5.625  0.00  0.00     0.001 A 
ENDROOT
BRANCH   1   8
ATOM      8  C1  UNL d   1      -4.109   5.287  -5.953  0.00  0.00     0.053 C 
ATOM      9  C   UNL d   1      -5.601   4.997  -5.995  0.00  0.00     0.018 C 
ENDBRANCH   1   8
TORSDOF 1
ENDMDL
