MODEL 1
REMARK minimizedAffinity 5.24853945
REMARK minimizedRMSD -1
REMARK  1 active torsions:
REMARK  status: ('A' for Active; 'I' for Inactive)
REMARK    1  A    between atoms: C1_2  and  C2_3 
ROOT
ATOM      1  C2  UNL d   1       0.627   1.734  -2.996  0.00  0.00    -0.073 A 
ATOM      2  C3  UNL d   1       1.387   0.595  -2.704  0.00  0.00    -0.002 A 
ATOM      3  C4  UNL d   1       2.112   0.517  -1.514  0.00  0.00     0.004 A 
ATOM      4  C5  UNL d   1       2.079   1.572  -0.602  0.00  0.00    -0.004 A 
ATOM      5  C6  UNL d   1       1.316   2.713  -0.870  0.00  0.00    -0.075 A 
ATOM      6  C7  UNL d   1       1.273   3.857   0.100  0.00  0.00     0.076 C 
ATOM      7  C8  UNL d   1       0.593   2.785  -2.068  0.00  0.00     0.001 A 
ENDROOT
BRANCH   1   8
ATOM      8  C1  UNL d   1      -0.162   1.820  -4.276  0.00  0.00     0.053 C 
ATOM      9  C   UNL d   1      -1.630   2.126  -4.022  0.00  0.00     0.018 C 
ENDBRANCH   1   8
TORSDOF 1
ENDMDL
