MODEL 1
REMARK minimizedAffinity 2.49926305
REMARK minimizedRMSD -1
REMARK  1 active torsions:
REMARK  status: ('A' for Active; 'I' for Inactive)
REMARK    1  A    between atoms: C1_2  and  C2_3 
ROOT
ATOM      1  C2  UNL d   1       1.156   0.204  -0.410  0.00  0.00    -0.073 A 
ATOM      2  C3  UNL d   1       1.861  -0.296  -1.511  0.00  0.00    -0.002 A 
ATOM      3  C4  UNL d   1       2.386   0.575  -2.466  0.00  0.00     0.004 A 
ATOM      4  C5  UNL d   1       2.218   1.953  -2.327  0.00  0.00    -0.004 A 
ATOM      5  C6  UNL d   1       1.527   2.472  -1.228  0.00  0.00    -0.075 A 
ATOM      6  C7  UNL d   1       1.336   3.952  -1.065  0.00  0.00     0.076 C 
ATOM      7  C8  UNL d   1       1.000   1.591  -0.274  0.00  0.00     0.001 A 
ENDROOT
BRANCH   1   8
ATOM      8  C1  UNL d   1       0.593  -0.733   0.628  0.00  0.00     0.053 C 
ATOM      9  C   UNL d   1       0.168  -2.062   0.025  0.00  0.00     0.018 C 
ENDBRANCH   1   8
TORSDOF 1
ENDMDL
