MODEL 1
REMARK minimizedAffinity 9.63736439
REMARK minimizedRMSD -1
REMARK  1 active torsions:
REMARK  status: ('A' for Active; 'I' for Inactive)
REMARK    1  A    between atoms: C1_2  and  C2_3 
ROOT
ATOM      1  C2  UNL d   1       1.961  -1.152  -1.328  0.00  0.00    -0.073 A 
ATOM      2  C3  UNL d   1       2.596  -2.249  -1.921  0.00  0.00    -0.002 A 
ATOM      3  C4  UNL d   1       2.068  -3.533  -1.774  0.00  0.00     0.004 A 
ATOM      4  C5  UNL d   1       0.898  -3.731  -1.040  0.00  0.00    -0.004 A 
ATOM      5  C6  UNL d   1       0.243  -2.645  -0.450  0.00  0.00    -0.075 A 
ATOM      6  C7  UNL d   1      -1.014  -2.842   0.345  0.00  0.00     0.076 C 
ATOM      7  C8  UNL d   1       0.781  -1.360  -0.600  0.00  0.00     0.001 A 
ENDROOT
BRANCH   1   8
ATOM      8  C1  UNL d   1       2.524   0.237  -1.490  0.00  0.00     0.053 C 
ATOM      9  C   UNL d   1       1.683   1.087  -2.429  0.00  0.00     0.018 C 
ENDBRANCH   1   8
TORSDOF 1
ENDMDL
