MODEL 1
REMARK minimizedAffinity 2.50670242
REMARK minimizedRMSD -1
REMARK  1 active torsions:
REMARK  status: ('A' for Active; 'I' for Inactive)
REMARK    1  A    between atoms: C1_2  and  C2_3 
ROOT
ATOM      1  C2  UNL d   1       0.853   1.251   0.332  0.00  0.00    -0.073 A 
ATOM      2  C3  UNL d   1       0.534   0.620   1.539  0.00  0.00    -0.002 A 
ATOM      3  C4  UNL d   1       0.022  -0.678   1.542  0.00  0.00     0.004 A 
ATOM      4  C5  UNL d   1      -0.169  -1.360   0.340  0.00  0.00    -0.004 A 
ATOM      5  C6  UNL d   1       0.154  -0.750  -0.876  0.00  0.00    -0.075 A 
ATOM      6  C7  UNL d   1      -0.048  -1.469  -2.178  0.00  0.00     0.076 C 
ATOM      7  C8  UNL d   1       0.665   0.555  -0.871  0.00  0.00     0.001 A 
ENDROOT
BRANCH   1   8
ATOM      8  C1  UNL d   1       1.412   2.651   0.324  0.00  0.00     0.053 C 
ATOM      9  C   UNL d   1       2.457   2.853   1.410  0.00  0.00     0.018 C 
ENDBRANCH   1   8
TORSDOF 1
ENDMDL
