MODEL 1
REMARK minimizedAffinity 3.83183622
REMARK minimizedRMSD -1
REMARK  1 active torsions:
REMARK  status: ('A' for Active; 'I' for Inactive)
REMARK    1  A    between atoms: C1_2  and  C2_3 
ROOT
ATOM      1  C2  UNL d   1       4.037  -1.484  -2.357  0.00  0.00    -0.073 A 
ATOM      2  C3  UNL d   1       4.335  -2.702  -1.736  0.00  0.00    -0.002 A 
ATOM      3  C4  UNL d   1       4.767  -3.792  -2.493  0.00  0.00     0.004 A 
ATOM      4  C5  UNL d   1       4.910  -3.673  -3.876  0.00  0.00    -0.004 A 
ATOM      5  C6  UNL d   1       4.628  -2.461  -4.513  0.00  0.00    -0.075 A 
ATOM      6  C7  UNL d   1       4.775  -2.317  -5.999  0.00  0.00     0.076 C 
ATOM      7  C8  UNL d   1       4.193  -1.371  -3.746  0.00  0.00     0.001 A 
ENDROOT
BRANCH   1   8
ATOM      8  C1  UNL d   1       3.577  -0.302  -1.542  0.00  0.00     0.053 C 
ATOM      9  C   UNL d   1       2.935   0.771  -2.407  0.00  0.00     0.018 C 
ENDBRANCH   1   8
TORSDOF 1
ENDMDL
