MODEL 1
REMARK minimizedAffinity -4.51910925
REMARK minimizedRMSD -1
REMARK  1 active torsions:
REMARK  status: ('A' for Active; 'I' for Inactive)
REMARK    1  A    between atoms: C1_2  and  C2_3 
ROOT
ATOM      1  C2  UNL d   1      -0.521   0.115   1.006  0.00  0.00    -0.073 A 
ATOM      2  C3  UNL d   1      -0.789  -1.161   0.499  0.00  0.00    -0.002 A 
ATOM      3  C4  UNL d   1      -2.071  -1.703   0.596  0.00  0.00     0.004 A 
ATOM      4  C5  UNL d   1      -3.099  -0.973   1.193  0.00  0.00    -0.004 A 
ATOM      5  C6  UNL d   1      -2.853   0.309   1.695  0.00  0.00    -0.075 A 
ATOM      6  C7  UNL d   1      -3.947   1.106   2.343  0.00  0.00     0.076 C 
ATOM      7  C8  UNL d   1      -1.562   0.845   1.597  0.00  0.00     0.001 A 
ENDROOT
BRANCH   1   8
ATOM      8  C1  UNL d   1       0.861   0.707   0.898  0.00  0.00     0.053 C 
ATOM      9  C   UNL d   1       1.132   1.271  -0.487  0.00  0.00     0.018 C 
ENDBRANCH   1   8
TORSDOF 1
ENDMDL
