MODEL 1
REMARK minimizedAffinity -2.02357292
REMARK minimizedRMSD -1
REMARK  1 active torsions:
REMARK  status: ('A' for Active; 'I' for Inactive)
REMARK    1  A    between atoms: C1_2  and  C2_3 
ROOT
ATOM      1  C2  UNL d   1      -1.618   0.765   1.246  0.00  0.00    -0.073 A 
ATOM      2  C3  UNL d   1      -0.834   1.804   0.733  0.00  0.00    -0.002 A 
ATOM      3  C4  UNL d   1       0.327   1.522   0.013  0.00  0.00     0.004 A 
ATOM      4  C5  UNL d   1       0.712   0.200  -0.207  0.00  0.00    -0.004 A 
ATOM      5  C6  UNL d   1      -0.064  -0.853   0.287  0.00  0.00    -0.075 A 
ATOM      6  C7  UNL d   1       0.337  -2.281   0.060  0.00  0.00     0.076 C 
ATOM      7  C8  UNL d   1      -1.228  -0.561   1.012  0.00  0.00     0.001 A 
ENDROOT
BRANCH   1   8
ATOM      8  C1  UNL d   1      -2.877   1.065   2.019  0.00  0.00     0.053 C 
ATOM      9  C   UNL d   1      -4.096   0.395   1.405  0.00  0.00     0.018 C 
ENDBRANCH   1   8
TORSDOF 1
ENDMDL
