MODEL 1
REMARK minimizedAffinity 5.69275331
REMARK minimizedRMSD -1
REMARK  2 active torsions:
REMARK  status: ('A' for Active; 'I' for Inactive)
REMARK    1  A    between atoms: C1_2  and  C2_3 
REMARK    2  A    between atoms: C2_3  and  C3_4 
ROOT
ATOM      1  C3  UNL d   1       0.268   0.198  -0.698  0.00  0.00    -0.075 A 
ATOM      2  C4  UNL d   1      -0.842  -0.436  -0.121  0.00  0.00     0.002 A 
ATOM      3  C5  UNL d   1      -0.787  -1.787   0.223  0.00  0.00     0.002 A 
ATOM      4  C6  UNL d   1       0.372  -2.523  -0.015  0.00  0.00    -0.004 A 
ATOM      5  C7  UNL d   1       1.475  -1.907  -0.603  0.00  0.00     0.002 A 
ATOM      6  C8  UNL d   1       1.424  -0.554  -0.944  0.00  0.00     0.002 A 
ENDROOT
BRANCH   1   7
ATOM      7  C2  UNL d   1       0.225   1.667  -1.045  0.00  0.00     0.056 C 
BRANCH   7   8
ATOM      8  C1  UNL d   1       1.131   2.541  -0.172  0.00  0.00     0.007 C 
ATOM      9  C   UNL d   1       0.397   3.192   0.993  0.00  0.00     0.009 C 
ENDBRANCH   7   8
ENDBRANCH   1   7
TORSDOF 2
ENDMDL
