MODEL 1
REMARK minimizedAffinity 3.18601727
REMARK minimizedRMSD -1
REMARK  2 active torsions:
REMARK  status: ('A' for Active; 'I' for Inactive)
REMARK    1  A    between atoms: C1_2  and  C2_3 
REMARK    2  A    between atoms: C2_3  and  C3_4 
ROOT
ATOM      1  C3  UNL d   1       1.413  -1.116  -1.502  0.00  0.00    -0.075 A 
ATOM      2  C4  UNL d   1       1.799  -1.322  -2.834  0.00  0.00     0.002 A 
ATOM      3  C5  UNL d   1       1.738  -0.279  -3.759  0.00  0.00     0.002 A 
ATOM      4  C6  UNL d   1       1.282   0.977  -3.367  0.00  0.00    -0.004 A 
ATOM      5  C7  UNL d   1       0.880   1.189  -2.050  0.00  0.00     0.002 A 
ATOM      6  C8  UNL d   1       0.944   0.149  -1.122  0.00  0.00     0.002 A 
ENDROOT
BRANCH   1   7
ATOM      7  C2  UNL d   1       1.504  -2.232  -0.489  0.00  0.00     0.056 C 
BRANCH   7   8
ATOM      8  C1  UNL d   1       0.274  -2.356   0.416  0.00  0.00     0.007 C 
ATOM      9  C   UNL d   1      -0.962  -2.859  -0.317  0.00  0.00     0.009 C 
ENDBRANCH   7   8
ENDBRANCH   1   7
TORSDOF 2
ENDMDL
