MODEL 1
REMARK minimizedAffinity -2.37759161
REMARK minimizedRMSD -1
REMARK  2 active torsions:
REMARK  status: ('A' for Active; 'I' for Inactive)
REMARK    1  A    between atoms: C1_2  and  C2_3 
REMARK    2  A    between atoms: C2_3  and  C3_4 
ROOT
ATOM      1  C3  UNL d   1       0.381   0.003  -0.750  0.00  0.00    -0.075 A 
ATOM      2  C4  UNL d   1       1.596  -0.641  -1.029  0.00  0.00     0.002 A 
ATOM      3  C5  UNL d   1       1.721  -2.021  -0.861  0.00  0.00     0.002 A 
ATOM      4  C6  UNL d   1       0.640  -2.771  -0.403  0.00  0.00    -0.004 A 
ATOM      5  C7  UNL d   1      -0.566  -2.139  -0.107  0.00  0.00     0.002 A 
ATOM      6  C8  UNL d   1      -0.696  -0.760  -0.278  0.00  0.00     0.002 A 
ENDROOT
BRANCH   1   7
ATOM      7  C2  UNL d   1       0.231   1.491  -0.958  0.00  0.00     0.056 C 
BRANCH   7   8
ATOM      8  C1  UNL d   1       1.228   2.336  -0.159  0.00  0.00     0.007 C 
ATOM      9  C   UNL d   1       0.558   3.389   0.714  0.00  0.00     0.009 C 
ENDBRANCH   7   8
ENDBRANCH   1   7
TORSDOF 2
ENDMDL
