MODEL 1
REMARK minimizedAffinity 2.18565583
REMARK minimizedRMSD -1
REMARK  2 active torsions:
REMARK  status: ('A' for Active; 'I' for Inactive)
REMARK    1  A    between atoms: C1_2  and  C2_3 
REMARK    2  A    between atoms: C2_3  and  C3_4 
ROOT
ATOM      1  C3  UNL d   1       0.400   0.755  -0.334  0.00  0.00    -0.075 A 
ATOM      2  C4  UNL d   1       1.241  -0.363  -0.427  0.00  0.00     0.002 A 
ATOM      3  C5  UNL d   1       0.790  -1.623  -0.034  0.00  0.00     0.002 A 
ATOM      4  C6  UNL d   1      -0.501  -1.780   0.466  0.00  0.00    -0.004 A 
ATOM      5  C7  UNL d   1      -1.340  -0.673   0.579  0.00  0.00     0.002 A 
ATOM      6  C8  UNL d   1      -0.893   0.589   0.182  0.00  0.00     0.002 A 
ENDROOT
BRANCH   1   7
ATOM      7  C2  UNL d   1       0.872   2.117  -0.786  0.00  0.00     0.056 C 
BRANCH   7   8
ATOM      8  C1  UNL d   1       1.704   2.867   0.260  0.00  0.00     0.007 C 
ATOM      9  C   UNL d   1       0.855   3.602   1.288  0.00  0.00     0.009 C 
ENDBRANCH   7   8
ENDBRANCH   1   7
TORSDOF 2
ENDMDL
