MODEL 1
REMARK minimizedAffinity 3.48685217
REMARK minimizedRMSD -1
REMARK  2 active torsions:
REMARK  status: ('A' for Active; 'I' for Inactive)
REMARK    1  A    between atoms: C1_2  and  C2_3 
REMARK    2  A    between atoms: C2_3  and  C3_4 
ROOT
ATOM      1  C3  UNL d   1      -0.614  -1.127   0.126  0.00  0.00    -0.075 A 
ATOM      2  C4  UNL d   1      -0.215  -2.471   0.142  0.00  0.00     0.002 A 
ATOM      3  C5  UNL d   1       0.980  -2.863  -0.462  0.00  0.00     0.002 A 
ATOM      4  C6  UNL d   1       1.784  -1.921  -1.098  0.00  0.00    -0.004 A 
ATOM      5  C7  UNL d   1       1.390  -0.585  -1.134  0.00  0.00     0.002 A 
ATOM      6  C8  UNL d   1       0.197  -0.189  -0.527  0.00  0.00     0.002 A 
ENDROOT
BRANCH   1   7
ATOM      7  C2  UNL d   1      -1.891  -0.691   0.803  0.00  0.00     0.056 C 
BRANCH   7   8
ATOM      8  C1  UNL d   1      -1.756  -0.486   2.316  0.00  0.00     0.007 C 
ATOM      9  C   UNL d   1      -3.075  -0.638   3.062  0.00  0.00     0.009 C 
ENDBRANCH   7   8
ENDBRANCH   1   7
TORSDOF 2
ENDMDL
