MODEL 1
REMARK minimizedAffinity 3.84281826
REMARK minimizedRMSD -1
REMARK  2 active torsions:
REMARK  status: ('A' for Active; 'I' for Inactive)
REMARK    1  A    between atoms: C1_2  and  C2_3 
REMARK    2  A    between atoms: C2_3  and  C3_4 
ROOT
ATOM      1  C3  UNL d   1       1.522  -1.003  -1.874  0.00  0.00    -0.075 A 
ATOM      2  C4  UNL d   1       0.615  -0.181  -1.190  0.00  0.00     0.002 A 
ATOM      3  C5  UNL d   1      -0.027  -0.640  -0.039  0.00  0.00     0.002 A 
ATOM      4  C6  UNL d   1       0.220  -1.926   0.435  0.00  0.00    -0.004 A 
ATOM      5  C7  UNL d   1       1.107  -2.757  -0.246  0.00  0.00     0.002 A 
ATOM      6  C8  UNL d   1       1.754  -2.300  -1.395  0.00  0.00     0.002 A 
ENDROOT
BRANCH   1   7
ATOM      7  C2  UNL d   1       2.242  -0.503  -3.103  0.00  0.00     0.056 C 
BRANCH   7   8
ATOM      8  C1  UNL d   1       1.344   0.252  -4.089  0.00  0.00     0.007 C 
ATOM      9  C   UNL d   1       1.788   1.690  -4.325  0.00  0.00     0.009 C 
ENDBRANCH   7   8
ENDBRANCH   1   7
TORSDOF 2
ENDMDL
