MODEL 1
REMARK minimizedAffinity 1.67588711
REMARK minimizedRMSD -1
REMARK  2 active torsions:
REMARK  status: ('A' for Active; 'I' for Inactive)
REMARK    1  A    between atoms: C1_2  and  C2_3 
REMARK    2  A    between atoms: C2_3  and  C3_4 
ROOT
ATOM      1  C3  UNL d   1       1.477  -0.251  -3.973  0.00  0.00    -0.075 A 
ATOM      2  C4  UNL d   1       1.834  -0.258  -2.617  0.00  0.00     0.002 A 
ATOM      3  C5  UNL d   1       1.629  -1.396  -1.837  0.00  0.00     0.002 A 
ATOM      4  C6  UNL d   1       1.055  -2.535  -2.398  0.00  0.00    -0.004 A 
ATOM      5  C7  UNL d   1       0.681  -2.533  -3.739  0.00  0.00     0.002 A 
ATOM      6  C8  UNL d   1       0.889  -1.397  -4.524  0.00  0.00     0.002 A 
ENDROOT
BRANCH   1   7
ATOM      7  C2  UNL d   1       1.724   0.967  -4.831  0.00  0.00     0.056 C 
BRANCH   7   8
ATOM      8  C1  UNL d   1       1.540   2.298  -4.092  0.00  0.00     0.007 C 
ATOM      9  C   UNL d   1       1.368   3.486  -5.030  0.00  0.00     0.009 C 
ENDBRANCH   7   8
ENDBRANCH   1   7
TORSDOF 2
ENDMDL
