MODEL 1
REMARK minimizedAffinity 4.40086603
REMARK minimizedRMSD -1
REMARK  2 active torsions:
REMARK  status: ('A' for Active; 'I' for Inactive)
REMARK    1  A    between atoms: C1_2  and  C2_3 
REMARK    2  A    between atoms: C2_3  and  C3_4 
ROOT
ATOM      1  C3  UNL d   1       0.363  -0.342  -0.966  0.00  0.00    -0.075 A 
ATOM      2  C4  UNL d   1      -0.671  -0.745  -0.108  0.00  0.00     0.002 A 
ATOM      3  C5  UNL d   1      -0.732  -2.058   0.360  0.00  0.00     0.002 A 
ATOM      4  C6  UNL d   1       0.231  -2.985  -0.031  0.00  0.00    -0.004 A 
ATOM      5  C7  UNL d   1       1.253  -2.601  -0.896  0.00  0.00     0.002 A 
ATOM      6  C8  UNL d   1       1.319  -1.287  -1.362  0.00  0.00     0.002 A 
ENDROOT
BRANCH   1   7
ATOM      7  C2  UNL d   1       0.451   1.084  -1.453  0.00  0.00     0.056 C 
BRANCH   7   8
ATOM      8  C1  UNL d   1       0.060   2.128  -0.401  0.00  0.00     0.007 C 
ATOM      9  C   UNL d   1       1.161   3.143  -0.124  0.00  0.00     0.009 C 
ENDBRANCH   7   8
ENDBRANCH   1   7
TORSDOF 2
ENDMDL
