MODEL 1
REMARK minimizedAffinity 3.56629014
REMARK minimizedRMSD -1
REMARK  2 active torsions:
REMARK  status: ('A' for Active; 'I' for Inactive)
REMARK    1  A    between atoms: C1_2  and  C2_3 
REMARK    2  A    between atoms: C2_3  and  C3_4 
ROOT
ATOM      1  C3  UNL d   1       5.084   1.369   5.486  0.00  0.00    -0.075 A 
ATOM      2  C4  UNL d   1       5.999   2.300   5.999  0.00  0.00     0.002 A 
ATOM      3  C5  UNL d   1       6.000   3.618   5.541  0.00  0.00     0.002 A 
ATOM      4  C6  UNL d   1       5.096   4.018   4.559  0.00  0.00    -0.004 A 
ATOM      5  C7  UNL d   1       4.195   3.098   4.030  0.00  0.00     0.002 A 
ATOM      6  C8  UNL d   1       4.188   1.779   4.490  0.00  0.00     0.002 A 
ENDROOT
BRANCH   1   7
ATOM      7  C2  UNL d   1       5.058  -0.051   5.998  0.00  0.00     0.056 C 
BRANCH   7   8
ATOM      8  C1  UNL d   1       5.811  -1.048   5.111  0.00  0.00     0.007 C 
ATOM      9  C   UNL d   1       5.755  -2.478   5.633  0.00  0.00     0.009 C 
ENDBRANCH   7   8
ENDBRANCH   1   7
TORSDOF 2
ENDMDL
