MODEL 1
REMARK minimizedAffinity -3.72354221
REMARK minimizedRMSD -1
REMARK  2 active torsions:
REMARK  status: ('A' for Active; 'I' for Inactive)
REMARK    1  A    between atoms: C1_2  and  C2_3 
REMARK    2  A    between atoms: C2_3  and  C3_4 
ROOT
ATOM      1  C3  UNL d   1       0.698   0.267  -1.094  0.00  0.00    -0.075 A 
ATOM      2  C4  UNL d   1       0.643  -0.831  -0.222  0.00  0.00     0.002 A 
ATOM      3  C5  UNL d   1       1.094  -2.085  -0.634  0.00  0.00     0.002 A 
ATOM      4  C6  UNL d   1       1.596  -2.260  -1.922  0.00  0.00    -0.004 A 
ATOM      5  C7  UNL d   1       1.640  -1.181  -2.801  0.00  0.00     0.002 A 
ATOM      6  C8  UNL d   1       1.193   0.077  -2.390  0.00  0.00     0.002 A 
ENDROOT
BRANCH   1   7
ATOM      7  C2  UNL d   1       0.239   1.633  -0.645  0.00  0.00     0.056 C 
BRANCH   7   8
ATOM      8  C1  UNL d   1       1.344   2.487  -0.013  0.00  0.00     0.007 C 
ATOM      9  C   UNL d   1       0.846   3.366   1.127  0.00  0.00     0.009 C 
ENDBRANCH   7   8
ENDBRANCH   1   7
TORSDOF 2
ENDMDL
