MODEL 1
REMARK minimizedAffinity -2.54547977
REMARK minimizedRMSD -1
REMARK  2 active torsions:
REMARK  status: ('A' for Active; 'I' for Inactive)
REMARK    1  A    between atoms: C1_2  and  C2_3 
REMARK    2  A    between atoms: C2_3  and  C3_4 
ROOT
ATOM      1  C3  UNL d   1       1.731   0.113  -3.298  0.00  0.00    -0.075 A 
ATOM      2  C4  UNL d   1       2.215  -1.161  -2.966  0.00  0.00     0.002 A 
ATOM      3  C5  UNL d   1       1.985  -1.698  -1.699  0.00  0.00     0.002 A 
ATOM      4  C6  UNL d   1       1.279  -0.966  -0.747  0.00  0.00    -0.004 A 
ATOM      5  C7  UNL d   1       0.809   0.307  -1.060  0.00  0.00     0.002 A 
ATOM      6  C8  UNL d   1       1.033   0.845  -2.328  0.00  0.00     0.002 A 
ENDROOT
BRANCH   1   7
ATOM      7  C2  UNL d   1       1.951   0.688  -4.677  0.00  0.00     0.056 C 
BRANCH   7   8
ATOM      8  C1  UNL d   1       1.614   2.178  -4.793  0.00  0.00     0.007 C 
ATOM      9  C   UNL d   1       2.258   2.847  -5.999  0.00  0.00     0.009 C 
ENDBRANCH   7   8
ENDBRANCH   1   7
TORSDOF 2
ENDMDL
