MODEL 1
REMARK minimizedAffinity 0.248528555
REMARK minimizedRMSD -1
REMARK  2 active torsions:
REMARK  status: ('A' for Active; 'I' for Inactive)
REMARK    1  A    between atoms: C1_2  and  C2_3 
REMARK    2  A    between atoms: C2_3  and  C3_4 
ROOT
ATOM      1  C3  UNL d   1       5.645   2.052   5.187  0.00  0.00    -0.075 A 
ATOM      2  C4  UNL d   1       5.980   0.927   5.954  0.00  0.00     0.002 A 
ATOM      3  C5  UNL d   1       5.816  -0.358   5.437  0.00  0.00     0.002 A 
ATOM      4  C6  UNL d   1       5.307  -0.535   4.152  0.00  0.00    -0.004 A 
ATOM      5  C7  UNL d   1       4.955   0.575   3.387  0.00  0.00     0.002 A 
ATOM      6  C8  UNL d   1       5.122   1.863   3.901  0.00  0.00     0.002 A 
ENDROOT
BRANCH   1   7
ATOM      7  C2  UNL d   1       5.848   3.447   5.731  0.00  0.00     0.056 C 
BRANCH   7   8
ATOM      8  C1  UNL d   1       5.955   4.528   4.650  0.00  0.00     0.007 C 
ATOM      9  C   UNL d   1       5.554   5.912   5.144  0.00  0.00     0.009 C 
ENDBRANCH   7   8
ENDBRANCH   1   7
TORSDOF 2
ENDMDL
