MODEL 1
REMARK minimizedAffinity -1.91084313
REMARK minimizedRMSD -1
REMARK  0 active torsions:
REMARK  status: ('A' for Active; 'I' for Inactive)
ROOT
ATOM      1  C   UNL d   1       5.645   0.335   6.000  0.00  0.00     0.172 C 
ATOM      2  N   UNL d   1       5.737  -0.844   5.171  0.00  0.00    -0.070 N 
ATOM      3  C1  UNL d   1       5.995  -0.857   3.827  0.00  0.00    -0.004 A 
ATOM      4  C2  UNL d   1       6.000  -2.171   3.410  0.00  0.00    -0.047 A 
ATOM      5  C3  UNL d   1       5.735  -2.975   4.544  0.00  0.00    -0.047 A 
ATOM      6  C4  UNL d   1       5.576  -2.128   5.621  0.00  0.00    -0.004 A 
ENDROOT
TORSDOF 0
ENDMDL
