MODEL 1
REMARK minimizedAffinity -1.45873058
REMARK minimizedRMSD -1
REMARK  0 active torsions:
REMARK  status: ('A' for Active; 'I' for Inactive)
ROOT
ATOM      1  C   UNL d   1       6.000   4.189   3.092  0.00  0.00     0.172 C 
ATOM      2  N   UNL d   1       5.999   3.001   3.913  0.00  0.00    -0.070 N 
ATOM      3  C1  UNL d   1       6.000   2.976   5.282  0.00  0.00    -0.004 A 
ATOM      4  C2  UNL d   1       5.998   1.657   5.680  0.00  0.00    -0.047 A 
ATOM      5  C3  UNL d   1       5.998   0.861   4.510  0.00  0.00    -0.047 A 
ATOM      6  C4  UNL d   1       5.999   1.718   3.430  0.00  0.00    -0.004 A 
ENDROOT
TORSDOF 0
ENDMDL
