MODEL 1
REMARK minimizedAffinity -2.45605874
REMARK minimizedRMSD -1
REMARK  0 active torsions:
REMARK  status: ('A' for Active; 'I' for Inactive)
ROOT
ATOM      1  C   UNL d   1       6.000   2.990   4.123  0.00  0.00     0.172 C 
ATOM      2  N   UNL d   1       5.892   1.621   4.568  0.00  0.00    -0.070 N 
ATOM      3  C1  UNL d   1       5.999   1.192   5.864  0.00  0.00    -0.004 A 
ATOM      4  C2  UNL d   1       5.838  -0.177   5.870  0.00  0.00    -0.047 A 
ATOM      5  C3  UNL d   1       5.626  -0.584   4.531  0.00  0.00    -0.047 A 
ATOM      6  C4  UNL d   1       5.665   0.549   3.746  0.00  0.00    -0.004 A 
ENDROOT
TORSDOF 0
ENDMDL
