MODEL 1
REMARK minimizedAffinity -0.271614164
REMARK minimizedRMSD -1
REMARK  0 active torsions:
REMARK  status: ('A' for Active; 'I' for Inactive)
ROOT
ATOM      1  C   UNL d   1       5.979   1.830   4.214  0.00  0.00     0.172 C 
ATOM      2  N   UNL d   1       5.985   0.461   4.673  0.00  0.00    -0.070 N 
ATOM      3  C1  UNL d   1       5.997   0.059   5.982  0.00  0.00    -0.004 A 
ATOM      4  C2  UNL d   1       6.000  -1.319   6.000  0.00  0.00    -0.047 A 
ATOM      5  C3  UNL d   1       5.990  -1.760   4.655  0.00  0.00    -0.047 A 
ATOM      6  C4  UNL d   1       5.981  -0.637   3.855  0.00  0.00    -0.004 A 
ENDROOT
TORSDOF 0
ENDMDL
