MODEL 1
REMARK minimizedAffinity -0.586425364
REMARK minimizedRMSD -1
REMARK  0 active torsions:
REMARK  status: ('A' for Active; 'I' for Inactive)
ROOT
ATOM      1  C   UNL d   1       5.999   3.746   3.748  0.00  0.00     0.172 C 
ATOM      2  N   UNL d   1       5.780   2.356   4.072  0.00  0.00    -0.070 N 
ATOM      3  C1  UNL d   1       5.329   1.396   3.205  0.00  0.00    -0.004 A 
ATOM      4  C2  UNL d   1       5.256   0.205   3.895  0.00  0.00    -0.047 A 
ATOM      5  C3  UNL d   1       5.678   0.458   5.222  0.00  0.00    -0.047 A 
ATOM      6  C4  UNL d   1       5.996   1.797   5.304  0.00  0.00    -0.004 A 
ENDROOT
TORSDOF 0
ENDMDL
