MODEL 1
REMARK minimizedAffinity -1.03937995
REMARK minimizedRMSD -1
REMARK  0 active torsions:
REMARK  status: ('A' for Active; 'I' for Inactive)
ROOT
ATOM      1  C   UNL d   1       5.721  -0.815   5.068  0.00  0.00     0.172 C 
ATOM      2  N   UNL d   1       5.509   0.515   4.548  0.00  0.00    -0.070 N 
ATOM      3  C1  UNL d   1       6.000   0.997   3.364  0.00  0.00    -0.004 A 
ATOM      4  C2  UNL d   1       5.576   2.302   3.230  0.00  0.00    -0.047 A 
ATOM      5  C3  UNL d   1       4.804   2.615   4.375  0.00  0.00    -0.047 A 
ATOM      6  C4  UNL d   1       4.779   1.491   5.173  0.00  0.00    -0.004 A 
ENDROOT
TORSDOF 0
ENDMDL
