MODEL 1
REMARK minimizedAffinity -1.45092773
REMARK minimizedRMSD -1
REMARK  0 active torsions:
REMARK  status: ('A' for Active; 'I' for Inactive)
ROOT
ATOM      1  C   UNL d   1       5.988  -1.350   5.209  0.00  0.00     0.172 C 
ATOM      2  N   UNL d   1       5.992  -0.062   4.556  0.00  0.00    -0.070 N 
ATOM      3  C1  UNL d   1       5.990   0.147   3.202  0.00  0.00    -0.004 A 
ATOM      4  C2  UNL d   1       5.994   1.508   2.985  0.00  0.00    -0.047 A 
ATOM      5  C3  UNL d   1       5.999   2.139   4.252  0.00  0.00    -0.047 A 
ATOM      6  C4  UNL d   1       5.997   1.144   5.206  0.00  0.00    -0.004 A 
ENDROOT
TORSDOF 0
ENDMDL
