MODEL 1
REMARK minimizedAffinity -2.16673231
REMARK minimizedRMSD -1
REMARK  0 active torsions:
REMARK  status: ('A' for Active; 'I' for Inactive)
ROOT
ATOM      1  C   UNL d   1       5.547   3.353   4.278  0.00  0.00     0.172 C 
ATOM      2  N   UNL d   1       5.666   1.983   4.719  0.00  0.00    -0.070 N 
ATOM      3  C1  UNL d   1       5.990   1.578   5.987  0.00  0.00    -0.004 A 
ATOM      4  C2  UNL d   1       6.000   0.200   6.000  0.00  0.00    -0.047 A 
ATOM      5  C3  UNL d   1       5.671  -0.238   4.695  0.00  0.00    -0.047 A 
ATOM      6  C4  UNL d   1       5.470   0.886   3.923  0.00  0.00    -0.004 A 
ENDROOT
TORSDOF 0
ENDMDL
