MODEL 1
REMARK minimizedAffinity -1.76804137
REMARK minimizedRMSD -1
REMARK  0 active torsions:
REMARK  status: ('A' for Active; 'I' for Inactive)
ROOT
ATOM      1  C   UNL d   1       5.965  -1.246   5.826  0.00  0.00     0.172 C 
ATOM      2  N   UNL d   1       5.973  -0.170   4.862  0.00  0.00    -0.070 N 
ATOM      3  C1  UNL d   1       5.998  -0.318   3.501  0.00  0.00    -0.004 A 
ATOM      4  C2  UNL d   1       5.998   0.940   2.940  0.00  0.00    -0.047 A 
ATOM      5  C3  UNL d   1       5.974   1.877   4.000  0.00  0.00    -0.047 A 
ATOM      6  C4  UNL d   1       5.959   1.162   5.179  0.00  0.00    -0.004 A 
ENDROOT
TORSDOF 0
ENDMDL
