MODEL 1
REMARK minimizedAffinity -2.61568379
REMARK minimizedRMSD -1
REMARK  0 active torsions:
REMARK  status: ('A' for Active; 'I' for Inactive)
ROOT
ATOM      1  C   UNL d   1       5.969  -4.645   5.529  0.00  0.00     0.172 C 
ATOM      2  N   UNL d   1       5.644  -3.280   5.187  0.00  0.00    -0.070 N 
ATOM      3  C1  UNL d   1       4.941  -2.879   4.083  0.00  0.00    -0.004 A 
ATOM      4  C2  UNL d   1       4.843  -1.505   4.121  0.00  0.00    -0.047 A 
ATOM      5  C3  UNL d   1       5.511  -1.065   5.288  0.00  0.00    -0.047 A 
ATOM      6  C4  UNL d   1       5.997  -2.185   5.930  0.00  0.00    -0.004 A 
ENDROOT
TORSDOF 0
ENDMDL
