MODEL 1
REMARK minimizedAffinity -0.602147639
REMARK minimizedRMSD -1
REMARK  0 active torsions:
REMARK  status: ('A' for Active; 'I' for Inactive)
ROOT
ATOM      1  C   UNL d   1       5.982   1.403   2.431  0.00  0.00     0.172 C 
ATOM      2  N   UNL d   1       5.986   0.886   3.779  0.00  0.00    -0.070 N 
ATOM      3  C1  UNL d   1       5.984  -0.439   4.125  0.00  0.00    -0.004 A 
ATOM      4  C2  UNL d   1       5.989  -0.516   5.501  0.00  0.00    -0.047 A 
ATOM      5  C3  UNL d   1       5.993   0.809   5.999  0.00  0.00    -0.047 A 
ATOM      6  C4  UNL d   1       5.991   1.656   4.911  0.00  0.00    -0.004 A 
ENDROOT
TORSDOF 0
ENDMDL
