MODEL 1
REMARK minimizedAffinity -2.185467
REMARK minimizedRMSD -1
REMARK  0 active torsions:
REMARK  status: ('A' for Active; 'I' for Inactive)
ROOT
ATOM      1  C   UNL d   1       5.995  -0.738   2.939  0.00  0.00     0.172 C 
ATOM      2  N   UNL d   1       5.860   0.296   3.939  0.00  0.00    -0.070 N 
ATOM      3  C1  UNL d   1       5.577   0.093   5.263  0.00  0.00    -0.004 A 
ATOM      4  C2  UNL d   1       5.534   1.326   5.879  0.00  0.00    -0.047 A 
ATOM      5  C3  UNL d   1       5.799   2.303   4.890  0.00  0.00    -0.047 A 
ATOM      6  C4  UNL d   1       5.997   1.637   3.698  0.00  0.00    -0.004 A 
ENDROOT
TORSDOF 0
ENDMDL
