MODEL 1
REMARK minimizedAffinity -2.07762337
REMARK minimizedRMSD -1
REMARK  0 active torsions:
REMARK  status: ('A' for Active; 'I' for Inactive)
ROOT
ATOM      1  C   UNL d   1       5.998  -1.408   4.916  0.00  0.00     0.172 C 
ATOM      2  N   UNL d   1       5.997   0.016   4.675  0.00  0.00    -0.070 N 
ATOM      3  C1  UNL d   1       5.994   0.989   5.638  0.00  0.00    -0.004 A 
ATOM      4  C2  UNL d   1       5.995   2.212   5.003  0.00  0.00    -0.047 A 
ATOM      5  C3  UNL d   1       5.997   1.966   3.610  0.00  0.00    -0.047 A 
ATOM      6  C4  UNL d   1       5.998   0.598   3.434  0.00  0.00    -0.004 A 
ENDROOT
TORSDOF 0
ENDMDL
