MODEL 1
REMARK minimizedAffinity -0.0825785175
REMARK minimizedRMSD -1
REMARK  0 active torsions:
REMARK  status: ('A' for Active; 'I' for Inactive)
ROOT
ATOM      1  C   UNL d   1       5.960   3.149   4.372  0.00  0.00     0.172 C 
ATOM      2  N   UNL d   1       5.964   4.086   3.273  0.00  0.00    -0.070 N 
ATOM      3  C1  UNL d   1       6.000   3.758   1.944  0.00  0.00    -0.004 A 
ATOM      4  C2  UNL d   1       5.990   4.930   1.219  0.00  0.00    -0.047 A 
ATOM      5  C3  UNL d   1       5.947   6.000   2.145  0.00  0.00    -0.047 A 
ATOM      6  C4  UNL d   1       5.932   5.449   3.409  0.00  0.00    -0.004 A 
ENDROOT
TORSDOF 0
ENDMDL
