MODEL 1
REMARK minimizedAffinity -2.04054475
REMARK minimizedRMSD -1
REMARK  0 active torsions:
REMARK  status: ('A' for Active; 'I' for Inactive)
ROOT
ATOM      1  C   UNL d   1       6.000   2.211   4.156  0.00  0.00     0.172 C 
ATOM      2  N   UNL d   1       5.895   0.855   4.641  0.00  0.00    -0.070 N 
ATOM      3  C1  UNL d   1       5.845   0.479   5.956  0.00  0.00    -0.004 A 
ATOM      4  C2  UNL d   1       5.747  -0.895   6.000  0.00  0.00    -0.047 A 
ATOM      5  C3  UNL d   1       5.739  -1.361   4.663  0.00  0.00    -0.047 A 
ATOM      6  C4  UNL d   1       5.832  -0.257   3.843  0.00  0.00    -0.004 A 
ENDROOT
TORSDOF 0
ENDMDL
