MODEL 1
REMARK minimizedAffinity -2.14086628
REMARK minimizedRMSD -1
REMARK  0 active torsions:
REMARK  status: ('A' for Active; 'I' for Inactive)
ROOT
ATOM      1  C   UNL d   1       5.690   3.369   3.374  0.00  0.00     0.172 C 
ATOM      2  N   UNL d   1       5.769   1.952   3.640  0.00  0.00    -0.070 N 
ATOM      3  C1  UNL d   1       5.999   1.381   4.863  0.00  0.00    -0.004 A 
ATOM      4  C2  UNL d   1       6.000   0.013   4.697  0.00  0.00    -0.047 A 
ATOM      5  C3  UNL d   1       5.764  -0.247   3.326  0.00  0.00    -0.047 A 
ATOM      6  C4  UNL d   1       5.625   0.971   2.695  0.00  0.00    -0.004 A 
ENDROOT
TORSDOF 0
ENDMDL
