MODEL 1
REMARK minimizedAffinity 1.23296905
REMARK minimizedRMSD -1
REMARK  0 active torsions:
REMARK  status: ('A' for Active; 'I' for Inactive)
ROOT
ATOM      1  C   UNL d   1       5.995   5.869   5.610  0.00  0.00     0.172 C 
ATOM      2  N   UNL d   1       5.996   4.608   4.906  0.00  0.00    -0.070 N 
ATOM      3  C1  UNL d   1       5.995   4.454   3.546  0.00  0.00    -0.004 A 
ATOM      4  C2  UNL d   1       5.997   3.102   3.275  0.00  0.00    -0.047 A 
ATOM      5  C3  UNL d   1       5.998   2.422   4.515  0.00  0.00    -0.047 A 
ATOM      6  C4  UNL d   1       5.997   3.378   5.509  0.00  0.00    -0.004 A 
ENDROOT
TORSDOF 0
ENDMDL
