MODEL 1
REMARK minimizedAffinity 1.90317178
REMARK minimizedRMSD -1
REMARK  0 active torsions:
REMARK  status: ('A' for Active; 'I' for Inactive)
ROOT
ATOM      1  C   UNL d   1       6.000   2.427   3.121  0.00  0.00     0.172 C 
ATOM      2  N   UNL d   1       5.981   3.871   3.106  0.00  0.00    -0.070 N 
ATOM      3  C1  UNL d   1       5.986   4.681   4.210  0.00  0.00    -0.004 A 
ATOM      4  C2  UNL d   1       5.963   5.988   3.774  0.00  0.00    -0.047 A 
ATOM      5  C3  UNL d   1       5.943   5.963   2.360  0.00  0.00    -0.047 A 
ATOM      6  C4  UNL d   1       5.954   4.639   1.972  0.00  0.00    -0.004 A 
ENDROOT
TORSDOF 0
ENDMDL
