MODEL 1
REMARK minimizedAffinity -3.14705634
REMARK minimizedRMSD -1
REMARK  1 active torsions:
REMARK  status: ('A' for Active; 'I' for Inactive)
REMARK    1  A    between atoms: C3_4  and  O_7 
ROOT
ATOM      1  C   UNL d   1      -0.570   0.379   2.457  0.00  0.00    -0.033 A 
ATOM      2  C1  UNL d   1       0.797   0.336   2.179  0.00  0.00     0.039 A 
ATOM      3  C2  UNL d   1       1.242   0.316   0.855  0.00  0.00    -0.080 A 
ATOM      4  C3  UNL d   1       0.310   0.341  -0.179  0.00  0.00     0.150 A 
ATOM      5  C4  UNL d   1      -1.053   0.389   0.091  0.00  0.00    -0.007 A 
ATOM      6  C5  UNL d   1      -1.495   0.408   1.414  0.00  0.00     0.039 A 
ENDROOT
BRANCH   4   7
ATOM      7  O   UNL d   1       0.696   0.318  -1.486  0.00  0.00    -0.526 OA
ATOM      8  H5  UNL d   1       1.665   0.256  -1.520  0.00  0.00     0.418 HD
ENDBRANCH   4   7
TORSDOF 1
ENDMDL
