MODEL 1
REMARK minimizedAffinity -3.52270651
REMARK minimizedRMSD -1
REMARK  1 active torsions:
REMARK  status: ('A' for Active; 'I' for Inactive)
REMARK    1  A    between atoms: C3_4  and  O_7 
ROOT
ATOM      1  C   UNL d   1       1.339   0.493   1.286  0.00  0.00    -0.033 A 
ATOM      2  C1  UNL d   1       1.043   0.695  -0.063  0.00  0.00     0.039 A 
ATOM      3  C2  UNL d   1      -0.281   0.872  -0.470  0.00  0.00    -0.080 A 
ATOM      4  C3  UNL d   1      -1.297   0.845   0.481  0.00  0.00     0.150 A 
ATOM      5  C4  UNL d   1      -1.009   0.649   1.827  0.00  0.00    -0.007 A 
ATOM      6  C5  UNL d   1       0.314   0.472   2.232  0.00  0.00     0.039 A 
ENDROOT
BRANCH   4   7
ATOM      7  O   UNL d   1      -2.605   1.008   0.131  0.00  0.00    -0.526 OA
ATOM      8  H5  UNL d   1      -2.656   1.106  -0.834  0.00  0.00     0.418 HD
ENDBRANCH   4   7
TORSDOF 1
ENDMDL
