MODEL 1
REMARK minimizedAffinity -2.78132582
REMARK minimizedRMSD -1
REMARK  1 active torsions:
REMARK  status: ('A' for Active; 'I' for Inactive)
REMARK    1  A    between atoms: C3_4  and  O_7 
ROOT
ATOM      1  C   UNL d   1      -0.992   0.508  -0.920  0.00  0.00    -0.033 A 
ATOM      2  C1  UNL d   1      -1.570   0.412   0.347  0.00  0.00     0.039 A 
ATOM      3  C2  UNL d   1      -0.761   0.292   1.479  0.00  0.00    -0.080 A 
ATOM      4  C3  UNL d   1       0.623   0.271   1.329  0.00  0.00     0.150 A 
ATOM      5  C4  UNL d   1       1.206   0.370   0.070  0.00  0.00    -0.007 A 
ATOM      6  C5  UNL d   1       0.396   0.488  -1.058  0.00  0.00     0.039 A 
ENDROOT
BRANCH   4   7
ATOM      7  O   UNL d   1       1.454   0.151   2.404  0.00  0.00    -0.526 OA
ATOM      8  H5  UNL d   1       0.911   0.063   3.205  0.00  0.00     0.418 HD
ENDBRANCH   4   7
TORSDOF 1
ENDMDL
