MODEL 1
REMARK minimizedAffinity -1.18419087
REMARK minimizedRMSD -1
REMARK  1 active torsions:
REMARK  status: ('A' for Active; 'I' for Inactive)
REMARK    1  A    between atoms: C3_4  and  O_7 
ROOT
ATOM      1  C   UNL d   1      -0.596   0.384  -0.954  0.00  0.00    -0.033 A 
ATOM      2  C1  UNL d   1       0.750   0.302  -0.591  0.00  0.00     0.039 A 
ATOM      3  C2  UNL d   1       1.113   0.308   0.757  0.00  0.00    -0.080 A 
ATOM      4  C3  UNL d   1       0.123   0.395   1.731  0.00  0.00     0.150 A 
ATOM      5  C4  UNL d   1      -1.220   0.472   1.377  0.00  0.00    -0.007 A 
ATOM      6  C5  UNL d   1      -1.581   0.467   0.031  0.00  0.00     0.039 A 
ENDROOT
BRANCH   4   7
ATOM      7  O   UNL d   1       0.429   0.408   3.059  0.00  0.00    -0.526 OA
ATOM      8  H5  UNL d   1       1.396   0.378   3.153  0.00  0.00     0.418 HD
ENDBRANCH   4   7
TORSDOF 1
ENDMDL
