MODEL 1
REMARK minimizedAffinity -3.15586185
REMARK minimizedRMSD -1
REMARK  1 active torsions:
REMARK  status: ('A' for Active; 'I' for Inactive)
REMARK    1  A    between atoms: C3_4  and  O_7 
ROOT
ATOM      1  C   UNL d   1       0.982  -1.766  -3.219  0.00  0.00    -0.033 A 
ATOM      2  C1  UNL d   1       1.572  -0.704  -2.531  0.00  0.00     0.039 A 
ATOM      3  C2  UNL d   1       0.858  -0.032  -1.537  0.00  0.00    -0.080 A 
ATOM      4  C3  UNL d   1      -0.442  -0.432  -1.241  0.00  0.00     0.150 A 
ATOM      5  C4  UNL d   1      -1.034  -1.491  -1.919  0.00  0.00    -0.007 A 
ATOM      6  C5  UNL d   1      -0.321  -2.161  -2.912  0.00  0.00     0.039 A 
ENDROOT
BRANCH   4   7
ATOM      7  O   UNL d   1      -1.180   0.197  -0.282  0.00  0.00    -0.526 OA
ATOM      8  H5  UNL d   1      -0.652   0.928   0.082  0.00  0.00     0.418 HD
ENDBRANCH   4   7
TORSDOF 1
ENDMDL
