MODEL 1
REMARK minimizedAffinity -0.890779376
REMARK minimizedRMSD -1
REMARK  1 active torsions:
REMARK  status: ('A' for Active; 'I' for Inactive)
REMARK    1  A    between atoms: C3_4  and  O_7 
ROOT
ATOM      1  C   UNL d   1      -0.295   0.504   1.339  0.00  0.00    -0.033 A 
ATOM      2  C1  UNL d   1       1.042   0.374   0.956  0.00  0.00     0.039 A 
ATOM      3  C2  UNL d   1       1.375   0.263  -0.395  0.00  0.00    -0.080 A 
ATOM      4  C3  UNL d   1       0.364   0.284  -1.352  0.00  0.00     0.150 A 
ATOM      5  C4  UNL d   1      -0.969   0.417  -0.978  0.00  0.00    -0.007 A 
ATOM      6  C5  UNL d   1      -1.300   0.526   0.372  0.00  0.00     0.039 A 
ENDROOT
BRANCH   4   7
ATOM      7  O   UNL d   1       0.640   0.174  -2.683  0.00  0.00    -0.526 OA
ATOM      8  H5  UNL d   1       1.599   0.059  -2.790  0.00  0.00     0.418 HD
ENDBRANCH   4   7
TORSDOF 1
ENDMDL
