MODEL 1
REMARK minimizedAffinity -2.83788872
REMARK minimizedRMSD -1
REMARK  1 active torsions:
REMARK  status: ('A' for Active; 'I' for Inactive)
REMARK    1  A    between atoms: C3_4  and  O_7 
ROOT
ATOM      1  C   UNL d   1       1.109  -0.943  -3.394  0.00  0.00    -0.033 A 
ATOM      2  C1  UNL d   1       1.326   0.238  -2.682  0.00  0.00     0.039 A 
ATOM      3  C2  UNL d   1       0.714   0.429  -1.441  0.00  0.00    -0.080 A 
ATOM      4  C3  UNL d   1      -0.110  -0.567  -0.925  0.00  0.00     0.150 A 
ATOM      5  C4  UNL d   1      -0.328  -1.747  -1.628  0.00  0.00    -0.007 A 
ATOM      6  C5  UNL d   1       0.283  -1.936  -2.867  0.00  0.00     0.039 A 
ENDROOT
BRANCH   4   7
ATOM      7  O   UNL d   1      -0.732  -0.424   0.280  0.00  0.00    -0.526 OA
ATOM      8  H5  UNL d   1      -0.513   0.453   0.637  0.00  0.00     0.418 HD
ENDBRANCH   4   7
TORSDOF 1
ENDMDL
