MODEL 1
REMARK minimizedAffinity -3.60463238
REMARK minimizedRMSD -1
REMARK  1 active torsions:
REMARK  status: ('A' for Active; 'I' for Inactive)
REMARK    1  A    between atoms: C3_4  and  O_7 
ROOT
ATOM      1  C   UNL d   1       0.622   0.199   2.060  0.00  0.00    -0.033 A 
ATOM      2  C1  UNL d   1       1.835  -0.238   1.524  0.00  0.00     0.039 A 
ATOM      3  C2  UNL d   1       1.982  -0.374   0.142  0.00  0.00    -0.080 A 
ATOM      4  C3  UNL d   1       0.909  -0.071  -0.692  0.00  0.00     0.150 A 
ATOM      5  C4  UNL d   1      -0.301   0.368  -0.165  0.00  0.00    -0.007 A 
ATOM      6  C5  UNL d   1      -0.446   0.503   1.215  0.00  0.00     0.039 A 
ENDROOT
BRANCH   4   7
ATOM      7  O   UNL d   1       1.003  -0.194  -2.046  0.00  0.00    -0.526 OA
ATOM      8  H5  UNL d   1       1.887  -0.534  -2.264  0.00  0.00     0.418 HD
ENDBRANCH   4   7
TORSDOF 1
ENDMDL
