MODEL 1
REMARK minimizedAffinity -3.1194613
REMARK minimizedRMSD -1
REMARK  1 active torsions:
REMARK  status: ('A' for Active; 'I' for Inactive)
REMARK    1  A    between atoms: C3_4  and  O_7 
ROOT
ATOM      1  C   UNL d   1       0.318   0.622  -1.036  0.00  0.00    -0.033 A 
ATOM      2  C1  UNL d   1       1.353   0.730  -0.105  0.00  0.00     0.039 A 
ATOM      3  C2  UNL d   1       1.118   0.440   1.240  0.00  0.00    -0.080 A 
ATOM      4  C3  UNL d   1      -0.155   0.042   1.640  0.00  0.00     0.150 A 
ATOM      5  C4  UNL d   1      -1.190  -0.072   0.718  0.00  0.00    -0.007 A 
ATOM      6  C5  UNL d   1      -0.953   0.220  -0.625  0.00  0.00     0.039 A 
ENDROOT
BRANCH   4   7
ATOM      7  O   UNL d   1      -0.434  -0.248   2.943  0.00  0.00    -0.526 OA
ATOM      8  H5  UNL d   1       0.369  -0.098   3.470  0.00  0.00     0.418 HD
ENDBRANCH   4   7
TORSDOF 1
ENDMDL
