MODEL 1
REMARK minimizedAffinity -3.52299643
REMARK minimizedRMSD -1
REMARK  1 active torsions:
REMARK  status: ('A' for Active; 'I' for Inactive)
REMARK    1  A    between atoms: C3_4  and  O_7 
ROOT
ATOM      1  C   UNL d   1       3.556  -5.987   5.619  0.00  0.00    -0.033 A 
ATOM      2  C1  UNL d   1       4.543  -5.076   5.999  0.00  0.00     0.039 A 
ATOM      3  C2  UNL d   1       5.064  -4.178   5.065  0.00  0.00    -0.080 A 
ATOM      4  C3  UNL d   1       4.589  -4.201   3.757  0.00  0.00     0.150 A 
ATOM      5  C4  UNL d   1       3.603  -5.104   3.372  0.00  0.00    -0.007 A 
ATOM      6  C5  UNL d   1       3.085  -6.000   4.306  0.00  0.00     0.039 A 
ENDROOT
BRANCH   4   7
ATOM      7  O   UNL d   1       5.071  -3.348   2.809  0.00  0.00    -0.526 OA
ATOM      8  H5  UNL d   1       5.767  -2.802   3.211  0.00  0.00     0.418 HD
ENDBRANCH   4   7
TORSDOF 1
ENDMDL
