MODEL 1
REMARK minimizedAffinity -1.11628807
REMARK minimizedRMSD -1
REMARK  1 active torsions:
REMARK  status: ('A' for Active; 'I' for Inactive)
REMARK    1  A    between atoms: C3_4  and  O_7 
ROOT
ATOM      1  C   UNL d   1       1.590   0.490   1.747  0.00  0.00    -0.033 A 
ATOM      2  C1  UNL d   1       0.389   0.511   2.457  0.00  0.00     0.039 A 
ATOM      3  C2  UNL d   1      -0.829   0.518   1.774  0.00  0.00    -0.080 A 
ATOM      4  C3  UNL d   1      -0.831   0.502   0.382  0.00  0.00     0.150 A 
ATOM      5  C4  UNL d   1       0.363   0.476  -0.333  0.00  0.00    -0.007 A 
ATOM      6  C5  UNL d   1       1.577   0.470   0.352  0.00  0.00     0.039 A 
ENDROOT
BRANCH   4   7
ATOM      7  O   UNL d   1      -1.994   0.512  -0.329  0.00  0.00    -0.526 OA
ATOM      8  H5  UNL d   1      -2.736   0.559   0.296  0.00  0.00     0.418 HD
ENDBRANCH   4   7
TORSDOF 1
ENDMDL
