MODEL 1
REMARK minimizedAffinity -4.44352198
REMARK minimizedRMSD -1
REMARK  1 active torsions:
REMARK  status: ('A' for Active; 'I' for Inactive)
REMARK    1  A    between atoms: C3_4  and  O_7 
ROOT
ATOM      1  C   UNL d   1       0.937  -0.191   1.516  0.00  0.00    -0.033 A 
ATOM      2  C1  UNL d   1       0.003  -0.148   2.553  0.00  0.00     0.039 A 
ATOM      3  C2  UNL d   1      -1.324   0.195   2.287  0.00  0.00    -0.080 A 
ATOM      4  C3  UNL d   1      -1.704   0.490   0.980  0.00  0.00     0.150 A 
ATOM      5  C4  UNL d   1      -0.780   0.446  -0.058  0.00  0.00    -0.007 A 
ATOM      6  C5  UNL d   1       0.545   0.105   0.210  0.00  0.00     0.039 A 
ENDROOT
BRANCH   4   7
ATOM      7  O   UNL d   1      -2.987   0.835   0.672  0.00  0.00    -0.526 OA
ATOM      8  H5  UNL d   1      -3.507   0.852   1.493  0.00  0.00     0.418 HD
ENDBRANCH   4   7
TORSDOF 1
ENDMDL
