MODEL 1
REMARK minimizedAffinity -5.46595001
REMARK minimizedRMSD -1
REMARK  1 active torsions:
REMARK  status: ('A' for Active; 'I' for Inactive)
REMARK    1  A    between atoms: C3_4  and  O_7 
ROOT
ATOM      1  C   UNL d   1       0.480   0.273  -0.003  0.00  0.00    -0.033 A 
ATOM      2  C1  UNL d   1       1.380   0.275   1.064  0.00  0.00     0.039 A 
ATOM      3  C2  UNL d   1       0.964  -0.142   2.330  0.00  0.00    -0.080 A 
ATOM      4  C3  UNL d   1      -0.351  -0.559   2.515  0.00  0.00     0.150 A 
ATOM      5  C4  UNL d   1      -1.252  -0.566   1.454  0.00  0.00    -0.007 A 
ATOM      6  C5  UNL d   1      -0.835  -0.149   0.191  0.00  0.00     0.039 A 
ENDROOT
BRANCH   4   7
ATOM      7  O   UNL d   1      -0.804  -0.970   3.733  0.00  0.00    -0.526 OA
ATOM      8  H5  UNL d   1      -0.080  -0.884   4.376  0.00  0.00     0.418 HD
ENDBRANCH   4   7
TORSDOF 1
ENDMDL
