MODEL 1
REMARK minimizedAffinity -2.34491587
REMARK minimizedRMSD -1
REMARK  1 active torsions:
REMARK  status: ('A' for Active; 'I' for Inactive)
REMARK    1  A    between atoms: C3_4  and  O_7 
ROOT
ATOM      1  C   UNL d   1      -0.086   0.329  -1.118  0.00  0.00    -0.033 A 
ATOM      2  C1  UNL d   1      -1.287   0.325  -0.406  0.00  0.00     0.039 A 
ATOM      3  C2  UNL d   1      -1.273   0.334   0.991  0.00  0.00    -0.080 A 
ATOM      4  C3  UNL d   1      -0.053   0.347   1.661  0.00  0.00     0.150 A 
ATOM      5  C4  UNL d   1       1.147   0.355   0.958  0.00  0.00    -0.007 A 
ATOM      6  C5  UNL d   1       1.131   0.345  -0.436  0.00  0.00     0.039 A 
ENDROOT
BRANCH   4   7
ATOM      7  O   UNL d   1       0.012   0.352   3.023  0.00  0.00    -0.526 OA
ATOM      8  H5  UNL d   1      -0.894   0.316   3.374  0.00  0.00     0.418 HD
ENDBRANCH   4   7
TORSDOF 1
ENDMDL
