MODEL 1
REMARK minimizedAffinity -2.25073028
REMARK minimizedRMSD -1
REMARK  1 active torsions:
REMARK  status: ('A' for Active; 'I' for Inactive)
REMARK    1  A    between atoms: C3_4  and  O_7 
ROOT
ATOM      1  C   UNL d   1       0.147   0.455   2.592  0.00  0.00    -0.033 A 
ATOM      2  C1  UNL d   1      -1.039   0.126   1.934  0.00  0.00     0.039 A 
ATOM      3  C2  UNL d   1      -1.071   0.066   0.539  0.00  0.00    -0.080 A 
ATOM      4  C3  UNL d   1       0.087   0.336  -0.184  0.00  0.00     0.150 A 
ATOM      5  C4  UNL d   1       1.273   0.661   0.466  0.00  0.00    -0.007 A 
ATOM      6  C5  UNL d   1       1.304   0.721   1.859  0.00  0.00     0.039 A 
ENDROOT
BRANCH   4   7
ATOM      7  O   UNL d   1       0.103   0.295  -1.546  0.00  0.00    -0.526 OA
ATOM      8  H5  UNL d   1      -0.793   0.086  -1.858  0.00  0.00     0.418 HD
ENDBRANCH   4   7
TORSDOF 1
ENDMDL
