MODEL 1
REMARK minimizedAffinity -2.63799667
REMARK minimizedRMSD -1
REMARK  1 active torsions:
REMARK  status: ('A' for Active; 'I' for Inactive)
REMARK    1  A    between atoms: C3_4  and  O_7 
ROOT
ATOM      1  C   UNL d   1       0.000  -0.025  -1.147  0.00  0.00    -0.033 A 
ATOM      2  C1  UNL d   1       1.105  -0.655  -0.571  0.00  0.00     0.039 A 
ATOM      3  C2  UNL d   1       1.342  -0.540   0.800  0.00  0.00    -0.080 A 
ATOM      4  C3  UNL d   1       0.467   0.208   1.584  0.00  0.00     0.150 A 
ATOM      5  C4  UNL d   1      -0.638   0.835   1.018  0.00  0.00    -0.007 A 
ATOM      6  C5  UNL d   1      -0.872   0.720  -0.352  0.00  0.00     0.039 A 
ENDROOT
BRANCH   4   7
ATOM      7  O   UNL d   1       0.659   0.353   2.925  0.00  0.00    -0.526 OA
ATOM      8  H5  UNL d   1       1.477  -0.111   3.171  0.00  0.00     0.418 HD
ENDBRANCH   4   7
TORSDOF 1
ENDMDL
