MODEL 1
REMARK minimizedAffinity -5.33778715
REMARK minimizedRMSD -1
REMARK  0 active torsions:
REMARK  status: ('A' for Active; 'I' for Inactive)
ROOT
ATOM      1  O1  BZF d   1      -1.045  -0.218   0.860  0.00  0.00    -0.204 OA
ATOM      2  C2  BZF d   1      -0.146  -1.234   0.601  0.00  0.00     0.174 A 
ATOM      3  C3  BZF d   1       0.918  -0.769  -0.084  0.00  0.00    -0.012 A 
ATOM      4  C3A BZF d   1       0.713   0.644  -0.184  0.00  0.00    -0.107 A 
ATOM      5  C4  BZF d   1       1.435   1.661  -0.740  0.00  0.00     0.055 A 
ATOM      6  C5  BZF d   1       0.920   2.918  -0.732  0.00  0.00    -0.016 A 
ATOM      7  C6  BZF d   1      -0.314   3.194  -0.181  0.00  0.00     0.022 A 
ATOM      8  C7  BZF d   1      -1.065   2.219   0.387  0.00  0.00     0.029 A 
ATOM      9  C7A BZF d   1      -0.533   0.953   0.409  0.00  0.00     0.058 A 
ENDROOT
TORSDOF 0
ENDMDL
