MODEL 1
REMARK minimizedAffinity -2.99793029
REMARK minimizedRMSD -1
REMARK  0 active torsions:
REMARK  status: ('A' for Active; 'I' for Inactive)
ROOT
ATOM      1  O1  BZF d   1      -1.014  -0.025   1.373  0.00  0.00    -0.204 OA
ATOM      2  C2  BZF d   1      -0.784  -1.089   0.523  0.00  0.00     0.174 A 
ATOM      3  C3  BZF d   1      -0.080  -0.694  -0.558  0.00  0.00    -0.012 A 
ATOM      4  C3A BZF d   1       0.224   0.684  -0.325  0.00  0.00    -0.107 A 
ATOM      5  C4  BZF d   1       0.916   1.625  -1.033  0.00  0.00     0.055 A 
ATOM      6  C5  BZF d   1       0.966   2.900  -0.564  0.00  0.00    -0.016 A 
ATOM      7  C6  BZF d   1       0.333   3.269   0.604  0.00  0.00     0.022 A 
ATOM      8  C7  BZF d   1      -0.361   2.369   1.344  0.00  0.00     0.029 A 
ATOM      9  C7A BZF d   1      -0.386   1.073   0.889  0.00  0.00     0.058 A 
ENDROOT
TORSDOF 0
ENDMDL
