MODEL 1
REMARK minimizedAffinity -6.0609417
REMARK minimizedRMSD -1
REMARK  0 active torsions:
REMARK  status: ('A' for Active; 'I' for Inactive)
ROOT
ATOM      1  O1  BZF d   1       2.252  -0.221   1.106  0.00  0.00    -0.204 OA
ATOM      2  C2  BZF d   1       1.222  -1.139   1.044  0.00  0.00     0.174 A 
ATOM      3  C3  BZF d   1       0.090  -0.559   0.595  0.00  0.00    -0.012 A 
ATOM      4  C3A BZF d   1       0.458   0.786   0.274  0.00  0.00    -0.107 A 
ATOM      5  C4  BZF d   1      -0.229   1.852  -0.232  0.00  0.00     0.055 A 
ATOM      6  C5  BZF d   1       0.406   3.047  -0.357  0.00  0.00    -0.016 A 
ATOM      7  C6  BZF d   1       1.723   3.213   0.017  0.00  0.00     0.022 A 
ATOM      8  C7  BZF d   1       2.447   2.183   0.519  0.00  0.00     0.029 A 
ATOM      9  C7A BZF d   1       1.818   0.965   0.617  0.00  0.00     0.058 A 
ENDROOT
TORSDOF 0
ENDMDL
