MODEL 1
REMARK minimizedAffinity -5.36516905
REMARK minimizedRMSD -1
REMARK  0 active torsions:
REMARK  status: ('A' for Active; 'I' for Inactive)
ROOT
ATOM      1  O1  BZF d   1      -1.277  -0.010   0.800  0.00  0.00    -0.204 OA
ATOM      2  C2  BZF d   1      -0.627  -1.131   0.321  0.00  0.00     0.174 A 
ATOM      3  C3  BZF d   1       0.433  -0.783  -0.436  0.00  0.00    -0.012 A 
ATOM      4  C3A BZF d   1       0.500   0.644  -0.355  0.00  0.00    -0.107 A 
ATOM      5  C4  BZF d   1       1.348   1.576  -0.883  0.00  0.00     0.055 A 
ATOM      6  C5  BZF d   1       1.095   2.894  -0.673  0.00  0.00    -0.016 A 
ATOM      7  C6  BZF d   1       0.001   3.316   0.055  0.00  0.00     0.022 A 
ATOM      8  C7  BZF d   1      -0.865   2.429   0.602  0.00  0.00     0.029 A 
ATOM      9  C7A BZF d   1      -0.593   1.095   0.419  0.00  0.00     0.058 A 
ENDROOT
TORSDOF 0
ENDMDL
