MODEL 1
REMARK minimizedAffinity -6.26828861
REMARK minimizedRMSD -1
REMARK  0 active torsions:
REMARK  status: ('A' for Active; 'I' for Inactive)
ROOT
ATOM      1  O1  BZF d   1       0.849  -0.504  -0.030  0.00  0.00    -0.204 OA
ATOM      2  C2  BZF d   1      -0.500  -0.767  -0.177  0.00  0.00     0.174 A 
ATOM      3  C3  BZF d   1      -1.219   0.372  -0.109  0.00  0.00    -0.012 A 
ATOM      4  C3A BZF d   1      -0.253   1.422   0.001  0.00  0.00    -0.107 A 
ATOM      5  C4  BZF d   1      -0.350   2.781   0.089  0.00  0.00     0.055 A 
ATOM      6  C5  BZF d   1       0.782   3.514   0.259  0.00  0.00    -0.016 A 
ATOM      7  C6  BZF d   1       2.024   2.921   0.350  0.00  0.00     0.022 A 
ATOM      8  C7  BZF d   1       2.171   1.577   0.262  0.00  0.00     0.029 A 
ATOM      9  C7A BZF d   1       1.032   0.836   0.057  0.00  0.00     0.058 A 
ENDROOT
TORSDOF 0
ENDMDL
