MODEL 1
REMARK minimizedAffinity -6.69073439
REMARK minimizedRMSD -1
REMARK  0 active torsions:
REMARK  status: ('A' for Active; 'I' for Inactive)
ROOT
ATOM      1  O1  BZF d   1       2.010  -0.081   0.507  0.00  0.00    -0.204 OA
ATOM      2  C2  BZF d   1       3.127   0.730   0.493  0.00  0.00     0.174 A 
ATOM      3  C3  BZF d   1       2.783   2.015   0.271  0.00  0.00    -0.012 A 
ATOM      4  C3A BZF d   1       1.353   2.019   0.228  0.00  0.00    -0.107 A 
ATOM      5  C4  BZF d   1       0.421   3.003   0.053  0.00  0.00     0.055 A 
ATOM      6  C5  BZF d   1      -0.893   2.664  -0.009  0.00  0.00    -0.016 A 
ATOM      7  C6  BZF d   1      -1.311   1.353   0.093  0.00  0.00     0.022 A 
ATOM      8  C7  BZF d   1      -0.424   0.344   0.273  0.00  0.00     0.029 A 
ATOM      9  C7A BZF d   1       0.902   0.686   0.370  0.00  0.00     0.058 A 
ENDROOT
TORSDOF 0
ENDMDL
