MODEL 1
REMARK minimizedAffinity -1.90772796
REMARK minimizedRMSD -1
REMARK  0 active torsions:
REMARK  status: ('A' for Active; 'I' for Inactive)
ROOT
ATOM      1  O1  BZF d   1       2.630   1.068   0.349  0.00  0.00    -0.204 OA
ATOM      2  C2  BZF d   1       3.062   2.317   0.754  0.00  0.00     0.174 A 
ATOM      3  C3  BZF d   1       2.024   3.169   0.868  0.00  0.00    -0.012 A 
ATOM      4  C3A BZF d   1       0.859   2.381   0.601  0.00  0.00    -0.107 A 
ATOM      5  C4  BZF d   1      -0.477   2.660   0.578  0.00  0.00     0.055 A 
ATOM      6  C5  BZF d   1      -1.349   1.684   0.209  0.00  0.00    -0.016 A 
ATOM      7  C6  BZF d   1      -0.919   0.423  -0.147  0.00  0.00     0.022 A 
ATOM      8  C7  BZF d   1       0.397   0.098  -0.134  0.00  0.00     0.029 A 
ATOM      9  C7A BZF d   1       1.278   1.072   0.270  0.00  0.00     0.058 A 
ENDROOT
TORSDOF 0
ENDMDL
