MODEL 1
REMARK minimizedAffinity -1.99920511
REMARK minimizedRMSD -1
REMARK  0 active torsions:
REMARK  status: ('A' for Active; 'I' for Inactive)
ROOT
ATOM      1  O1  BZF d   1      -0.461   3.316  -0.140  0.00  0.00    -0.204 OA
ATOM      2  C2  BZF d   1       0.675   3.392  -0.922  0.00  0.00     0.174 A 
ATOM      3  C3  BZF d   1       1.263   2.183  -1.031  0.00  0.00    -0.012 A 
ATOM      4  C3A BZF d   1       0.391   1.278  -0.347  0.00  0.00    -0.107 A 
ATOM      5  C4  BZF d   1       0.424  -0.069  -0.122  0.00  0.00     0.055 A 
ATOM      6  C5  BZF d   1      -0.543  -0.634   0.646  0.00  0.00    -0.016 A 
ATOM      7  C6  BZF d   1      -1.554   0.117   1.210  0.00  0.00     0.022 A 
ATOM      8  C7  BZF d   1      -1.631   1.455   1.012  0.00  0.00     0.029 A 
ATOM      9  C7A BZF d   1      -0.674   2.024   0.208  0.00  0.00     0.058 A 
ENDROOT
TORSDOF 0
ENDMDL
