MODEL 1
REMARK minimizedAffinity -6.74436092
REMARK minimizedRMSD -1
REMARK  0 active torsions:
REMARK  status: ('A' for Active; 'I' for Inactive)
ROOT
ATOM      1  O1  BZF d   1      -1.043   2.405   0.481  0.00  0.00    -0.204 OA
ATOM      2  C2  BZF d   1      -1.577   1.131   0.469  0.00  0.00     0.174 A 
ATOM      3  C3  BZF d   1      -0.599   0.202   0.464  0.00  0.00    -0.012 A 
ATOM      4  C3A BZF d   1       0.622   0.940   0.567  0.00  0.00    -0.107 A 
ATOM      5  C4  BZF d   1       1.937   0.577   0.626  0.00  0.00     0.055 A 
ATOM      6  C5  BZF d   1       2.889   1.545   0.650  0.00  0.00    -0.016 A 
ATOM      7  C6  BZF d   1       2.564   2.885   0.609  0.00  0.00     0.022 A 
ATOM      8  C7  BZF d   1       1.273   3.295   0.555  0.00  0.00     0.029 A 
ATOM      9  C7A BZF d   1       0.306   2.319   0.565  0.00  0.00     0.058 A 
ENDROOT
TORSDOF 0
ENDMDL
