MODEL 1
REMARK minimizedAffinity -4.3496356
REMARK minimizedRMSD -1
REMARK  0 active torsions:
REMARK  status: ('A' for Active; 'I' for Inactive)
ROOT
ATOM      1  O1  BZF d   1       2.155   0.272   0.769  0.00  0.00    -0.204 OA
ATOM      2  C2  BZF d   1       3.290   1.044   0.612  0.00  0.00     0.174 A 
ATOM      3  C3  BZF d   1       2.987   2.232   0.051  0.00  0.00    -0.012 A 
ATOM      4  C3A BZF d   1       1.562   2.238  -0.072  0.00  0.00    -0.107 A 
ATOM      5  C4  BZF d   1       0.664   3.152  -0.544  0.00  0.00     0.055 A 
ATOM      6  C5  BZF d   1      -0.653   2.821  -0.592  0.00  0.00    -0.016 A 
ATOM      7  C6  BZF d   1      -1.106   1.584  -0.182  0.00  0.00     0.022 A 
ATOM      8  C7  BZF d   1      -0.254   0.646   0.298  0.00  0.00     0.029 A 
ATOM      9  C7A BZF d   1       1.074   0.990   0.379  0.00  0.00     0.058 A 
ENDROOT
TORSDOF 0
ENDMDL
