MODEL 1
REMARK minimizedAffinity -4.9088583
REMARK minimizedRMSD -1
REMARK  0 active torsions:
REMARK  status: ('A' for Active; 'I' for Inactive)
ROOT
ATOM      1  O1  BZF d   1       2.252   0.915   0.439  0.00  0.00    -0.204 OA
ATOM      2  C2  BZF d   1       2.016  -0.424   0.683  0.00  0.00     0.174 A 
ATOM      3  C3  BZF d   1       0.694  -0.662   0.810  0.00  0.00    -0.012 A 
ATOM      4  C3A BZF d   1       0.059   0.593   0.543  0.00  0.00    -0.107 A 
ATOM      5  C4  BZF d   1      -1.245   0.995   0.501  0.00  0.00     0.055 A 
ATOM      6  C5  BZF d   1      -1.526   2.306   0.284  0.00  0.00    -0.016 A 
ATOM      7  C6  BZF d   1      -0.528   3.243   0.110  0.00  0.00     0.022 A 
ATOM      8  C7  BZF d   1       0.781   2.891   0.138  0.00  0.00     0.029 A 
ATOM      9  C7A BZF d   1       1.067   1.561   0.325  0.00  0.00     0.058 A 
ENDROOT
TORSDOF 0
ENDMDL
