MODEL 1
REMARK minimizedAffinity -0.861466229
REMARK minimizedRMSD -1
REMARK  0 active torsions:
REMARK  status: ('A' for Active; 'I' for Inactive)
ROOT
ATOM      1  O1  BZF d   1       1.340   2.055   1.075  0.00  0.00    -0.204 OA
ATOM      2  C2  BZF d   1       0.484   3.139   1.036  0.00  0.00     0.174 A 
ATOM      3  C3  BZF d   1      -0.713   2.786   0.526  0.00  0.00    -0.012 A 
ATOM      4  C3A BZF d   1      -0.629   1.374   0.312  0.00  0.00    -0.107 A 
ATOM      5  C4  BZF d   1      -1.508   0.443  -0.163  0.00  0.00     0.055 A 
ATOM      6  C5  BZF d   1      -1.091  -0.842  -0.316  0.00  0.00    -0.016 A 
ATOM      7  C6  BZF d   1       0.197  -1.228  -0.008  0.00  0.00     0.022 A 
ATOM      8  C7  BZF d   1       1.103  -0.341   0.472  0.00  0.00     0.029 A 
ATOM      9  C7A BZF d   1       0.675   0.951   0.658  0.00  0.00     0.058 A 
ENDROOT
TORSDOF 0
ENDMDL
