MODEL 1
REMARK minimizedAffinity -4.60495615
REMARK minimizedRMSD -1
REMARK  0 active torsions:
REMARK  status: ('A' for Active; 'I' for Inactive)
ROOT
ATOM      1  O1  BZF d   1       1.044  -0.299   0.150  0.00  0.00    -0.204 OA
ATOM      2  C2  BZF d   1      -0.266  -0.533  -0.223  0.00  0.00     0.174 A 
ATOM      3  C3  BZF d   1      -0.987   0.605  -0.175  0.00  0.00    -0.012 A 
ATOM      4  C3A BZF d   1      -0.050   1.632   0.164  0.00  0.00    -0.107 A 
ATOM      5  C4  BZF d   1      -0.159   2.981   0.344  0.00  0.00     0.055 A 
ATOM      6  C5  BZF d   1       0.933   3.685   0.743  0.00  0.00    -0.016 A 
ATOM      7  C6  BZF d   1       2.146   3.071   0.976  0.00  0.00     0.022 A 
ATOM      8  C7  BZF d   1       2.305   1.736   0.806  0.00  0.00     0.029 A 
ATOM      9  C7A BZF d   1       1.212   1.027   0.371  0.00  0.00     0.058 A 
ENDROOT
TORSDOF 0
ENDMDL
