MODEL 1
REMARK minimizedAffinity -1.93568587
REMARK minimizedRMSD -1
REMARK  0 active torsions:
REMARK  status: ('A' for Active; 'I' for Inactive)
ROOT
ATOM      1  O1  BZF d   1       0.669  -0.957   0.174  0.00  0.00    -0.204 OA
ATOM      2  C2  BZF d   1      -0.668  -1.173  -0.098  0.00  0.00     0.174 A 
ATOM      3  C3  BZF d   1      -1.382  -0.044   0.085  0.00  0.00    -0.012 A 
ATOM      4  C3A BZF d   1      -0.418   0.963   0.408  0.00  0.00    -0.107 A 
ATOM      5  C4  BZF d   1      -0.511   2.297   0.685  0.00  0.00     0.055 A 
ATOM      6  C5  BZF d   1       0.612   2.979   1.033  0.00  0.00    -0.016 A 
ATOM      7  C6  BZF d   1       1.841   2.358   1.120  0.00  0.00     0.022 A 
ATOM      8  C7  BZF d   1       1.983   1.037   0.850  0.00  0.00     0.029 A 
ATOM      9  C7A BZF d   1       0.856   0.353   0.466  0.00  0.00     0.058 A 
ENDROOT
TORSDOF 0
ENDMDL
