MODEL 1
REMARK minimizedAffinity -3.69739413
REMARK minimizedRMSD -1
REMARK  0 active torsions:
REMARK  status: ('A' for Active; 'I' for Inactive)
ROOT
ATOM      1  O1  BZF d   1      -0.213  -0.702   0.087  0.00  0.00    -0.204 OA
ATOM      2  C2  BZF d   1       1.074  -0.869  -0.388  0.00  0.00     0.174 A 
ATOM      3  C3  BZF d   1       1.665   0.325  -0.599  0.00  0.00    -0.012 A 
ATOM      4  C3A BZF d   1       0.720   1.298  -0.146  0.00  0.00    -0.107 A 
ATOM      5  C4  BZF d   1       0.734   2.662  -0.081  0.00  0.00     0.055 A 
ATOM      6  C5  BZF d   1      -0.379   3.315   0.345  0.00  0.00    -0.016 A 
ATOM      7  C6  BZF d   1      -1.523   2.637   0.710  0.00  0.00     0.022 A 
ATOM      8  C7  BZF d   1      -1.584   1.284   0.667  0.00  0.00     0.029 A 
ATOM      9  C7A BZF d   1      -0.450   0.620   0.268  0.00  0.00     0.058 A 
ENDROOT
TORSDOF 0
ENDMDL
