MODEL 1
REMARK minimizedAffinity -1.41698229
REMARK minimizedRMSD -1
REMARK  0 active torsions:
REMARK  status: ('A' for Active; 'I' for Inactive)
ROOT
ATOM      1  O1  BZF d   1       0.777  -0.268  -0.410  0.00  0.00    -0.204 OA
ATOM      2  C2  BZF d   1      -0.080  -1.313  -0.122  0.00  0.00     0.174 A 
ATOM      3  C3  BZF d   1      -1.126  -0.885   0.614  0.00  0.00    -0.012 A 
ATOM      4  C3A BZF d   1      -0.958   0.532   0.719  0.00  0.00    -0.107 A 
ATOM      5  C4  BZF d   1      -1.685   1.523   1.316  0.00  0.00     0.055 A 
ATOM      6  C5  BZF d   1      -1.208   2.795   1.297  0.00  0.00    -0.016 A 
ATOM      7  C6  BZF d   1      -0.007   3.112   0.695  0.00  0.00     0.022 A 
ATOM      8  C7  BZF d   1       0.746   2.164   0.085  0.00  0.00     0.029 A 
ATOM      9  C7A BZF d   1       0.251   0.883   0.074  0.00  0.00     0.058 A 
ENDROOT
TORSDOF 0
ENDMDL
