MODEL 1
REMARK minimizedAffinity -2.87896085
REMARK minimizedRMSD -1
REMARK  0 active torsions:
REMARK  status: ('A' for Active; 'I' for Inactive)
ROOT
ATOM      1  C   UNL d   1      -0.414  -1.254   0.547  0.00  0.00     0.077 C 
ATOM      2  C1  UNL d   1      -0.034   0.105   0.039  0.00  0.00    -0.074 A 
ATOM      3  C2  UNL d   1      -0.507   0.570  -1.192  0.00  0.00    -0.005 A 
ATOM      4  C3  UNL d   1      -0.153   1.840  -1.647  0.00  0.00     0.006 A 
ATOM      5  C4  UNL d   1       0.676   2.657  -0.877  0.00  0.00    -0.005 A 
ATOM      6  C5  UNL d   1       1.158   2.208   0.357  0.00  0.00    -0.074 A 
ATOM      7  C6  UNL d   1       2.043   3.077   1.202  0.00  0.00     0.077 C 
ATOM      8  C7  UNL d   1       0.793   0.934   0.810  0.00  0.00    -0.001 A 
ENDROOT
TORSDOF 0
ENDMDL
