MODEL 1
REMARK minimizedAffinity -0.868356287
REMARK minimizedRMSD -1
REMARK  0 active torsions:
REMARK  status: ('A' for Active; 'I' for Inactive)
ROOT
ATOM      1  C   UNL d   1       2.685   3.845  -0.032  0.00  0.00     0.077 C 
ATOM      2  C1  UNL d   1       1.601   4.139   0.962  0.00  0.00    -0.074 A 
ATOM      3  C2  UNL d   1       1.839   4.034   2.336  0.00  0.00    -0.005 A 
ATOM      4  C3  UNL d   1       0.824   4.320   3.249  0.00  0.00     0.006 A 
ATOM      5  C4  UNL d   1      -0.437   4.713   2.798  0.00  0.00    -0.005 A 
ATOM      6  C5  UNL d   1      -0.693   4.825   1.428  0.00  0.00    -0.074 A 
ATOM      7  C6  UNL d   1      -2.039   5.256   0.926  0.00  0.00     0.077 C 
ATOM      8  C7  UNL d   1       0.334   4.542   0.517  0.00  0.00    -0.001 A 
ENDROOT
TORSDOF 0
ENDMDL
