MODEL 1
REMARK minimizedAffinity -4.4803257
REMARK minimizedRMSD -1
REMARK  0 active torsions:
REMARK  status: ('A' for Active; 'I' for Inactive)
ROOT
ATOM      1  C   UNL d   1      -1.595   5.004   1.091  0.00  0.00     0.077 C 
ATOM      2  C1  UNL d   1      -0.845   3.800   0.606  0.00  0.00    -0.074 A 
ATOM      3  C2  UNL d   1       0.441   3.921   0.071  0.00  0.00    -0.005 A 
ATOM      4  C3  UNL d   1       1.130   2.791  -0.368  0.00  0.00     0.006 A 
ATOM      5  C4  UNL d   1       0.541   1.529  -0.277  0.00  0.00    -0.005 A 
ATOM      6  C5  UNL d   1      -0.745   1.388   0.256  0.00  0.00    -0.074 A 
ATOM      7  C6  UNL d   1      -1.389   0.039   0.370  0.00  0.00     0.077 C 
ATOM      8  C7  UNL d   1      -1.428   2.528   0.701  0.00  0.00    -0.001 A 
ENDROOT
TORSDOF 0
ENDMDL
