MODEL 1
REMARK minimizedAffinity -5.03229475
REMARK minimizedRMSD -1
REMARK  0 active torsions:
REMARK  status: ('A' for Active; 'I' for Inactive)
ROOT
ATOM      1  C   UNL d   1      -1.833   3.630   0.487  0.00  0.00     0.077 C 
ATOM      2  C1  UNL d   1      -1.097   2.621  -0.343  0.00  0.00    -0.074 A 
ATOM      3  C2  UNL d   1      -0.320   3.019  -1.436  0.00  0.00    -0.005 A 
ATOM      4  C3  UNL d   1       0.367   2.071  -2.193  0.00  0.00     0.006 A 
ATOM      5  C4  UNL d   1       0.284   0.717  -1.867  0.00  0.00    -0.005 A 
ATOM      6  C5  UNL d   1      -0.488   0.300  -0.777  0.00  0.00    -0.074 A 
ATOM      7  C6  UNL d   1      -0.580  -1.151  -0.406  0.00  0.00     0.077 C 
ATOM      8  C7  UNL d   1      -1.169   1.260  -0.017  0.00  0.00    -0.001 A 
ENDROOT
TORSDOF 0
ENDMDL
