MODEL 1
REMARK minimizedAffinity -5.08485556
REMARK minimizedRMSD -1
REMARK  0 active torsions:
REMARK  status: ('A' for Active; 'I' for Inactive)
ROOT
ATOM      1  C   UNL d   1      -1.338   2.006  -0.387  0.00  0.00     0.077 C 
ATOM      2  C1  UNL d   1      -0.586   3.078   0.344  0.00  0.00    -0.074 A 
ATOM      3  C2  UNL d   1      -1.264   4.066   1.066  0.00  0.00    -0.005 A 
ATOM      4  C3  UNL d   1      -0.550   5.052   1.749  0.00  0.00     0.006 A 
ATOM      5  C4  UNL d   1       0.845   5.060   1.715  0.00  0.00    -0.005 A 
ATOM      6  C5  UNL d   1       1.539   4.080   0.998  0.00  0.00    -0.074 A 
ATOM      7  C6  UNL d   1       3.038   4.069   0.960  0.00  0.00     0.077 C 
ATOM      8  C7  UNL d   1       0.815   3.089   0.321  0.00  0.00    -0.001 A 
ENDROOT
TORSDOF 0
ENDMDL
