MODEL 1
REMARK minimizedAffinity -4.6438036
REMARK minimizedRMSD -1
REMARK  0 active torsions:
REMARK  status: ('A' for Active; 'I' for Inactive)
ROOT
ATOM      1  C   UNL d   1       3.012   4.214   0.814  0.00  0.00     0.077 C 
ATOM      2  C1  UNL d   1       1.521   4.108   0.936  0.00  0.00    -0.074 A 
ATOM      3  C2  UNL d   1       0.786   5.078   1.625  0.00  0.00    -0.005 A 
ATOM      4  C3  UNL d   1      -0.602   4.971   1.722  0.00  0.00     0.006 A 
ATOM      5  C4  UNL d   1      -1.267   3.895   1.133  0.00  0.00    -0.005 A 
ATOM      6  C5  UNL d   1      -0.548   2.916   0.439  0.00  0.00    -0.074 A 
ATOM      7  C6  UNL d   1      -1.248   1.758  -0.209  0.00  0.00     0.077 C 
ATOM      8  C7  UNL d   1       0.845   3.034   0.340  0.00  0.00    -0.001 A 
ENDROOT
TORSDOF 0
ENDMDL
