MODEL 1
REMARK minimizedAffinity -4.86108971
REMARK minimizedRMSD -1
REMARK  0 active torsions:
REMARK  status: ('A' for Active; 'I' for Inactive)
ROOT
ATOM      1  C   UNL d   1       3.077   3.992   0.779  0.00  0.00     0.077 C 
ATOM      2  C1  UNL d   1       1.581   3.975   0.888  0.00  0.00    -0.074 A 
ATOM      3  C2  UNL d   1       0.912   4.866   1.732  0.00  0.00    -0.005 A 
ATOM      4  C3  UNL d   1      -0.480   4.845   1.815  0.00  0.00     0.006 A 
ATOM      5  C4  UNL d   1      -1.216   3.933   1.057  0.00  0.00    -0.005 A 
ATOM      6  C5  UNL d   1      -0.563   3.035   0.206  0.00  0.00    -0.074 A 
ATOM      7  C6  UNL d   1      -1.339   2.055  -0.623  0.00  0.00     0.077 C 
ATOM      8  C7  UNL d   1       0.835   3.067   0.123  0.00  0.00    -0.001 A 
ENDROOT
TORSDOF 0
ENDMDL
