MODEL 1
REMARK minimizedAffinity -3.75372338
REMARK minimizedRMSD -1
REMARK  0 active torsions:
REMARK  status: ('A' for Active; 'I' for Inactive)
ROOT
ATOM      1  C   UNL d   1      -0.385  -2.588   0.200  0.00  0.00     0.077 C 
ATOM      2  C1  UNL d   1      -0.710  -1.144   0.443  0.00  0.00    -0.074 A 
ATOM      3  C2  UNL d   1      -1.929  -0.768   1.017  0.00  0.00    -0.005 A 
ATOM      4  C3  UNL d   1      -2.213   0.578   1.246  0.00  0.00     0.006 A 
ATOM      5  C4  UNL d   1      -1.283   1.561   0.903  0.00  0.00    -0.005 A 
ATOM      6  C5  UNL d   1      -0.059   1.204   0.329  0.00  0.00    -0.074 A 
ATOM      7  C6  UNL d   1       0.955   2.247  -0.036  0.00  0.00     0.077 C 
ATOM      8  C7  UNL d   1       0.222  -0.151   0.109  0.00  0.00    -0.001 A 
ENDROOT
TORSDOF 0
ENDMDL
