MODEL 1
REMARK minimizedAffinity -3.4605093
REMARK minimizedRMSD -1
REMARK  0 active torsions:
REMARK  status: ('A' for Active; 'I' for Inactive)
ROOT
ATOM      1  C   UNL d   1       2.873   3.020  -0.117  0.00  0.00     0.077 C 
ATOM      2  C1  UNL d   1       1.843   2.039  -0.593  0.00  0.00    -0.074 A 
ATOM      3  C2  UNL d   1       1.926   1.471  -1.868  0.00  0.00    -0.005 A 
ATOM      4  C3  UNL d   1       0.966   0.553  -2.293  0.00  0.00     0.006 A 
ATOM      5  C4  UNL d   1      -0.086   0.195  -1.449  0.00  0.00    -0.005 A 
ATOM      6  C5  UNL d   1      -0.185   0.752  -0.170  0.00  0.00    -0.074 A 
ATOM      7  C6  UNL d   1      -1.303   0.370   0.753  0.00  0.00     0.077 C 
ATOM      8  C7  UNL d   1       0.788   1.668   0.252  0.00  0.00    -0.001 A 
ENDROOT
TORSDOF 0
ENDMDL
