MODEL 1
REMARK minimizedAffinity -2.75038743
REMARK minimizedRMSD -1
REMARK  0 active torsions:
REMARK  status: ('A' for Active; 'I' for Inactive)
ROOT
ATOM      1  C   UNL d   1       1.063  -0.971  -1.835  0.00  0.00     0.077 C 
ATOM      2  C1  UNL d   1       0.146  -0.005  -1.145  0.00  0.00    -0.074 A 
ATOM      3  C2  UNL d   1       0.165   1.356  -1.464  0.00  0.00    -0.005 A 
ATOM      4  C3  UNL d   1      -0.700   2.242  -0.821  0.00  0.00     0.006 A 
ATOM      5  C4  UNL d   1      -1.591   1.775   0.146  0.00  0.00    -0.005 A 
ATOM      6  C5  UNL d   1      -1.625   0.417   0.478  0.00  0.00    -0.074 A 
ATOM      7  C6  UNL d   1      -2.584  -0.102   1.508  0.00  0.00     0.077 C 
ATOM      8  C7  UNL d   1      -0.758  -0.467  -0.178  0.00  0.00    -0.001 A 
ENDROOT
TORSDOF 0
ENDMDL
