MODEL 1
REMARK minimizedAffinity -5.68153381
REMARK minimizedRMSD -1
REMARK  0 active torsions:
REMARK  status: ('A' for Active; 'I' for Inactive)
ROOT
ATOM      1  C   UNL d   1      -1.136  -2.482   0.380  0.00  0.00     0.077 C 
ATOM      2  C1  UNL d   1      -0.776  -1.176  -0.264  0.00  0.00    -0.074 A 
ATOM      3  C2  UNL d   1      -0.126  -1.141  -1.502  0.00  0.00    -0.005 A 
ATOM      4  C3  UNL d   1       0.194   0.082  -2.093  0.00  0.00     0.006 A 
ATOM      5  C4  UNL d   1      -0.132   1.278  -1.453  0.00  0.00    -0.005 A 
ATOM      6  C5  UNL d   1      -0.783   1.262  -0.216  0.00  0.00    -0.074 A 
ATOM      7  C6  UNL d   1      -1.149   2.539   0.481  0.00  0.00     0.077 C 
ATOM      8  C7  UNL d   1      -1.107   0.030   0.369  0.00  0.00    -0.001 A 
ENDROOT
TORSDOF 0
ENDMDL
