MODEL 1
REMARK minimizedAffinity -0.772855937
REMARK minimizedRMSD -1
REMARK  0 active torsions:
REMARK  status: ('A' for Active; 'I' for Inactive)
ROOT
ATOM      1  C   UNL d   1      -0.688  -2.131   0.524  0.00  0.00     0.077 C 
ATOM      2  C1  UNL d   1      -0.515  -0.807  -0.160  0.00  0.00    -0.074 A 
ATOM      3  C2  UNL d   1      -0.087  -0.736  -1.490  0.00  0.00    -0.005 A 
ATOM      4  C3  UNL d   1       0.060   0.502  -2.116  0.00  0.00     0.006 A 
ATOM      5  C4  UNL d   1      -0.220   1.679  -1.420  0.00  0.00    -0.005 A 
ATOM      6  C5  UNL d   1      -0.651   1.627  -0.091  0.00  0.00    -0.074 A 
ATOM      7  C6  UNL d   1      -0.965   2.882   0.668  0.00  0.00     0.077 C 
ATOM      8  C7  UNL d   1      -0.802   0.379   0.529  0.00  0.00    -0.001 A 
ENDROOT
TORSDOF 0
ENDMDL
