MODEL 1
REMARK minimizedAffinity -2.25927567
REMARK minimizedRMSD -1
REMARK  0 active torsions:
REMARK  status: ('A' for Active; 'I' for Inactive)
ROOT
ATOM      1  C   UNL d   1       0.398  -2.096   0.120  0.00  0.00     0.077 C 
ATOM      2  C1  UNL d   1      -0.219  -0.730   0.096  0.00  0.00    -0.074 A 
ATOM      3  C2  UNL d   1      -1.406  -0.465   0.787  0.00  0.00    -0.005 A 
ATOM      4  C3  UNL d   1      -1.964   0.813   0.763  0.00  0.00     0.006 A 
ATOM      5  C4  UNL d   1      -1.341   1.838   0.049  0.00  0.00    -0.005 A 
ATOM      6  C5  UNL d   1      -0.154   1.592  -0.647  0.00  0.00    -0.074 A 
ATOM      7  C6  UNL d   1       0.533   2.685  -1.412  0.00  0.00     0.077 C 
ATOM      8  C7  UNL d   1       0.404   0.307  -0.613  0.00  0.00    -0.001 A 
ENDROOT
TORSDOF 0
ENDMDL
