MODEL 1
REMARK minimizedAffinity -4.90967655
REMARK minimizedRMSD -1
REMARK  0 active torsions:
REMARK  status: ('A' for Active; 'I' for Inactive)
ROOT
ATOM      1  C   UNL d   1      -0.891   3.514   0.784  0.00  0.00     0.077 C 
ATOM      2  C1  UNL d   1      -0.631   2.197   0.114  0.00  0.00    -0.074 A 
ATOM      3  C2  UNL d   1       0.232   2.106  -0.982  0.00  0.00    -0.005 A 
ATOM      4  C3  UNL d   1       0.470   0.873  -1.589  0.00  0.00     0.006 A 
ATOM      5  C4  UNL d   1      -0.150  -0.279  -1.106  0.00  0.00    -0.005 A 
ATOM      6  C5  UNL d   1      -1.016  -0.208  -0.010  0.00  0.00    -0.074 A 
ATOM      7  C6  UNL d   1      -1.684  -1.439   0.528  0.00  0.00     0.077 C 
ATOM      8  C7  UNL d   1      -1.245   1.034   0.599  0.00  0.00    -0.001 A 
ENDROOT
TORSDOF 0
ENDMDL
