MODEL 1
REMARK minimizedAffinity -3.6091876
REMARK minimizedRMSD -1
REMARK  0 active torsions:
REMARK  status: ('A' for Active; 'I' for Inactive)
ROOT
ATOM      1  C   UNL d   1       1.474   3.621   1.389  0.00  0.00     0.077 C 
ATOM      2  C1  UNL d   1       0.759   2.553   0.616  0.00  0.00    -0.074 A 
ATOM      3  C2  UNL d   1       0.525   2.692  -0.755  0.00  0.00    -0.005 A 
ATOM      4  C3  UNL d   1      -0.132   1.685  -1.463  0.00  0.00     0.006 A 
ATOM      5  C4  UNL d   1      -0.562   0.531  -0.807  0.00  0.00    -0.005 A 
ATOM      6  C5  UNL d   1      -0.336   0.374   0.565  0.00  0.00    -0.074 A 
ATOM      7  C6  UNL d   1      -0.783  -0.864   1.283  0.00  0.00     0.077 C 
ATOM      8  C7  UNL d   1       0.332   1.387   1.267  0.00  0.00    -0.001 A 
ENDROOT
TORSDOF 0
ENDMDL
