MODEL 1
REMARK minimizedAffinity -2.14782906
REMARK minimizedRMSD -1
REMARK  0 active torsions:
REMARK  status: ('A' for Active; 'I' for Inactive)
ROOT
ATOM      1  C4' PXY d   1       0.509  -0.024  -2.496  0.00  0.00     0.077 C 
ATOM      2  C1' PXY d   1      -1.323   0.506   2.961  0.00  0.00     0.077 C 
ATOM      3  C1  PXY d   1      -0.830   0.366   1.534  0.00  0.00    -0.082 A 
ATOM      4  C2  PXY d   1      -1.566   0.835   0.539  0.00  0.00     0.003 A 
ATOM      5  C3  PXY d   1      -1.150   0.688  -0.759  0.00  0.00     0.003 A 
ATOM      6  C4  PXY d   1       0.056   0.103  -1.039  0.00  0.00    -0.082 A 
ATOM      7  C5  PXY d   1       0.817  -0.368  -0.029  0.00  0.00     0.003 A 
ATOM      8  C6  PXY d   1       0.358  -0.246   1.280  0.00  0.00     0.003 A 
ENDROOT
TORSDOF 0
ENDMDL
