MODEL 1
REMARK minimizedAffinity -5.04165506
REMARK minimizedRMSD -1
REMARK  0 active torsions:
REMARK  status: ('A' for Active; 'I' for Inactive)
ROOT
ATOM      1  C4' PXY d   1       0.745  -0.102  -3.274  0.00  0.00     0.077 C 
ATOM      2  C1' PXY d   1      -1.716   0.929   1.854  0.00  0.00     0.077 C 
ATOM      3  C1  PXY d   1      -1.060   0.655   0.515  0.00  0.00    -0.082 A 
ATOM      4  C2  PXY d   1      -1.508   1.265  -0.570  0.00  0.00     0.003 A 
ATOM      5  C3  PXY d   1      -0.947   1.005  -1.794  0.00  0.00     0.003 A 
ATOM      6  C4  PXY d   1       0.119   0.152  -1.900  0.00  0.00    -0.082 A 
ATOM      7  C5  PXY d   1       0.589  -0.466  -0.796  0.00  0.00     0.003 A 
ATOM      8  C6  PXY d   1      -0.021  -0.220   0.431  0.00  0.00     0.003 A 
ENDROOT
TORSDOF 0
ENDMDL
