MODEL 1
REMARK minimizedAffinity -4.00434208
REMARK minimizedRMSD -1
REMARK  0 active torsions:
REMARK  status: ('A' for Active; 'I' for Inactive)
ROOT
ATOM      1  C4' PXY d   1       0.409  -0.721  -2.632  0.00  0.00     0.077 C 
ATOM      2  C1' PXY d   1      -0.675   0.279   2.958  0.00  0.00     0.077 C 
ATOM      3  C1  PXY d   1      -0.379   0.012   1.495  0.00  0.00    -0.082 A 
ATOM      4  C2  PXY d   1      -1.033   0.685   0.562  0.00  0.00     0.003 A 
ATOM      5  C3  PXY d   1      -0.801   0.433  -0.766  0.00  0.00     0.003 A 
ATOM      6  C4  PXY d   1       0.149  -0.478  -1.142  0.00  0.00    -0.082 A 
ATOM      7  C5  PXY d   1       0.829  -1.160  -0.197  0.00  0.00     0.003 A 
ATOM      8  C6  PXY d   1       0.549  -0.920   1.145  0.00  0.00     0.003 A 
ENDROOT
TORSDOF 0
ENDMDL
