MODEL 1
REMARK minimizedAffinity -4.23157692
REMARK minimizedRMSD -1
REMARK  0 active torsions:
REMARK  status: ('A' for Active; 'I' for Inactive)
ROOT
ATOM      1  C4' PXY d   1       0.525  -0.140  -3.161  0.00  0.00     0.077 C 
ATOM      2  C1' PXY d   1      -1.567   0.779   2.149  0.00  0.00     0.077 C 
ATOM      3  C1  PXY d   1      -1.007   0.536   0.761  0.00  0.00    -0.082 A 
ATOM      4  C2  PXY d   1      -1.583   1.102  -0.286  0.00  0.00     0.003 A 
ATOM      5  C3  PXY d   1      -1.109   0.867  -1.551  0.00  0.00     0.003 A 
ATOM      6  C4  PXY d   1      -0.000   0.086  -1.741  0.00  0.00    -0.082 A 
ATOM      7  C5  PXY d   1       0.600  -0.487  -0.676  0.00  0.00     0.003 A 
ATOM      8  C6  PXY d   1       0.078  -0.269   0.595  0.00  0.00     0.003 A 
ENDROOT
TORSDOF 0
ENDMDL
