MODEL 1
REMARK minimizedAffinity -3.22078991
REMARK minimizedRMSD -1
REMARK  0 active torsions:
REMARK  status: ('A' for Active; 'I' for Inactive)
ROOT
ATOM      1  C4' PXY d   1       1.249   0.446  -3.140  0.00  0.00     0.077 C 
ATOM      2  C1' PXY d   1      -1.083   0.539   2.148  0.00  0.00     0.077 C 
ATOM      3  C1  PXY d   1      -0.460   0.509   0.766  0.00  0.00    -0.082 A 
ATOM      4  C2  PXY d   1      -0.880   1.357  -0.159  0.00  0.00     0.003 A 
ATOM      5  C3  PXY d   1      -0.351   1.322  -1.423  0.00  0.00     0.003 A 
ATOM      6  C4  PXY d   1       0.656   0.447  -1.729  0.00  0.00    -0.082 A 
ATOM      7  C5  PXY d   1       1.098  -0.414  -0.787  0.00  0.00     0.003 A 
ATOM      8  C6  PXY d   1       0.518  -0.391   0.478  0.00  0.00     0.003 A 
ENDROOT
TORSDOF 0
ENDMDL
