MODEL 1
REMARK minimizedAffinity -4.47007084
REMARK minimizedRMSD -1
REMARK  0 active torsions:
REMARK  status: ('A' for Active; 'I' for Inactive)
ROOT
ATOM      1  C4' PXY d   1       1.380   0.259  -3.438  0.00  0.00     0.077 C 
ATOM      2  C1' PXY d   1      -2.014   0.718   1.219  0.00  0.00     0.077 C 
ATOM      3  C1  PXY d   1      -1.119   0.586   0.002  0.00  0.00    -0.082 A 
ATOM      4  C2  PXY d   1      -0.800   1.665  -0.695  0.00  0.00     0.003 A 
ATOM      5  C3  PXY d   1      -0.018   1.560  -1.816  0.00  0.00     0.003 A 
ATOM      6  C4  PXY d   1       0.487   0.346  -2.197  0.00  0.00    -0.082 A 
ATOM      7  C5  PXY d   1       0.175  -0.758  -1.485  0.00  0.00     0.003 A 
ATOM      8  C6  PXY d   1      -0.654  -0.636  -0.374  0.00  0.00     0.003 A 
ENDROOT
TORSDOF 0
ENDMDL
