MODEL 1
REMARK minimizedAffinity -2.48553371
REMARK minimizedRMSD -1
REMARK  0 active torsions:
REMARK  status: ('A' for Active; 'I' for Inactive)
ROOT
ATOM      1  C4' PXY d   1      -0.731   0.361   3.364  0.00  0.00     0.077 C 
ATOM      2  C1' PXY d   1       0.504  -0.595  -2.201  0.00  0.00     0.077 C 
ATOM      3  C1  PXY d   1       0.170  -0.336  -0.745  0.00  0.00    -0.082 A 
ATOM      4  C2  PXY d   1       1.092  -0.538   0.183  0.00  0.00     0.003 A 
ATOM      5  C3  PXY d   1       0.797  -0.340   1.507  0.00  0.00     0.003 A 
ATOM      6  C4  PXY d   1      -0.436   0.121   1.881  0.00  0.00    -0.082 A 
ATOM      7  C5  PXY d   1      -1.378   0.340   0.939  0.00  0.00     0.003 A 
ATOM      8  C6  PXY d   1      -1.073   0.093  -0.396  0.00  0.00     0.003 A 
ENDROOT
TORSDOF 0
ENDMDL
