MODEL 1
REMARK minimizedAffinity -2.95018888
REMARK minimizedRMSD -1
REMARK  0 active torsions:
REMARK  status: ('A' for Active; 'I' for Inactive)
ROOT
ATOM      1  C4' PXY d   1      -2.853   0.302  -0.331  0.00  0.00     0.077 C 
ATOM      2  C1' PXY d   1       2.107   0.835   2.588  0.00  0.00     0.077 C 
ATOM      3  C1  PXY d   1       0.800   0.694   1.834  0.00  0.00    -0.082 A 
ATOM      4  C2  PXY d   1       0.807   0.237   0.592  0.00  0.00     0.003 A 
ATOM      5  C3  PXY d   1      -0.363   0.134  -0.116  0.00  0.00     0.003 A 
ATOM      6  C4  PXY d   1      -1.558   0.451   0.472  0.00  0.00    -0.082 A 
ATOM      7  C5  PXY d   1      -1.575   0.908   1.742  0.00  0.00     0.003 A 
ATOM      8  C6  PXY d   1      -0.372   1.044   2.429  0.00  0.00     0.003 A 
ENDROOT
TORSDOF 0
ENDMDL
