MODEL 1
REMARK minimizedAffinity -0.143973917
REMARK minimizedRMSD -1
REMARK  0 active torsions:
REMARK  status: ('A' for Active; 'I' for Inactive)
ROOT
ATOM      1  C4' PXY d   1      -0.143   0.325   2.888  0.00  0.00     0.077 C 
ATOM      2  C1' PXY d   1      -4.162   0.439  -1.265  0.00  0.00     0.077 C 
ATOM      3  C1  PXY d   1      -3.108   0.423  -0.176  0.00  0.00    -0.082 A 
ATOM      4  C2  PXY d   1      -2.302  -0.621  -0.061  0.00  0.00     0.003 A 
ATOM      5  C3  PXY d   1      -1.365  -0.667   0.939  0.00  0.00     0.003 A 
ATOM      6  C4  PXY d   1      -1.215   0.390   1.797  0.00  0.00    -0.082 A 
ATOM      7  C5  PXY d   1      -2.027   1.462   1.680  0.00  0.00     0.003 A 
ATOM      8  C6  PXY d   1      -2.999   1.472   0.684  0.00  0.00     0.003 A 
ENDROOT
TORSDOF 0
ENDMDL
