MODEL 1
REMARK minimizedAffinity 3.11554408
REMARK minimizedRMSD -1
REMARK  2 active torsions:
REMARK  status: ('A' for Active; 'I' for Inactive)
REMARK    1  A    between atoms: C1_2  and  C2_3 
REMARK    2  A    between atoms: C2_3  and  C3_4 
ROOT
ATOM      1  C3  UNL d   1       0.579   1.598   0.433  0.00  0.00    -0.075 A 
ATOM      2  C4  UNL d   1       0.644   0.467  -0.394  0.00  0.00     0.002 A 
ATOM      3  C5  UNL d   1      -0.202   0.347  -1.497  0.00  0.00     0.002 A 
ATOM      4  C6  UNL d   1      -1.129   1.348  -1.781  0.00  0.00    -0.004 A 
ATOM      5  C7  UNL d   1      -1.214   2.467  -0.956  0.00  0.00     0.002 A 
ATOM      6  C8  UNL d   1      -0.365   2.593   0.146  0.00  0.00     0.002 A 
ENDROOT
BRANCH   1   7
ATOM      7  C2  UNL d   1       1.511   1.748   1.611  0.00  0.00     0.056 C 
BRANCH   7   8
ATOM      8  C1  UNL d   1       2.451   0.556   1.818  0.00  0.00     0.007 C 
ATOM      9  C   UNL d   1       1.943  -0.436   2.857  0.00  0.00     0.009 C 
ENDBRANCH   7   8
ENDBRANCH   1   7
TORSDOF 2
ENDMDL
