MODEL 1
REMARK minimizedAffinity -0.659380257
REMARK minimizedRMSD -1
REMARK  2 active torsions:
REMARK  status: ('A' for Active; 'I' for Inactive)
REMARK    1  A    between atoms: C1_2  and  C2_3 
REMARK    2  A    between atoms: C2_3  and  C3_4 
ROOT
ATOM      1  C3  UNL d   1       0.111   2.188  -0.319  0.00  0.00    -0.075 A 
ATOM      2  C4  UNL d   1      -0.065   1.313  -1.401  0.00  0.00     0.002 A 
ATOM      3  C5  UNL d   1       0.788   0.222  -1.576  0.00  0.00     0.002 A 
ATOM      4  C6  UNL d   1       1.831   0.000  -0.680  0.00  0.00    -0.004 A 
ATOM      5  C7  UNL d   1       2.026   0.873   0.388  0.00  0.00     0.002 A 
ATOM      6  C8  UNL d   1       1.171   1.962   0.568  0.00  0.00     0.002 A 
ENDROOT
BRANCH   1   7
ATOM      7  C2  UNL d   1      -0.827   3.353  -0.108  0.00  0.00     0.056 C 
BRANCH   7   8
ATOM      8  C1  UNL d   1      -0.366   4.336   0.973  0.00  0.00     0.007 C 
ATOM      9  C   UNL d   1      -1.158   4.218   2.269  0.00  0.00     0.009 C 
ENDBRANCH   7   8
ENDBRANCH   1   7
TORSDOF 2
ENDMDL
