MODEL 1
REMARK minimizedAffinity 2.57948542
REMARK minimizedRMSD -1
REMARK  2 active torsions:
REMARK  status: ('A' for Active; 'I' for Inactive)
REMARK    1  A    between atoms: C1_2  and  C2_3 
REMARK    2  A    between atoms: C2_3  and  C3_4 
ROOT
ATOM      1  C3  UNL d   1      -2.715   3.419   0.763  0.00  0.00    -0.075 A 
ATOM      2  C4  UNL d   1      -1.450   3.837   0.327  0.00  0.00     0.002 A 
ATOM      3  C5  UNL d   1      -0.524   4.355   1.233  0.00  0.00     0.002 A 
ATOM      4  C6  UNL d   1      -0.854   4.472   2.581  0.00  0.00    -0.004 A 
ATOM      5  C7  UNL d   1      -2.115   4.075   3.023  0.00  0.00     0.002 A 
ATOM      6  C8  UNL d   1      -3.041   3.552   2.119  0.00  0.00     0.002 A 
ENDROOT
BRANCH   1   7
ATOM      7  C2  UNL d   1      -3.711   2.830  -0.208  0.00  0.00     0.056 C 
BRANCH   7   8
ATOM      8  C1  UNL d   1      -3.484   1.346  -0.510  0.00  0.00     0.007 C 
ATOM      9  C   UNL d   1      -4.174   0.418   0.480  0.00  0.00     0.009 C 
ENDBRANCH   7   8
ENDBRANCH   1   7
TORSDOF 2
ENDMDL
