MODEL 1
REMARK minimizedAffinity 1.47105265
REMARK minimizedRMSD -1
REMARK  2 active torsions:
REMARK  status: ('A' for Active; 'I' for Inactive)
REMARK    1  A    between atoms: C1_2  and  C2_3 
REMARK    2  A    between atoms: C2_3  and  C3_4 
ROOT
ATOM      1  C3  UNL d   1       3.106   0.400  -1.807  0.00  0.00    -0.075 A 
ATOM      2  C4  UNL d   1       1.751   0.040  -1.769  0.00  0.00     0.002 A 
ATOM      3  C5  UNL d   1       1.071  -0.031  -0.554  0.00  0.00     0.002 A 
ATOM      4  C6  UNL d   1       1.737   0.247   0.638  0.00  0.00    -0.004 A 
ATOM      5  C7  UNL d   1       3.087   0.590   0.614  0.00  0.00     0.002 A 
ATOM      6  C8  UNL d   1       3.769   0.665  -0.602  0.00  0.00     0.002 A 
ENDROOT
BRANCH   1   7
ATOM      7  C2  UNL d   1       3.840   0.506  -3.123  0.00  0.00     0.056 C 
BRANCH   7   8
ATOM      8  C1  UNL d   1       4.513   1.863  -3.353  0.00  0.00     0.007 C 
ATOM      9  C   UNL d   1       6.000   1.860  -3.022  0.00  0.00     0.009 C 
ENDBRANCH   7   8
ENDBRANCH   1   7
TORSDOF 2
ENDMDL
