MODEL 1
REMARK minimizedAffinity 6.12011003
REMARK minimizedRMSD -1
REMARK  2 active torsions:
REMARK  status: ('A' for Active; 'I' for Inactive)
REMARK    1  A    between atoms: C1_2  and  C2_3 
REMARK    2  A    between atoms: C2_3  and  C3_4 
ROOT
ATOM      1  C3  UNL d   1       1.488   1.492   0.727  0.00  0.00    -0.075 A 
ATOM      2  C4  UNL d   1       0.633   2.590   0.560  0.00  0.00     0.002 A 
ATOM      3  C5  UNL d   1      -0.355   2.575  -0.425  0.00  0.00     0.002 A 
ATOM      4  C6  UNL d   1      -0.494   1.468  -1.259  0.00  0.00    -0.004 A 
ATOM      5  C7  UNL d   1       0.361   0.378  -1.113  0.00  0.00     0.002 A 
ATOM      6  C8  UNL d   1       1.348   0.389  -0.125  0.00  0.00     0.002 A 
ENDROOT
BRANCH   1   7
ATOM      7  C2  UNL d   1       2.541   1.490   1.810  0.00  0.00     0.056 C 
BRANCH   7   8
ATOM      8  C1  UNL d   1       3.979   1.540   1.283  0.00  0.00     0.007 C 
ATOM      9  C   UNL d   1       4.710   2.824   1.654  0.00  0.00     0.009 C 
ENDBRANCH   7   8
ENDBRANCH   1   7
TORSDOF 2
ENDMDL
