MODEL 1
REMARK minimizedAffinity 9.09449959
REMARK minimizedRMSD -1
REMARK  2 active torsions:
REMARK  status: ('A' for Active; 'I' for Inactive)
REMARK    1  A    between atoms: C1_2  and  C2_3 
REMARK    2  A    between atoms: C2_3  and  C3_4 
ROOT
ATOM      1  C3  UNL d   1       3.040   0.582   0.505  0.00  0.00    -0.075 A 
ATOM      2  C4  UNL d   1       3.670   0.556  -0.748  0.00  0.00     0.002 A 
ATOM      3  C5  UNL d   1       2.968   0.159  -1.886  0.00  0.00     0.002 A 
ATOM      4  C6  UNL d   1       1.633  -0.226  -1.786  0.00  0.00    -0.004 A 
ATOM      5  C7  UNL d   1       1.001  -0.220  -0.544  0.00  0.00     0.002 A 
ATOM      6  C8  UNL d   1       1.700   0.181   0.596  0.00  0.00     0.002 A 
ENDROOT
BRANCH   1   7
ATOM      7  C2  UNL d   1       3.786   1.039   1.736  0.00  0.00     0.056 C 
BRANCH   7   8
ATOM      8  C1  UNL d   1       4.971   1.963   1.439  0.00  0.00     0.007 C 
ATOM      9  C   UNL d   1       4.726   3.407   1.856  0.00  0.00     0.009 C 
ENDBRANCH   7   8
ENDBRANCH   1   7
TORSDOF 2
ENDMDL
