MODEL 1
REMARK minimizedAffinity 8.48607922
REMARK minimizedRMSD -1
REMARK  2 active torsions:
REMARK  status: ('A' for Active; 'I' for Inactive)
REMARK    1  A    between atoms: C1_2  and  C2_3 
REMARK    2  A    between atoms: C2_3  and  C3_4 
ROOT
ATOM      1  C3  UNL d   1       4.936   1.814  -1.802  0.00  0.00    -0.075 A 
ATOM      2  C4  UNL d   1       5.002   1.763  -0.402  0.00  0.00     0.002 A 
ATOM      3  C5  UNL d   1       4.056   1.041   0.326  0.00  0.00     0.002 A 
ATOM      4  C6  UNL d   1       3.027   0.371  -0.334  0.00  0.00    -0.004 A 
ATOM      5  C7  UNL d   1       2.943   0.430  -1.724  0.00  0.00     0.002 A 
ATOM      6  C8  UNL d   1       3.891   1.147  -2.454  0.00  0.00     0.002 A 
ENDROOT
BRANCH   1   7
ATOM      7  C2  UNL d   1       5.975   2.569  -2.596  0.00  0.00     0.056 C 
BRANCH   7   8
ATOM      8  C1  UNL d   1       5.446   3.845  -3.260  0.00  0.00     0.007 C 
ATOM      9  C   UNL d   1       5.711   5.102  -2.443  0.00  0.00     0.009 C 
ENDBRANCH   7   8
ENDBRANCH   1   7
TORSDOF 2
ENDMDL
