MODEL 1
REMARK minimizedAffinity 10.6064444
REMARK minimizedRMSD -1
REMARK  0 active torsions:
REMARK  status: ('A' for Active; 'I' for Inactive)
ROOT
ATOM      1  O1  BZF d   1       2.291   1.280   2.317  0.00  0.00    -0.204 OA
ATOM      2  C2  BZF d   1       2.647   1.316   0.983  0.00  0.00     0.174 A 
ATOM      3  C3  BZF d   1       2.431   0.121   0.397  0.00  0.00    -0.012 A 
ATOM      4  C3A BZF d   1       1.820  -0.688   1.408  0.00  0.00    -0.107 A 
ATOM      5  C4  BZF d   1       1.356  -1.972   1.429  0.00  0.00     0.055 A 
ATOM      6  C5  BZF d   1       0.883  -2.484   2.596  0.00  0.00    -0.016 A 
ATOM      7  C6  BZF d   1       0.864  -1.743   3.759  0.00  0.00     0.022 A 
ATOM      8  C7  BZF d   1       1.309  -0.463   3.786  0.00  0.00     0.029 A 
ATOM      9  C7A BZF d   1       1.757   0.068   2.601  0.00  0.00     0.058 A 
ENDROOT
TORSDOF 0
ENDMDL
