MODEL 1
REMARK minimizedAffinity 12.7789373
REMARK minimizedRMSD -1
REMARK  0 active torsions:
REMARK  status: ('A' for Active; 'I' for Inactive)
ROOT
ATOM      1  O1  BZF d   1      -3.369   1.372  -3.745  0.00  0.00    -0.204 OA
ATOM      2  C2  BZF d   1      -2.728   0.963  -2.592  0.00  0.00     0.174 A 
ATOM      3  C3  BZF d   1      -3.186   1.645  -1.522  0.00  0.00    -0.012 A 
ATOM      4  C3A BZF d   1      -4.241   2.470  -2.026  0.00  0.00    -0.107 A 
ATOM      5  C4  BZF d   1      -5.093   3.364  -1.443  0.00  0.00     0.055 A 
ATOM      6  C5  BZF d   1      -5.960   4.058  -2.227  0.00  0.00    -0.016 A 
ATOM      7  C6  BZF d   1      -5.998   3.887  -3.595  0.00  0.00     0.022 A 
ATOM      8  C7  BZF d   1      -5.176   3.008  -4.218  0.00  0.00     0.029 A 
ATOM      9  C7A BZF d   1      -4.321   2.281  -3.425  0.00  0.00     0.058 A 
ENDROOT
TORSDOF 0
ENDMDL
