MODEL 1
REMARK minimizedAffinity 7.99734068
REMARK minimizedRMSD -1
REMARK  0 active torsions:
REMARK  status: ('A' for Active; 'I' for Inactive)
ROOT
ATOM      1  O1  BZF d   1      -3.500  -3.246  -3.337  0.00  0.00    -0.204 OA
ATOM      2  C2  BZF d   1      -4.170  -2.038  -3.352  0.00  0.00     0.174 A 
ATOM      3  C3  BZF d   1      -5.180  -2.063  -4.245  0.00  0.00    -0.012 A 
ATOM      4  C3A BZF d   1      -5.197  -3.399  -4.758  0.00  0.00    -0.107 A 
ATOM      5  C4  BZF d   1      -5.983  -4.046  -5.668  0.00  0.00     0.055 A 
ATOM      6  C5  BZF d   1      -5.690  -5.330  -6.000  0.00  0.00    -0.016 A 
ATOM      7  C6  BZF d   1      -4.615  -5.996  -5.447  0.00  0.00     0.022 A 
ATOM      8  C7  BZF d   1      -3.809  -5.397  -4.537  0.00  0.00     0.029 A 
ATOM      9  C7A BZF d   1      -4.123  -4.110  -4.174  0.00  0.00     0.058 A 
ENDROOT
TORSDOF 0
ENDMDL
