MODEL 1
REMARK minimizedAffinity 18.4804878
REMARK minimizedRMSD -1
REMARK  0 active torsions:
REMARK  status: ('A' for Active; 'I' for Inactive)
ROOT
ATOM      1  O1  BZF d   1      -3.378   0.331  -3.375  0.00  0.00    -0.204 OA
ATOM      2  C2  BZF d   1      -3.623   1.554  -2.779  0.00  0.00     0.174 A 
ATOM      3  C3  BZF d   1      -4.619   1.455  -1.875  0.00  0.00    -0.012 A 
ATOM      4  C3A BZF d   1      -4.959   0.065  -1.841  0.00  0.00    -0.107 A 
ATOM      5  C4  BZF d   1      -5.867  -0.661  -1.125  0.00  0.00     0.055 A 
ATOM      6  C5  BZF d   1      -6.000  -1.989  -1.382  0.00  0.00    -0.016 A 
ATOM      7  C6  BZF d   1      -5.245  -2.621  -2.349  0.00  0.00     0.022 A 
ATOM      8  C7  BZF d   1      -4.328  -1.943  -3.080  0.00  0.00     0.029 A 
ATOM      9  C7A BZF d   1      -4.169  -0.607  -2.801  0.00  0.00     0.058 A 
ENDROOT
TORSDOF 0
ENDMDL
