MODEL 1
REMARK minimizedAffinity 6.47692537
REMARK minimizedRMSD -1
REMARK  0 active torsions:
REMARK  status: ('A' for Active; 'I' for Inactive)
ROOT
ATOM      1  O1  BZF d   1      -5.999  -2.239  -5.829  0.00  0.00    -0.204 OA
ATOM      2  C2  BZF d   1      -5.575  -3.543  -5.998  0.00  0.00     0.174 A 
ATOM      3  C3  BZF d   1      -5.019  -4.016  -4.863  0.00  0.00    -0.012 A 
ATOM      4  C3A BZF d   1      -5.185  -2.972  -3.899  0.00  0.00    -0.107 A 
ATOM      5  C4  BZF d   1      -4.852  -2.850  -2.580  0.00  0.00     0.055 A 
ATOM      6  C5  BZF d   1      -5.087  -1.672  -1.946  0.00  0.00    -0.016 A 
ATOM      7  C6  BZF d   1      -5.648  -0.594  -2.600  0.00  0.00     0.022 A 
ATOM      8  C7  BZF d   1      -6.000  -0.669  -3.907  0.00  0.00     0.029 A 
ATOM      9  C7A BZF d   1      -5.793  -1.869  -4.542  0.00  0.00     0.058 A 
ENDROOT
TORSDOF 0
ENDMDL
