MODEL 1
REMARK minimizedAffinity 10.4522848
REMARK minimizedRMSD -1
REMARK  0 active torsions:
REMARK  status: ('A' for Active; 'I' for Inactive)
ROOT
ATOM      1  O1  BZF d   1      -5.888  -2.451  -5.197  0.00  0.00    -0.204 OA
ATOM      2  C2  BZF d   1      -4.958  -1.713  -4.489  0.00  0.00     0.174 A 
ATOM      3  C3  BZF d   1      -3.900  -2.477  -4.149  0.00  0.00    -0.012 A 
ATOM      4  C3A BZF d   1      -4.144  -3.749  -4.757  0.00  0.00    -0.107 A 
ATOM      5  C4  BZF d   1      -3.444  -4.921  -4.794  0.00  0.00     0.055 A 
ATOM      6  C5  BZF d   1      -3.993  -5.999  -5.412  0.00  0.00    -0.016 A 
ATOM      7  C6  BZF d   1      -5.240  -5.943  -5.999  0.00  0.00     0.022 A 
ATOM      8  C7  BZF d   1      -5.970  -4.800  -5.992  0.00  0.00     0.029 A 
ATOM      9  C7A BZF d   1      -5.404  -3.700  -5.397  0.00  0.00     0.058 A 
ENDROOT
TORSDOF 0
ENDMDL
