MODEL 1
REMARK minimizedAffinity 12.408206
REMARK minimizedRMSD -1
REMARK  0 active torsions:
REMARK  status: ('A' for Active; 'I' for Inactive)
ROOT
ATOM      1  O1  BZF d   1      -2.290   2.498   1.031  0.00  0.00    -0.204 OA
ATOM      2  C2  BZF d   1      -1.555   1.421   1.488  0.00  0.00     0.174 A 
ATOM      3  C3  BZF d   1      -1.483   0.457   0.547  0.00  0.00    -0.012 A 
ATOM      4  C3A BZF d   1      -2.142   1.002  -0.600  0.00  0.00    -0.107 A 
ATOM      5  C4  BZF d   1      -2.382   0.527  -1.858  0.00  0.00     0.055 A 
ATOM      6  C5  BZF d   1      -3.116   1.280  -2.719  0.00  0.00    -0.016 A 
ATOM      7  C6  BZF d   1      -3.629   2.507  -2.354  0.00  0.00     0.022 A 
ATOM      8  C7  BZF d   1      -3.413   3.022  -1.119  0.00  0.00     0.029 A 
ATOM      9  C7A BZF d   1      -2.644   2.278  -0.258  0.00  0.00     0.058 A 
ENDROOT
TORSDOF 0
ENDMDL
