MODEL 1
REMARK minimizedAffinity 6.74446535
REMARK minimizedRMSD -1
REMARK  0 active torsions:
REMARK  status: ('A' for Active; 'I' for Inactive)
ROOT
ATOM      1  O1  BZF d   1      -4.092  -3.121  -2.741  0.00  0.00    -0.204 OA
ATOM      2  C2  BZF d   1      -4.277  -1.839  -3.220  0.00  0.00     0.174 A 
ATOM      3  C3  BZF d   1      -4.642  -1.860  -4.518  0.00  0.00    -0.012 A 
ATOM      4  C3A BZF d   1      -4.778  -3.246  -4.847  0.00  0.00    -0.107 A 
ATOM      5  C4  BZF d   1      -5.134  -3.910  -5.986  0.00  0.00     0.055 A 
ATOM      6  C5  BZF d   1      -5.097  -5.268  -5.998  0.00  0.00    -0.016 A 
ATOM      7  C6  BZF d   1      -4.704  -5.994  -4.892  0.00  0.00     0.022 A 
ATOM      8  C7  BZF d   1      -4.347  -5.380  -3.738  0.00  0.00     0.029 A 
ATOM      9  C7A BZF d   1      -4.415  -4.008  -3.712  0.00  0.00     0.058 A 
ENDROOT
TORSDOF 0
ENDMDL
