MODEL 1
REMARK minimizedAffinity 9.01470089
REMARK minimizedRMSD -1
REMARK  0 active torsions:
REMARK  status: ('A' for Active; 'I' for Inactive)
ROOT
ATOM      1  O1  BZF d   1      -1.435  -1.716   2.181  0.00  0.00    -0.204 OA
ATOM      2  C2  BZF d   1      -1.104  -0.410   1.878  0.00  0.00     0.174 A 
ATOM      3  C3  BZF d   1       0.226  -0.284   1.693  0.00  0.00    -0.012 A 
ATOM      4  C3A BZF d   1       0.748  -1.612   1.802  0.00  0.00    -0.107 A 
ATOM      5  C4  BZF d   1       2.004  -2.138   1.697  0.00  0.00     0.055 A 
ATOM      6  C5  BZF d   1       2.186  -3.464   1.929  0.00  0.00    -0.016 A 
ATOM      7  C6  BZF d   1       1.137  -4.291   2.274  0.00  0.00     0.022 A 
ATOM      8  C7  BZF d   1      -0.128  -3.816   2.385  0.00  0.00     0.029 A 
ATOM      9  C7A BZF d   1      -0.320  -2.483   2.118  0.00  0.00     0.058 A 
ENDROOT
TORSDOF 0
ENDMDL
