MODEL 1
REMARK minimizedAffinity 9.83235645
REMARK minimizedRMSD -1
REMARK  0 active torsions:
REMARK  status: ('A' for Active; 'I' for Inactive)
ROOT
ATOM      1  O1  BZF d   1      -4.386  -0.125  -3.501  0.00  0.00    -0.204 OA
ATOM      2  C2  BZF d   1      -4.491  -0.567  -2.196  0.00  0.00     0.174 A 
ATOM      3  C3  BZF d   1      -4.992   0.401  -1.402  0.00  0.00    -0.012 A 
ATOM      4  C3A BZF d   1      -5.300   1.487  -2.281  0.00  0.00    -0.107 A 
ATOM      5  C4  BZF d   1      -5.839   2.727  -2.088  0.00  0.00     0.055 A 
ATOM      6  C5  BZF d   1      -5.940   3.575  -3.145  0.00  0.00    -0.016 A 
ATOM      7  C6  BZF d   1      -5.507   3.219  -4.405  0.00  0.00     0.022 A 
ATOM      8  C7  BZF d   1      -4.970   1.998  -4.647  0.00  0.00     0.029 A 
ATOM      9  C7A BZF d   1      -4.897   1.127  -3.588  0.00  0.00     0.058 A 
ENDROOT
TORSDOF 0
ENDMDL
