MODEL 1
REMARK minimizedAffinity -1.3218168
REMARK minimizedRMSD -1
REMARK  1 active torsions:
REMARK  status: ('A' for Active; 'I' for Inactive)
REMARK    1  A    between atoms: N_2  and  C1_3 
ROOT
ATOM      1  C1  UNL d   1      -1.203  -1.061  -0.378  0.00  0.00     0.143 A 
ATOM      2  C2  UNL d   1      -0.996  -2.405  -0.710  0.00  0.00    -0.057 A 
ATOM      3  C3  UNL d   1      -2.063  -3.234  -1.079  0.00  0.00     0.033 A 
ATOM      4  C4  UNL d   1      -3.363  -2.740  -1.094  0.00  0.00    -0.042 A 
ATOM      5  C5  UNL d   1      -3.595  -1.414  -0.744  0.00  0.00     0.033 A 
ATOM      6  C6  UNL d   1      -2.525  -0.589  -0.383  0.00  0.00    -0.057 A 
ENDROOT
BRANCH   1   7
ATOM      7  N   UNL d   1      -0.198  -0.213   0.092  0.00  0.00    -0.732 N 
ATOM      8  C   UNL d   1       1.134  -0.718   0.347  0.00  0.00     0.284 C 
ATOM      9  H3  UNL d   1      -0.217   0.699  -0.359  0.00  0.00     0.395 HD
ENDBRANCH   1   7
TORSDOF 1
ENDMDL
