MODEL 1
REMARK minimizedAffinity 3.2159698
REMARK minimizedRMSD -1
REMARK  0 active torsions:
REMARK  status: ('A' for Active; 'I' for Inactive)
ROOT
ATOM      1  C   UNL d   1       0.326   0.504   0.887  0.00  0.00     0.023 A 
ATOM      2  C1  UNL d   1       0.315   1.863   1.200  0.00  0.00     0.003 A 
ATOM      3  C2  UNL d   1      -0.692   2.385   2.014  0.00  0.00     0.048 A 
ATOM      4  C3  UNL d   1      -1.685   1.542   2.513  0.00  0.00     0.023 A 
ATOM      5  C4  UNL d   1      -1.677   0.181   2.203  0.00  0.00     0.048 A 
ATOM      6  C5  UNL d   1      -0.668  -0.336   1.388  0.00  0.00     0.003 A 
ATOM      7  I   UNL d   1      -3.185   2.317   3.725  0.00  0.00    -0.146 I 
ENDROOT
TORSDOF 0
ENDMDL
