MODEL 1
REMARK minimizedAffinity -2.13914704
REMARK minimizedRMSD -1
REMARK  0 active torsions:
REMARK  status: ('A' for Active; 'I' for Inactive)
ROOT
ATOM      1  C   UNL d   1      -0.117   0.314   1.161  0.00  0.00     0.023 A 
ATOM      2  C1  UNL d   1      -1.221  -0.480   1.470  0.00  0.00     0.003 A 
ATOM      3  C2  UNL d   1      -2.276   0.048   2.215  0.00  0.00     0.048 A 
ATOM      4  C3  UNL d   1      -2.222   1.372   2.648  0.00  0.00     0.023 A 
ATOM      5  C4  UNL d   1      -1.120   2.172   2.341  0.00  0.00     0.048 A 
ATOM      6  C5  UNL d   1      -0.066   1.639   1.596  0.00  0.00     0.003 A 
ATOM      7  I   UNL d   1      -3.792   2.161   3.758  0.00  0.00    -0.146 I 
ENDROOT
TORSDOF 0
ENDMDL
