MODEL 1
REMARK minimizedAffinity -1.37565076
REMARK minimizedRMSD -1
REMARK  0 active torsions:
REMARK  status: ('A' for Active; 'I' for Inactive)
ROOT
ATOM      1  C   UNL d   1      -0.008   0.118   1.437  0.00  0.00     0.023 A 
ATOM      2  C1  UNL d   1      -0.901  -0.856   1.882  0.00  0.00     0.003 A 
ATOM      3  C2  UNL d   1      -2.012  -0.491   2.645  0.00  0.00     0.048 A 
ATOM      4  C3  UNL d   1      -2.224   0.851   2.959  0.00  0.00     0.023 A 
ATOM      5  C4  UNL d   1      -1.333   1.830   2.515  0.00  0.00     0.048 A 
ATOM      6  C5  UNL d   1      -0.223   1.459   1.753  0.00  0.00     0.003 A 
ATOM      7  I   UNL d   1      -3.877   1.398   4.094  0.00  0.00    -0.146 I 
ENDROOT
TORSDOF 0
ENDMDL
