MODEL 1
REMARK minimizedAffinity -4.31429482
REMARK minimizedRMSD -1
REMARK  0 active torsions:
REMARK  status: ('A' for Active; 'I' for Inactive)
ROOT
ATOM      1  C   UNL d   1       0.195   0.699   0.804  0.00  0.00     0.023 A 
ATOM      2  C1  UNL d   1       0.143   1.908   1.499  0.00  0.00     0.003 A 
ATOM      3  C2  UNL d   1      -0.999   2.248   2.227  0.00  0.00     0.048 A 
ATOM      4  C3  UNL d   1      -2.085   1.374   2.258  0.00  0.00     0.023 A 
ATOM      5  C4  UNL d   1      -2.037   0.163   1.565  0.00  0.00     0.048 A 
ATOM      6  C5  UNL d   1      -0.894  -0.172   0.838  0.00  0.00     0.003 A 
ATOM      7  I   UNL d   1      -3.785   1.878   3.341  0.00  0.00    -0.146 I 
ENDROOT
TORSDOF 0
ENDMDL
