MODEL 1
REMARK minimizedAffinity -1.75079572
REMARK minimizedRMSD -1
REMARK  0 active torsions:
REMARK  status: ('A' for Active; 'I' for Inactive)
ROOT
ATOM      1  C   UNL d   1       0.244   0.589   0.977  0.00  0.00     0.023 A 
ATOM      2  C1  UNL d   1       0.101   1.874   1.502  0.00  0.00     0.003 A 
ATOM      3  C2  UNL d   1      -1.113   2.266   2.070  0.00  0.00     0.048 A 
ATOM      4  C3  UNL d   1      -2.180   1.369   2.111  0.00  0.00     0.023 A 
ATOM      5  C4  UNL d   1      -2.041   0.082   1.588  0.00  0.00     0.048 A 
ATOM      6  C5  UNL d   1      -0.825  -0.306   1.021  0.00  0.00     0.003 A 
ATOM      7  I   UNL d   1      -3.987   1.950   2.955  0.00  0.00    -0.146 I 
ENDROOT
TORSDOF 0
ENDMDL
