MODEL 1
REMARK minimizedAffinity 3.37074304
REMARK minimizedRMSD -1
REMARK  0 active torsions:
REMARK  status: ('A' for Active; 'I' for Inactive)
ROOT
ATOM      1  C   UNL d   1      -0.325   0.687   1.476  0.00  0.00     0.023 A 
ATOM      2  C1  UNL d   1      -1.266  -0.220   1.963  0.00  0.00     0.003 A 
ATOM      3  C2  UNL d   1      -2.341   0.232   2.732  0.00  0.00     0.048 A 
ATOM      4  C3  UNL d   1      -2.469   1.593   3.008  0.00  0.00     0.023 A 
ATOM      5  C4  UNL d   1      -1.530   2.504   2.522  0.00  0.00     0.048 A 
ATOM      6  C5  UNL d   1      -0.456   2.048   1.755  0.00  0.00     0.003 A 
ATOM      7  I   UNL d   1      -4.068   2.269   4.151  0.00  0.00    -0.146 I 
ENDROOT
TORSDOF 0
ENDMDL
