MODEL 1
REMARK minimizedAffinity 5.26461792
REMARK minimizedRMSD -1
REMARK  0 active torsions:
REMARK  status: ('A' for Active; 'I' for Inactive)
ROOT
ATOM      1  C   UNL d   1      -0.196   0.583   1.614  0.00  0.00     0.023 A 
ATOM      2  C1  UNL d   1      -0.737   1.408   0.627  0.00  0.00     0.003 A 
ATOM      3  C2  UNL d   1      -1.911   1.036  -0.030  0.00  0.00     0.048 A 
ATOM      4  C3  UNL d   1      -2.540  -0.163   0.304  0.00  0.00     0.023 A 
ATOM      5  C4  UNL d   1      -2.004  -0.991   1.292  0.00  0.00     0.048 A 
ATOM      6  C5  UNL d   1      -0.829  -0.615   1.945  0.00  0.00     0.003 A 
ATOM      7  I   UNL d   1      -4.288  -0.719  -0.673  0.00  0.00    -0.146 I 
ENDROOT
TORSDOF 0
ENDMDL
