MODEL 1
REMARK minimizedAffinity -4.04660749
REMARK minimizedRMSD -1
REMARK  0 active torsions:
REMARK  status: ('A' for Active; 'I' for Inactive)
ROOT
ATOM      1  C   UNL d   1      -0.036   0.731   0.984  0.00  0.00     0.023 A 
ATOM      2  C1  UNL d   1      -0.879  -0.317   1.356  0.00  0.00     0.003 A 
ATOM      3  C2  UNL d   1      -1.986  -0.069   2.169  0.00  0.00     0.048 A 
ATOM      4  C3  UNL d   1      -2.246   1.230   2.606  0.00  0.00     0.023 A 
ATOM      5  C4  UNL d   1      -1.406   2.281   2.236  0.00  0.00     0.048 A 
ATOM      6  C5  UNL d   1      -0.299   2.028   1.424  0.00  0.00     0.003 A 
ATOM      7  I   UNL d   1      -3.893   1.602   3.817  0.00  0.00    -0.146 I 
ENDROOT
TORSDOF 0
ENDMDL
