MODEL 1
REMARK minimizedAffinity 1.11606026
REMARK minimizedRMSD -1
REMARK  0 active torsions:
REMARK  status: ('A' for Active; 'I' for Inactive)
ROOT
ATOM      1  C   UNL d   1       0.324  -0.504   0.695  0.00  0.00     0.023 A 
ATOM      2  C1  UNL d   1       0.547   0.867   0.818  0.00  0.00     0.003 A 
ATOM      3  C2  UNL d   1      -0.338   1.657   1.553  0.00  0.00     0.048 A 
ATOM      4  C3  UNL d   1      -1.446   1.070   2.164  0.00  0.00     0.023 A 
ATOM      5  C4  UNL d   1      -1.673  -0.302   2.045  0.00  0.00     0.048 A 
ATOM      6  C5  UNL d   1      -0.785  -1.088   1.308  0.00  0.00     0.003 A 
ATOM      7  I   UNL d   1      -2.765   2.244   3.259  0.00  0.00    -0.146 I 
ENDROOT
TORSDOF 0
ENDMDL
