MODEL 1
REMARK minimizedAffinity 5.08153057
REMARK minimizedRMSD -1
REMARK  0 active torsions:
REMARK  status: ('A' for Active; 'I' for Inactive)
ROOT
ATOM      1  C   UNL d   1       0.175   0.329   1.851  0.00  0.00     0.023 A 
ATOM      2  C1  UNL d   1       1.343  -0.360   1.522  0.00  0.00     0.003 A 
ATOM      3  C2  UNL d   1       2.117   0.055   0.438  0.00  0.00     0.048 A 
ATOM      4  C3  UNL d   1       1.720   1.160  -0.314  0.00  0.00     0.023 A 
ATOM      5  C4  UNL d   1       0.552   1.853   0.012  0.00  0.00     0.048 A 
ATOM      6  C5  UNL d   1      -0.220   1.434   1.097  0.00  0.00     0.003 A 
ATOM      7  I   UNL d   1       2.871   1.780  -1.929  0.00  0.00    -0.146 I 
ENDROOT
TORSDOF 0
ENDMDL
