MODEL 1
REMARK minimizedAffinity -3.41171932
REMARK minimizedRMSD -1
REMARK  0 active torsions:
REMARK  status: ('A' for Active; 'I' for Inactive)
ROOT
ATOM      1  C   UNL d   1      -2.196   1.173   2.553  0.00  0.00     0.023 A 
ATOM      2  C1  UNL d   1      -2.051  -0.061   1.919  0.00  0.00     0.003 A 
ATOM      3  C2  UNL d   1      -0.887  -0.347   1.202  0.00  0.00     0.048 A 
ATOM      4  C3  UNL d   1       0.128   0.606   1.124  0.00  0.00     0.023 A 
ATOM      5  C4  UNL d   1      -0.012   1.841   1.758  0.00  0.00     0.048 A 
ATOM      6  C5  UNL d   1      -1.178   2.123   2.473  0.00  0.00     0.003 A 
ATOM      7  I   UNL d   1       1.861   0.183   0.058  0.00  0.00    -0.146 I 
ENDROOT
TORSDOF 0
ENDMDL
