MODEL 1
REMARK minimizedAffinity -0.266108274
REMARK minimizedRMSD -1
REMARK  0 active torsions:
REMARK  status: ('A' for Active; 'I' for Inactive)
ROOT
ATOM      1  C   UNL d   1       3.600  -0.330  -1.496  0.00  0.00     0.023 A 
ATOM      2  C1  UNL d   1       3.322  -0.915  -0.261  0.00  0.00     0.003 A 
ATOM      3  C2  UNL d   1       2.303  -0.400   0.544  0.00  0.00     0.048 A 
ATOM      4  C3  UNL d   1       1.566   0.700   0.106  0.00  0.00     0.023 A 
ATOM      5  C4  UNL d   1       1.840   1.288  -1.130  0.00  0.00     0.048 A 
ATOM      6  C5  UNL d   1       2.860   0.770  -1.930  0.00  0.00     0.003 A 
ATOM      7  I   UNL d   1       0.049   1.468   1.302  0.00  0.00    -0.146 I 
ENDROOT
TORSDOF 0
ENDMDL
