MODEL 1
REMARK minimizedAffinity 0.468486696
REMARK minimizedRMSD -1
REMARK  2 active torsions:
REMARK  status: ('A' for Active; 'I' for Inactive)
REMARK    1  A    between atoms: C2'_3  and  C1'_4 
REMARK    2  A    between atoms: C1'_4  and  C1_5 
ROOT
ATOM      1  C1  I4B d   1       3.572  -0.237   1.029  0.00  0.00    -0.075 A 
ATOM      2  C2  I4B d   1       3.662   1.130   1.118  0.00  0.00     0.003 A 
ATOM      3  C3  I4B d   1       4.885   1.784   0.836  0.00  0.00     0.002 A 
ATOM      4  C4  I4B d   1       6.000   1.034   0.520  0.00  0.00    -0.004 A 
ATOM      5  C5  I4B d   1       5.901  -0.350   0.408  0.00  0.00     0.002 A 
ATOM      6  C6  I4B d   1       4.677  -0.989   0.651  0.00  0.00     0.003 A 
ENDROOT
BRANCH   1   7
ATOM      7  C1' I4B d   1       2.273  -0.897   1.365  0.00  0.00     0.060 C 
BRANCH   7   8
ATOM      8  C2' I4B d   1       1.917  -1.834   0.229  0.00  0.00    -0.013 C 
ATOM      9  C4' I4B d   1       1.514  -3.190   0.746  0.00  0.00     0.013 C 
ATOM     10  C3' I4B d   1       0.809  -1.204  -0.561  0.00  0.00     0.013 C 
ENDBRANCH   7   8
ENDBRANCH   1   7
TORSDOF 2
ENDMDL
