MODEL 1
REMARK minimizedAffinity 4.61349678
REMARK minimizedRMSD -1
REMARK  2 active torsions:
REMARK  status: ('A' for Active; 'I' for Inactive)
REMARK    1  A    between atoms: C2'_3  and  C1'_4 
REMARK    2  A    between atoms: C1'_4  and  C1_5 
ROOT
ATOM      1  C1  I4B d   1       0.731  -1.799   1.917  0.00  0.00    -0.075 A 
ATOM      2  C2  I4B d   1       1.346  -2.996   2.190  0.00  0.00     0.003 A 
ATOM      3  C3  I4B d   1       2.107  -3.650   1.191  0.00  0.00     0.002 A 
ATOM      4  C4  I4B d   1       2.183  -3.102  -0.073  0.00  0.00    -0.004 A 
ATOM      5  C5  I4B d   1       1.577  -1.878  -0.341  0.00  0.00     0.002 A 
ATOM      6  C6  I4B d   1       0.857  -1.216   0.663  0.00  0.00     0.003 A 
ENDROOT
BRANCH   1   7
ATOM      7  C1' I4B d   1      -0.091  -1.152   2.986  0.00  0.00     0.060 C 
BRANCH   7   8
ATOM      8  C2' I4B d   1      -1.539  -1.537   2.758  0.00  0.00    -0.013 C 
ATOM      9  C4' I4B d   1      -1.898  -2.785   3.521  0.00  0.00     0.013 C 
ATOM     10  C3' I4B d   1      -2.397  -0.381   3.179  0.00  0.00     0.013 C 
ENDBRANCH   7   8
ENDBRANCH   1   7
TORSDOF 2
ENDMDL
