MODEL 1
REMARK minimizedAffinity 4.83388805
REMARK minimizedRMSD -1
REMARK  2 active torsions:
REMARK  status: ('A' for Active; 'I' for Inactive)
REMARK    1  A    between atoms: C2'_3  and  C1'_4 
REMARK    2  A    between atoms: C1'_4  and  C1_5 
ROOT
ATOM      1  C1  I4B d   1       4.980  -1.114  -0.388  0.00  0.00    -0.075 A 
ATOM      2  C2  I4B d   1       5.000  -1.487  -1.709  0.00  0.00     0.003 A 
ATOM      3  C3  I4B d   1       5.541  -0.617  -2.687  0.00  0.00     0.002 A 
ATOM      4  C4  I4B d   1       6.000   0.628  -2.309  0.00  0.00    -0.004 A 
ATOM      5  C5  I4B d   1       5.999   0.995  -0.967  0.00  0.00     0.002 A 
ATOM      6  C6  I4B d   1       5.498   0.114   0.002  0.00  0.00     0.003 A 
ENDROOT
BRANCH   1   7
ATOM      7  C1' I4B d   1       4.372  -2.044   0.614  0.00  0.00     0.060 C 
BRANCH   7   8
ATOM      8  C2' I4B d   1       2.913  -1.669   0.773  0.00  0.00    -0.013 C 
ATOM      9  C4' I4B d   1       2.012  -2.716   0.172  0.00  0.00     0.013 C 
ATOM     10  C3' I4B d   1       2.637  -1.493   2.236  0.00  0.00     0.013 C 
ENDBRANCH   7   8
ENDBRANCH   1   7
TORSDOF 2
ENDMDL
