MODEL 1
REMARK minimizedAffinity 11.2565832
REMARK minimizedRMSD -1
REMARK  2 active torsions:
REMARK  status: ('A' for Active; 'I' for Inactive)
REMARK    1  A    between atoms: C2'_3  and  C1'_4 
REMARK    2  A    between atoms: C1'_4  and  C1_5 
ROOT
ATOM      1  C1  I4B d   1       0.450  -2.524   1.779  0.00  0.00    -0.075 A 
ATOM      2  C2  I4B d   1       0.718  -1.635   0.768  0.00  0.00     0.003 A 
ATOM      3  C3  I4B d   1       1.683  -1.948  -0.220  0.00  0.00     0.002 A 
ATOM      4  C4  I4B d   1       2.388  -3.131  -0.130  0.00  0.00    -0.004 A 
ATOM      5  C5  I4B d   1       2.099  -4.041   0.882  0.00  0.00     0.002 A 
ATOM      6  C6  I4B d   1       1.116  -3.742   1.836  0.00  0.00     0.003 A 
ENDROOT
BRANCH   1   7
ATOM      7  C1' I4B d   1      -0.551  -2.147   2.824  0.00  0.00     0.060 C 
BRANCH   7   8
ATOM      8  C2' I4B d   1      -1.789  -2.995   2.611  0.00  0.00    -0.013 C 
ATOM      9  C4' I4B d   1      -2.258  -3.609   3.904  0.00  0.00     0.013 C 
ATOM     10  C3' I4B d   1      -2.850  -2.123   2.010  0.00  0.00     0.013 C 
ENDBRANCH   7   8
ENDBRANCH   1   7
TORSDOF 2
ENDMDL
