MODEL 1
REMARK minimizedAffinity 6.34129381
REMARK minimizedRMSD -1
REMARK  2 active torsions:
REMARK  status: ('A' for Active; 'I' for Inactive)
REMARK    1  A    between atoms: C2'_3  and  C1'_4 
REMARK    2  A    between atoms: C1'_4  and  C1_5 
ROOT
ATOM      1  C1  I4B d   1       0.121   2.471  -3.675  0.00  0.00    -0.075 A 
ATOM      2  C2  I4B d   1       0.127   1.753  -4.845  0.00  0.00     0.003 A 
ATOM      3  C3  I4B d   1       0.993   2.122  -5.903  0.00  0.00     0.002 A 
ATOM      4  C4  I4B d   1       1.793   3.238  -5.768  0.00  0.00    -0.004 A 
ATOM      5  C5  I4B d   1       1.802   3.951  -4.573  0.00  0.00     0.002 A 
ATOM      6  C6  I4B d   1       0.970   3.558  -3.515  0.00  0.00     0.003 A 
ENDROOT
BRANCH   1   7
ATOM      7  C1' I4B d   1      -0.830   2.073  -2.590  0.00  0.00     0.060 C 
BRANCH   7   8
ATOM      8  C2' I4B d   1      -2.238   2.198  -3.135  0.00  0.00    -0.013 C 
ATOM      9  C4' I4B d   1      -3.215   1.407  -2.306  0.00  0.00     0.013 C 
ATOM     10  C3' I4B d   1      -2.599   3.653  -3.155  0.00  0.00     0.013 C 
ENDBRANCH   7   8
ENDBRANCH   1   7
TORSDOF 2
ENDMDL
