MODEL 1
REMARK minimizedAffinity -0.80699569
REMARK minimizedRMSD -1
REMARK  1 active torsions:
REMARK  status: ('A' for Active; 'I' for Inactive)
REMARK    1  A    between atoms: C3_4  and  O_7 
ROOT
ATOM      1  C   UNL d   1       1.932  -3.615  -0.201  0.00  0.00    -0.033 A 
ATOM      2  C1  UNL d   1       2.764  -2.539   0.113  0.00  0.00     0.039 A 
ATOM      3  C2  UNL d   1       2.341  -1.569   1.024  0.00  0.00    -0.080 A 
ATOM      4  C3  UNL d   1       1.085  -1.687   1.613  0.00  0.00     0.150 A 
ATOM      5  C4  UNL d   1       0.252  -2.758   1.307  0.00  0.00    -0.007 A 
ATOM      6  C5  UNL d   1       0.676  -3.725   0.396  0.00  0.00     0.039 A 
ENDROOT
BRANCH   4   7
ATOM      7  O   UNL d   1       0.626  -0.763   2.503  0.00  0.00    -0.526 OA
ATOM      8  H5  UNL d   1       1.296  -0.065   2.596  0.00  0.00     0.418 HD
ENDBRANCH   4   7
TORSDOF 1
ENDMDL
