MODEL 1
REMARK minimizedAffinity -1.86462939
REMARK minimizedRMSD -1
REMARK  1 active torsions:
REMARK  status: ('A' for Active; 'I' for Inactive)
REMARK    1  A    between atoms: C3_4  and  O_7 
ROOT
ATOM      1  C   UNL d   1       0.573  -0.351   0.714  0.00  0.00    -0.033 A 
ATOM      2  C1  UNL d   1       1.894  -0.779   0.862  0.00  0.00     0.039 A 
ATOM      3  C2  UNL d   1       2.244  -2.092   0.543  0.00  0.00    -0.080 A 
ATOM      4  C3  UNL d   1       1.265  -2.966   0.078  0.00  0.00     0.150 A 
ATOM      5  C4  UNL d   1      -0.052  -2.545  -0.075  0.00  0.00    -0.007 A 
ATOM      6  C5  UNL d   1      -0.399  -1.234   0.245  0.00  0.00     0.039 A 
ENDROOT
BRANCH   4   7
ATOM      7  O   UNL d   1       1.558  -4.259  -0.241  0.00  0.00    -0.526 OA
ATOM      8  H5  UNL d   1       2.499  -4.416  -0.059  0.00  0.00     0.418 HD
ENDBRANCH   4   7
TORSDOF 1
ENDMDL
