MODEL 1
REMARK minimizedAffinity -1.11066473
REMARK minimizedRMSD -1
REMARK  1 active torsions:
REMARK  status: ('A' for Active; 'I' for Inactive)
REMARK    1  A    between atoms: C3_4  and  O_7 
ROOT
ATOM      1  C   UNL d   1       0.821  -0.644  -0.396  0.00  0.00    -0.033 A 
ATOM      2  C1  UNL d   1      -0.256  -1.221   0.278  0.00  0.00     0.039 A 
ATOM      3  C2  UNL d   1      -0.264  -1.270   1.674  0.00  0.00    -0.080 A 
ATOM      4  C3  UNL d   1       0.809  -0.737   2.382  0.00  0.00     0.150 A 
ATOM      5  C4  UNL d   1       1.884  -0.157   1.717  0.00  0.00    -0.007 A 
ATOM      6  C5  UNL d   1       1.891  -0.110   0.323  0.00  0.00     0.039 A 
ENDROOT
BRANCH   4   7
ATOM      7  O   UNL d   1       0.849  -0.765   3.744  0.00  0.00    -0.526 OA
ATOM      8  H5  UNL d   1       0.053  -1.221   4.066  0.00  0.00     0.418 HD
ENDBRANCH   4   7
TORSDOF 1
ENDMDL
