MODEL 1
REMARK minimizedAffinity -1.77241063
REMARK minimizedRMSD -1
REMARK  1 active torsions:
REMARK  status: ('A' for Active; 'I' for Inactive)
REMARK    1  A    between atoms: C3_4  and  O_7 
ROOT
ATOM      1  C   UNL d   1       0.212  -0.693   0.772  0.00  0.00    -0.033 A 
ATOM      2  C1  UNL d   1       1.564  -0.496   0.487  0.00  0.00     0.039 A 
ATOM      3  C2  UNL d   1       2.381  -1.586   0.181  0.00  0.00    -0.080 A 
ATOM      4  C3  UNL d   1       1.833  -2.866   0.162  0.00  0.00     0.150 A 
ATOM      5  C4  UNL d   1       0.486  -3.069   0.442  0.00  0.00    -0.007 A 
ATOM      6  C5  UNL d   1      -0.328  -1.979   0.748  0.00  0.00     0.039 A 
ENDROOT
BRANCH   4   7
ATOM      7  O   UNL d   1       2.592  -3.961  -0.126  0.00  0.00    -0.526 OA
ATOM      8  H5  UNL d   1       3.508  -3.672  -0.270  0.00  0.00     0.418 HD
ENDBRANCH   4   7
TORSDOF 1
ENDMDL
