MODEL 1
REMARK minimizedAffinity -2.06348276
REMARK minimizedRMSD -1
REMARK  1 active torsions:
REMARK  status: ('A' for Active; 'I' for Inactive)
REMARK    1  A    between atoms: C3_4  and  O_7 
ROOT
ATOM      1  C   UNL d   1       0.237  -1.084   0.484  0.00  0.00    -0.033 A 
ATOM      2  C1  UNL d   1      -0.174  -2.393   0.227  0.00  0.00     0.039 A 
ATOM      3  C2  UNL d   1       0.774  -3.406   0.070  0.00  0.00    -0.080 A 
ATOM      4  C3  UNL d   1       2.128  -3.097   0.172  0.00  0.00     0.150 A 
ATOM      5  C4  UNL d   1       2.544  -1.795   0.431  0.00  0.00    -0.007 A 
ATOM      6  C5  UNL d   1       1.596  -0.785   0.587  0.00  0.00     0.039 A 
ENDROOT
BRANCH   4   7
ATOM      7  O   UNL d   1       3.090  -4.051   0.021  0.00  0.00    -0.526 OA
ATOM      8  H5  UNL d   1       2.656  -4.896  -0.182  0.00  0.00     0.418 HD
ENDBRANCH   4   7
TORSDOF 1
ENDMDL
