MODEL 1
REMARK minimizedAffinity 0.488317311
REMARK minimizedRMSD -1
REMARK  1 active torsions:
REMARK  status: ('A' for Active; 'I' for Inactive)
REMARK    1  A    between atoms: C3_4  and  O_7 
ROOT
ATOM      1  C   UNL d   1      -0.420  -2.228  -0.073  0.00  0.00    -0.033 A 
ATOM      2  C1  UNL d   1       0.535  -1.742   0.822  0.00  0.00     0.039 A 
ATOM      3  C2  UNL d   1       1.747  -2.416   0.987  0.00  0.00    -0.080 A 
ATOM      4  C3  UNL d   1       1.991  -3.573   0.251  0.00  0.00     0.150 A 
ATOM      5  C4  UNL d   1       1.045  -4.060  -0.645  0.00  0.00    -0.007 A 
ATOM      6  C5  UNL d   1      -0.164  -3.386  -0.807  0.00  0.00     0.039 A 
ENDROOT
BRANCH   4   7
ATOM      7  O   UNL d   1       3.156  -4.268   0.382  0.00  0.00    -0.526 OA
ATOM      8  H5  UNL d   1       3.702  -3.830   1.056  0.00  0.00     0.418 HD
ENDBRANCH   4   7
TORSDOF 1
ENDMDL
