MODEL 1
REMARK minimizedAffinity -2.17123938
REMARK minimizedRMSD -1
REMARK  1 active torsions:
REMARK  status: ('A' for Active; 'I' for Inactive)
REMARK    1  A    between atoms: C3_4  and  O_7 
ROOT
ATOM      1  C   UNL d   1       0.113  -0.206   0.845  0.00  0.00    -0.033 A 
ATOM      2  C1  UNL d   1       1.472  -0.527   0.851  0.00  0.00     0.039 A 
ATOM      3  C2  UNL d   1       1.878  -1.857   0.724  0.00  0.00    -0.080 A 
ATOM      4  C3  UNL d   1       0.917  -2.855   0.590  0.00  0.00     0.150 A 
ATOM      5  C4  UNL d   1      -0.438  -2.542   0.579  0.00  0.00    -0.007 A 
ATOM      6  C5  UNL d   1      -0.842  -1.214   0.707  0.00  0.00     0.039 A 
ENDROOT
BRANCH   4   7
ATOM      7  O   UNL d   1       1.265  -4.167   0.467  0.00  0.00    -0.526 OA
ATOM      8  H5  UNL d   1       2.233  -4.235   0.520  0.00  0.00     0.418 HD
ENDBRANCH   4   7
TORSDOF 1
ENDMDL
