MODEL 1
REMARK minimizedAffinity -1.05373037
REMARK minimizedRMSD -1
REMARK  1 active torsions:
REMARK  status: ('A' for Active; 'I' for Inactive)
REMARK    1  A    between atoms: C3_4  and  O_7 
ROOT
ATOM      1  C   UNL d   1       1.143  -0.165   1.190  0.00  0.00    -0.033 A 
ATOM      2  C1  UNL d   1       2.369  -0.811   1.017  0.00  0.00     0.039 A 
ATOM      3  C2  UNL d   1       2.407  -2.185   0.770  0.00  0.00    -0.080 A 
ATOM      4  C3  UNL d   1       1.214  -2.900   0.699  0.00  0.00     0.150 A 
ATOM      5  C4  UNL d   1      -0.011  -2.261   0.868  0.00  0.00    -0.007 A 
ATOM      6  C5  UNL d   1      -0.046  -0.890   1.114  0.00  0.00     0.039 A 
ENDROOT
BRANCH   4   7
ATOM      7  O   UNL d   1       1.201  -4.243   0.466  0.00  0.00    -0.526 OA
ATOM      8  H5  UNL d   1       2.120  -4.552   0.399  0.00  0.00     0.418 HD
ENDBRANCH   4   7
TORSDOF 1
ENDMDL
