MODEL 1
REMARK minimizedAffinity 2.23485923
REMARK minimizedRMSD -1
REMARK  1 active torsions:
REMARK  status: ('A' for Active; 'I' for Inactive)
REMARK    1  A    between atoms: C3_4  and  O_7 
ROOT
ATOM      1  C   UNL d   1       5.061  -5.996  -0.123  0.00  0.00    -0.033 A 
ATOM      2  C1  UNL d   1       5.591  -4.826  -0.671  0.00  0.00     0.039 A 
ATOM      3  C2  UNL d   1       4.827  -3.658  -0.698  0.00  0.00    -0.080 A 
ATOM      4  C3  UNL d   1       3.538  -3.673  -0.174  0.00  0.00     0.150 A 
ATOM      5  C4  UNL d   1       3.005  -4.834   0.377  0.00  0.00    -0.007 A 
ATOM      6  C5  UNL d   1       3.769  -6.000   0.402  0.00  0.00     0.039 A 
ENDROOT
BRANCH   4   7
ATOM      7  O   UNL d   1       2.753  -2.558  -0.182  0.00  0.00    -0.526 OA
ATOM      8  H5  UNL d   1       3.241  -1.841  -0.619  0.00  0.00     0.418 HD
ENDBRANCH   4   7
TORSDOF 1
ENDMDL
