MODEL 1
REMARK minimizedAffinity -4.56148911
REMARK minimizedRMSD -1
REMARK  1 active torsions:
REMARK  status: ('A' for Active; 'I' for Inactive)
REMARK    1  A    between atoms: C3_4  and  O_7 
ROOT
ATOM      1  C   UNL d   1      -0.590  -0.969   0.248  0.00  0.00    -0.033 A 
ATOM      2  C1  UNL d   1       0.777  -0.796   0.472  0.00  0.00     0.039 A 
ATOM      3  C2  UNL d   1       1.642  -1.891   0.404  0.00  0.00    -0.080 A 
ATOM      4  C3  UNL d   1       1.127  -3.150   0.109  0.00  0.00     0.150 A 
ATOM      5  C4  UNL d   1      -0.233  -3.329  -0.119  0.00  0.00    -0.007 A 
ATOM      6  C5  UNL d   1      -1.095  -2.235  -0.049  0.00  0.00     0.039 A 
ENDROOT
BRANCH   4   7
ATOM      7  O   UNL d   1       1.931  -4.249   0.036  0.00  0.00    -0.526 OA
ATOM      8  H5  UNL d   1       2.840  -3.979   0.245  0.00  0.00     0.418 HD
ENDBRANCH   4   7
TORSDOF 1
ENDMDL
