MODEL 1
REMARK minimizedAffinity -4.4108696
REMARK minimizedRMSD -1
REMARK  1 active torsions:
REMARK  status: ('A' for Active; 'I' for Inactive)
REMARK    1  A    between atoms: C3_4  and  O_7 
ROOT
ATOM      1  C   UNL d   1       0.375  -0.360   0.858  0.00  0.00    -0.033 A 
ATOM      2  C1  UNL d   1       1.695  -0.433   0.408  0.00  0.00     0.039 A 
ATOM      3  C2  UNL d   1       2.274  -1.674   0.135  0.00  0.00    -0.080 A 
ATOM      4  C3  UNL d   1       1.522  -2.832   0.314  0.00  0.00     0.150 A 
ATOM      5  C4  UNL d   1       0.206  -2.767   0.758  0.00  0.00    -0.007 A 
ATOM      6  C5  UNL d   1      -0.370  -1.527   1.031  0.00  0.00     0.039 A 
ENDROOT
BRANCH   4   7
ATOM      7  O   UNL d   1       2.045  -4.067   0.065  0.00  0.00    -0.526 OA
ATOM      8  H5  UNL d   1       2.972  -3.959  -0.207  0.00  0.00     0.418 HD
ENDBRANCH   4   7
TORSDOF 1
ENDMDL
