MODEL 1
REMARK minimizedAffinity -0.610548377
REMARK minimizedRMSD -1
REMARK  1 active torsions:
REMARK  status: ('A' for Active; 'I' for Inactive)
REMARK    1  A    between atoms: C3_4  and  O_7 
ROOT
ATOM      1  C   UNL d   1       1.148  -2.000   0.284  0.00  0.00    -0.033 A 
ATOM      2  C1  UNL d   1       0.804  -3.341   0.097  0.00  0.00     0.039 A 
ATOM      3  C2  UNL d   1       1.799  -4.293  -0.128  0.00  0.00    -0.080 A 
ATOM      4  C3  UNL d   1       3.133  -3.894  -0.163  0.00  0.00     0.150 A 
ATOM      5  C4  UNL d   1       3.482  -2.561   0.027  0.00  0.00    -0.007 A 
ATOM      6  C5  UNL d   1       2.487  -1.611   0.251  0.00  0.00     0.039 A 
ENDROOT
BRANCH   4   7
ATOM      7  O   UNL d   1       4.139  -4.787  -0.384  0.00  0.00    -0.526 OA
ATOM      8  H5  UNL d   1       3.746  -5.664  -0.526  0.00  0.00     0.418 HD
ENDBRANCH   4   7
TORSDOF 1
ENDMDL
