MODEL 1
REMARK minimizedAffinity -2.53174829
REMARK minimizedRMSD -1
REMARK  1 active torsions:
REMARK  status: ('A' for Active; 'I' for Inactive)
REMARK    1  A    between atoms: C3_4  and  O_7 
ROOT
ATOM      1  C   UNL d   1       0.690  -1.683   0.440  0.00  0.00    -0.033 A 
ATOM      2  C1  UNL d   1       0.499  -3.064   0.368  0.00  0.00     0.039 A 
ATOM      3  C2  UNL d   1       1.582  -3.908   0.111  0.00  0.00    -0.080 A 
ATOM      4  C3  UNL d   1       2.848  -3.359  -0.070  0.00  0.00     0.150 A 
ATOM      5  C4  UNL d   1       3.046  -1.984   0.005  0.00  0.00    -0.007 A 
ATOM      6  C5  UNL d   1       1.964  -1.143   0.260  0.00  0.00     0.039 A 
ENDROOT
BRANCH   4   7
ATOM      7  O   UNL d   1       3.934  -4.142  -0.327  0.00  0.00    -0.526 OA
ATOM      8  H5  UNL d   1       3.641  -5.067  -0.378  0.00  0.00     0.418 HD
ENDBRANCH   4   7
TORSDOF 1
ENDMDL
