MODEL 1
REMARK minimizedAffinity -3.54603362
REMARK minimizedRMSD -1
REMARK  1 active torsions:
REMARK  status: ('A' for Active; 'I' for Inactive)
REMARK    1  A    between atoms: C3_4  and  O_7 
ROOT
ATOM      1  C   UNL d   1      -0.047  -0.675   1.012  0.00  0.00    -0.033 A 
ATOM      2  C1  UNL d   1       1.298  -0.729   0.640  0.00  0.00     0.039 A 
ATOM      3  C2  UNL d   1       1.867  -1.942   0.247  0.00  0.00    -0.080 A 
ATOM      4  C3  UNL d   1       1.081  -3.091   0.229  0.00  0.00     0.150 A 
ATOM      5  C4  UNL d   1      -0.260  -3.044   0.594  0.00  0.00    -0.007 A 
ATOM      6  C5  UNL d   1      -0.827  -1.832   0.987  0.00  0.00     0.039 A 
ENDROOT
BRANCH   4   7
ATOM      7  O   UNL d   1       1.593  -4.299  -0.143  0.00  0.00    -0.526 OA
ATOM      8  H5  UNL d   1       2.538  -4.185  -0.340  0.00  0.00     0.418 HD
ENDBRANCH   4   7
TORSDOF 1
ENDMDL
