MODEL 1
REMARK minimizedAffinity -3.13572145
REMARK minimizedRMSD -1
REMARK  1 active torsions:
REMARK  status: ('A' for Active; 'I' for Inactive)
REMARK    1  A    between atoms: C3_4  and  O_7 
ROOT
ATOM      1  C   UNL d   1       0.031  -0.152   0.753  0.00  0.00    -0.033 A 
ATOM      2  C1  UNL d   1       1.378  -0.337   0.435  0.00  0.00     0.039 A 
ATOM      3  C2  UNL d   1       1.864  -1.618   0.166  0.00  0.00    -0.080 A 
ATOM      4  C3  UNL d   1       0.993  -2.704   0.217  0.00  0.00     0.150 A 
ATOM      5  C4  UNL d   1      -0.350  -2.526   0.529  0.00  0.00    -0.007 A 
ATOM      6  C5  UNL d   1      -0.833  -1.246   0.799  0.00  0.00     0.039 A 
ENDROOT
BRANCH   4   7
ATOM      7  O   UNL d   1       1.422  -3.973  -0.034  0.00  0.00    -0.526 OA
ATOM      8  H5  UNL d   1       2.378  -3.947  -0.207  0.00  0.00     0.418 HD
ENDBRANCH   4   7
TORSDOF 1
ENDMDL
