MODEL 1
REMARK minimizedAffinity 1.01390684
REMARK minimizedRMSD -1
REMARK  1 active torsions:
REMARK  status: ('A' for Active; 'I' for Inactive)
REMARK    1  A    between atoms: C3_4  and  O_7 
ROOT
ATOM      1  C   UNL d   1      -0.568  -2.647   0.343  0.00  0.00    -0.033 A 
ATOM      2  C1  UNL d   1       0.724  -3.154   0.490  0.00  0.00     0.039 A 
ATOM      3  C2  UNL d   1       1.789  -2.291   0.756  0.00  0.00    -0.080 A 
ATOM      4  C3  UNL d   1       1.549  -0.925   0.872  0.00  0.00     0.150 A 
ATOM      5  C4  UNL d   1       0.263  -0.413   0.729  0.00  0.00    -0.007 A 
ATOM      6  C5  UNL d   1      -0.799  -1.276   0.464  0.00  0.00     0.039 A 
ENDROOT
BRANCH   4   7
ATOM      7  O   UNL d   1       2.557  -0.043   1.125  0.00  0.00    -0.526 OA
ATOM      8  H5  UNL d   1       3.393  -0.536   1.170  0.00  0.00     0.418 HD
ENDBRANCH   4   7
TORSDOF 1
ENDMDL
