MODEL 1
REMARK minimizedAffinity -3.00738716
REMARK minimizedRMSD -1
REMARK  0 active torsions:
REMARK  status: ('A' for Active; 'I' for Inactive)
ROOT
ATOM      1  C   UNL d   1      -1.982   2.537   0.699  0.00  0.00    -0.002 A 
ATOM      2  C1  UNL d   1      -1.173   2.886   1.770  0.00  0.00     0.010 A 
ATOM      3  C2  UNL d   1      -0.009   2.165   2.045  0.00  0.00     0.041 A 
ATOM      4  C3  UNL d   1       0.332   1.079   1.215  0.00  0.00    -0.075 A 
ATOM      5  S   UNL d   1       1.710   0.054   1.359  0.00  0.00     0.015 SA
ATOM      6  C4  UNL d   1       1.258  -0.871   0.001  0.00  0.00     0.022 A 
ATOM      7  C5  UNL d   1       0.086  -0.422  -0.561  0.00  0.00     0.026 A 
ATOM      8  C6  UNL d   1      -0.467   0.710   0.129  0.00  0.00    -0.082 A 
ATOM      9  C7  UNL d   1      -1.641   1.459  -0.122  0.00  0.00     0.045 A 
ENDROOT
TORSDOF 0
ENDMDL
