MODEL 1
REMARK minimizedAffinity -2.51985002
REMARK minimizedRMSD -1
REMARK  0 active torsions:
REMARK  status: ('A' for Active; 'I' for Inactive)
ROOT
ATOM      1  C   UNL d   1      -0.665   2.006   2.184  0.00  0.00    -0.002 A 
ATOM      2  C1  UNL d   1      -1.265   2.652   1.112  0.00  0.00     0.010 A 
ATOM      3  C2  UNL d   1      -1.153   2.137  -0.181  0.00  0.00     0.041 A 
ATOM      4  C3  UNL d   1      -0.422   0.949  -0.381  0.00  0.00    -0.075 A 
ATOM      5  S   UNL d   1      -0.151   0.134  -1.875  0.00  0.00     0.015 SA
ATOM      6  C4  UNL d   1       0.766  -1.092  -1.126  0.00  0.00     0.022 A 
ATOM      7  C5  UNL d   1       0.874  -0.899   0.231  0.00  0.00     0.026 A 
ATOM      8  C6  UNL d   1       0.190   0.280   0.683  0.00  0.00    -0.082 A 
ATOM      9  C7  UNL d   1       0.059   0.827   1.982  0.00  0.00     0.045 A 
ENDROOT
TORSDOF 0
ENDMDL
