MODEL 1
REMARK minimizedAffinity 2.87690926
REMARK minimizedRMSD -1
REMARK  0 active torsions:
REMARK  status: ('A' for Active; 'I' for Inactive)
ROOT
ATOM      1  C   UNL d   1      -0.977  -3.663  -2.158  0.00  0.00    -0.002 A 
ATOM      2  C1  UNL d   1       0.114  -4.172  -1.468  0.00  0.00     0.010 A 
ATOM      3  C2  UNL d   1       0.843  -3.361  -0.595  0.00  0.00     0.041 A 
ATOM      4  C3  UNL d   1       0.452  -2.018  -0.425  0.00  0.00    -0.075 A 
ATOM      5  S   UNL d   1       1.195  -0.840   0.591  0.00  0.00     0.015 SA
ATOM      6  C4  UNL d   1       0.080   0.366   0.133  0.00  0.00     0.022 A 
ATOM      7  C5  UNL d   1      -0.842  -0.102  -0.772  0.00  0.00     0.026 A 
ATOM      8  C6  UNL d   1      -0.644  -1.484  -1.109  0.00  0.00    -0.082 A 
ATOM      9  C7  UNL d   1      -1.362  -2.331  -1.987  0.00  0.00     0.045 A 
ENDROOT
TORSDOF 0
ENDMDL
