MODEL 1
REMARK minimizedAffinity -4.3018918
REMARK minimizedRMSD -1
REMARK  0 active torsions:
REMARK  status: ('A' for Active; 'I' for Inactive)
ROOT
ATOM      1  C   UNL d   1       0.191   1.186  -2.568  0.00  0.00    -0.002 A 
ATOM      2  C1  UNL d   1       1.031   0.195  -2.080  0.00  0.00     0.010 A 
ATOM      3  C2  UNL d   1       1.016  -0.147  -0.726  0.00  0.00     0.041 A 
ATOM      4  C3  UNL d   1       0.132   0.530   0.137  0.00  0.00    -0.075 A 
ATOM      5  S   UNL d   1      -0.062   0.279   1.832  0.00  0.00     0.015 SA
ATOM      6  C4  UNL d   1      -1.265   1.481   1.948  0.00  0.00     0.022 A 
ATOM      7  C5  UNL d   1      -1.524   2.070   0.733  0.00  0.00     0.026 A 
ATOM      8  C6  UNL d   1      -0.724   1.531  -0.331  0.00  0.00    -0.082 A 
ATOM      9  C7  UNL d   1      -0.684   1.855  -1.708  0.00  0.00     0.045 A 
ENDROOT
TORSDOF 0
ENDMDL
