MODEL 1
REMARK minimizedAffinity -4.25839186
REMARK minimizedRMSD -1
REMARK  0 active torsions:
REMARK  status: ('A' for Active; 'I' for Inactive)
ROOT
ATOM      1  C   UNL d   1      -1.081   3.442   1.571  0.00  0.00    -0.002 A 
ATOM      2  C1  UNL d   1      -1.259   3.590   0.203  0.00  0.00     0.010 A 
ATOM      3  C2  UNL d   1      -0.851   2.587  -0.678  0.00  0.00     0.041 A 
ATOM      4  C3  UNL d   1      -0.258   1.420  -0.156  0.00  0.00    -0.075 A 
ATOM      5  S   UNL d   1       0.317   0.059  -1.045  0.00  0.00     0.015 SA
ATOM      6  C4  UNL d   1       0.811  -0.751   0.371  0.00  0.00     0.022 A 
ATOM      7  C5  UNL d   1       0.551  -0.015   1.503  0.00  0.00     0.026 A 
ATOM      8  C6  UNL d   1      -0.070   1.248   1.218  0.00  0.00    -0.082 A 
ATOM      9  C7  UNL d   1      -0.493   2.284   2.086  0.00  0.00     0.045 A 
ENDROOT
TORSDOF 0
ENDMDL
