MODEL 1
REMARK minimizedAffinity -2.63341856
REMARK minimizedRMSD -1
REMARK  0 active torsions:
REMARK  status: ('A' for Active; 'I' for Inactive)
ROOT
ATOM      1  C   UNL d   1      -0.880   2.849   1.618  0.00  0.00    -0.002 A 
ATOM      2  C1  UNL d   1      -1.286   2.942   0.294  0.00  0.00     0.010 A 
ATOM      3  C2  UNL d   1      -0.939   1.951  -0.626  0.00  0.00     0.041 A 
ATOM      4  C3  UNL d   1      -0.172   0.853  -0.189  0.00  0.00    -0.075 A 
ATOM      5  S   UNL d   1       0.370  -0.480  -1.138  0.00  0.00     0.015 SA
ATOM      6  C4  UNL d   1       1.152  -1.205   0.192  0.00  0.00     0.022 A 
ATOM      7  C5  UNL d   1       1.014  -0.461   1.339  0.00  0.00     0.026 A 
ATOM      8  C6  UNL d   1       0.248   0.737   1.139  0.00  0.00    -0.082 A 
ATOM      9  C7  UNL d   1      -0.119   1.759   2.048  0.00  0.00     0.045 A 
ENDROOT
TORSDOF 0
ENDMDL
