MODEL 1
REMARK minimizedAffinity -3.12809849
REMARK minimizedRMSD -1
REMARK  0 active torsions:
REMARK  status: ('A' for Active; 'I' for Inactive)
ROOT
ATOM      1  C   UNL d   1      -0.475   2.275   2.023  0.00  0.00    -0.002 A 
ATOM      2  C1  UNL d   1       0.070   1.035   2.324  0.00  0.00     0.010 A 
ATOM      3  C2  UNL d   1       0.494   0.180   1.305  0.00  0.00     0.041 A 
ATOM      4  C3  UNL d   1       0.361   0.596  -0.034  0.00  0.00    -0.075 A 
ATOM      5  S   UNL d   1       0.813  -0.284  -1.446  0.00  0.00     0.015 SA
ATOM      6  C4  UNL d   1       0.293   0.966  -2.482  0.00  0.00     0.022 A 
ATOM      7  C5  UNL d   1      -0.216   2.035  -1.785  0.00  0.00     0.026 A 
ATOM      8  C6  UNL d   1      -0.184   1.840  -0.362  0.00  0.00    -0.082 A 
ATOM      9  C7  UNL d   1      -0.606   2.685   0.693  0.00  0.00     0.045 A 
ENDROOT
TORSDOF 0
ENDMDL
