MODEL 1
REMARK minimizedAffinity -4.48652077
REMARK minimizedRMSD -1
REMARK  0 active torsions:
REMARK  status: ('A' for Active; 'I' for Inactive)
ROOT
ATOM      1  C   UNL d   1      -1.190   3.276   1.190  0.00  0.00    -0.002 A 
ATOM      2  C1  UNL d   1      -1.287   3.259  -0.194  0.00  0.00     0.010 A 
ATOM      3  C2  UNL d   1      -0.771   2.190  -0.929  0.00  0.00     0.041 A 
ATOM      4  C3  UNL d   1      -0.151   1.128  -0.243  0.00  0.00    -0.075 A 
ATOM      5  S   UNL d   1       0.553  -0.287  -0.934  0.00  0.00     0.015 SA
ATOM      6  C4  UNL d   1       0.998  -0.902   0.592  0.00  0.00     0.022 A 
ATOM      7  C5  UNL d   1       0.627  -0.061   1.615  0.00  0.00     0.026 A 
ATOM      8  C6  UNL d   1      -0.042   1.122   1.151  0.00  0.00    -0.082 A 
ATOM      9  C7  UNL d   1      -0.574   2.221   1.867  0.00  0.00     0.045 A 
ENDROOT
TORSDOF 0
ENDMDL
