MODEL 1
REMARK minimizedAffinity -4.76070404
REMARK minimizedRMSD -1
REMARK  0 active torsions:
REMARK  status: ('A' for Active; 'I' for Inactive)
ROOT
ATOM      1  C   UNL d   1      -0.224   0.052  -0.104  0.00  0.00     0.078 C 
ATOM      2  C1  UNL d   1       0.783   1.033   0.418  0.00  0.00    -0.077 A 
ATOM      3  C2  UNL d   1       0.380   2.245   0.991  0.00  0.00    -0.001 A 
ATOM      4  C3  UNL d   1       1.328   3.153   1.464  0.00  0.00     0.003 A 
ATOM      5  C4  UNL d   1       2.687   2.859   1.367  0.00  0.00    -0.005 A 
ATOM      6  C5  UNL d   1       3.098   1.657   0.796  0.00  0.00     0.003 A 
ATOM      7  C6  UNL d   1       2.151   0.747   0.323  0.00  0.00    -0.001 A 
ENDROOT
TORSDOF 0
ENDMDL
