MODEL 1
REMARK minimizedAffinity -5.96324921
REMARK minimizedRMSD -1
REMARK  0 active torsions:
REMARK  status: ('A' for Active; 'I' for Inactive)
ROOT
ATOM      1  C   UNL d   1       0.720   0.195   0.137  0.00  0.00     0.078 C 
ATOM      2  C1  UNL d   1      -0.476  -0.684   0.354  0.00  0.00    -0.077 A 
ATOM      3  C2  UNL d   1      -0.400  -1.817   1.173  0.00  0.00    -0.001 A 
ATOM      4  C3  UNL d   1      -1.518  -2.631   1.358  0.00  0.00     0.003 A 
ATOM      5  C4  UNL d   1      -2.721  -2.321   0.726  0.00  0.00    -0.005 A 
ATOM      6  C5  UNL d   1      -2.806  -1.197  -0.093  0.00  0.00     0.003 A 
ATOM      7  C6  UNL d   1      -1.689  -0.382  -0.279  0.00  0.00    -0.001 A 
ENDROOT
TORSDOF 0
ENDMDL
