MODEL 1
REMARK minimizedAffinity -4.69599104
REMARK minimizedRMSD -1
REMARK  0 active torsions:
REMARK  status: ('A' for Active; 'I' for Inactive)
ROOT
ATOM      1  C   UNL d   1       0.896   0.253   0.355  0.00  0.00     0.078 C 
ATOM      2  C1  UNL d   1      -0.391  -0.512   0.276  0.00  0.00    -0.077 A 
ATOM      3  C2  UNL d   1      -0.642  -1.592   1.131  0.00  0.00    -0.001 A 
ATOM      4  C3  UNL d   1      -1.840  -2.301   1.039  0.00  0.00     0.003 A 
ATOM      5  C4  UNL d   1      -2.797  -1.939   0.093  0.00  0.00    -0.005 A 
ATOM      6  C5  UNL d   1      -2.555  -0.868  -0.764  0.00  0.00     0.003 A 
ATOM      7  C6  UNL d   1      -1.357  -0.157  -0.674  0.00  0.00    -0.001 A 
ENDROOT
TORSDOF 0
ENDMDL
