MODEL 1
REMARK minimizedAffinity -4.99435425
REMARK minimizedRMSD -1
REMARK  0 active torsions:
REMARK  status: ('A' for Active; 'I' for Inactive)
ROOT
ATOM      1  C   UNL d   1      -3.364  -0.369   0.039  0.00  0.00     0.078 C 
ATOM      2  C1  UNL d   1      -1.874  -0.293  -0.117  0.00  0.00    -0.077 A 
ATOM      3  C2  UNL d   1      -1.294   0.061  -1.341  0.00  0.00    -0.001 A 
ATOM      4  C3  UNL d   1       0.094   0.118  -1.474  0.00  0.00     0.003 A 
ATOM      5  C4  UNL d   1       0.914  -0.178  -0.388  0.00  0.00    -0.005 A 
ATOM      6  C5  UNL d   1       0.346  -0.533   0.834  0.00  0.00     0.003 A 
ATOM      7  C6  UNL d   1      -1.042  -0.591   0.969  0.00  0.00    -0.001 A 
ENDROOT
TORSDOF 0
ENDMDL
