MODEL 1
REMARK minimizedAffinity -3.93103719
REMARK minimizedRMSD -1
REMARK  0 active torsions:
REMARK  status: ('A' for Active; 'I' for Inactive)
ROOT
ATOM      1  C   UNL d   1      -2.715  -1.479  -1.561  0.00  0.00     0.078 C 
ATOM      2  C1  UNL d   1      -1.608  -0.712  -0.902  0.00  0.00    -0.077 A 
ATOM      3  C2  UNL d   1      -0.568  -0.153  -1.656  0.00  0.00    -0.001 A 
ATOM      4  C3  UNL d   1       0.461   0.550  -1.028  0.00  0.00     0.003 A 
ATOM      5  C4  UNL d   1       0.461   0.701   0.357  0.00  0.00    -0.005 A 
ATOM      6  C5  UNL d   1      -0.568   0.147   1.116  0.00  0.00     0.003 A 
ATOM      7  C6  UNL d   1      -1.598  -0.557   0.490  0.00  0.00    -0.001 A 
ENDROOT
TORSDOF 0
ENDMDL
