MODEL 1
REMARK minimizedAffinity -0.903489411
REMARK minimizedRMSD -1
REMARK  0 active torsions:
REMARK  status: ('A' for Active; 'I' for Inactive)
ROOT
ATOM      1  C   UNL d   1      -3.001  -2.890   5.999  0.00  0.00     0.078 C 
ATOM      2  C1  UNL d   1      -3.080  -1.532   5.369  0.00  0.00    -0.077 A 
ATOM      3  C2  UNL d   1      -3.760  -0.483   5.999  0.00  0.00    -0.001 A 
ATOM      4  C3  UNL d   1      -3.834   0.774   5.396  0.00  0.00     0.003 A 
ATOM      5  C4  UNL d   1      -3.230   0.993   4.160  0.00  0.00    -0.005 A 
ATOM      6  C5  UNL d   1      -2.553  -0.045   3.524  0.00  0.00     0.003 A 
ATOM      7  C6  UNL d   1      -2.478  -1.303   4.125  0.00  0.00    -0.001 A 
ENDROOT
TORSDOF 0
ENDMDL
