MODEL 1
REMARK minimizedAffinity 0.603624582
REMARK minimizedRMSD -1
REMARK  0 active torsions:
REMARK  status: ('A' for Active; 'I' for Inactive)
ROOT
ATOM      1  C   UNL d   1      -0.265  -1.060   0.733  0.00  0.00     0.078 C 
ATOM      2  C1  UNL d   1      -0.357  -0.448  -0.633  0.00  0.00    -0.077 A 
ATOM      3  C2  UNL d   1      -1.590  -0.047  -1.162  0.00  0.00    -0.001 A 
ATOM      4  C3  UNL d   1      -1.663   0.513  -2.438  0.00  0.00     0.003 A 
ATOM      5  C4  UNL d   1      -0.505   0.675  -3.197  0.00  0.00    -0.005 A 
ATOM      6  C5  UNL d   1       0.726   0.277  -2.680  0.00  0.00     0.003 A 
ATOM      7  C6  UNL d   1       0.800  -0.282  -1.404  0.00  0.00    -0.001 A 
ENDROOT
TORSDOF 0
ENDMDL
