MODEL 1
REMARK minimizedAffinity -5.08088732
REMARK minimizedRMSD -1
REMARK  0 active torsions:
REMARK  status: ('A' for Active; 'I' for Inactive)
ROOT
ATOM      1  C   UNL d   1      -1.639  -3.145   1.359  0.00  0.00     0.078 C 
ATOM      2  C1  UNL d   1      -1.158  -2.007   0.510  0.00  0.00    -0.077 A 
ATOM      3  C2  UNL d   1       0.092  -1.416   0.735  0.00  0.00    -0.001 A 
ATOM      4  C3  UNL d   1       0.522  -0.351  -0.057  0.00  0.00     0.003 A 
ATOM      5  C4  UNL d   1      -0.291   0.135  -1.079  0.00  0.00    -0.005 A 
ATOM      6  C5  UNL d   1      -1.538  -0.445  -1.309  0.00  0.00     0.003 A 
ATOM      7  C6  UNL d   1      -1.970  -1.510  -0.518  0.00  0.00    -0.001 A 
ENDROOT
TORSDOF 0
ENDMDL
