MODEL 1
REMARK minimizedAffinity -4.92746925
REMARK minimizedRMSD -1
REMARK  0 active torsions:
REMARK  status: ('A' for Active; 'I' for Inactive)
ROOT
ATOM      1  C   UNL d   1      -1.006  -2.957   1.655  0.00  0.00     0.078 C 
ATOM      2  C1  UNL d   1      -1.028  -1.875   0.617  0.00  0.00    -0.077 A 
ATOM      3  C2  UNL d   1      -2.166  -1.650  -0.166  0.00  0.00    -0.001 A 
ATOM      4  C3  UNL d   1      -2.169  -0.646  -1.135  0.00  0.00     0.003 A 
ATOM      5  C4  UNL d   1      -1.036   0.141  -1.332  0.00  0.00    -0.005 A 
ATOM      6  C5  UNL d   1       0.103  -0.077  -0.559  0.00  0.00     0.003 A 
ATOM      7  C6  UNL d   1       0.108  -1.081   0.411  0.00  0.00    -0.001 A 
ENDROOT
TORSDOF 0
ENDMDL
