MODEL 1
REMARK minimizedAffinity -4.29533291
REMARK minimizedRMSD -1
REMARK  0 active torsions:
REMARK  status: ('A' for Active; 'I' for Inactive)
ROOT
ATOM      1  C   UNL d   1       1.187   0.371  -0.016  0.00  0.00     0.078 C 
ATOM      2  C1  UNL d   1      -0.260   0.025  -0.198  0.00  0.00    -0.077 A 
ATOM      3  C2  UNL d   1      -1.012   0.590  -1.236  0.00  0.00    -0.001 A 
ATOM      4  C3  UNL d   1      -2.361   0.267  -1.388  0.00  0.00     0.003 A 
ATOM      5  C4  UNL d   1      -2.971  -0.622  -0.504  0.00  0.00    -0.005 A 
ATOM      6  C5  UNL d   1      -2.232  -1.187   0.533  0.00  0.00     0.003 A 
ATOM      7  C6  UNL d   1      -0.883  -0.865   0.686  0.00  0.00    -0.001 A 
ENDROOT
TORSDOF 0
ENDMDL
