MODEL 1
REMARK minimizedAffinity -5.03155994
REMARK minimizedRMSD -1
REMARK  0 active torsions:
REMARK  status: ('A' for Active; 'I' for Inactive)
ROOT
ATOM      1  C   UNL d   1       0.346   0.040   0.291  0.00  0.00     0.078 C 
ATOM      2  C1  UNL d   1      -0.747  -0.960   0.524  0.00  0.00    -0.077 A 
ATOM      3  C2  UNL d   1      -0.665  -1.887   1.570  0.00  0.00    -0.001 A 
ATOM      4  C3  UNL d   1      -1.686  -2.818   1.769  0.00  0.00     0.003 A 
ATOM      5  C4  UNL d   1      -2.796  -2.831   0.927  0.00  0.00    -0.005 A 
ATOM      6  C5  UNL d   1      -2.885  -1.913  -0.118  0.00  0.00     0.003 A 
ATOM      7  C6  UNL d   1      -1.865  -0.981  -0.319  0.00  0.00    -0.001 A 
ENDROOT
TORSDOF 0
ENDMDL
