MODEL 1
REMARK minimizedAffinity -0.485206485
REMARK minimizedRMSD -1
REMARK  0 active torsions:
REMARK  status: ('A' for Active; 'I' for Inactive)
ROOT
ATOM      1  C   UNL d   1       1.225   0.158   0.129  0.00  0.00     0.078 C 
ATOM      2  C1  UNL d   1       1.942   1.406   0.550  0.00  0.00    -0.077 A 
ATOM      3  C2  UNL d   1       1.890   1.856   1.875  0.00  0.00    -0.001 A 
ATOM      4  C3  UNL d   1       2.555   3.024   2.251  0.00  0.00     0.003 A 
ATOM      5  C4  UNL d   1       3.275   3.754   1.307  0.00  0.00    -0.005 A 
ATOM      6  C5  UNL d   1       3.330   3.316  -0.015  0.00  0.00     0.003 A 
ATOM      7  C6  UNL d   1       2.666   2.147  -0.392  0.00  0.00    -0.001 A 
ENDROOT
TORSDOF 0
ENDMDL
