MODEL 1
REMARK minimizedAffinity -4.1568737
REMARK minimizedRMSD -1
REMARK  0 active torsions:
REMARK  status: ('A' for Active; 'I' for Inactive)
ROOT
ATOM      1  C   UNL d   1      -2.907  -1.141  -0.055  0.00  0.00     0.078 C 
ATOM      2  C1  UNL d   1      -1.485  -0.692  -0.218  0.00  0.00    -0.077 A 
ATOM      3  C2  UNL d   1      -1.076   0.006  -1.361  0.00  0.00    -0.001 A 
ATOM      4  C3  UNL d   1       0.252   0.409  -1.503  0.00  0.00     0.003 A 
ATOM      5  C4  UNL d   1       1.183   0.117  -0.508  0.00  0.00    -0.005 A 
ATOM      6  C5  UNL d   1       0.786  -0.579   0.631  0.00  0.00     0.003 A 
ATOM      7  C6  UNL d   1      -0.543  -0.983   0.776  0.00  0.00    -0.001 A 
ENDROOT
TORSDOF 0
ENDMDL
