MODEL 1
REMARK minimizedAffinity -5.50551367
REMARK minimizedRMSD -1
REMARK  0 active torsions:
REMARK  status: ('A' for Active; 'I' for Inactive)
ROOT
ATOM      1  C   UNL d   1      -3.299  -0.812   0.132  0.00  0.00     0.078 C 
ATOM      2  C1  UNL d   1      -1.839  -0.479   0.047  0.00  0.00    -0.077 A 
ATOM      3  C2  UNL d   1      -0.966  -0.791   1.096  0.00  0.00    -0.001 A 
ATOM      4  C3  UNL d   1       0.389  -0.467   1.007  0.00  0.00     0.003 A 
ATOM      5  C4  UNL d   1       0.883   0.172  -0.129  0.00  0.00    -0.005 A 
ATOM      6  C5  UNL d   1       0.021   0.487  -1.177  0.00  0.00     0.003 A 
ATOM      7  C6  UNL d   1      -1.334   0.164  -1.090  0.00  0.00    -0.001 A 
ENDROOT
TORSDOF 0
ENDMDL
