MODEL 1
REMARK minimizedAffinity 4.42117119
REMARK minimizedRMSD -1
REMARK  0 active torsions:
REMARK  status: ('A' for Active; 'I' for Inactive)
ROOT
ATOM      1  C4' PXY d   1       2.279  -2.359  -0.301  0.00  0.00     0.077 C 
ATOM      2  C1' PXY d   1       5.451   2.465  -0.014  0.00  0.00     0.077 C 
ATOM      3  C1  PXY d   1       4.610   1.206  -0.083  0.00  0.00    -0.082 A 
ATOM      4  C2  PXY d   1       5.199   0.035  -0.262  0.00  0.00     0.003 A 
ATOM      5  C3  PXY d   1       4.450  -1.110  -0.358  0.00  0.00     0.003 A 
ATOM      6  C4  PXY d   1       3.089  -1.062  -0.216  0.00  0.00    -0.082 A 
ATOM      7  C5  PXY d   1       2.482   0.128  -0.023  0.00  0.00     0.003 A 
ATOM      8  C6  PXY d   1       3.256   1.283   0.030  0.00  0.00     0.003 A 
ENDROOT
TORSDOF 0
ENDMDL
