MODEL 1
REMARK minimizedAffinity 5.1811924
REMARK minimizedRMSD -1
REMARK  0 active torsions:
REMARK  status: ('A' for Active; 'I' for Inactive)
ROOT
ATOM      1  C4' PXY d   1       2.622  -4.877   4.496  0.00  0.00     0.077 C 
ATOM      2  C1' PXY d   1      -2.954  -4.616   5.998  0.00  0.00     0.077 C 
ATOM      3  C1  PXY d   1      -1.492  -4.697   5.603  0.00  0.00    -0.082 A 
ATOM      4  C2  PXY d   1      -0.656  -3.747   5.989  0.00  0.00     0.003 A 
ATOM      5  C3  PXY d   1       0.662  -3.788   5.614  0.00  0.00     0.003 A 
ATOM      6  C4  PXY d   1       1.140  -4.840   4.879  0.00  0.00    -0.082 A 
ATOM      7  C5  PXY d   1       0.296  -5.819   4.490  0.00  0.00     0.003 A 
ATOM      8  C6  PXY d   1      -1.047  -5.737   4.847  0.00  0.00     0.003 A 
ENDROOT
TORSDOF 0
ENDMDL
