MODEL 1
REMARK minimizedAffinity 7.55489683
REMARK minimizedRMSD -1
REMARK  0 active torsions:
REMARK  status: ('A' for Active; 'I' for Inactive)
ROOT
ATOM      1  C4' PXY d   1      -4.566   1.194   2.031  0.00  0.00     0.077 C 
ATOM      2  C1' PXY d   1       0.070   4.375   3.373  0.00  0.00     0.077 C 
ATOM      3  C1  PXY d   1      -1.142   3.533   3.030  0.00  0.00    -0.082 A 
ATOM      4  C2  PXY d   1      -1.663   3.599   1.816  0.00  0.00     0.003 A 
ATOM      5  C3  PXY d   1      -2.779   2.868   1.499  0.00  0.00     0.003 A 
ATOM      6  C4  PXY d   1      -3.336   2.020   2.418  0.00  0.00    -0.082 A 
ATOM      7  C5  PXY d   1      -2.804   1.938   3.656  0.00  0.00     0.003 A 
ATOM      8  C6  PXY d   1      -1.696   2.720   3.971  0.00  0.00     0.003 A 
ENDROOT
TORSDOF 0
ENDMDL
