MODEL 1
REMARK minimizedAffinity 6.08523846
REMARK minimizedRMSD -1
REMARK  0 active torsions:
REMARK  status: ('A' for Active; 'I' for Inactive)
ROOT
ATOM      1  C4' PXY d   1      -0.139   0.651   0.697  0.00  0.00     0.077 C 
ATOM      2  C1' PXY d   1       0.018   4.790   4.730  0.00  0.00     0.077 C 
ATOM      3  C1  PXY d   1      -0.014   3.698   3.679  0.00  0.00    -0.082 A 
ATOM      4  C2  PXY d   1      -0.421   3.982   2.452  0.00  0.00     0.003 A 
ATOM      5  C3  PXY d   1      -0.487   2.999   1.498  0.00  0.00     0.003 A 
ATOM      6  C4  PXY d   1      -0.081   1.724   1.788  0.00  0.00    -0.082 A 
ATOM      7  C5  PXY d   1       0.346   1.429   3.034  0.00  0.00     0.003 A 
ATOM      8  C6  PXY d   1       0.366   2.431   3.999  0.00  0.00     0.003 A 
ENDROOT
TORSDOF 0
ENDMDL
