MODEL 1
REMARK minimizedAffinity 8.39362812
REMARK minimizedRMSD -1
REMARK  0 active torsions:
REMARK  status: ('A' for Active; 'I' for Inactive)
ROOT
ATOM      1  C4' PXY d   1       1.731  -2.659   3.503  0.00  0.00     0.077 C 
ATOM      2  C1' PXY d   1      -2.290  -5.986   5.989  0.00  0.00     0.077 C 
ATOM      3  C1  PXY d   1      -1.239  -5.104   5.344  0.00  0.00    -0.082 A 
ATOM      4  C2  PXY d   1      -0.753  -5.426   4.157  0.00  0.00     0.003 A 
ATOM      5  C3  PXY d   1       0.221  -4.657   3.573  0.00  0.00     0.003 A 
ATOM      6  C4  PXY d   1       0.663  -3.516   4.188  0.00  0.00    -0.082 A 
ATOM      7  C5  PXY d   1       0.163  -3.174   5.395  0.00  0.00     0.003 A 
ATOM      8  C6  PXY d   1      -0.794  -3.991   5.988  0.00  0.00     0.003 A 
ENDROOT
TORSDOF 0
ENDMDL
