MODEL 1
REMARK minimizedAffinity 10.4478683
REMARK minimizedRMSD -1
REMARK  0 active torsions:
REMARK  status: ('A' for Active; 'I' for Inactive)
ROOT
ATOM      1  C4' PXY d   1      -3.973   0.525   1.672  0.00  0.00     0.077 C 
ATOM      2  C1' PXY d   1      -5.949  -0.940  -3.559  0.00  0.00     0.077 C 
ATOM      3  C1  PXY d   1      -5.442  -0.559  -2.182  0.00  0.00    -0.082 A 
ATOM      4  C2  PXY d   1      -4.451   0.309  -2.067  0.00  0.00     0.003 A 
ATOM      5  C3  PXY d   1      -3.959   0.641  -0.831  0.00  0.00     0.003 A 
ATOM      6  C4  PXY d   1      -4.523   0.118   0.302  0.00  0.00    -0.082 A 
ATOM      7  C5  PXY d   1      -5.543  -0.760   0.193  0.00  0.00     0.003 A 
ATOM      8  C6  PXY d   1      -6.000  -1.115  -1.072  0.00  0.00     0.003 A 
ENDROOT
TORSDOF 0
ENDMDL
