MODEL 1
REMARK minimizedAffinity 3.59151649
REMARK minimizedRMSD -1
REMARK  0 active torsions:
REMARK  status: ('A' for Active; 'I' for Inactive)
ROOT
ATOM      1  C4' PXY d   1       1.505  -0.381   0.555  0.00  0.00     0.077 C 
ATOM      2  C1' PXY d   1      -4.267  -0.694   0.553  0.00  0.00     0.077 C 
ATOM      3  C1  PXY d   1      -2.753  -0.619   0.543  0.00  0.00    -0.082 A 
ATOM      4  C2  PXY d   1      -2.100  -0.429   1.677  0.00  0.00     0.003 A 
ATOM      5  C3  PXY d   1      -0.733  -0.326   1.682  0.00  0.00     0.003 A 
ATOM      6  C4  PXY d   1      -0.023  -0.473   0.520  0.00  0.00    -0.082 A 
ATOM      7  C5  PXY d   1      -0.682  -0.677  -0.641  0.00  0.00     0.003 A 
ATOM      8  C6  PXY d   1      -2.073  -0.737  -0.629  0.00  0.00     0.003 A 
ENDROOT
TORSDOF 0
ENDMDL
