MODEL 1
REMARK minimizedAffinity 8.70756245
REMARK minimizedRMSD -1
REMARK  0 active torsions:
REMARK  status: ('A' for Active; 'I' for Inactive)
ROOT
ATOM      1  C4' PXY d   1       0.785   3.447   5.023  0.00  0.00     0.077 C 
ATOM      2  C1' PXY d   1       5.908   5.988   5.864  0.00  0.00     0.077 C 
ATOM      3  C1  PXY d   1       4.559   5.330   5.653  0.00  0.00    -0.082 A 
ATOM      4  C2  PXY d   1       4.499   4.112   5.139  0.00  0.00     0.003 A 
ATOM      5  C3  PXY d   1       3.287   3.514   4.911  0.00  0.00     0.003 A 
ATOM      6  C4  PXY d   1       2.125   4.148   5.263  0.00  0.00    -0.082 A 
ATOM      7  C5  PXY d   1       2.178   5.386   5.798  0.00  0.00     0.003 A 
ATOM      8  C6  PXY d   1       3.417   5.992   5.982  0.00  0.00     0.003 A 
ENDROOT
TORSDOF 0
ENDMDL
