MODEL 1
REMARK minimizedAffinity 5.09739447
REMARK minimizedRMSD -1
REMARK  0 active torsions:
REMARK  status: ('A' for Active; 'I' for Inactive)
ROOT
ATOM      1  C4' PXY d   1       1.207   0.195   0.891  0.00  0.00     0.077 C 
ATOM      2  C1' PXY d   1      -1.365  -2.928  -3.237  0.00  0.00     0.077 C 
ATOM      3  C1  PXY d   1      -0.696  -2.098  -2.159  0.00  0.00    -0.082 A 
ATOM      4  C2  PXY d   1       0.422  -2.531  -1.599  0.00  0.00     0.003 A 
ATOM      5  C3  PXY d   1       1.022  -1.809  -0.601  0.00  0.00     0.003 A 
ATOM      6  C4  PXY d   1       0.502  -0.605  -0.208  0.00  0.00    -0.082 A 
ATOM      7  C5  PXY d   1      -0.632  -0.151  -0.781  0.00  0.00     0.003 A 
ATOM      8  C6  PXY d   1      -1.249  -0.919  -1.764  0.00  0.00     0.003 A 
ENDROOT
TORSDOF 0
ENDMDL
