MODEL 1
REMARK minimizedAffinity 5.83839989
REMARK minimizedRMSD -1
REMARK  0 active torsions:
REMARK  status: ('A' for Active; 'I' for Inactive)
ROOT
ATOM      1  C4' PXY d   1      -0.542   2.228   0.266  0.00  0.00     0.077 C 
ATOM      2  C1' PXY d   1      -0.450  -3.006  -2.186  0.00  0.00     0.077 C 
ATOM      3  C1  PXY d   1      -0.468  -1.639  -1.532  0.00  0.00    -0.082 A 
ATOM      4  C2  PXY d   1      -1.378  -0.751  -1.898  0.00  0.00     0.003 A 
ATOM      5  C3  PXY d   1      -1.389   0.502  -1.341  0.00  0.00     0.003 A 
ATOM      6  C4  PXY d   1      -0.492   0.831  -0.360  0.00  0.00    -0.082 A 
ATOM      7  C5  PXY d   1       0.433  -0.073   0.027  0.00  0.00     0.003 A 
ATOM      8  C6  PXY d   1       0.453  -1.325  -0.581  0.00  0.00     0.003 A 
ENDROOT
TORSDOF 0
ENDMDL
