MODEL 1
REMARK minimizedAffinity 13.7168932
REMARK minimizedRMSD -1
REMARK  0 active torsions:
REMARK  status: ('A' for Active; 'I' for Inactive)
ROOT
ATOM      1  C4' PXY d   1       1.181  -3.207  -1.586  0.00  0.00     0.077 C 
ATOM      2  C1' PXY d   1      -0.251   1.862   0.794  0.00  0.00     0.077 C 
ATOM      3  C1  PXY d   1       0.112   0.530   0.170  0.00  0.00    -0.082 A 
ATOM      4  C2  PXY d   1       1.329   0.038   0.338  0.00  0.00     0.003 A 
ATOM      5  C3  PXY d   1       1.684  -1.150  -0.246  0.00  0.00     0.003 A 
ATOM      6  C4  PXY d   1       0.768  -1.869  -0.966  0.00  0.00    -0.082 A 
ATOM      7  C5  PXY d   1      -0.479  -1.380  -1.133  0.00  0.00     0.003 A 
ATOM      8  C6  PXY d   1      -0.808  -0.152  -0.566  0.00  0.00     0.003 A 
ENDROOT
TORSDOF 0
ENDMDL
