MODEL 1
REMARK minimizedAffinity 11.7965431
REMARK minimizedRMSD -1
REMARK  1 active torsions:
REMARK  status: ('A' for Active; 'I' for Inactive)
REMARK    1  A    between atoms: C1_2  and  C2_3 
ROOT
ATOM      1  C2  UNL d   1       1.562   0.186  -0.133  0.00  0.00    -0.073 A 
ATOM      2  C3  UNL d   1       2.274   0.610  -1.261  0.00  0.00    -0.002 A 
ATOM      3  C4  UNL d   1       3.456   1.336  -1.117  0.00  0.00     0.004 A 
ATOM      4  C5  UNL d   1       3.943   1.640   0.154  0.00  0.00    -0.004 A 
ATOM      5  C6  UNL d   1       3.253   1.215   1.294  0.00  0.00    -0.075 A 
ATOM      6  C7  UNL d   1       3.762   1.536   2.669  0.00  0.00     0.076 C 
ATOM      7  C8  UNL d   1       2.065   0.488   1.141  0.00  0.00     0.001 A 
ENDROOT
BRANCH   1   8
ATOM      8  C1  UNL d   1       0.288  -0.604  -0.283  0.00  0.00     0.053 C 
ATOM      9  C   UNL d   1      -0.923   0.297  -0.462  0.00  0.00     0.018 C 
ENDBRANCH   1   8
TORSDOF 1
ENDMDL
