MODEL 1
REMARK minimizedAffinity -3.54644942
REMARK minimizedRMSD -1
REMARK  1 active torsions:
REMARK  status: ('A' for Active; 'I' for Inactive)
REMARK    1  A    between atoms: C1_2  and  C2_3 
ROOT
ATOM      1  C2  UNL d   1       0.360  -1.313   3.983  0.00  0.00    -0.073 A 
ATOM      2  C3  UNL d   1      -0.756  -1.995   4.481  0.00  0.00    -0.002 A 
ATOM      3  C4  UNL d   1      -2.027  -1.739   3.964  0.00  0.00     0.004 A 
ATOM      4  C5  UNL d   1      -2.193  -0.805   2.941  0.00  0.00    -0.004 A 
ATOM      5  C6  UNL d   1      -1.089  -0.122   2.423  0.00  0.00    -0.075 A 
ATOM      6  C7  UNL d   1      -1.251   0.888   1.324  0.00  0.00     0.076 C 
ATOM      7  C8  UNL d   1       0.184  -0.383   2.949  0.00  0.00     0.001 A 
ENDROOT
BRANCH   1   8
ATOM      8  C1  UNL d   1       1.735  -1.591   4.534  0.00  0.00     0.053 C 
ATOM      9  C   UNL d   1       1.851  -1.203   5.999  0.00  0.00     0.018 C 
ENDBRANCH   1   8
TORSDOF 1
ENDMDL
