MODEL 1
REMARK minimizedAffinity 5.83069515
REMARK minimizedRMSD -1
REMARK  1 active torsions:
REMARK  status: ('A' for Active; 'I' for Inactive)
REMARK    1  A    between atoms: C1_2  and  C2_3 
ROOT
ATOM      1  C2  UNL d   1       0.155   0.263   1.384  0.00  0.00    -0.073 A 
ATOM      2  C3  UNL d   1      -0.419  -0.035   2.626  0.00  0.00    -0.002 A 
ATOM      3  C4  UNL d   1      -1.784   0.160   2.837  0.00  0.00     0.004 A 
ATOM      4  C5  UNL d   1      -2.591   0.647   1.808  0.00  0.00    -0.004 A 
ATOM      5  C6  UNL d   1      -2.039   0.940   0.557  0.00  0.00    -0.075 A 
ATOM      6  C7  UNL d   1      -2.892   1.467  -0.559  0.00  0.00     0.076 C 
ATOM      7  C8  UNL d   1      -0.666   0.744   0.354  0.00  0.00     0.001 A 
ENDROOT
BRANCH   1   8
ATOM      8  C1  UNL d   1       1.628   0.049   1.150  0.00  0.00     0.053 C 
ATOM      9  C   UNL d   1       2.391   1.362   1.081  0.00  0.00     0.018 C 
ENDBRANCH   1   8
TORSDOF 1
ENDMDL
