MODEL 1
REMARK minimizedAffinity 2.23491764
REMARK minimizedRMSD -1
REMARK  1 active torsions:
REMARK  status: ('A' for Active; 'I' for Inactive)
REMARK    1  A    between atoms: C1_2  and  C2_3 
ROOT
ATOM      1  C2  UNL d   1      -2.257  -0.574   2.920  0.00  0.00    -0.073 A 
ATOM      2  C3  UNL d   1      -3.333  -1.361   3.345  0.00  0.00    -0.002 A 
ATOM      3  C4  UNL d   1      -3.328  -1.934   4.618  0.00  0.00     0.004 A 
ATOM      4  C5  UNL d   1      -2.252  -1.720   5.480  0.00  0.00    -0.004 A 
ATOM      5  C6  UNL d   1      -1.173  -0.926   5.078  0.00  0.00    -0.075 A 
ATOM      6  C7  UNL d   1      -0.008  -0.688   5.992  0.00  0.00     0.076 C 
ATOM      7  C8  UNL d   1      -1.184  -0.357   3.797  0.00  0.00     0.001 A 
ENDROOT
BRANCH   1   8
ATOM      8  C1  UNL d   1      -2.260   0.051   1.549  0.00  0.00     0.053 C 
ATOM      9  C   UNL d   1      -0.984  -0.252   0.781  0.00  0.00     0.018 C 
ENDBRANCH   1   8
TORSDOF 1
ENDMDL
