MODEL 1
REMARK minimizedAffinity 8.47814178
REMARK minimizedRMSD -1
REMARK  1 active torsions:
REMARK  status: ('A' for Active; 'I' for Inactive)
REMARK    1  A    between atoms: C1_2  and  C2_3 
ROOT
ATOM      1  C2  UNL d   1      -0.643   0.382  -3.199  0.00  0.00    -0.073 A 
ATOM      2  C3  UNL d   1       0.581   1.013  -3.453  0.00  0.00    -0.002 A 
ATOM      3  C4  UNL d   1       1.378   0.600  -4.521  0.00  0.00     0.004 A 
ATOM      4  C5  UNL d   1       0.958  -0.441  -5.349  0.00  0.00    -0.004 A 
ATOM      5  C6  UNL d   1      -0.267  -1.075  -5.119  0.00  0.00    -0.075 A 
ATOM      6  C7  UNL d   1      -0.732  -2.198  -6.000  0.00  0.00     0.076 C 
ATOM      7  C8  UNL d   1      -1.061  -0.657  -4.043  0.00  0.00     0.001 A 
ENDROOT
BRANCH   1   8
ATOM      8  C1  UNL d   1      -1.510   0.829  -2.051  0.00  0.00     0.053 C 
ATOM      9  C   UNL d   1      -1.703  -0.273  -1.020  0.00  0.00     0.018 C 
ENDBRANCH   1   8
TORSDOF 1
ENDMDL
