MODEL 1
REMARK minimizedAffinity 4.93473911
REMARK minimizedRMSD -1
REMARK  1 active torsions:
REMARK  status: ('A' for Active; 'I' for Inactive)
REMARK    1  A    between atoms: C1_2  and  C2_3 
ROOT
ATOM      1  C2  UNL d   1      -1.029   0.342   1.830  0.00  0.00    -0.073 A 
ATOM      2  C3  UNL d   1       0.162   0.232   1.103  0.00  0.00    -0.002 A 
ATOM      3  C4  UNL d   1       1.333  -0.198   1.729  0.00  0.00     0.004 A 
ATOM      4  C5  UNL d   1       1.323  -0.529   3.084  0.00  0.00    -0.004 A 
ATOM      5  C6  UNL d   1       0.140  -0.437   3.824  0.00  0.00    -0.075 A 
ATOM      6  C7  UNL d   1       0.114  -0.788   5.283  0.00  0.00     0.076 C 
ATOM      7  C8  UNL d   1      -1.030  -0.002   3.189  0.00  0.00     0.001 A 
ENDROOT
BRANCH   1   8
ATOM      8  C1  UNL d   1      -2.297   0.800   1.156  0.00  0.00     0.053 C 
ATOM      9  C   UNL d   1      -2.470   0.174  -0.219  0.00  0.00     0.018 C 
ENDBRANCH   1   8
TORSDOF 1
ENDMDL
