MODEL 1
REMARK minimizedAffinity -1.98381662
REMARK minimizedRMSD -1
REMARK  1 active torsions:
REMARK  status: ('A' for Active; 'I' for Inactive)
REMARK    1  A    between atoms: C1_2  and  C2_3 
ROOT
ATOM      1  C2  UNL d   1      -1.243  -0.339   3.111  0.00  0.00    -0.073 A 
ATOM      2  C3  UNL d   1      -0.737  -0.955   4.261  0.00  0.00    -0.002 A 
ATOM      3  C4  UNL d   1       0.614  -1.294   4.342  0.00  0.00     0.004 A 
ATOM      4  C5  UNL d   1       1.473  -1.014   3.280  0.00  0.00    -0.004 A 
ATOM      5  C6  UNL d   1       0.989  -0.387   2.127  0.00  0.00    -0.075 A 
ATOM      6  C7  UNL d   1       1.899  -0.081   0.974  0.00  0.00     0.076 C 
ATOM      7  C8  UNL d   1      -0.370  -0.053   2.052  0.00  0.00     0.001 A 
ENDROOT
BRANCH   1   8
ATOM      8  C1  UNL d   1      -2.700   0.035   3.022  0.00  0.00     0.053 C 
ATOM      9  C   UNL d   1      -3.584  -0.924   3.803  0.00  0.00     0.018 C 
ENDBRANCH   1   8
TORSDOF 1
ENDMDL
