MODEL 1
REMARK minimizedAffinity -2.87899446
REMARK minimizedRMSD -1
REMARK  1 active torsions:
REMARK  status: ('A' for Active; 'I' for Inactive)
REMARK    1  A    between atoms: C3_4  and  O_7 
ROOT
ATOM      1  C   UNL d   1      -1.216   0.375  -0.086  0.00  0.00    -0.033 A 
ATOM      2  C1  UNL d   1      -1.175  -1.011   0.079  0.00  0.00     0.039 A 
ATOM      3  C2  UNL d   1      -0.075  -1.738  -0.379  0.00  0.00    -0.080 A 
ATOM      4  C3  UNL d   1       0.977  -1.069  -0.999  0.00  0.00     0.150 A 
ATOM      5  C4  UNL d   1       0.945   0.312  -1.163  0.00  0.00    -0.007 A 
ATOM      6  C5  UNL d   1      -0.155   1.037  -0.706  0.00  0.00     0.039 A 
ENDROOT
BRANCH   4   7
ATOM      7  O   UNL d   1       2.070  -1.736  -1.466  0.00  0.00    -0.526 OA
ATOM      8  H5  UNL d   1       1.940  -2.687  -1.309  0.00  0.00     0.418 HD
ENDBRANCH   4   7
TORSDOF 1
ENDMDL
