MODEL 1
REMARK minimizedAffinity -4.53823137
REMARK minimizedRMSD -1
REMARK  1 active torsions:
REMARK  status: ('A' for Active; 'I' for Inactive)
REMARK    1  A    between atoms: C3_4  and  O_7 
ROOT
ATOM      1  C   UNL d   1       3.114   1.018  -2.345  0.00  0.00    -0.033 A 
ATOM      2  C1  UNL d   1       3.123  -0.090  -1.495  0.00  0.00     0.039 A 
ATOM      3  C2  UNL d   1       1.992  -0.398  -0.736  0.00  0.00    -0.080 A 
ATOM      4  C3  UNL d   1       0.861   0.407  -0.837  0.00  0.00     0.150 A 
ATOM      5  C4  UNL d   1       0.844   1.510  -1.684  0.00  0.00    -0.007 A 
ATOM      6  C5  UNL d   1       1.975   1.817  -2.440  0.00  0.00     0.039 A 
ENDROOT
BRANCH   4   7
ATOM      7  O   UNL d   1      -0.265   0.148  -0.113  0.00  0.00    -0.526 OA
ATOM      8  H5  UNL d   1      -0.097  -0.627   0.450  0.00  0.00     0.418 HD
ENDBRANCH   4   7
TORSDOF 1
ENDMDL
