MODEL 1
REMARK minimizedAffinity -3.60576844
REMARK minimizedRMSD -1
REMARK  1 active torsions:
REMARK  status: ('A' for Active; 'I' for Inactive)
REMARK    1  A    between atoms: C3_4  and  O_7 
ROOT
ATOM      1  C   UNL d   1      -1.581   0.532   1.364  0.00  0.00    -0.033 A 
ATOM      2  C1  UNL d   1      -1.850  -0.100   0.148  0.00  0.00     0.039 A 
ATOM      3  C2  UNL d   1      -0.842  -0.803  -0.513  0.00  0.00    -0.080 A 
ATOM      4  C3  UNL d   1       0.429  -0.868   0.051  0.00  0.00     0.150 A 
ATOM      5  C4  UNL d   1       0.703  -0.244   1.264  0.00  0.00    -0.007 A 
ATOM      6  C5  UNL d   1      -0.305   0.458   1.922  0.00  0.00     0.039 A 
ENDROOT
BRANCH   4   7
ATOM      7  O   UNL d   1       1.446  -1.539  -0.560  0.00  0.00    -0.526 OA
ATOM      8  H5  UNL d   1       1.118  -1.895  -1.403  0.00  0.00     0.418 HD
ENDBRANCH   4   7
TORSDOF 1
ENDMDL
