MODEL 1
REMARK minimizedAffinity -1.87483275
REMARK minimizedRMSD -1
REMARK  1 active torsions:
REMARK  status: ('A' for Active; 'I' for Inactive)
REMARK    1  A    between atoms: C3_4  and  O_7 
ROOT
ATOM      1  C   UNL d   1      -2.064   1.768   3.945  0.00  0.00    -0.033 A 
ATOM      2  C1  UNL d   1      -1.092   2.537   3.301  0.00  0.00     0.039 A 
ATOM      3  C2  UNL d   1      -0.557   2.113   2.083  0.00  0.00    -0.080 A 
ATOM      4  C3  UNL d   1      -1.003   0.920   1.520  0.00  0.00     0.150 A 
ATOM      5  C4  UNL d   1      -1.973   0.151   2.153  0.00  0.00    -0.007 A 
ATOM      6  C5  UNL d   1      -2.505   0.576   3.370  0.00  0.00     0.039 A 
ENDROOT
BRANCH   4   7
ATOM      7  O   UNL d   1      -0.507   0.463   0.335  0.00  0.00    -0.526 OA
ATOM      8  H5  UNL d   1       0.176   1.083   0.027  0.00  0.00     0.418 HD
ENDBRANCH   4   7
TORSDOF 1
ENDMDL
