MODEL 1
REMARK minimizedAffinity -5.31443548
REMARK minimizedRMSD -1
REMARK  1 active torsions:
REMARK  status: ('A' for Active; 'I' for Inactive)
REMARK    1  A    between atoms: C3_4  and  O_7 
ROOT
ATOM      1  C   UNL d   1       2.724   0.726  -2.279  0.00  0.00    -0.033 A 
ATOM      2  C1  UNL d   1       2.735  -0.332  -1.368  0.00  0.00     0.039 A 
ATOM      3  C2  UNL d   1       1.644  -0.537  -0.520  0.00  0.00    -0.080 A 
ATOM      4  C3  UNL d   1       0.551   0.322  -0.594  0.00  0.00     0.150 A 
ATOM      5  C4  UNL d   1       0.532   1.376  -1.502  0.00  0.00    -0.007 A 
ATOM      6  C5  UNL d   1       1.622   1.579  -2.347  0.00  0.00     0.039 A 
ENDROOT
BRANCH   4   7
ATOM      7  O   UNL d   1      -0.534   0.165   0.216  0.00  0.00    -0.526 OA
ATOM      8  H5  UNL d   1      -0.368  -0.585   0.811  0.00  0.00     0.418 HD
ENDBRANCH   4   7
TORSDOF 1
ENDMDL
