MODEL 1
REMARK minimizedAffinity -2.55952048
REMARK minimizedRMSD -1
REMARK  1 active torsions:
REMARK  status: ('A' for Active; 'I' for Inactive)
REMARK    1  A    between atoms: C3_4  and  O_7 
ROOT
ATOM      1  C   UNL d   1      -0.298  -0.041   0.319  0.00  0.00    -0.033 A 
ATOM      2  C1  UNL d   1      -1.659   0.258   0.228  0.00  0.00     0.039 A 
ATOM      3  C2  UNL d   1      -2.371   0.630   1.370  0.00  0.00    -0.080 A 
ATOM      4  C3  UNL d   1      -1.712   0.701   2.594  0.00  0.00     0.150 A 
ATOM      5  C4  UNL d   1      -0.356   0.408   2.691  0.00  0.00    -0.007 A 
ATOM      6  C5  UNL d   1       0.354   0.035   1.550  0.00  0.00     0.039 A 
ENDROOT
BRANCH   4   7
ATOM      7  O   UNL d   1      -2.366   1.055   3.736  0.00  0.00    -0.526 OA
ATOM      8  H5  UNL d   1      -3.303   1.200   3.522  0.00  0.00     0.418 HD
ENDBRANCH   4   7
TORSDOF 1
ENDMDL
