MODEL 1
REMARK minimizedAffinity -4.25798607
REMARK minimizedRMSD -1
REMARK  1 active torsions:
REMARK  status: ('A' for Active; 'I' for Inactive)
REMARK    1  A    between atoms: C3_4  and  O_7 
ROOT
ATOM      1  C   UNL d   1       1.210   1.866  -2.522  0.00  0.00    -0.033 A 
ATOM      2  C1  UNL d   1       0.938   1.170  -1.343  0.00  0.00     0.039 A 
ATOM      3  C2  UNL d   1       1.651   0.010  -1.035  0.00  0.00    -0.080 A 
ATOM      4  C3  UNL d   1       2.632  -0.443  -1.913  0.00  0.00     0.150 A 
ATOM      5  C4  UNL d   1       2.911   0.248  -3.087  0.00  0.00    -0.007 A 
ATOM      6  C5  UNL d   1       2.198   1.406  -3.394  0.00  0.00     0.039 A 
ENDROOT
BRANCH   4   7
ATOM      7  O   UNL d   1       3.350  -1.573  -1.657  0.00  0.00    -0.526 OA
ATOM      8  H5  UNL d   1       3.029  -1.960  -0.826  0.00  0.00     0.418 HD
ENDBRANCH   4   7
TORSDOF 1
ENDMDL
