MODEL 1
REMARK minimizedAffinity -4.35664463
REMARK minimizedRMSD -1
REMARK  1 active torsions:
REMARK  status: ('A' for Active; 'I' for Inactive)
REMARK    1  A    between atoms: C3_4  and  O_7 
ROOT
ATOM      1  C   UNL d   1       0.532  -1.760  -0.143  0.00  0.00    -0.033 A 
ATOM      2  C1  UNL d   1       1.522  -1.670  -1.124  0.00  0.00     0.039 A 
ATOM      3  C2  UNL d   1       1.621  -0.524  -1.916  0.00  0.00    -0.080 A 
ATOM      4  C3  UNL d   1       0.726   0.523  -1.717  0.00  0.00     0.150 A 
ATOM      5  C4  UNL d   1      -0.260   0.442  -0.739  0.00  0.00    -0.007 A 
ATOM      6  C5  UNL d   1      -0.358  -0.703   0.050  0.00  0.00     0.039 A 
ENDROOT
BRANCH   4   7
ATOM      7  O   UNL d   1       0.780   1.659  -2.468  0.00  0.00    -0.526 OA
ATOM      8  H5  UNL d   1       1.492   1.562  -3.122  0.00  0.00     0.418 HD
ENDBRANCH   4   7
TORSDOF 1
ENDMDL
