MODEL 1
REMARK minimizedAffinity -3.91315341
REMARK minimizedRMSD -1
REMARK  1 active torsions:
REMARK  status: ('A' for Active; 'I' for Inactive)
REMARK    1  A    between atoms: C3_4  and  O_7 
ROOT
ATOM      1  C   UNL d   1       2.177  -0.157  -2.500  0.00  0.00    -0.033 A 
ATOM      2  C1  UNL d   1       1.374   0.982  -2.585  0.00  0.00     0.039 A 
ATOM      3  C2  UNL d   1       0.326   1.168  -1.682  0.00  0.00    -0.080 A 
ATOM      4  C3  UNL d   1       0.091   0.209  -0.700  0.00  0.00     0.150 A 
ATOM      5  C4  UNL d   1       0.890  -0.927  -0.608  0.00  0.00    -0.007 A 
ATOM      6  C5  UNL d   1       1.936  -1.111  -1.511  0.00  0.00     0.039 A 
ENDROOT
BRANCH   4   7
ATOM      7  O   UNL d   1      -0.923   0.344   0.200  0.00  0.00    -0.526 OA
ATOM      8  H5  UNL d   1      -1.408   1.161  -0.003  0.00  0.00     0.418 HD
ENDBRANCH   4   7
TORSDOF 1
ENDMDL
