MODEL 1
REMARK minimizedAffinity -3.44670272
REMARK minimizedRMSD -1
REMARK  1 active torsions:
REMARK  status: ('A' for Active; 'I' for Inactive)
REMARK    1  A    between atoms: C3_4  and  O_7 
ROOT
ATOM      1  C   UNL d   1      -2.542   1.778   3.159  0.00  0.00    -0.033 A 
ATOM      2  C1  UNL d   1      -3.021   0.471   3.051  0.00  0.00     0.039 A 
ATOM      3  C2  UNL d   1      -2.648  -0.324   1.966  0.00  0.00    -0.080 A 
ATOM      4  C3  UNL d   1      -1.796   0.199   0.997  0.00  0.00     0.150 A 
ATOM      5  C4  UNL d   1      -1.312   1.499   1.100  0.00  0.00    -0.007 A 
ATOM      6  C5  UNL d   1      -1.686   2.292   2.184  0.00  0.00     0.039 A 
ENDROOT
BRANCH   4   7
ATOM      7  O   UNL d   1      -1.408  -0.537  -0.083  0.00  0.00    -0.526 OA
ATOM      8  H5  UNL d   1      -1.843  -1.405  -0.037  0.00  0.00     0.418 HD
ENDBRANCH   4   7
TORSDOF 1
ENDMDL
