MODEL 1
REMARK minimizedAffinity -1.92775464
REMARK minimizedRMSD -1
REMARK  1 active torsions:
REMARK  status: ('A' for Active; 'I' for Inactive)
REMARK    1  A    between atoms: C3_4  and  O_7 
ROOT
ATOM      1  C   UNL d   1       2.051   0.047  -2.352  0.00  0.00    -0.033 A 
ATOM      2  C1  UNL d   1       1.373   1.267  -2.314  0.00  0.00     0.039 A 
ATOM      3  C2  UNL d   1       0.444   1.521  -1.304  0.00  0.00    -0.080 A 
ATOM      4  C3  UNL d   1       0.202   0.548  -0.338  0.00  0.00     0.150 A 
ATOM      5  C4  UNL d   1       0.876  -0.668  -0.367  0.00  0.00    -0.007 A 
ATOM      6  C5  UNL d   1       1.804  -0.920  -1.377  0.00  0.00     0.039 A 
ENDROOT
BRANCH   4   7
ATOM      7  O   UNL d   1      -0.700   0.749   0.665  0.00  0.00    -0.526 OA
ATOM      8  H5  UNL d   1      -1.109   1.621   0.541  0.00  0.00     0.418 HD
ENDBRANCH   4   7
TORSDOF 1
ENDMDL
