MODEL 1
REMARK minimizedAffinity -4.42524862
REMARK minimizedRMSD -1
REMARK  1 active torsions:
REMARK  status: ('A' for Active; 'I' for Inactive)
REMARK    1  A    between atoms: C3_4  and  O_7 
ROOT
ATOM      1  C   UNL d   1      -0.357  -1.944   0.024  0.00  0.00    -0.033 A 
ATOM      2  C1  UNL d   1      -1.110  -0.774   0.138  0.00  0.00     0.039 A 
ATOM      3  C2  UNL d   1      -0.726   0.376  -0.555  0.00  0.00    -0.080 A 
ATOM      4  C3  UNL d   1       0.409   0.342  -1.359  0.00  0.00     0.150 A 
ATOM      5  C4  UNL d   1       1.162  -0.821  -1.481  0.00  0.00    -0.007 A 
ATOM      6  C5  UNL d   1       0.778  -1.968  -0.787  0.00  0.00     0.039 A 
ENDROOT
BRANCH   4   7
ATOM      7  O   UNL d   1       0.826   1.440  -2.051  0.00  0.00    -0.526 OA
ATOM      8  H5  UNL d   1       0.226   2.177  -1.849  0.00  0.00     0.418 HD
ENDBRANCH   4   7
TORSDOF 1
ENDMDL
