MODEL 1
REMARK minimizedAffinity -4.09827566
REMARK minimizedRMSD -1
REMARK  1 active torsions:
REMARK  status: ('A' for Active; 'I' for Inactive)
REMARK    1  A    between atoms: C3_4  and  O_7 
ROOT
ATOM      1  C   UNL d   1       3.382  -0.027  -2.432  0.00  0.00    -0.033 A 
ATOM      2  C1  UNL d   1       2.664   1.171  -2.435  0.00  0.00     0.039 A 
ATOM      3  C2  UNL d   1       1.509   1.296  -1.659  0.00  0.00    -0.080 A 
ATOM      4  C3  UNL d   1       1.085   0.219  -0.886  0.00  0.00     0.150 A 
ATOM      5  C4  UNL d   1       1.798  -0.975  -0.876  0.00  0.00    -0.007 A 
ATOM      6  C5  UNL d   1       2.950  -1.099  -1.652  0.00  0.00     0.039 A 
ENDROOT
BRANCH   4   7
ATOM      7  O   UNL d   1      -0.038   0.293  -0.117  0.00  0.00    -0.526 OA
ATOM      8  H5  UNL d   1      -0.443   1.167  -0.246  0.00  0.00     0.418 HD
ENDBRANCH   4   7
TORSDOF 1
ENDMDL
