MODEL 1
REMARK minimizedAffinity -5.50489426
REMARK minimizedRMSD -1
REMARK  1 active torsions:
REMARK  status: ('A' for Active; 'I' for Inactive)
REMARK    1  A    between atoms: C3_4  and  O_7 
ROOT
ATOM      1  C   UNL d   1       3.436   0.275  -2.342  0.00  0.00    -0.033 A 
ATOM      2  C1  UNL d   1       2.611   1.392  -2.491  0.00  0.00     0.039 A 
ATOM      3  C2  UNL d   1       1.472   1.532  -1.696  0.00  0.00    -0.080 A 
ATOM      4  C3  UNL d   1       1.169   0.550  -0.756  0.00  0.00     0.150 A 
ATOM      5  C4  UNL d   1       1.988  -0.564  -0.600  0.00  0.00    -0.007 A 
ATOM      6  C5  UNL d   1       3.125  -0.702  -1.396  0.00  0.00     0.039 A 
ENDROOT
BRANCH   4   7
ATOM      7  O   UNL d   1       0.066   0.640   0.039  0.00  0.00    -0.526 OA
ATOM      8  H5  UNL d   1      -0.421   1.447  -0.200  0.00  0.00     0.418 HD
ENDBRANCH   4   7
TORSDOF 1
ENDMDL
