MODEL 1
REMARK minimizedAffinity -5.39310551
REMARK minimizedRMSD -1
REMARK  1 active torsions:
REMARK  status: ('A' for Active; 'I' for Inactive)
REMARK    1  A    between atoms: C3_4  and  O_7 
ROOT
ATOM      1  C   UNL d   1       2.930  -0.015  -1.484  0.00  0.00    -0.033 A 
ATOM      2  C1  UNL d   1       1.824  -0.437  -0.744  0.00  0.00     0.039 A 
ATOM      3  C2  UNL d   1       0.595   0.210  -0.890  0.00  0.00    -0.080 A 
ATOM      4  C3  UNL d   1       0.486   1.275  -1.780  0.00  0.00     0.150 A 
ATOM      5  C4  UNL d   1       1.582   1.698  -2.524  0.00  0.00    -0.007 A 
ATOM      6  C5  UNL d   1       2.809   1.052  -2.375  0.00  0.00     0.039 A 
ENDROOT
BRANCH   4   7
ATOM      7  O   UNL d   1      -0.692   1.940  -1.954  0.00  0.00    -0.526 OA
ATOM      8  H5  UNL d   1      -1.353   1.556  -1.354  0.00  0.00     0.418 HD
ENDBRANCH   4   7
TORSDOF 1
ENDMDL
