MODEL 1
REMARK minimizedAffinity -5.43504572
REMARK minimizedRMSD -1
REMARK  1 active torsions:
REMARK  status: ('A' for Active; 'I' for Inactive)
REMARK    1  A    between atoms: C3_4  and  O_7 
ROOT
ATOM      1  C   UNL d   1       3.329   0.016  -1.843  0.00  0.00    -0.033 A 
ATOM      2  C1  UNL d   1       2.572   0.973  -2.522  0.00  0.00     0.039 A 
ATOM      3  C2  UNL d   1       1.252   1.220  -2.141  0.00  0.00    -0.080 A 
ATOM      4  C3  UNL d   1       0.702   0.506  -1.079  0.00  0.00     0.150 A 
ATOM      5  C4  UNL d   1       1.452  -0.445  -0.396  0.00  0.00    -0.007 A 
ATOM      6  C5  UNL d   1       2.770  -0.692  -0.779  0.00  0.00     0.039 A 
ENDROOT
BRANCH   4   7
ATOM      7  O   UNL d   1      -0.584   0.709  -0.674  0.00  0.00    -0.526 OA
ATOM      8  H5  UNL d   1      -0.988   1.374  -1.256  0.00  0.00     0.418 HD
ENDBRANCH   4   7
TORSDOF 1
ENDMDL
