MODEL 1
REMARK minimizedAffinity -5.23321104
REMARK minimizedRMSD -1
REMARK  0 active torsions:
REMARK  status: ('A' for Active; 'I' for Inactive)
ROOT
ATOM      1  C1  DEN d   1       2.286  -4.482   0.394  0.00  0.00     0.130 A 
ATOM      2  C2  DEN d   1       1.842  -5.621   1.193  0.00  0.00    -0.031 A 
ATOM      3  C3  DEN d   1       0.490  -5.999   0.737  0.00  0.00     0.027 A 
ATOM      4  C4  DEN d   1      -0.951  -4.942  -1.122  0.00  0.00     0.027 A 
ATOM      5  C5  DEN d   1      -1.005  -3.944  -2.071  0.00  0.00    -0.003 A 
ATOM      6  C6  DEN d   1       0.013  -3.043  -2.240  0.00  0.00     0.001 A 
ATOM      7  C7  DEN d   1       1.147  -3.148  -1.479  0.00  0.00     0.017 A 
ATOM      8  C8  DEN d   1       1.205  -4.146  -0.515  0.00  0.00    -0.094 A 
ATOM      9  C9  DEN d   1       0.171  -5.056  -0.368  0.00  0.00    -0.072 A 
ENDROOT
TORSDOF 0
ENDMDL
