MODEL 1
REMARK minimizedAffinity -1.30338454
REMARK minimizedRMSD -1
REMARK  0 active torsions:
REMARK  status: ('A' for Active; 'I' for Inactive)
ROOT
ATOM      1  C1  DEN d   1      -0.236  -0.624  -2.202  0.00  0.00     0.130 A 
ATOM      2  C2  DEN d   1       0.814   0.171  -1.572  0.00  0.00    -0.031 A 
ATOM      3  C3  DEN d   1       1.516  -0.688  -0.598  0.00  0.00     0.027 A 
ATOM      4  C4  DEN d   1       1.085  -3.162  -0.011  0.00  0.00     0.027 A 
ATOM      5  C5  DEN d   1       0.292  -4.257  -0.275  0.00  0.00    -0.003 A 
ATOM      6  C6  DEN d   1      -0.746  -4.208  -1.168  0.00  0.00     0.001 A 
ATOM      7  C7  DEN d   1      -0.990  -3.053  -1.863  0.00  0.00     0.017 A 
ATOM      8  C8  DEN d   1      -0.200  -1.943  -1.596  0.00  0.00    -0.094 A 
ATOM      9  C9  DEN d   1       0.852  -2.016  -0.699  0.00  0.00    -0.072 A 
ENDROOT
TORSDOF 0
ENDMDL
