MODEL 1
REMARK minimizedAffinity -5.84475183
REMARK minimizedRMSD -1
REMARK  0 active torsions:
REMARK  status: ('A' for Active; 'I' for Inactive)
ROOT
ATOM      1  C1  DEN d   1      -0.491   1.022   1.735  0.00  0.00     0.130 A 
ATOM      2  C2  DEN d   1      -1.137   2.281   2.096  0.00  0.00    -0.031 A 
ATOM      3  C3  DEN d   1      -1.260   3.098   0.871  0.00  0.00     0.027 A 
ATOM      4  C4  DEN d   1      -0.523   2.536  -1.535  0.00  0.00     0.027 A 
ATOM      5  C5  DEN d   1       0.082   1.589  -2.332  0.00  0.00    -0.003 A 
ATOM      6  C6  DEN d   1       0.564   0.410  -1.827  0.00  0.00     0.001 A 
ATOM      7  C7  DEN d   1       0.410   0.129  -0.495  0.00  0.00     0.017 A 
ATOM      8  C8  DEN d   1      -0.192   1.082   0.315  0.00  0.00    -0.094 A 
ATOM      9  C9  DEN d   1      -0.684   2.262  -0.216  0.00  0.00    -0.072 A 
ENDROOT
TORSDOF 0
ENDMDL
