MODEL 1
REMARK minimizedAffinity -5.53916883
REMARK minimizedRMSD -1
REMARK  0 active torsions:
REMARK  status: ('A' for Active; 'I' for Inactive)
ROOT
ATOM      1  C1  DEN d   1       0.361   0.285  -1.116  0.00  0.00     0.130 A 
ATOM      2  C2  DEN d   1       0.920  -0.472   0.001  0.00  0.00    -0.031 A 
ATOM      3  C3  DEN d   1       0.611   0.257   1.247  0.00  0.00     0.027 A 
ATOM      4  C4  DEN d   1      -0.676   2.472   1.554  0.00  0.00     0.027 A 
ATOM      5  C5  DEN d   1      -1.331   3.490   0.898  0.00  0.00    -0.003 A 
ATOM      6  C6  DEN d   1      -1.438   3.528  -0.467  0.00  0.00     0.001 A 
ATOM      7  C7  DEN d   1      -0.920   2.506  -1.218  0.00  0.00     0.017 A 
ATOM      8  C8  DEN d   1      -0.251   1.480  -0.563  0.00  0.00    -0.094 A 
ATOM      9  C9  DEN d   1      -0.165   1.453   0.818  0.00  0.00    -0.072 A 
ENDROOT
TORSDOF 0
ENDMDL
