MODEL 1
REMARK minimizedAffinity -1.07890368
REMARK minimizedRMSD -1
REMARK  0 active torsions:
REMARK  status: ('A' for Active; 'I' for Inactive)
ROOT
ATOM      1  C1  DEN d   1       1.454  -1.065  -0.598  0.00  0.00     0.130 A 
ATOM      2  C2  DEN d   1       0.470  -0.230  -1.281  0.00  0.00    -0.031 A 
ATOM      3  C3  DEN d   1      -0.620  -1.105  -1.758  0.00  0.00     0.027 A 
ATOM      4  C4  DEN d   1      -0.879  -3.659  -1.503  0.00  0.00     0.027 A 
ATOM      5  C5  DEN d   1      -0.292  -4.803  -1.009  0.00  0.00    -0.003 A 
ATOM      6  C6  DEN d   1       0.924  -4.786  -0.379  0.00  0.00     0.001 A 
ATOM      7  C7  DEN d   1       1.572  -3.594  -0.185  0.00  0.00     0.017 A 
ATOM      8  C8  DEN d   1       0.990  -2.438  -0.687  0.00  0.00    -0.094 A 
ATOM      9  C9  DEN d   1      -0.245  -2.474  -1.311  0.00  0.00    -0.072 A 
ENDROOT
TORSDOF 0
ENDMDL
