MODEL 1
REMARK minimizedAffinity -2.74489927
REMARK minimizedRMSD -1
REMARK  0 active torsions:
REMARK  status: ('A' for Active; 'I' for Inactive)
ROOT
ATOM      1  C1  DEN d   1       0.994  -0.530  -0.374  0.00  0.00     0.130 A 
ATOM      2  C2  DEN d   1       0.009  -1.043  -1.323  0.00  0.00    -0.031 A 
ATOM      3  C3  DEN d   1      -1.272  -0.353  -1.070  0.00  0.00     0.027 A 
ATOM      4  C4  DEN d   1      -1.822   1.454   0.687  0.00  0.00     0.027 A 
ATOM      5  C5  DEN d   1      -1.312   2.203   1.724  0.00  0.00    -0.003 A 
ATOM      6  C6  DEN d   1      -0.018   2.070   2.154  0.00  0.00     0.001 A 
ATOM      7  C7  DEN d   1       0.824   1.200   1.513  0.00  0.00     0.017 A 
ATOM      8  C8  DEN d   1       0.315   0.436   0.471  0.00  0.00    -0.094 A 
ATOM      9  C9  DEN d   1      -0.993   0.593   0.044  0.00  0.00    -0.072 A 
ENDROOT
TORSDOF 0
ENDMDL
