MODEL 1
REMARK minimizedAffinity -2.15652108
REMARK minimizedRMSD -1
REMARK  0 active torsions:
REMARK  status: ('A' for Active; 'I' for Inactive)
ROOT
ATOM      1  C1  DEN d   1      -0.818  -0.626  -0.715  0.00  0.00     0.130 A 
ATOM      2  C2  DEN d   1       0.553  -1.118  -0.609  0.00  0.00    -0.031 A 
ATOM      3  C3  DEN d   1       1.264  -0.279   0.376  0.00  0.00     0.027 A 
ATOM      4  C4  DEN d   1       0.380   1.721   1.744  0.00  0.00     0.027 A 
ATOM      5  C5  DEN d   1      -0.717   2.518   1.986  0.00  0.00    -0.003 A 
ATOM      6  C6  DEN d   1      -1.905   2.346   1.326  0.00  0.00     0.001 A 
ATOM      7  C7  DEN d   1      -2.037   1.324   0.423  0.00  0.00     0.017 A 
ATOM      8  C8  DEN d   1      -0.933   0.521   0.168  0.00  0.00    -0.094 A 
ATOM      9  C9  DEN d   1       0.255   0.704   0.854  0.00  0.00    -0.072 A 
ENDROOT
TORSDOF 0
ENDMDL
