MODEL 1
REMARK minimizedAffinity -2.05393505
REMARK minimizedRMSD -1
REMARK  0 active torsions:
REMARK  status: ('A' for Active; 'I' for Inactive)
ROOT
ATOM      1  C1  DEN d   1      -0.749   2.444  -1.983  0.00  0.00     0.130 A 
ATOM      2  C2  DEN d   1       0.006   1.516  -2.821  0.00  0.00    -0.031 A 
ATOM      3  C3  DEN d   1       0.610   0.496  -1.941  0.00  0.00     0.027 A 
ATOM      4  C4  DEN d   1       0.448   0.261   0.623  0.00  0.00     0.027 A 
ATOM      5  C5  DEN d   1      -0.072   0.818   1.770  0.00  0.00    -0.003 A 
ATOM      6  C6  DEN d   1      -0.819   1.966   1.751  0.00  0.00     0.001 A 
ATOM      7  C7  DEN d   1      -1.106   2.569   0.555  0.00  0.00     0.017 A 
ATOM      8  C8  DEN d   1      -0.579   2.018  -0.606  0.00  0.00    -0.094 A 
ATOM      9  C9  DEN d   1       0.164   0.850  -0.567  0.00  0.00    -0.072 A 
ENDROOT
TORSDOF 0
ENDMDL
