MODEL 1
REMARK minimizedAffinity -5.16167736
REMARK minimizedRMSD -1
REMARK  0 active torsions:
REMARK  status: ('A' for Active; 'I' for Inactive)
ROOT
ATOM      1  C1  DEN d   1      -0.858   2.047   2.192  0.00  0.00     0.130 A 
ATOM      2  C2  DEN d   1      -1.512   3.150   1.493  0.00  0.00    -0.031 A 
ATOM      3  C3  DEN d   1      -1.460   2.867   0.045  0.00  0.00     0.027 A 
ATOM      4  C4  DEN d   1      -0.440   0.838  -1.177  0.00  0.00     0.027 A 
ATOM      5  C5  DEN d   1       0.236  -0.350  -1.009  0.00  0.00    -0.003 A 
ATOM      6  C6  DEN d   1       0.621  -0.803   0.225  0.00  0.00     0.001 A 
ATOM      7  C7  DEN d   1       0.294  -0.084   1.344  0.00  0.00     0.017 A 
ATOM      8  C8  DEN d   1      -0.381   1.119   1.182  0.00  0.00    -0.094 A 
ATOM      9  C9  DEN d   1      -0.773   1.553  -0.073  0.00  0.00    -0.072 A 
ENDROOT
TORSDOF 0
ENDMDL
