MODEL 1
REMARK minimizedAffinity -1.28488946
REMARK minimizedRMSD -1
REMARK  1 active torsions:
REMARK  status: ('A' for Active; 'I' for Inactive)
REMARK    1  A    between atoms: C1_2  and  C2_3 
ROOT
ATOM      1  C2  UNL d   1      -3.754   5.880  -3.586  0.00  0.00    -0.077 A 
ATOM      2  C3  UNL d   1      -2.357   6.000  -3.580  0.00  0.00     0.002 A 
ATOM      3  C4  UNL d   1      -1.637   5.935  -4.775  0.00  0.00     0.002 A 
ATOM      4  C5  UNL d   1      -2.306   5.755  -5.984  0.00  0.00    -0.004 A 
ATOM      5  C6  UNL d   1      -3.695   5.632  -6.000  0.00  0.00     0.002 A 
ATOM      6  C7  UNL d   1      -4.416   5.696  -4.806  0.00  0.00     0.002 A 
ENDROOT
BRANCH   1   7
ATOM      7  C1  UNL d   1      -4.535   5.999  -2.304  0.00  0.00     0.055 C 
ATOM      8  C   UNL d   1      -5.150   4.665  -1.904  0.00  0.00     0.019 C 
ENDBRANCH   1   7
TORSDOF 1
ENDMDL
