MODEL 1
REMARK minimizedAffinity 3.88257575
REMARK minimizedRMSD -1
REMARK  1 active torsions:
REMARK  status: ('A' for Active; 'I' for Inactive)
REMARK    1  A    between atoms: C1_2  and  C2_3 
ROOT
ATOM      1  C2  UNL d   1      -4.244  -0.110   4.793  0.00  0.00    -0.077 A 
ATOM      2  C3  UNL d   1      -5.118  -1.148   5.143  0.00  0.00     0.002 A 
ATOM      3  C4  UNL d   1      -5.567  -2.050   4.177  0.00  0.00     0.002 A 
ATOM      4  C5  UNL d   1      -5.144  -1.926   2.855  0.00  0.00    -0.004 A 
ATOM      5  C6  UNL d   1      -4.276  -0.895   2.496  0.00  0.00     0.002 A 
ATOM      6  C7  UNL d   1      -3.827   0.008   3.461  0.00  0.00     0.002 A 
ENDROOT
BRANCH   1   7
ATOM      7  C1  UNL d   1      -3.720   0.835   5.843  0.00  0.00     0.055 C 
ATOM      8  C   UNL d   1      -2.212   1.007   5.730  0.00  0.00     0.019 C 
ENDBRANCH   1   7
TORSDOF 1
ENDMDL
