MODEL 1
REMARK minimizedAffinity 3.19973826
REMARK minimizedRMSD -1
REMARK  1 active torsions:
REMARK  status: ('A' for Active; 'I' for Inactive)
REMARK    1  A    between atoms: C1_2  and  C2_3 
ROOT
ATOM      1  C2  UNL d   1      -3.150   0.207   4.012  0.00  0.00    -0.077 A 
ATOM      2  C3  UNL d   1      -4.143  -0.612   4.568  0.00  0.00     0.002 A 
ATOM      3  C4  UNL d   1      -4.788  -1.570   3.784  0.00  0.00     0.002 A 
ATOM      4  C5  UNL d   1      -4.445  -1.720   2.442  0.00  0.00    -0.004 A 
ATOM      5  C6  UNL d   1      -3.461  -0.909   1.879  0.00  0.00     0.002 A 
ATOM      6  C7  UNL d   1      -2.815   0.050   2.661  0.00  0.00     0.002 A 
ENDROOT
BRANCH   1   7
ATOM      7  C1  UNL d   1      -2.418   1.207   4.869  0.00  0.00     0.055 C 
ATOM      8  C   UNL d   1      -1.651   0.521   5.989  0.00  0.00     0.019 C 
ENDBRANCH   1   7
TORSDOF 1
ENDMDL
