MODEL 1
REMARK minimizedAffinity 14.5271072
REMARK minimizedRMSD -1
REMARK  1 active torsions:
REMARK  status: ('A' for Active; 'I' for Inactive)
REMARK    1  A    between atoms: C1_2  and  C2_3 
ROOT
ATOM      1  C2  UNL d   1      -5.746   1.443  -1.504  0.00  0.00    -0.077 A 
ATOM      2  C3  UNL d   1      -5.877   1.296  -2.892  0.00  0.00     0.002 A 
ATOM      3  C4  UNL d   1      -6.000   0.025  -3.459  0.00  0.00     0.002 A 
ATOM      4  C5  UNL d   1      -5.997  -1.106  -2.645  0.00  0.00    -0.004 A 
ATOM      5  C6  UNL d   1      -5.865  -0.970  -1.264  0.00  0.00     0.002 A 
ATOM      6  C7  UNL d   1      -5.741   0.299  -0.696  0.00  0.00     0.002 A 
ENDROOT
BRANCH   1   7
ATOM      7  C1  UNL d   1      -5.664   2.815  -0.887  0.00  0.00     0.055 C 
ATOM      8  C   UNL d   1      -4.546   3.636  -1.511  0.00  0.00     0.019 C 
ENDBRANCH   1   7
TORSDOF 1
ENDMDL
