MODEL 1
REMARK minimizedAffinity 12.9125385
REMARK minimizedRMSD -1
REMARK  1 active torsions:
REMARK  status: ('A' for Active; 'I' for Inactive)
REMARK    1  A    between atoms: C1_2  and  C2_3 
ROOT
ATOM      1  C2  UNL d   1       3.166   3.103  -3.767  0.00  0.00    -0.077 A 
ATOM      2  C3  UNL d   1       3.579   2.250  -2.733  0.00  0.00     0.002 A 
ATOM      3  C4  UNL d   1       2.679   1.855  -1.741  0.00  0.00     0.002 A 
ATOM      4  C5  UNL d   1       1.361   2.305  -1.775  0.00  0.00    -0.004 A 
ATOM      5  C6  UNL d   1       0.941   3.155  -2.797  0.00  0.00     0.002 A 
ATOM      6  C7  UNL d   1       1.839   3.552  -3.789  0.00  0.00     0.002 A 
ENDROOT
BRANCH   1   7
ATOM      7  C1  UNL d   1       4.121   3.490  -4.865  0.00  0.00     0.055 C 
ATOM      8  C   UNL d   1       5.367   4.160  -4.304  0.00  0.00     0.019 C 
ENDBRANCH   1   7
TORSDOF 1
ENDMDL
