MODEL 1
REMARK minimizedAffinity 9.75445652
REMARK minimizedRMSD -1
REMARK  1 active torsions:
REMARK  status: ('A' for Active; 'I' for Inactive)
REMARK    1  A    between atoms: C1_2  and  C2_3 
ROOT
ATOM      1  C2  UNL d   1      -1.565  -0.087   2.624  0.00  0.00    -0.077 A 
ATOM      2  C3  UNL d   1      -0.249  -0.552   2.491  0.00  0.00     0.002 A 
ATOM      3  C4  UNL d   1       0.037  -1.633   1.655  0.00  0.00     0.002 A 
ATOM      4  C5  UNL d   1      -0.986  -2.253   0.941  0.00  0.00    -0.004 A 
ATOM      5  C6  UNL d   1      -2.298  -1.799   1.067  0.00  0.00     0.002 A 
ATOM      6  C7  UNL d   1      -2.586  -0.720   1.904  0.00  0.00     0.002 A 
ENDROOT
BRANCH   1   7
ATOM      7  C1  UNL d   1      -1.869   1.109   3.487  0.00  0.00     0.055 C 
ATOM      8  C   UNL d   1      -2.225   0.691   4.907  0.00  0.00     0.019 C 
ENDBRANCH   1   7
TORSDOF 1
ENDMDL
