MODEL 1
REMARK minimizedAffinity 3.75440717
REMARK minimizedRMSD -1
REMARK  1 active torsions:
REMARK  status: ('A' for Active; 'I' for Inactive)
REMARK    1  A    between atoms: C1_2  and  C2_3 
ROOT
ATOM      1  C2  UNL d   1       0.490  -1.444   2.886  0.00  0.00    -0.077 A 
ATOM      2  C3  UNL d   1      -0.401  -1.539   1.807  0.00  0.00     0.002 A 
ATOM      3  C4  UNL d   1      -1.611  -0.842   1.827  0.00  0.00     0.002 A 
ATOM      4  C5  UNL d   1      -1.939  -0.043   2.920  0.00  0.00    -0.004 A 
ATOM      5  C6  UNL d   1      -1.060   0.056   3.999  0.00  0.00     0.002 A 
ATOM      6  C7  UNL d   1       0.149  -0.640   3.981  0.00  0.00     0.002 A 
ENDROOT
BRANCH   1   7
ATOM      7  C1  UNL d   1       1.817  -2.155   2.845  0.00  0.00     0.055 C 
ATOM      8  C   UNL d   1       1.939  -3.164   3.978  0.00  0.00     0.019 C 
ENDBRANCH   1   7
TORSDOF 1
ENDMDL
