MODEL 1
REMARK minimizedAffinity 11.5601168
REMARK minimizedRMSD -1
REMARK  1 active torsions:
REMARK  status: ('A' for Active; 'I' for Inactive)
REMARK    1  A    between atoms: C1_2  and  C2_3 
ROOT
ATOM      1  C2  UNL d   1      -3.386   1.306   3.874  0.00  0.00    -0.077 A 
ATOM      2  C3  UNL d   1      -3.152   0.909   2.550  0.00  0.00     0.002 A 
ATOM      3  C4  UNL d   1      -2.071   0.081   2.242  0.00  0.00     0.002 A 
ATOM      4  C5  UNL d   1      -1.219  -0.360   3.252  0.00  0.00    -0.004 A 
ATOM      5  C6  UNL d   1      -1.442   0.031   4.572  0.00  0.00     0.002 A 
ATOM      6  C7  UNL d   1      -2.521   0.859   4.882  0.00  0.00     0.002 A 
ENDROOT
BRANCH   1   7
ATOM      7  C1  UNL d   1      -4.580   2.159   4.215  0.00  0.00     0.055 C 
ATOM      8  C   UNL d   1      -5.778   1.808   3.345  0.00  0.00     0.019 C 
ENDBRANCH   1   7
TORSDOF 1
ENDMDL
