MODEL 1
REMARK minimizedAffinity 3.74799705
REMARK minimizedRMSD -1
REMARK  1 active torsions:
REMARK  status: ('A' for Active; 'I' for Inactive)
REMARK    1  A    between atoms: C1_2  and  C2_3 
ROOT
ATOM      1  C2  UNL d   1      -3.532   5.908  -3.885  0.00  0.00    -0.077 A 
ATOM      2  C3  UNL d   1      -4.895   5.998  -3.570  0.00  0.00     0.002 A 
ATOM      3  C4  UNL d   1      -5.316   5.958  -2.239  0.00  0.00     0.002 A 
ATOM      4  C5  UNL d   1      -4.381   5.833  -1.214  0.00  0.00    -0.004 A 
ATOM      5  C6  UNL d   1      -3.024   5.741  -1.517  0.00  0.00     0.002 A 
ATOM      6  C7  UNL d   1      -2.601   5.779  -2.847  0.00  0.00     0.002 A 
ENDROOT
BRANCH   1   7
ATOM      7  C1  UNL d   1      -3.072   6.000  -5.316  0.00  0.00     0.055 C 
ATOM      8  C   UNL d   1      -1.602   5.628  -5.450  0.00  0.00     0.019 C 
ENDBRANCH   1   7
TORSDOF 1
ENDMDL
