MODEL 1
REMARK minimizedAffinity 10.9225664
REMARK minimizedRMSD -1
REMARK  1 active torsions:
REMARK  status: ('A' for Active; 'I' for Inactive)
REMARK    1  A    between atoms: C1_2  and  C2_3 
ROOT
ATOM      1  C2  UNL d   1      -3.949   0.482   1.233  0.00  0.00    -0.077 A 
ATOM      2  C3  UNL d   1      -3.319   1.306   2.176  0.00  0.00     0.002 A 
ATOM      3  C4  UNL d   1      -2.054   0.978   2.668  0.00  0.00     0.002 A 
ATOM      4  C5  UNL d   1      -1.407  -0.171   2.219  0.00  0.00    -0.004 A 
ATOM      5  C6  UNL d   1      -2.025  -0.998   1.282  0.00  0.00     0.002 A 
ATOM      6  C7  UNL d   1      -3.290  -0.672   0.791  0.00  0.00     0.002 A 
ENDROOT
BRANCH   1   7
ATOM      7  C1  UNL d   1      -5.292   0.860   0.665  0.00  0.00     0.055 C 
ATOM      8  C   UNL d   1      -5.147   1.572  -0.672  0.00  0.00     0.019 C 
ENDBRANCH   1   7
TORSDOF 1
ENDMDL
