MODEL 1
REMARK minimizedAffinity 15.9495602
REMARK minimizedRMSD -1
REMARK  1 active torsions:
REMARK  status: ('A' for Active; 'I' for Inactive)
REMARK    1  A    between atoms: C1_2  and  C2_3 
ROOT
ATOM      1  C2  UNL d   1       3.700   3.693  -3.530  0.00  0.00    -0.077 A 
ATOM      2  C3  UNL d   1       4.357   3.668  -4.768  0.00  0.00     0.002 A 
ATOM      3  C4  UNL d   1       5.501   4.441  -4.977  0.00  0.00     0.002 A 
ATOM      4  C5  UNL d   1       5.999   5.242  -3.952  0.00  0.00    -0.004 A 
ATOM      5  C6  UNL d   1       5.352   5.276  -2.718  0.00  0.00     0.002 A 
ATOM      6  C7  UNL d   1       4.208   4.505  -2.507  0.00  0.00     0.002 A 
ENDROOT
BRANCH   1   7
ATOM      7  C1  UNL d   1       2.495   2.822  -3.287  0.00  0.00     0.055 C 
ATOM      8  C   UNL d   1       2.746   1.834  -2.157  0.00  0.00     0.019 C 
ENDBRANCH   1   7
TORSDOF 1
ENDMDL
