MODEL 1
REMARK minimizedAffinity 2.64509249
REMARK minimizedRMSD -1
REMARK  1 active torsions:
REMARK  status: ('A' for Active; 'I' for Inactive)
REMARK    1  A    between atoms: C1_2  and  C2_3 
ROOT
ATOM      1  C2  UNL d   1      -4.952  -4.127   3.609  0.00  0.00    -0.077 A 
ATOM      2  C3  UNL d   1      -5.517  -5.410   3.575  0.00  0.00     0.002 A 
ATOM      3  C4  UNL d   1      -6.000  -6.000   4.745  0.00  0.00     0.002 A 
ATOM      4  C5  UNL d   1      -5.926  -5.314   5.955  0.00  0.00    -0.004 A 
ATOM      5  C6  UNL d   1      -5.364  -4.039   6.000  0.00  0.00     0.002 A 
ATOM      6  C7  UNL d   1      -4.880  -3.448   4.832  0.00  0.00     0.002 A 
ENDROOT
BRANCH   1   7
ATOM      7  C1  UNL d   1      -4.476  -3.469   2.341  0.00  0.00     0.055 C 
ATOM      8  C   UNL d   1      -3.561  -2.290   2.639  0.00  0.00     0.019 C 
ENDBRANCH   1   7
TORSDOF 1
ENDMDL
