MODEL 1
REMARK minimizedAffinity 10.6184959
REMARK minimizedRMSD -1
REMARK  1 active torsions:
REMARK  status: ('A' for Active; 'I' for Inactive)
REMARK    1  A    between atoms: C1_2  and  C2_3 
ROOT
ATOM      1  C2  UNL d   1      -3.500   0.293   1.832  0.00  0.00    -0.077 A 
ATOM      2  C3  UNL d   1      -2.672  -0.709   1.307  0.00  0.00     0.002 A 
ATOM      3  C4  UNL d   1      -1.556  -1.149   2.021  0.00  0.00     0.002 A 
ATOM      4  C5  UNL d   1      -1.261  -0.597   3.266  0.00  0.00    -0.004 A 
ATOM      5  C6  UNL d   1      -2.078   0.402   3.795  0.00  0.00     0.002 A 
ATOM      6  C7  UNL d   1      -3.193   0.844   3.082  0.00  0.00     0.002 A 
ENDROOT
BRANCH   1   7
ATOM      7  C1  UNL d   1      -4.732   0.735   1.085  0.00  0.00     0.055 C 
ATOM      8  C   UNL d   1      -6.000   0.356   1.835  0.00  0.00     0.019 C 
ENDBRANCH   1   7
TORSDOF 1
ENDMDL
