MODEL 1
REMARK minimizedAffinity 8.43030739
REMARK minimizedRMSD -1
REMARK  1 active torsions:
REMARK  status: ('A' for Active; 'I' for Inactive)
REMARK    1  A    between atoms: C1_2  and  C2_3 
ROOT
ATOM      1  C2  UNL d   1      -2.117  -2.214   1.198  0.00  0.00    -0.077 A 
ATOM      2  C3  UNL d   1      -2.911  -1.266   0.538  0.00  0.00     0.002 A 
ATOM      3  C4  UNL d   1      -4.238  -1.557   0.216  0.00  0.00     0.002 A 
ATOM      4  C5  UNL d   1      -4.783  -2.795   0.552  0.00  0.00    -0.004 A 
ATOM      5  C6  UNL d   1      -4.001  -3.745   1.207  0.00  0.00     0.002 A 
ATOM      6  C7  UNL d   1      -2.674  -3.456   1.529  0.00  0.00     0.002 A 
ENDROOT
BRANCH   1   7
ATOM      7  C1  UNL d   1      -0.701  -1.883   1.591  0.00  0.00     0.055 C 
ATOM      8  C   UNL d   1      -0.608  -0.495   2.207  0.00  0.00     0.019 C 
ENDBRANCH   1   7
TORSDOF 1
ENDMDL
