MODEL 1
REMARK minimizedAffinity 9.17095661
REMARK minimizedRMSD -1
REMARK  1 active torsions:
REMARK  status: ('A' for Active; 'I' for Inactive)
REMARK    1  A    between atoms: C1_2  and  C2_3 
ROOT
ATOM      1  C2  UNL d   1       2.876   3.961  -3.077  0.00  0.00    -0.077 A 
ATOM      2  C3  UNL d   1       3.993   4.650  -2.582  0.00  0.00     0.002 A 
ATOM      3  C4  UNL d   1       5.211   4.602  -3.263  0.00  0.00     0.002 A 
ATOM      4  C5  UNL d   1       5.322   3.871  -4.444  0.00  0.00    -0.004 A 
ATOM      5  C6  UNL d   1       4.218   3.182  -4.943  0.00  0.00     0.002 A 
ATOM      6  C7  UNL d   1       3.000   3.227  -4.263  0.00  0.00     0.002 A 
ENDROOT
BRANCH   1   7
ATOM      7  C1  UNL d   1       1.549   4.052  -2.370  0.00  0.00     0.055 C 
ATOM      8  C   UNL d   1       0.991   5.467  -2.419  0.00  0.00     0.019 C 
ENDBRANCH   1   7
TORSDOF 1
ENDMDL
