MODEL 1
REMARK minimizedAffinity 9.40934372
REMARK minimizedRMSD -1
REMARK  1 active torsions:
REMARK  status: ('A' for Active; 'I' for Inactive)
REMARK    1  A    between atoms: N_2  and  C1_3 
ROOT
ATOM      1  C1  UNL d   1       3.804   0.537  -4.439  0.00  0.00     0.143 A 
ATOM      2  C2  UNL d   1       4.924   0.660  -3.610  0.00  0.00    -0.057 A 
ATOM      3  C3  UNL d   1       5.993   1.497  -3.953  0.00  0.00     0.033 A 
ATOM      4  C4  UNL d   1       5.971   2.207  -5.149  0.00  0.00    -0.042 A 
ATOM      5  C5  UNL d   1       4.879   2.082  -6.000  0.00  0.00     0.033 A 
ATOM      6  C6  UNL d   1       3.812   1.249  -5.649  0.00  0.00    -0.057 A 
ENDROOT
BRANCH   1   7
ATOM      7  N   UNL d   1       2.754  -0.354  -4.201  0.00  0.00    -0.732 N 
ATOM      8  C   UNL d   1       2.307  -0.623  -2.851  0.00  0.00     0.284 C 
ATOM      9  H3  UNL d   1       2.000  -0.256  -4.877  0.00  0.00     0.395 HD
ENDBRANCH   1   7
TORSDOF 1
ENDMDL
