MODEL 1
REMARK minimizedAffinity 6.99269199
REMARK minimizedRMSD -1
REMARK  1 active torsions:
REMARK  status: ('A' for Active; 'I' for Inactive)
REMARK    1  A    between atoms: N_2  and  C1_3 
ROOT
ATOM      1  C1  UNL d   1      -0.729  -2.200  -4.414  0.00  0.00     0.143 A 
ATOM      2  C2  UNL d   1      -1.446  -3.313  -4.866  0.00  0.00    -0.057 A 
ATOM      3  C3  UNL d   1      -2.728  -3.596  -4.380  0.00  0.00     0.033 A 
ATOM      4  C4  UNL d   1      -3.306  -2.784  -3.410  0.00  0.00    -0.042 A 
ATOM      5  C5  UNL d   1      -2.602  -1.687  -2.928  0.00  0.00     0.033 A 
ATOM      6  C6  UNL d   1      -1.324  -1.405  -3.422  0.00  0.00    -0.057 A 
ENDROOT
BRANCH   1   7
ATOM      7  N   UNL d   1       0.589  -1.920  -4.785  0.00  0.00    -0.732 N 
ATOM      8  C   UNL d   1       1.541  -1.431  -3.811  0.00  0.00     0.284 C 
ATOM      9  H3  UNL d   1       0.968  -2.615  -5.425  0.00  0.00     0.395 HD
ENDBRANCH   1   7
TORSDOF 1
ENDMDL
