MODEL 1
REMARK minimizedAffinity 9.35562897
REMARK minimizedRMSD -1
REMARK  1 active torsions:
REMARK  status: ('A' for Active; 'I' for Inactive)
REMARK    1  A    between atoms: N_2  and  C1_3 
ROOT
ATOM      1  C1  UNL d   1       0.407   0.898   1.868  0.00  0.00     0.143 A 
ATOM      2  C2  UNL d   1       0.498   0.009   0.792  0.00  0.00    -0.057 A 
ATOM      3  C3  UNL d   1      -0.219  -1.194   0.781  0.00  0.00     0.033 A 
ATOM      4  C4  UNL d   1      -1.020  -1.543   1.864  0.00  0.00    -0.042 A 
ATOM      5  C5  UNL d   1      -1.107  -0.686   2.955  0.00  0.00     0.033 A 
ATOM      6  C6  UNL d   1      -0.393   0.517   2.957  0.00  0.00    -0.057 A 
ENDROOT
BRANCH   1   7
ATOM      7  N   UNL d   1       1.170   2.062   1.981  0.00  0.00    -0.732 N 
ATOM      8  C   UNL d   1       2.583   1.990   2.289  0.00  0.00     0.284 C 
ATOM      9  H3  UNL d   1       0.934   2.753   1.273  0.00  0.00     0.395 HD
ENDBRANCH   1   7
TORSDOF 1
ENDMDL
