MODEL 1
REMARK minimizedAffinity 4.37099028
REMARK minimizedRMSD -1
REMARK  1 active torsions:
REMARK  status: ('A' for Active; 'I' for Inactive)
REMARK    1  A    between atoms: N_2  and  C1_3 
ROOT
ATOM      1  C1  UNL d   1      -0.213  -5.935   3.061  0.00  0.00     0.143 A 
ATOM      2  C2  UNL d   1      -0.548  -5.812   1.708  0.00  0.00    -0.057 A 
ATOM      3  C3  UNL d   1       0.438  -5.791   0.714  0.00  0.00     0.033 A 
ATOM      4  C4  UNL d   1       1.783  -5.864   1.060  0.00  0.00    -0.042 A 
ATOM      5  C5  UNL d   1       2.141  -5.961   2.399  0.00  0.00     0.033 A 
ATOM      6  C6  UNL d   1       1.152  -5.989   3.387  0.00  0.00    -0.057 A 
ENDROOT
BRANCH   1   7
ATOM      7  N   UNL d   1      -1.141  -5.863   4.102  0.00  0.00    -0.732 N 
ATOM      8  C   UNL d   1      -0.701  -5.791   5.479  0.00  0.00     0.284 C 
ATOM      9  H3  UNL d   1      -1.923  -5.251   3.883  0.00  0.00     0.395 HD
ENDBRANCH   1   7
TORSDOF 1
ENDMDL
