MODEL 1
REMARK minimizedAffinity 4.89342833
REMARK minimizedRMSD -1
REMARK  1 active torsions:
REMARK  status: ('A' for Active; 'I' for Inactive)
REMARK    1  A    between atoms: N_2  and  C1_3 
ROOT
ATOM      1  C1  UNL d   1       0.012  -2.185  -3.571  0.00  0.00     0.143 A 
ATOM      2  C2  UNL d   1      -0.741  -3.303  -3.945  0.00  0.00    -0.057 A 
ATOM      3  C3  UNL d   1      -2.078  -3.442  -3.554  0.00  0.00     0.033 A 
ATOM      4  C4  UNL d   1      -2.679  -2.476  -2.754  0.00  0.00    -0.042 A 
ATOM      5  C5  UNL d   1      -1.942  -1.368  -2.349  0.00  0.00     0.033 A 
ATOM      6  C6  UNL d   1      -0.609  -1.232  -2.749  0.00  0.00    -0.057 A 
ENDROOT
BRANCH   1   7
ATOM      7  N   UNL d   1       1.374  -2.036  -3.846  0.00  0.00    -0.732 N 
ATOM      8  C   UNL d   1       2.204  -1.187  -3.020  0.00  0.00     0.284 C 
ATOM      9  H3  UNL d   1       1.814  -2.914  -4.114  0.00  0.00     0.395 HD
ENDBRANCH   1   7
TORSDOF 1
ENDMDL
