MODEL 1
REMARK minimizedAffinity 0.532635331
REMARK minimizedRMSD -1
REMARK  1 active torsions:
REMARK  status: ('A' for Active; 'I' for Inactive)
REMARK    1  A    between atoms: N_2  and  C1_3 
ROOT
ATOM      1  C1  UNL d   1      -0.193  -1.838  -4.063  0.00  0.00     0.143 A 
ATOM      2  C2  UNL d   1      -0.818  -3.090  -4.071  0.00  0.00    -0.057 A 
ATOM      3  C3  UNL d   1      -2.182  -3.222  -3.784  0.00  0.00     0.033 A 
ATOM      4  C4  UNL d   1      -2.941  -2.104  -3.454  0.00  0.00    -0.042 A 
ATOM      5  C5  UNL d   1      -2.336  -0.853  -3.415  0.00  0.00     0.033 A 
ATOM      6  C6  UNL d   1      -0.975  -0.727  -3.709  0.00  0.00    -0.057 A 
ENDROOT
BRANCH   1   7
ATOM      7  N   UNL d   1       1.180  -1.653  -4.243  0.00  0.00    -0.732 N 
ATOM      8  C   UNL d   1       1.932  -0.801  -3.347  0.00  0.00     0.284 C 
ATOM      9  H3  UNL d   1       1.658  -2.514  -4.497  0.00  0.00     0.395 HD
ENDBRANCH   1   7
TORSDOF 1
ENDMDL
